#------------------------------------------------------------------------------
#$Date: 2022-09-02 01:34:03 +0300 (Fri, 02 Sep 2022) $
#$Revision: 277564 $
#$URL: file:///home/coder/svn-repositories/cod/cif/7/24/54/7245413.cif $
#------------------------------------------------------------------------------
#
# This file is available in the Crystallography Open Database (COD),
# http://www.crystallography.net/
#
# All data on this site have been placed in the public domain by the
# contributors.
#
data_7245413
loop_
_publ_author_name
'Gao, Jiaoyang'
'Guo, Jinjia'
'Chen, Yi'
'Deng, Shunlan'
'Lu, Qidong'
'Ren, Yuxin'
'Wang, Xiaoming'
'Fan, Haibo'
'Teng, Feng'
'He, Xuexia'
'Jiang, Hui'
'Hu, Peng'
_publ_section_title
;
 The competitive role of C--H&#x22EF;X (X = F, O) and \p--\p interactions
 in contributing to the degree of charge transfer in organic cocrystals: a
 case study of heteroatom-free donors with p-fluoranil (FA)
;
_journal_name_full               CrystEngComm
_journal_paper_doi               10.1039/D2CE00925K
_journal_year                    2022
_chemical_formula_moiety         'C3 F2 O, C8 H5'
_chemical_formula_sum            'C11 H5 F2 O'
_chemical_formula_weight         191.15
_chemical_name_systematic        pyrene-TFBQ
_space_group_crystal_system      monoclinic
_space_group_IT_number           14
_space_group_name_Hall           '-P 2yn'
_space_group_name_H-M_alt        'P 1 21/n 1'
_atom_sites_solution_hydrogens   geom
_atom_sites_solution_primary     dual
_audit_creation_date             2021-09-14
_audit_creation_method
;
Olex2 1.5
(compiled 2021.07.19 svn.r715e62df for OlexSys, GUI svn.r6383)
;
_audit_update_record
;
2021-12-17 deposited with the CCDC.	2022-08-18 downloaded from the CCDC.
;
_cell_angle_alpha                90
_cell_angle_beta                 94.8470(10)
_cell_angle_gamma                90
_cell_formula_units_Z            4
_cell_length_a                   7.78250(10)
_cell_length_b                   6.93350(10)
_cell_length_c                   14.69280(10)
_cell_measurement_reflns_used    9400
_cell_measurement_temperature    150.00(10)
_cell_measurement_theta_max      76.6670
_cell_measurement_theta_min      6.0340
_cell_volume                     789.988(16)
_computing_cell_refinement       'CrysAlisPro 1.171.41.93a (Rigaku OD, 2020)'
_computing_data_collection       'CrysAlisPro 1.171.41.93a (Rigaku OD, 2020)'
_computing_data_reduction        'CrysAlisPro 1.171.41.93a (Rigaku OD, 2020)'
_computing_molecular_graphics    'Olex2 1.5 (Dolomanov et al., 2009)'
_computing_publication_material  'Olex2 1.5 (Dolomanov et al., 2009)'
_computing_structure_refinement  'SHELXL 2018/3 (Sheldrick, 2015)'
_computing_structure_solution    'SHELXT 2014/5 (Sheldrick, 2014)'
_diffrn_ambient_environment      N~2~
_diffrn_ambient_temperature      150.00(10)
_diffrn_detector                 'Hybrid Pixel Array Detector'
_diffrn_detector_area_resol_mean 10.0000
_diffrn_detector_type            HyPix
_diffrn_measured_fraction_theta_full 1.000
_diffrn_measured_fraction_theta_max 1.000
_diffrn_measurement_details
;
List of Runs (angles in degrees, time in seconds):

  # Type    Start    End  Width  t~exp~   \w     \q     \k     \f   Frames
#--------------------------------------------------------------------------
  1  \w     32.00 119.00   0.50    0.08    --   46.93  54.00  -4.00  174
  2  \w     91.00 178.00   0.50    0.30    --  108.75  61.00  60.00  174
  3  \w     94.00 178.00   0.50    0.30    --  108.75  45.00  90.00  168
  4  \w     92.00 178.00   0.50    0.30    --  108.75  54.00  -4.00  172
  5  \w     91.00 178.00   0.50    0.30    --  108.75  61.00 -90.00  174
  6  \w     23.00 119.00   0.50    0.08    --   46.93  77.00 -90.00  192
  7  \w    -23.00  29.00   0.50    0.08    --  -46.93  19.00 150.00  104
  8  \w    -68.00 -26.00   0.50    0.30    --  -99.00  61.00 120.00   84
  9  \w    -68.00 -26.00   0.50    0.30    --  -99.00  61.00  90.00   84
 10  \w    -58.00 -26.00   0.50    0.30    --  -99.00  54.00  -4.00   64
 11  \w    -68.00 -26.00   0.50    0.30    --  -99.00  61.00-180.00   84
 12  \w    -58.00  26.00   0.50    0.08    --  -46.93  54.00  -4.00  168
 13  \w   -121.00 -32.00   0.50    0.08    --  -46.93 -37.00  60.00  178
 14  \w   -119.00 -31.00   0.50    0.08    --  -46.93 -57.00 150.00  176
 15  \w   -172.00 -75.00   0.50    0.30    --  -99.00 -77.00 120.00  194
 16  \w   -172.00 -81.00   0.50    0.30    --  -99.00 -61.00 120.00  182
 17  \w   -172.00 -81.00   0.50    0.30    --  -99.00 -61.00  30.00  182
 18  \w   -172.00 -81.00   0.50    0.30    --  -99.00 -61.00  60.00  182
 19  \w   -171.00 -84.00   0.50    0.30    --  -99.00 -45.00 150.00  174
 20  \w   -171.00 -84.00   0.50    0.30    --  -99.00 -45.00 120.00  174
 21  \w   -171.00 -84.00   0.50    0.30    --  -99.00 -45.00  90.00  174
 22  \w   -171.00 -84.00   0.50    0.30    --  -99.00 -45.00  60.00  174
 23  \w   -174.00 -83.00   0.50    0.30    --  -99.00 -30.00  60.00  182
 24  \w   -174.00 -81.00   0.50    0.30    --  -99.00 -15.00  90.00  186
 25  \w   -172.00 -82.00   0.50    0.30    --  -99.00 -54.00-147.00  180
 26  \w   -119.00 -31.00   0.50    0.08    --  -46.93 -54.00-147.00  176
 27  \w    -28.00  30.00   0.50    0.08    --   46.93 -19.00-150.00  116
 28  \w     36.00  75.00   0.50    0.30    --  108.75 -61.00 -90.00   78
 29  \w     36.00 109.00   0.50    0.30    --  108.75 -77.00 -90.00  146
 30  \w     36.00  75.00   0.50    0.30    --  108.75 -61.00 -60.00   78
 31  \w     36.00  75.00   0.50    0.30    --  108.75 -61.00 -30.00   78
 32  \w     36.00  65.00   0.50    0.30    --  108.75 -54.00-147.00   58
 33  \w    -25.00  62.00   0.50    0.08    --   46.93 -54.00-147.00  174
 34  \w     36.00  75.00   0.50    0.30    --  108.75 -61.00  60.00   78
 35  \w     36.00  75.00   0.50    0.30    --  108.75 -61.00 150.00   78
 36  \w     36.00  75.00   0.50    0.30    --  108.75 -61.00  90.00   78
 37  \w     36.00 106.00   0.50    0.30    --  108.75 -94.00  30.00  140
 38  \w     36.00 112.00   0.50    0.30    --  108.75-125.00 -90.00  152
 39  \w     36.00 112.00   0.50    0.30    --  108.75-125.00-120.00  152
 40  \w     36.00 106.00   0.50    0.30    --  108.75 -94.00 -60.00  140
;
_diffrn_measurement_device       'four-circle diffractometer'
_diffrn_measurement_device_type  'XtaLAB Synergy R, HyPix'
_diffrn_measurement_method       '\w scans'
_diffrn_orient_matrix_type
'CrysAlisPro convention (1999,Acta A55,543-557)'
_diffrn_orient_matrix_UB_11      0.1673233000
_diffrn_orient_matrix_UB_12      -0.0349027000
_diffrn_orient_matrix_UB_13      -0.0465913000
_diffrn_orient_matrix_UB_21      -0.0622981000
_diffrn_orient_matrix_UB_22      0.1411926000
_diffrn_orient_matrix_UB_23      -0.0767512000
_diffrn_orient_matrix_UB_31      0.0871143000
_diffrn_orient_matrix_UB_32      0.1680213000
_diffrn_orient_matrix_UB_33      0.0548411000
_diffrn_radiation_monochromator  mirror
_diffrn_radiation_probe          x-ray
_diffrn_radiation_type           'Cu K\a'
_diffrn_radiation_wavelength     1.54184
_diffrn_reflns_av_R_equivalents  0.0225
_diffrn_reflns_av_unetI/netI     0.0115
_diffrn_reflns_Laue_measured_fraction_full 1.000
_diffrn_reflns_Laue_measured_fraction_max 1.000
_diffrn_reflns_limit_h_max       9
_diffrn_reflns_limit_h_min       -9
_diffrn_reflns_limit_k_max       8
_diffrn_reflns_limit_k_min       -8
_diffrn_reflns_limit_l_max       17
_diffrn_reflns_limit_l_min       -17
_diffrn_reflns_number            14174
_diffrn_reflns_point_group_measured_fraction_full 1.000
_diffrn_reflns_point_group_measured_fraction_max 1.000
_diffrn_reflns_theta_full        66.572
_diffrn_reflns_theta_max         66.572
_diffrn_reflns_theta_min         6.045
_diffrn_source                   'Rotating-anode X-ray tube'
_diffrn_source_type              'PhotonJet R (Cu) X-ray Source'
_exptl_absorpt_coefficient_mu    1.161
_exptl_absorpt_correction_T_max  1.00000
_exptl_absorpt_correction_T_min  0.89003
_exptl_absorpt_correction_type   multi-scan
_exptl_absorpt_process_details
;
CrysAlisPro 1.171.41.93a (Rigaku Oxford Diffraction, 2020)
Empirical absorption correction using spherical harmonics,
implemented in SCALE3 ABSPACK scaling algorithm.
;
_exptl_crystal_colour            'light brownish black'
_exptl_crystal_colour_lustre     light
_exptl_crystal_colour_modifier   brownish
_exptl_crystal_colour_primary    black
_exptl_crystal_density_diffrn    1.607
_exptl_crystal_description       block
_exptl_crystal_F_000             388
_exptl_crystal_recrystallization_method
'Re-crystallisation from solvent: Benzene'
_exptl_crystal_size_max          0.05
_exptl_crystal_size_mid          0.02
_exptl_crystal_size_min          0.01
_refine_diff_density_max         0.230
_refine_diff_density_min         -0.146
_refine_diff_density_rms         0.038
_refine_ls_extinction_coef       0.0015(5)
_refine_ls_extinction_expression Fc^*^=kFc[1+0.001xFc^2^\l^3^/sin(2\q)]^-1/4^
_refine_ls_extinction_method     'SHELXL-2018/3 (Sheldrick 2018)'
_refine_ls_goodness_of_fit_ref   1.083
_refine_ls_hydrogen_treatment    constr
_refine_ls_matrix_type           full
_refine_ls_number_parameters     128
_refine_ls_number_reflns         1398
_refine_ls_number_restraints     0
_refine_ls_restrained_S_all      1.083
_refine_ls_R_factor_all          0.0299
_refine_ls_R_factor_gt           0.0279
_refine_ls_shift/su_max          0.001
_refine_ls_shift/su_mean         0.000
_refine_ls_structure_factor_coef Fsqd
_refine_ls_weighting_details
'w=1/[\s^2^(Fo^2^)+(0.0452P)^2^+0.2538P] where P=(Fo^2^+2Fc^2^)/3'
_refine_ls_weighting_scheme      calc
_refine_ls_wR_factor_gt          0.0807
_refine_ls_wR_factor_ref         0.0826
_reflns_Friedel_coverage         0.000
_reflns_number_gt                1299
_reflns_number_total             1398
_reflns_threshold_expression     'I > 2\s(I)'
_iucr_refine_instructions_details
;
TITL 4f_pyre_auto_a.res in P2(1)/n
    4f_pyre_auto.res
    created by SHELXL-2018/3 at 15:29:40 on 14-Sep-2021
REM Old TITL 4F_pyre_auto in P2(1)/n
REM SHELXT solution in P2(1)/n
REM R1 0.103, Rweak 0.030, Alpha 0.016, Orientation as input
REM Formula found by SHELXT: C3 F3
CELL 1.54184 7.7825 6.9335 14.6928 90 94.847 90
ZERR 4 0.0001 0.0001 0.0001 0 0.001 0
LATT 1
SYMM 0.5-X,0.5+Y,0.5-Z
SFAC C H F O
UNIT 44 20 8 4

L.S. 4 0 0
PLAN  5
SIZE 0.01 0.02 0.05
TEMP -123
CONF
BOND $H
list 4
MORE -1
fmap 2 53
acta
SHEL 999 0.84
REM <olex2.extras>
REM <HklSrc "%.\\4F_pyre_auto.hkl">
REM </olex2.extras>

WGHT    0.045200    0.253800
EXTI    0.001546
FVAR       0.69881
F1    3    0.522783    0.517886    0.687327    11.00000    0.03291    0.03244 =
         0.01524   -0.00069    0.00092    0.00062
F2    3    0.225741    0.632760    0.588151    11.00000    0.02325    0.03029 =
         0.02785   -0.00102    0.00847    0.00540
O1    4    0.790093    0.393928    0.596096    11.00000    0.02316    0.03091 =
         0.02742    0.00162   -0.00390    0.00422
C8    1    0.434973    0.032517    0.527875    11.00000    0.01910    0.01350 =
         0.02191    0.00024    0.00189   -0.00356
C10   1    0.505606    0.511851    0.596667    11.00000    0.02569    0.01842 =
         0.01691   -0.00033    0.00234   -0.00201
C7    1    0.273196    0.097755    0.486512    11.00000    0.01862    0.01516 =
         0.02884    0.00061    0.00097   -0.00284
C11   1    0.361816    0.566988    0.548639    11.00000    0.02072    0.01757 =
         0.02314   -0.00058    0.00597    0.00002
C3    1    0.466829    0.033645    0.624566    11.00000    0.02552    0.01700 =
         0.02171    0.00064    0.00252   -0.00436
C9    1    0.657963    0.440947    0.552542    11.00000    0.02092    0.01599 =
         0.02369    0.00109    0.00001   -0.00127
C1    1    0.754759   -0.094130    0.611582    11.00000    0.02159    0.02088 =
         0.02914    0.00321   -0.00749   -0.00201
AFIX  43
H1    2    0.862416   -0.136383    0.639948    11.00000   -1.20000
AFIX   0
C2    1    0.631922   -0.032225    0.664343    11.00000    0.03089    0.02300 =
         0.02044    0.00175   -0.00398   -0.00461
AFIX  43
H2    2    0.654851   -0.032133    0.728884    11.00000   -1.20000
AFIX   0
C6    1    0.148878    0.164029    0.542214    11.00000    0.01854    0.02016 =
         0.04017   -0.00059    0.00460   -0.00149
AFIX  43
H6    2    0.041220    0.209420    0.515187    11.00000   -1.20000
AFIX   0
C5    1    0.180714    0.164339    0.636338    11.00000    0.02790    0.02293 =
         0.03860   -0.00292    0.01570   -0.00270
AFIX  43
H5    2    0.094529    0.209457    0.673202    11.00000   -1.20000
AFIX   0
C4    1    0.337340    0.099379    0.677455    11.00000    0.03717    0.02417 =
         0.02260   -0.00150    0.00929   -0.00587
AFIX  43
H4    2    0.356796    0.099562    0.742163    11.00000   -1.20000
AFIX   0
HKLF 4




REM  4f_pyre_auto_a.res in P2(1)/n
REM wR2 = 0.0826, GooF = S = 1.083, Restrained GooF = 1.083 for all data
REM R1 = 0.0279 for 1299 Fo > 4sig(Fo) and 0.0299 for all 1398 data
REM 128 parameters refined using 0 restraints

END  
     
WGHT      0.0452      0.2538 

REM Highest difference peak  0.230,  deepest hole -0.146,  1-sigma level  0.038
Q1    1   0.5000  0.0000  0.5000  10.50000  0.05    0.23
Q2    1   0.5429 -0.0136  0.6435  11.00000  0.05    0.21
Q3    1   0.3573  0.5641  0.4994  11.00000  0.05    0.21
Q4    1   0.3544  0.0833  0.5049  11.00000  0.05    0.20
Q5    1   0.5728  0.4786  0.5706  11.00000  0.05    0.20

  REM The information below was added by Olex2.
  REM
  REM R1 = 0.0279 for 1299 Fo > 4sig(Fo) and 0.0299 for all 15792 data
  REM 128 parameters refined using n/a restraints
  REM Highest difference peak 0.23, deepest hole -0.15
  REM Mean Shift 0, Max Shift 0.001.

  REM +++ Tabular Listing of Refinement Information +++
  REM R1_all = 0.0299
  REM R1_gt = 0.0279
  REM wR_ref = 0.0826
  REM GOOF = 1.083
  REM Shift_max = 0.001
  REM Shift_mean = 0
  REM Reflections_all = 15792
  REM Reflections_gt = 1299
  REM Parameters = 128
  REM Hole = -0.15
  REM Peak = 0.23
  REM Flack = n/a

  
;
_cod_data_source_file            d2ce00925k2.cif
_cod_data_source_block           4f_pyre_auto
_cod_database_code               7245413
_shelx_shelxl_version_number     2018/3
_shelx_space_group_comment
;
The symmetry employed for this shelxl refinement is uniquely defined
by the following loop, which should always be used as a source of
symmetry information in preference to the above space-group names.
They are only intended as comments.
;
_shelx_estimated_absorpt_t_max   0.988
_shelx_estimated_absorpt_t_min   0.944
_olex2_refinement_description
;
1. Fixed Uiso
 At 1.2 times of:
  All C(H) groups
2.a Aromatic/amide H refined with riding coordinates:
 C1(H1), C2(H2), C6(H6), C5(H5), C4(H4)
;
_olex2_submission_special_instructions 'No special instructions were received'
_oxdiff_exptl_absorpt_empirical_details
;
Empirical correction (ABSPACK) includes:
- Absorption correction using spherical harmonics
- Frame scaling
;
_oxdiff_exptl_absorpt_empirical_full_max 1.217
_oxdiff_exptl_absorpt_empirical_full_min 0.869
loop_
_space_group_symop_operation_xyz
'x, y, z'
'-x+1/2, y+1/2, -z+1/2'
'-x, -y, -z'
'x-1/2, -y-1/2, z-1/2'
loop_
_atom_site_label
_atom_site_type_symbol
_atom_site_fract_x
_atom_site_fract_y
_atom_site_fract_z
_atom_site_U_iso_or_equiv
_atom_site_adp_type
_atom_site_occupancy
_atom_site_site_symmetry_order
_atom_site_calc_flag
_atom_site_refinement_flags_posn
_atom_site_refinement_flags_adp
_atom_site_refinement_flags_occupancy
_atom_site_disorder_assembly
_atom_site_disorder_group
F1 F 0.52278(9) 0.51789(10) 0.68733(4) 0.0269(2) Uani 1 1 d . . . . .
F2 F 0.22574(9) 0.63276(10) 0.58815(5) 0.0268(2) Uani 1 1 d . . . . .
O1 O 0.79009(11) 0.39393(13) 0.59610(6) 0.0275(2) Uani 1 1 d . . . . .
C8 C 0.43497(14) 0.03252(15) 0.52788(8) 0.0182(3) Uani 1 1 d . . . . .
C10 C 0.50561(15) 0.51185(16) 0.59667(8) 0.0203(3) Uani 1 1 d . . . . .
C7 C 0.27320(15) 0.09776(16) 0.48651(8) 0.0209(3) Uani 1 1 d . . . . .
C11 C 0.36182(15) 0.56699(17) 0.54864(8) 0.0202(3) Uani 1 1 d . . . . .
C3 C 0.46683(16) 0.03365(16) 0.62457(8) 0.0214(3) Uani 1 1 d . . . . .
C9 C 0.65796(15) 0.44095(16) 0.55254(8) 0.0203(3) Uani 1 1 d . . . . .
C1 C 0.75476(16) -0.09413(17) 0.61158(9) 0.0244(3) Uani 1 1 d . . . . .
H1 H 0.862416 -0.136383 0.639948 0.029 Uiso 1 1 calc R U . . .
C2 C 0.63192(16) -0.03222(18) 0.66434(8) 0.0251(3) Uani 1 1 d . . . . .
H2 H 0.654851 -0.032133 0.728884 0.030 Uiso 1 1 calc R U . . .
C6 C 0.14888(16) 0.16403(17) 0.54221(9) 0.0262(3) Uani 1 1 d . . . . .
H6 H 0.041220 0.209420 0.515187 0.031 Uiso 1 1 calc R U . . .
C5 C 0.18071(17) 0.16434(18) 0.63634(9) 0.0291(3) Uani 1 1 d . . . . .
H5 H 0.094529 0.209457 0.673202 0.035 Uiso 1 1 calc R U . . .
C4 C 0.33734(18) 0.09938(18) 0.67745(8) 0.0276(3) Uani 1 1 d . . . . .
H4 H 0.356796 0.099562 0.742163 0.033 Uiso 1 1 calc R U . . .
loop_
_atom_site_aniso_label
_atom_site_aniso_U_11
_atom_site_aniso_U_22
_atom_site_aniso_U_33
_atom_site_aniso_U_23
_atom_site_aniso_U_13
_atom_site_aniso_U_12
F1 0.0329(4) 0.0324(4) 0.0152(4) -0.0007(3) 0.0009(3) 0.0006(3)
F2 0.0233(4) 0.0303(4) 0.0279(4) -0.0010(3) 0.0085(3) 0.0054(3)
O1 0.0232(5) 0.0309(5) 0.0274(5) 0.0016(4) -0.0039(3) 0.0042(4)
C8 0.0191(6) 0.0135(5) 0.0219(6) 0.0002(4) 0.0019(5) -0.0036(4)
C10 0.0257(6) 0.0184(6) 0.0169(5) -0.0003(4) 0.0023(5) -0.0020(5)
C7 0.0186(6) 0.0152(6) 0.0288(6) 0.0006(5) 0.0010(5) -0.0028(4)
C11 0.0207(6) 0.0176(6) 0.0231(6) -0.0006(5) 0.0060(5) 0.0000(5)
C3 0.0255(6) 0.0170(6) 0.0217(6) 0.0006(5) 0.0025(5) -0.0044(5)
C9 0.0209(6) 0.0160(6) 0.0237(6) 0.0011(5) 0.0000(5) -0.0013(5)
C1 0.0216(6) 0.0209(6) 0.0291(6) 0.0032(5) -0.0075(5) -0.0020(5)
C2 0.0309(7) 0.0230(6) 0.0204(6) 0.0018(5) -0.0040(5) -0.0046(5)
C6 0.0185(6) 0.0202(6) 0.0402(7) -0.0006(5) 0.0046(5) -0.0015(5)
C5 0.0279(7) 0.0229(6) 0.0386(7) -0.0029(5) 0.0157(5) -0.0027(5)
C4 0.0372(7) 0.0242(6) 0.0226(6) -0.0015(5) 0.0093(5) -0.0059(5)
loop_
_atom_type_symbol
_atom_type_description
_atom_type_scat_dispersion_real
_atom_type_scat_dispersion_imag
_atom_type_scat_source
C C 0.0181 0.0091 'International Tables Vol C Tables 4.2.6.8 and 6.1.1.4'
H H 0.0000 0.0000 'International Tables Vol C Tables 4.2.6.8 and 6.1.1.4'
F F 0.0727 0.0534 'International Tables Vol C Tables 4.2.6.8 and 6.1.1.4'
O O 0.0492 0.0322 'International Tables Vol C Tables 4.2.6.8 and 6.1.1.4'
loop_
_diffrn_refln_index_h
_diffrn_refln_index_k
_diffrn_refln_index_l
_diffrn_refln_intensity_net
_diffrn_refln_intensity_u
0 0 -1 0.1 0.11
0 0 1 0.15 0.15
0 0 2 2592.99 61.82
0 0 2 2582.28 61.81
0 0 3 -0.04 0.48
0 0 3 0.03 0.47
0 0 4 1838.57 44.56
0 0 4 1831.96 44.56
0 0 -4 1864.65 44.58
0 0 5 -0.13 0.64
0 0 5 0.44 0.62
0 0 -5 -0.06 0.68
0 0 5 -0.12 0.65
0 0 6 0.56 0.72
0 0 6 0.31 0.7
0 0 -6 0.64 0.74
0 0 6 0.9 0.71
0 0 7 -0.09 0.71
0 0 -7 0.69 0.89
0 0 7 -0.48 0.8
0 0 7 -0.2 0.78
0 0 -7 0.65 0.81
0 0 8 161.64 5.31
0 0 -8 153.61 5.32
0 0 8 163.38 5.37
0 0 8 159.45 5.4
0 0 -8 169.27 5.38
0 0 9 -0.14 0.9
0 0 9 -0.4 0.76
0 0 9 0.49 0.51
0 0 9 0.31 0.49
0 0 9 0.12 0.45
0 0 -9 -0.14 0.89
0 0 9 0.26 0.74
0 0 9 0.09 0.46
0 0 -9 0.13 0.83
0 0 -10 180.98 6.08
0 0 10 172.67 4.61
0 0 10 168.29 4.67
0 0 10 164.56 6.03
0 0 10 166.49 4.74
0 0 -10 160.62 5.95
0 0 10 174.39 5.91
0 0 10 165.76 4.66
0 0 10 169.91 4.73
0 0 10 165.76 4.6
0 0 10 168.13 4.63
0 0 10 167.04 4.58
0 0 10 168.4 4.75
0 0 11 0.57 0.53
0 0 11 0.84 0.48
0 0 11 0.65 0.58
0 0 11 1.14 0.92
0 0 11 1.57 0.68
0 0 11 0.59 0.63
0 0 -11 2.82 1.07
0 0 11 0.05 0.54
0 0 11 1.02 0.9
0 0 11 -0.06 0.59
0 0 11 0.19 0.47
0 0 11 0.2 0.46
0 0 -11 0.53 0.95
0 0 12 10.31 0.82
0 0 12 8.69 0.99
0 0 12 8.42 0.73
0 0 12 8.86 1.55
0 0 12 9.96 0.97
0 0 12 11.01 0.88
0 0 12 10.42 1.51
0 0 -12 10.64 1.66
0 0 12 8.81 0.79
0 0 12 9.56 0.94
0 0 12 14.88 0.88
0 0 -12 10.88 1.52
0 0 13 -0.06 0.56
0 0 13 0.32 0.51
0 0 13 0.91 1.03
0 0 13 -0.14 0.74
0 0 13 0.98 0.68
0 0 -13 0.22 1.09
0 0 13 -0.2 0.89
0 0 13 0.06 0.58
0 0 13 0.81 0.7
0 0 13 -0.1 0.43
0 0 13 -0.16 0.47
0 0 -13 0.61 1.06
0 0 14 317.22 8.27
0 0 14 314.42 8.47
0 0 14 319.04 8.24
0 0 14 300.38 8.24
0 0 14 321 8.44
0 0 14 312.37 8.5
0 0 15 0.24 0.53
0 0 15 0.33 0.73
0 0 15 0.58 0.72
0 0 15 0.12 0.62
0 0 15 -0.41 0.56
0 0 16 0.95 0.6
0 0 16 1.47 0.64
0 0 16 2.04 0.59
0 0 16 1.87 0.48
0 0 -17 0.07 0.43
0 0 17 -0.15 0.46
0 0 17 -0.14 0.36
0 0 -18 0.33 0.31
0 0 18 0.26 0.2
0 0 18 0.83 0.34
0 -1 0 -0.09 0.2
0 -1 0 0.1 0.25
0 1 0 -0.08 0.33
0 1 0 0.12 0.31
0 1 -1 0.01 0.22
0 -1 -1 -0.02 0.18
0 -1 1 0.26 0.31
0 -1 1 0.18 0.28
0 -1 1 -0.06 0.38
0 1 -1 0.21 0.36
0 -1 1 0.28 0.21
0 1 1 0.27 0.2
0 1 -2 113.56 3.08
0 -1 2 115.29 3.22
0 -1 -2 113.44 3.07
0 1 -2 115.65 3.23
0 1 -2 115.85 3.13
0 1 2 115 3.08
0 -1 2 113.07 3.08
0 -1 3 19.25 1.1
0 1 -3 20.11 0.98
0 -1 -3 19.51 0.98
0 -1 3 21.31 1.02
0 1 3 21.45 1.01
0 1 -3 20.99 1.09
0 1 -3 21.6 1.02
0 -1 -4 32.58 1.39
0 -1 4 31.28 1.49
0 1 -4 31.39 1.4
0 -1 4 26.36 1.42
0 1 4 30.65 1.39
0 -1 4 30.62 1.42
0 1 -4 30.33 1.42
0 1 -4 32.71 1.38
0 -1 5 750.4 18.39
0 -1 -5 744.57 18.26
0 1 -5 723.72 18.26
0 -1 5 706.31 18.38
0 1 5 719.86 18.26
0 -1 5 722.61 18.26
0 1 -5 743.26 18.23
0 1 -5 714.98 18.19
0 -1 -6 6.53 0.93
0 1 -6 9.12 1.02
0 1 6 7.08 0.85
0 -1 6 9.01 1.08
0 1 6 7.04 0.91
0 -1 6 8.88 0.96
0 1 -6 7.8 0.97
0 1 -7 2695.13 64.72
0 -1 -7 2636.43 64.68
0 1 7 2668.49 64.41
0 -1 7 2627.02 64.81
0 1 7 2694.39 64.74
0 -1 7 2683.87 64.72
0 1 -7 2625.48 64.55
0 1 -8 159.74 5.26
0 -1 -8 149.98 5.2
0 1 8 159.52 4.96
0 -1 8 153.15 5.31
0 1 8 156.54 5.25
0 -1 8 153.2 5.21
0 1 -8 149.51 5.08
0 -1 9 38.71 1.51
0 -1 9 41.29 1.45
0 1 9 40.22 2.33
0 -1 9 44.5 2.48
0 -1 9 38.82 1.51
0 -1 9 37.52 2.33
0 1 9 38.65 1.56
0 1 -9 37.95 2.32
0 1 9 38.6 2.1
0 -1 9 38.28 1.5
0 -1 9 41.32 2.42
0 -1 -9 39.64 2.34
0 -1 9 36.13 1.47
0 -1 9 40.01 1.54
0 -1 9 40.09 1.55
0 1 9 37.95 1.5
0 -1 9 38.97 1.46
0 1 9 36.27 1.54
0 1 -9 35.69 2.16
0 -1 -10 19.03 1.83
0 1 -10 20.15 1.74
0 1 10 20.26 1.02
0 -1 10 21.75 1.01
0 -1 10 21.39 1.03
0 1 10 19.13 1.02
0 1 10 19.75 1.08
0 1 10 21.67 1.85
0 -1 10 22.41 1.9
0 1 10 20.3 1.16
0 -1 10 20.72 1.14
0 -1 10 19.26 1.81
0 -1 -10 22.85 1.86
0 1 10 19.19 0.99
0 -1 10 21.95 1.13
0 1 -10 22.5 1.87
0 1 10 20.96 1.63
0 -1 10 22.41 1.91
0 -1 10 19.79 1.07
0 -1 10 20.95 1.17
0 -1 10 21.94 1.07
0 1 10 19.82 0.97
0 1 10 21.65 1.13
0 -1 10 20.89 1.14
0 -1 10 19.67 1
0 1 10 18.38 0.97
0 -1 10 21.09 1.15
0 1 -11 304.73 9.52
0 -1 -11 329.22 9.94
0 -1 11 307.31 8.03
0 1 11 306.58 8.03
0 -1 11 313.27 8
0 1 11 308.89 7.94
0 1 11 310.45 8.15
0 1 11 318.6 8.09
0 -1 11 314.87 9.83
0 1 11 313.71 9.82
0 1 11 311.78 8.25
0 -1 11 311.52 8.21
0 -1 11 313.36 9.83
0 1 -11 313.38 9.8
0 -1 11 306.6 8.18
0 -1 11 326.38 9.92
0 1 11 298.41 8
0 1 11 317.11 9.34
0 -1 -11 316.29 9.83
0 -1 11 307.6 8.15
0 1 11 301.2 7.97
0 -1 11 317.51 8.24
0 1 11 306.84 8.18
0 -1 11 311.72 8.27
0 -1 11 309.2 8.09
0 -1 11 321.73 8.24
0 1 11 295.22 7.95
0 -1 11 298.36 8
0 -1 -12 6.43 1.48
0 1 -12 8.15 1.46
0 -1 12 8.49 0.81
0 1 12 10.1 0.83
0 -1 12 9.1 0.74
0 1 12 9.2 0.73
0 1 12 8.06 0.78
0 -1 12 6.53 1.42
0 1 12 8.55 0.88
0 1 12 8.2 1.48
0 -1 12 9.93 0.94
0 -1 12 8.1 0.91
0 1 12 9.14 0.94
0 -1 -12 8.07 1.53
0 1 12 9.61 1.32
0 -1 12 8.2 1.43
0 1 -12 8.72 1.54
0 -1 12 8.81 0.92
0 1 12 7.83 0.83
0 -1 12 6.84 0.75
0 -1 12 9.89 0.96
0 -1 12 10.41 1.03
0 -1 12 7.17 0.81
0 -1 12 8.04 0.73
0 1 -13 5.06 1.24
0 -1 -13 4.73 1.34
0 -1 13 4.84 0.62
0 1 13 5.28 0.71
0 -1 13 4.68 0.74
0 1 13 5.66 0.6
0 1 13 6.15 0.72
0 1 13 3.79 1.3
0 -1 13 5.57 1.41
0 1 -13 6.13 1.46
0 -1 13 7.21 0.88
0 -1 -13 6.34 1.43
0 -1 13 6.83 1.46
0 -1 13 5.18 0.62
0 1 13 3.95 0.79
0 -1 13 4.77 0.76
0 -1 13 6.3 0.9
0 -1 13 6.08 0.94
0 -1 13 6.62 0.74
0 1 13 4.92 0.92
0 -1 13 6.55 0.92
0 -1 13 5.3 0.91
0 -1 14 21.73 1.04
0 -1 14 21.43 1.17
0 1 14 21.67 1.2
0 1 14 21.34 1.16
0 -1 14 21.8 1.11
0 -1 14 19.86 1.24
0 1 14 21.22 1.33
0 -1 14 22.78 1.39
0 -1 14 18.84 1.26
0 1 14 21.63 1.23
0 -1 14 18.79 1.11
0 -1 14 22.13 1.37
0 1 15 0.57 0.71
0 -1 15 0.06 0.64
0 -1 15 0.32 0.74
0 -1 15 0.39 0.58
0 -1 15 0.06 0.63
0 1 15 0.2 0.54
0 -1 15 -0.13 0.44
0 1 16 4.59 0.66
0 -1 16 6.61 0.73
0 -1 16 4.9 0.72
0 -1 16 5.9 0.73
0 -1 16 4.62 0.66
0 1 16 4.2 0.61
0 -1 16 4.79 0.51
0 -1 -17 13.14 0.76
0 1 -17 14.07 0.76
0 -1 17 13.78 0.82
0 1 17 13.85 0.73
0 -1 17 11.63 0.6
0 -1 17 14.03 0.79
0 1 17 14.21 0.8
0 1 18 0.3 0.22
0 1 18 0.29 0.28
0 -1 18 0.53 0.3
0 -2 0 6687.23 160.17
0 2 0 6736.69 160.44
0 -2 0 6778.87 160.32
0 -2 1 374.98 9.41
0 -2 1 369.83 9.38
0 -2 1 391.47 9.74
0 -2 -1 378.71 9.48
0 2 -1 379.17 9.55
0 2 -1 373.17 9.63
0 2 1 363.96 9.41
0 2 -2 20.29 0.81
0 -2 -2 19.84 0.79
0 -2 2 20.5 1.06
0 -2 2 22.59 1.25
0 -2 2 19.62 0.95
0 2 2 21.19 0.8
0 -2 2 20.21 0.81
0 2 2 20.58 0.88
0 2 -2 20.65 1.06
0 -2 3 28.38 1.42
0 -2 -3 28.16 1.17
0 2 3 28.02 0.85
0 2 -3 29.42 1.2
0 -2 3 28.16 1.5
0 2 3 29.18 1.01
0 2 -3 28.57 1.36
0 -2 3 30.44 1.2
0 2 3 30.71 1.19
0 2 -4 92.17 2.86
0 -2 -4 97.21 2.88
0 -2 4 97.56 3.17
0 2 4 88.13 2.45
0 2 -4 93.9 2.97
0 2 -4 92.66 3.15
0 2 4 93.5 2.84
0 -2 4 92.29 2.85
0 -2 -5 9.35 0.9
0 -2 5 10.36 1.09
0 2 5 8.11 0.61
0 2 -5 9.83 0.93
0 -2 5 10.43 0.92
0 2 5 9.14 0.87
0 2 -5 11.18 0.98
0 2 -5 9.37 1.02
0 -2 -6 69.18 2.68
0 2 -6 68.13 2.67
0 2 6 64.88 2.25
0 -2 6 72.24 2.95
0 -2 6 69.56 2.96
0 -2 6 70.35 2.68
0 2 6 74.26 2.73
0 2 -6 74.37 2.72
0 2 -6 64.57 2.81
0 2 7 203.4 5.8
0 -2 -7 205.98 6.33
0 2 -7 208.98 6.35
0 -2 7 213.62 6.64
0 -2 7 199.34 6.63
0 -2 7 220.41 6.41
0 2 7 212.28 6.35
0 2 -7 211.81 6.31
0 -2 8 133.46 3.68
0 -2 8 132.86 3.67
0 -2 8 120.75 3.6
0 2 8 134.65 4.66
0 -2 8 143.03 4.74
0 -2 8 121 4.84
0 -2 8 129.87 3.68
0 -2 -8 131.47 4.63
0 2 -8 134 4.66
0 -2 8 139.08 4.95
0 2 8 134.09 4.1
0 -2 8 132.31 3.73
0 -2 8 130.22 3.7
0 -2 8 130.17 3.69
0 2 8 122.39 3.66
0 2 -8 135.69 4.54
0 2 -9 2.99 0.9
0 -2 9 1.97 0.54
0 2 9 1.54 0.45
0 2 9 2.22 0.56
0 2 9 2.87 0.94
0 -2 9 2.32 0.93
0 -2 9 3.15 0.58
0 -2 9 1.56 1.01
0 -2 -9 2.26 0.95
0 -2 9 3.36 1.1
0 2 -9 3.03 0.94
0 2 9 2.81 0.63
0 2 9 1.2 0.54
0 -2 9 2.32 0.6
0 -2 9 2.6 0.62
0 -2 9 2.89 0.59
0 -2 9 2.54 0.57
0 2 9 2.11 0.47
0 -2 9 2.34 0.56
0 2 -10 51.89 2.75
0 2 10 52.5 1.82
0 -2 10 53.08 1.9
0 -2 10 52.12 1.81
0 2 10 52.99 1.87
0 -2 10 53.45 2.96
0 2 10 58.42 2.99
0 -2 10 56.78 3.15
0 2 10 52.04 2.05
0 -2 10 58 2.02
0 -2 10 55.32 2.04
0 -2 -10 54.26 2.92
0 -2 10 50.56 2
0 -2 10 58.67 3.25
0 2 -10 50.69 2.85
0 -2 10 49.9 1.99
0 2 10 51.4 1.96
0 -2 10 53.38 1.98
0 2 10 51.04 1.81
0 -2 10 53.42 1.91
0 -2 10 52.54 1.96
0 2 -11 21.15 1.86
0 -2 11 22.98 1.11
0 2 11 23.46 1.12
0 -2 11 23.74 1.15
0 -2 11 21.26 1.15
0 2 11 22.6 1.19
0 2 11 20.2 1.1
0 2 11 21.96 2.04
0 -2 11 23.73 2.13
0 -2 11 22.44 2.24
0 2 11 21.65 1.36
0 -2 11 25.19 1.3
0 -2 11 21.86 1.26
0 -2 11 23.67 1.3
0 2 -11 21.04 2.02
0 -2 -11 23.38 2.12
0 -2 11 22.22 1.32
0 -2 11 23.08 1.25
0 -2 11 21.61 1.29
0 -2 11 23.81 1.31
0 -2 11 22.51 1.18
0 2 11 21.79 1.06
0 -2 -12 -0.44 1.04
0 2 -12 1.18 0.85
0 -2 12 -0.18 0.44
0 2 12 0.54 0.52
0 -2 12 0.45 0.53
0 -2 12 -0.22 0.59
0 2 12 -0.06 0.52
0 2 12 0.15 0.51
0 2 12 0.4 0.85
0 -2 12 0.82 0.96
0 2 12 0.35 0.69
0 -2 12 0.06 0.61
0 -2 12 -0.07 0.63
0 -2 12 0.68 1.15
0 2 -12 0.6 1.01
0 -2 -12 1.78 1.07
0 -2 12 0.67 0.68
0 -2 12 -0.06 0.57
0 -2 12 0.07 0.71
0 -2 12 0.21 0.71
0 -2 12 0.77 0.65
0 -2 12 0.05 0.49
0 2 13 5.37 0.67
0 -2 13 6.34 0.74
0 -2 13 5.42 0.72
0 2 13 5.35 0.75
0 2 13 3.79 0.63
0 -2 13 5.04 1.3
0 2 13 2.51 1.02
0 2 13 5.14 0.86
0 -2 13 3.96 0.84
0 -2 13 5.75 0.84
0 -2 13 5.81 1.37
0 -2 13 6.08 1.4
0 2 -13 7.43 1.55
0 -2 13 5.41 0.88
0 -2 -13 2.03 1.22
0 -2 13 5.78 0.9
0 -2 13 4.14 0.78
0 -2 13 4.91 0.74
0 -2 13 5.33 0.86
0 -2 -13 4.66 1.34
0 -2 14 144.76 4.15
0 2 14 149.02 4.25
0 2 14 148.14 4.12
0 -2 14 140.04 4.04
0 -2 14 145.31 4.36
0 -2 14 151.88 4.43
0 -2 14 147.28 4.43
0 -2 14 147.2 4.47
0 -2 14 143.74 4.28
0 -2 14 147.09 4.4
0 2 15 5.79 0.69
0 -2 15 5.86 0.68
0 -2 15 7.48 0.8
0 -2 15 7.69 0.82
0 -2 15 5.67 0.77
0 -2 15 5.85 0.82
0 2 15 6.33 0.58
0 -2 15 4.89 0.52
0 2 15 5.04 0.68
0 2 16 5.23 0.58
0 -2 16 5.71 0.62
0 -2 16 6.58 0.7
0 -2 16 5.96 0.68
0 -2 16 6.34 0.68
0 2 -16 5.21 0.56
0 -2 -16 5.11 0.56
0 -2 16 7.74 0.75
0 2 16 4.74 0.59
0 -2 17 9.57 0.58
0 -2 -17 8.72 0.51
0 -2 17 9.24 0.63
0 -2 17 7.7 0.61
0 3 0 -0.33 0.58
0 -3 0 -0.15 0.5
0 -3 0 0.08 0.66
0 -3 1 68.05 2.32
0 3 -1 73.93 2.7
0 3 1 70.53 2.46
0 3 -1 72.77 2.63
0 -3 1 70.89 2.35
0 -3 1 75.96 2.87
0 -3 -1 70.57 2.44
0 -3 2 16.06 1.09
0 -3 -2 19.97 1.18
0 -3 2 17.32 1.42
0 -3 2 16.5 0.99
0 3 2 17.26 0.98
0 3 -2 18.94 1.26
0 3 -2 18.16 1.34
0 3 -3 39.54 1.32
0 -3 3 41.75 1.88
0 -3 3 40.2 1.67
0 -3 3 41.96 2.11
0 -3 -3 44.8 1.98
0 3 3 39.87 1.3
0 3 -3 46.47 1.93
0 3 -3 45.45 2.16
0 3 3 44.63 1.52
0 -3 -4 0.73 0.41
0 3 -4 0.22 0.36
0 -3 4 -0.27 0.67
0 -3 4 0.55 0.82
0 -3 -4 -0.46 0.66
0 -3 4 0.54 0.4
0 3 4 0.31 0.35
0 3 -4 0.08 0.64
0 3 4 0.47 0.25
0 3 -5 286.54 7.61
0 -3 -5 273.5 7.55
0 -3 5 292.31 8.21
0 -3 5 296.99 8.49
0 -3 5 280.39 7.6
0 3 5 275.67 7.56
0 3 -5 286.8 7.94
0 -3 6 1.25 0.43
0 3 6 0.4 0.47
0 -3 6 1.14 0.56
0 -3 6 0.88 0.41
0 -3 6 0.92 0.44
0 3 -6 0.81 0.56
0 -3 -6 1.32 0.6
0 -3 6 0.88 0.8
0 -3 6 1.43 0.47
0 3 -6 0.91 0.94
0 3 -6 1.28 0.76
0 -3 7 6.57 0.61
0 -3 7 5.89 0.57
0 3 7 6.15 0.6
0 3 7 7.87 0.96
0 -3 7 5.84 0.89
0 -3 7 6.76 0.65
0 -3 7 7.16 1.2
0 3 -7 7.45 0.96
0 -3 7 6.8 0.68
0 -3 -7 6.53 0.89
0 -3 7 7.51 0.65
0 -3 7 6.93 0.68
0 3 -7 8.37 1.08
0 3 -8 0.49 0.71
0 3 8 0.86 0.47
0 3 8 1.25 0.47
0 3 8 1.45 0.5
0 3 8 2.49 0.65
0 -3 8 1.69 0.64
0 -3 8 2.19 0.53
0 -3 8 2.37 1.12
0 -3 -8 1.03 0.72
0 -3 8 0.9 0.55
0 3 -8 0.59 0.64
0 -3 8 2.03 0.99
0 -3 8 1.06 0.59
0 -3 8 0.84 0.49
0 -3 8 1.12 0.54
0 -3 8 1.27 0.51
0 -3 8 1.63 0.46
0 3 8 1.63 0.49
0 3 -9 66.15 3.04
0 3 9 66.16 2.21
0 3 9 64.05 2.2
0 3 9 65.17 2.24
0 3 9 61.21 2.97
0 -3 9 67.2 3.08
0 -3 9 66.68 2.27
0 -3 9 65.55 3.61
0 3 -9 67.35 3.08
0 -3 -9 62.92 2.96
0 -3 9 65.72 2.3
0 -3 9 65.37 2.34
0 -3 9 68.19 3.51
0 -3 9 60.68 2.29
0 -3 9 63.37 2.26
0 -3 9 66.1 2.33
0 -3 9 65.02 2.27
0 -3 9 65.08 2.27
0 3 9 67.42 2.17
0 3 -10 0.29 0.75
0 3 10 1.01 0.37
0 -3 10 0.28 0.58
0 3 10 0.59 0.53
0 3 10 0.37 0.53
0 3 10 0.06 0.59
0 3 10 0.31 0.77
0 -3 10 -0.16 0.9
0 -3 10 0.22 1.03
0 -3 10 0.11 0.59
0 -3 10 -1.06 1.06
0 -3 10 0.62 0.66
0 3 -10 -0.62 0.84
0 -3 -10 0.9 0.85
0 -3 10 -0.53 0.59
0 -3 10 0.45 0.64
0 -3 10 0.13 0.63
0 -3 10 0.67 0.58
0 3 10 0.09 0.45
0 -3 10 0.4 0.57
0 -3 10 -0.56 0.56
0 -3 11 2.58 0.51
0 -3 11 2.13 0.61
0 -3 11 2.9 0.64
0 3 11 2.95 0.5
0 3 11 3.28 0.67
0 3 11 2.74 0.64
0 3 11 2.01 0.64
0 3 11 2.22 0.87
0 -3 11 2.33 0.69
0 -3 11 1.65 1.16
0 -3 11 0.92 1.18
0 3 -11 2.2 0.96
0 -3 11 2.4 0.72
0 -3 11 1.78 0.69
0 -3 11 2.75 0.71
0 -3 11 2.7 0.73
0 3 11 2.75 0.54
0 -3 11 2.28 0.63
0 -3 12 3.71 0.66
0 -3 12 3.88 0.72
0 3 12 4.01 0.68
0 3 12 4.48 0.78
0 -3 12 5.17 0.83
0 -3 12 4.06 1.39
0 -3 12 4.53 0.81
0 -3 12 1.67 1.27
0 -3 12 4.6 0.77
0 -3 12 4.74 0.84
0 -3 12 4.79 0.82
0 -3 12 4.52 0.69
0 -3 13 89.41 2.86
0 -3 13 85 2.72
0 3 13 83.43 2.88
0 3 13 91.27 2.84
0 -3 13 87.64 2.74
0 3 13 92.59 2.76
0 -3 13 87.37 2.94
0 -3 13 85.01 2.87
0 -3 13 85.3 2.99
0 -3 13 90.01 2.99
0 -3 13 90.52 2.95
0 3 14 7.54 0.73
0 -3 14 8.24 0.7
0 -3 14 7.89 0.84
0 -3 14 7.74 0.84
0 -3 14 5.95 0.85
0 -3 -14 6.51 0.6
0 -3 14 8.84 0.92
0 -3 14 8.66 0.93
0 -3 14 8.47 0.84
0 -3 14 7.17 0.77
0 -3 15 20.14 0.96
0 3 15 19.27 0.93
0 -3 15 18.84 0.88
0 -3 15 16.43 1.07
0 -3 15 18.76 1.05
0 -3 15 17.96 1.1
0 -3 15 17.69 1.03
0 -3 16 1.09 0.49
0 -3 16 1.86 0.52
0 3 16 1.35 0.34
0 3 16 1.89 0.44
0 -3 16 1.98 0.49
0 -3 16 2.2 0.47
0 3 17 13.69 0.61
0 4 0 162.59 4.98
0 -4 0 160.75 5.33
0 -4 0 150.28 4.63
0 4 -1 12.37 0.74
0 4 -1 10.27 1.14
0 4 1 11.49 1
0 4 1 10.96 0.72
0 -4 -1 13.78 1.29
0 -4 1 13.12 1.35
0 -4 1 12.17 0.94
0 -4 -1 13.45 1.05
0 4 2 267.29 7.16
0 4 -2 273.11 7.81
0 4 -2 260.03 6.68
0 -4 2 251.23 7.04
0 -4 2 260.23 7.95
0 4 2 251.06 6.68
0 -4 -2 263.77 7.34
0 -4 3 162.25 5.06
0 4 -3 178.81 5.63
0 4 -3 161.84 4.42
0 4 -3 166.28 5.27
0 -4 -3 165.64 5.16
0 4 3 158.77 4.39
0 -4 3 168.41 5.71
0 4 4 52.8 1.76
0 -4 -4 55 2.49
0 -4 4 52.15 2.81
0 -4 4 53.53 1.75
0 -4 4 52.12 1.76
0 -4 4 47.66 2.38
0 -4 4 51.63 1.7
0 4 -4 56.8 2.5
0 4 -4 53.18 2.77
0 4 -5 2.58 0.81
0 4 5 2.05 0.49
0 4 -5 1.69 0.95
0 4 5 2.62 0.54
0 -4 5 3.18 1.05
0 -4 5 2.62 0.55
0 -4 -5 2.62 0.88
0 -4 5 2.61 0.58
0 -4 5 1.39 0.73
0 -4 5 1.35 0.42
0 -4 5 3.29 0.56
0 -4 5 1.71 0.45
0 4 -6 232.73 7.05
0 4 6 228.9 6.09
0 4 6 223.7 6.16
0 4 6 226.02 6.04
0 4 6 239.23 6.13
0 4 6 229.01 6.12
0 4 6 229.45 6.07
0 4 6 226.66 6.02
0 -4 -6 235 7.33
0 -4 6 227.19 7.76
0 -4 6 232.85 6.14
0 -4 6 232.07 6.15
0 -4 6 230.93 7.34
0 -4 6 227.94 6.06
0 -4 6 233.6 6.19
0 -4 6 228.58 6.07
0 4 -7 32.92 1.28
0 4 -7 28.64 1.25
0 4 -7 29.58 1.92
0 4 7 31.21 1.32
0 4 7 30.54 1.32
0 4 7 31.92 1.38
0 4 7 31.55 1.41
0 4 7 32.02 1.34
0 4 7 35.16 1.29
0 -4 7 30.66 1.36
0 -4 -7 32.18 2.19
0 -4 7 31.93 1.41
0 -4 7 31.86 1.44
0 -4 7 29.96 2.19
0 -4 7 29.08 1.32
0 -4 7 32.86 1.46
0 -4 7 32.83 1.35
0 4 -8 32.69 1.31
0 4 -8 28.47 1.25
0 4 8 30.87 1.35
0 4 8 34.23 1.37
0 4 8 30.53 1.39
0 4 8 30.64 1.44
0 4 8 33.8 1.42
0 4 8 33.36 1.28
0 -4 8 32.33 1.44
0 -4 -8 27.89 2.23
0 -4 8 35.75 1.5
0 -4 8 32.36 2.4
0 -4 8 30.1 1.47
0 -4 8 29.44 1.52
0 -4 8 30.47 1.49
0 -4 8 29.25 1.38
0 -4 8 34.23 1.43
0 4 -9 11.85 0.83
0 4 9 12.36 0.94
0 4 9 10.24 0.87
0 -4 -9 12.49 1.58
0 -4 9 10.82 0.9
0 -4 9 11.79 1.76
0 -4 9 11.08 0.95
0 -4 9 12.16 1
0 -4 9 11.16 1.58
0 -4 9 10.62 0.99
0 -4 9 9.54 0.89
0 -4 9 9.71 0.98
0 -4 9 11.96 0.91
0 4 -10 12.02 0.85
0 4 10 12.48 0.98
0 4 10 13.66 0.95
0 4 10 11.47 0.93
0 -4 -10 8.53 1.43
0 -4 10 10.83 1.77
0 -4 10 11.31 0.96
0 -4 10 12.53 0.97
0 -4 10 12.52 1.05
0 -4 10 11.33 1.66
0 -4 10 10.37 1
0 -4 10 12.5 1.04
0 -4 10 12.56 1.01
0 -4 10 10.21 0.9
0 -4 10 11.16 0.97
0 4 -11 8.83 0.76
0 4 11 10.45 0.9
0 4 11 8.33 0.86
0 4 11 9.3 0.91
0 -4 11 9.95 0.92
0 -4 11 11.59 1.77
0 -4 11 9.31 0.93
0 -4 11 10.44 1.02
0 -4 11 11.97 1.74
0 -4 11 8.57 1
0 -4 11 9.52 0.93
0 -4 11 10.89 1.04
0 -4 11 10.52 1
0 -4 11 9.63 0.9
0 -4 11 9.62 0.9
0 4 -12 25.08 1.14
0 -4 12 24.3 1.29
0 4 12 26.62 1.32
0 4 12 26.84 1.35
0 4 12 26.26 1.3
0 -4 12 26.26 1.35
0 -4 12 23.38 1.38
0 -4 12 28.11 1.49
0 -4 12 29.4 1.48
0 -4 12 26.79 1.39
0 -4 12 25.23 1.37
0 -4 12 25.76 1.32
0 -4 12 25.32 1.25
0 4 13 0.67 0.55
0 4 13 0.3 0.55
0 4 13 0.35 0.55
0 -4 13 0.42 0.64
0 -4 13 -0.13 0.51
0 -4 13 0.6 0.59
0 -4 13 0.54 0.63
0 -4 13 0.94 0.63
0 -4 13 1.32 0.6
0 -4 13 0.6 0.58
0 -4 13 0.51 0.54
0 -4 13 -0.1 0.57
0 -4 14 7.54 0.72
0 -4 14 6.3 0.67
0 4 14 8.65 0.72
0 4 14 6.62 0.68
0 -4 14 6.73 0.79
0 -4 14 6.72 0.71
0 -4 14 6.8 0.72
0 -4 14 7.31 0.71
0 -4 15 13.9 0.75
0 4 15 15.32 0.79
0 4 15 15.91 0.77
0 -4 15 12.93 0.74
0 -4 15 14.34 0.76
0 -4 16 8.59 0.55
0 -4 16 8.05 0.53
0 4 16 8.2 0.42
0 4 16 7.78 0.48
0 5 0 0.65 0.55
0 5 0 -0.12 0.59
0 5 0 0.51 0.48
0 -5 0 -0.17 0.86
0 5 1 31.33 1.41
0 5 -1 28.4 1.99
0 5 1 31.88 1.8
0 5 -1 29.88 1.36
0 5 1 30.99 1.35
0 5 -1 30.73 1.28
0 5 1 32.89 1.36
0 -5 1 25.77 2.1
0 -5 -1 29.69 2.1
0 5 2 10.35 0.85
0 -5 2 10.93 1.57
0 -5 -2 13.48 1.45
0 5 -2 9.24 1.26
0 5 -2 12.37 0.86
0 5 2 11.67 0.77
0 5 2 10.31 0.71
0 5 2 11.2 0.83
0 5 -2 10.44 0.78
0 5 2 11.35 0.84
0 5 3 59.56 1.99
0 5 3 61.01 2.22
0 5 3 60.72 2.01
0 5 3 61.81 2.16
0 5 3 61 2.22
0 -5 -3 68.19 3.18
0 -5 3 66.43 3.42
0 -5 3 63.77 2.06
0 -5 3 64.52 2.08
0 5 3 63.9 2.03
0 5 3 61.18 2.14
0 5 3 61.28 1.99
0 5 -3 64.71 3.19
0 5 4 127.44 3.67
0 5 4 128.26 3.57
0 5 4 138.48 3.81
0 -5 4 129.79 3.72
0 5 4 121.03 3.66
0 5 4 129.79 3.66
0 5 4 128.95 3.87
0 5 4 133.7 3.87
0 -5 4 141.64 5.48
0 -5 4 127.6 3.78
0 -5 -4 126.97 4.83
0 -5 4 131.59 3.75
0 -5 4 131.16 3.84
0 -5 4 129.93 3.71
0 5 -5 163.63 4.73
0 5 5 169.79 4.71
0 -5 5 165.76 4.71
0 5 5 168.7 4.84
0 5 5 170.5 4.64
0 5 5 166.16 4.69
0 5 5 168.33 4.78
0 5 5 176.96 4.85
0 -5 5 166.17 6.52
0 -5 5 168.39 4.77
0 -5 5 173.96 4.76
0 -5 5 163.47 4.62
0 -5 5 176.32 4.85
0 -5 5 171.43 4.69
0 5 6 5.4 0.67
0 5 -6 6.18 0.71
0 -5 6 5.82 0.74
0 5 6 6.22 0.79
0 5 6 6.29 0.69
0 5 6 5.28 0.64
0 5 6 5.88 0.75
0 5 6 6.25 0.66
0 5 6 5.08 0.74
0 -5 6 6.34 0.74
0 -5 6 4.75 1.32
0 -5 6 7.98 0.82
0 -5 6 5.36 0.66
0 -5 6 5.93 0.79
0 -5 6 5.25 0.65
0 5 7 4.73 0.61
0 5 -7 6.81 0.72
0 -5 7 4.72 0.72
0 5 7 5.19 0.73
0 5 7 5.78 0.74
0 5 7 5.69 0.74
0 5 7 6.15 0.66
0 5 7 6.32 0.67
0 -5 7 6.04 0.75
0 -5 7 6.44 1.46
0 -5 7 6.7 0.78
0 -5 7 6.79 0.93
0 -5 7 5.62 0.71
0 -5 7 5.4 0.76
0 -5 7 6.56 0.72
0 5 8 36.48 1.46
0 5 -8 40.4 1.56
0 5 8 38.44 1.57
0 5 8 38.99 1.58
0 5 8 39.24 1.69
0 5 8 41.31 1.68
0 -5 8 36.87 2.98
0 -5 8 38.55 1.66
0 -5 8 38.25 1.65
0 -5 8 41.2 1.75
0 -5 8 37.85 1.78
0 -5 8 38.7 1.6
0 -5 8 39.73 1.75
0 -5 8 37.73 1.61
0 5 -9 13.72 0.84
0 -5 9 12.26 0.99
0 -5 9 12.39 0.97
0 5 9 13.06 0.93
0 5 9 12.76 0.89
0 5 9 12.26 0.97
0 -5 9 13.09 1.1
0 -5 9 12.54 1.01
0 -5 9 14.14 1.1
0 -5 9 13.77 0.95
0 -5 9 14.06 1.09
0 -5 9 13.35 0.94
0 -5 10 11.35 0.98
0 -5 10 10.75 0.89
0 5 10 10.73 0.84
0 5 10 9.66 0.93
0 5 10 11.76 0.86
0 -5 10 10.56 0.99
0 -5 10 12.44 1.06
0 -5 10 11.17 1
0 -5 10 8.76 0.82
0 -5 10 9.95 1.04
0 -5 10 11.19 0.94
0 -5 10 10.32 0.86
0 -5 11 128.85 3.72
0 -5 11 126.6 3.73
0 5 11 126.13 3.61
0 5 11 118.52 3.57
0 -5 11 118.01 3.63
0 -5 11 121.67 3.77
0 -5 11 122.56 3.64
0 -5 11 126.3 3.79
0 -5 11 121.11 3.77
0 -5 11 122.59 3.65
0 -5 11 124.04 3.61
0 5 12 0.7 0.48
0 5 12 0.37 0.53
0 5 12 0.94 0.48
0 -5 12 0.05 0.61
0 -5 12 0.97 0.55
0 -5 12 0.42 0.59
0 -5 12 1.24 0.64
0 -5 12 0.53 0.49
0 -5 12 -0.05 0.53
0 -5 12 0.27 0.49
0 -5 12 0.04 0.49
0 5 -13 7.81 0.54
0 -5 13 10.32 0.71
0 -5 13 8.69 0.66
0 5 13 9.75 0.66
0 5 13 8.99 0.7
0 -5 13 10.63 0.82
0 -5 13 7.88 0.7
0 -5 13 9.06 0.75
0 -5 13 8.73 0.65
0 -5 13 9.22 0.79
0 -5 13 8.61 0.65
0 -5 14 0.83 0.47
0 -5 14 1.04 0.47
0 -5 14 1.1 0.44
0 5 14 0.86 0.36
0 5 14 1.27 0.41
0 -5 14 1.49 0.36
0 -5 15 2.46 0.3
0 5 15 2.37 0.3
0 -6 0 5.91 1.28
0 6 0 7.11 0.76
0 6 0 6.67 0.77
0 6 0 6.02 0.83
0 6 1 7.09 0.85
0 6 1 6.07 0.79
0 6 -1 5.64 0.72
0 -6 -1 4.51 1.09
0 -6 1 6.38 1.37
0 6 1 5.79 0.57
0 6 1 5.88 0.76
0 6 1 4.97 0.67
0 6 -1 6.51 0.73
0 -6 1 5.46 0.65
0 6 2 34.15 1.62
0 6 2 33.28 1.53
0 6 2 32.61 1.59
0 6 -2 31.64 1.39
0 -6 2 32.2 2.61
0 -6 2 32.68 1.38
0 6 2 35.4 1.54
0 6 2 35.16 1.41
0 6 3 16.22 0.9
0 6 3 13.94 0.98
0 6 3 16.81 1.14
0 6 -3 14.09 1.08
0 6 3 14.46 1.05
0 6 3 14.53 1.07
0 6 -3 13.99 0.89
0 -6 3 13.5 1
0 -6 3 10.71 1.67
0 -6 3 15.51 1.02
0 -6 3 14.06 0.9
0 6 4 23.84 1.05
0 6 -4 23.46 1.26
0 6 4 24.21 1.23
0 6 4 23.48 1.13
0 6 4 21.9 1.25
0 6 4 25.26 1.36
0 6 4 27.61 1.39
0 -6 4 23.31 2.38
0 -6 4 25.08 1.28
0 -6 4 28.11 1.35
0 -6 4 23.72 1.16
0 6 -5 -0.06 0.58
0 6 5 1.15 0.56
0 -6 5 0.67 0.51
0 6 5 1.1 0.52
0 6 5 0.92 0.65
0 6 5 0.34 0.46
0 6 5 0.49 0.6
0 -6 5 0.73 0.61
0 -6 5 0.48 1.12
0 -6 5 0.4 0.51
0 -6 5 1.02 0.6
0 -6 5 0.43 0.49
0 6 -6 4.07 0.72
0 6 6 4.28 0.61
0 6 6 4.28 0.64
0 6 6 4.59 0.73
0 6 6 4.25 0.76
0 6 6 3.37 0.57
0 -6 6 3.91 0.68
0 -6 6 3.24 0.64
0 -6 6 4.55 0.67
0 -6 6 3.8 0.76
0 -6 6 3.32 0.72
0 -6 6 3.97 0.61
0 6 7 2.1 0.51
0 6 -7 3.21 0.64
0 6 7 2.53 0.6
0 6 7 3.23 0.58
0 6 7 4.67 0.71
0 -6 7 3.47 0.62
0 -6 7 2.92 0.7
0 -6 7 3.1 0.62
0 -6 7 2.83 0.63
0 -6 7 4.11 0.82
0 -6 7 3.83 0.71
0 -6 7 3.05 0.57
0 6 -8 0.31 0.49
0 6 8 1.9 0.6
0 6 8 0.94 0.49
0 -6 8 0.81 0.53
0 -6 8 -0.05 0.54
0 -6 8 0.64 0.64
0 -6 8 0.53 0.55
0 -6 8 1.28 0.67
0 -6 8 0.76 0.62
0 -6 8 1.23 0.49
0 6 -9 21.18 1.02
0 -6 9 23.61 1.27
0 -6 9 23.94 1.17
0 -6 9 21.2 1.12
0 6 9 21.92 1.14
0 -6 9 22.41 1.17
0 -6 9 24.08 1.34
0 -6 9 24.99 1.29
0 -6 9 23.27 1.22
0 -6 9 21.93 1.05
0 -6 10 -0.17 0.49
0 -6 10 0.19 0.57
0 6 10 0.3 0.51
0 -6 10 -0.45 0.47
0 -6 10 0.61 0.54
0 -6 10 0.21 0.58
0 -6 10 0.22 0.61
0 -6 10 0.4 0.56
0 -6 10 0.74 0.53
0 -6 11 154.76 4.18
0 6 11 154.03 4.18
0 6 -11 148.98 4.11
0 -6 11 150.64 4.1
0 -6 11 145.27 4.19
0 -6 11 150.71 4.29
0 -6 11 155.85 4.26
0 -6 11 153.43 4.26
0 6 -11 160.51 4.15
0 -6 12 0.09 0.39
0 -6 12 0.31 0.4
0 6 -12 0.17 0.3
0 -6 12 0.22 0.39
0 -6 12 0.38 0.42
0 -6 12 0.73 0.47
0 -6 12 0.5 0.43
0 6 -12 0.65 0.32
0 6 12 0.3 0.39
0 -6 13 1.57 0.34
0 -6 13 1.48 0.32
0 7 0 0.36 0.59
0 7 0 0.69 0.56
0 -7 0 0.27 0.45
0 7 0 0.82 0.54
0 7 0 0.56 0.67
0 7 1 0.06 0.63
0 7 -1 0.46 0.49
0 7 1 0.46 0.55
0 7 1 0.18 0.66
0 -7 1 -0.33 0.47
0 7 -1 0.6 0.57
0 7 1 1.14 0.5
0 7 -2 3.54 0.56
0 7 2 3.35 0.73
0 7 2 3.52 0.71
0 7 2 3.62 0.74
0 -7 2 4.58 0.69
0 -7 2 3.33 0.57
0 7 2 3.52 0.55
0 7 -2 4.35 0.71
0 7 -2 4.52 0.61
0 7 3 48.09 1.88
0 7 3 50.19 1.9
0 7 -3 49.08 1.99
0 7 3 49.66 1.94
0 -7 3 48.53 1.81
0 -7 3 51.39 1.86
0 -7 3 48 1.79
0 -7 3 44.53 1.64
0 -7 4 146.76 4.26
0 7 4 150.42 4.4
0 7 4 155.5 4.45
0 7 -4 155.69 4.55
0 -7 4 161.95 4.38
0 -7 4 157.48 4.45
0 -7 4 155.22 4.36
0 7 -4 158.89 4.4
0 -7 5 7.01 0.69
0 7 -5 6.94 0.82
0 7 5 7.62 0.75
0 -7 5 5.6 0.66
0 -7 5 7.2 0.73
0 -7 5 7.19 0.78
0 7 -5 7.2 0.73
0 7 -6 0.47 0.47
0 -7 6 0.53 0.46
0 7 -6 0.26 0.59
0 -7 6 0.76 0.51
0 -7 6 0.45 0.59
0 -7 6 0.43 0.48
0 7 -7 2.65 0.51
0 7 -7 2.48 0.6
0 -7 7 2.68 0.49
0 -7 7 1.62 0.53
0 -7 7 2.34 0.62
0 -7 7 2.69 0.61
0 -7 7 1.84 0.39
0 -7 7 1.34 0.52
0 -7 8 26.76 1.15
0 -7 8 25.77 1
0 -7 8 26.87 1.2
0 7 -8 27.95 1.2
0 -7 8 26.52 1.05
0 -7 8 27.78 1.22
0 -7 8 25.38 1.21
0 -7 8 28.12 1.15
0 7 -8 26.49 1.06
0 7 -9 68.86 2.01
0 7 -9 62.93 1.86
0 -7 9 66.56 2.08
0 -7 9 66.27 2.02
0 7 -9 63.87 1.99
0 -7 9 66.8 2.04
0 -7 9 63.95 1.88
0 7 -10 184.18 4.95
0 -7 10 181.74 4.89
0 -7 10 217.04 5.08
0 7 -10 211.53 5.02
0 -7 10 199.85 5.1
0 -7 11 141.22 3.62
0 8 0 4.43 0.59
0 -8 0 3.49 0.48
0 -8 -1 42.55 1.44
0 8 -1 46.32 1.58
0 8 1 46.32 1.61
0 8 -1 45.26 1.49
0 -8 -2 12.62 0.7
0 -8 2 13.66 0.69
0 8 -2 13.23 0.81
0 8 -2 13.68 0.74
0 -8 -3 133.54 3.55
0 -8 3 123.23 3.47
0 8 -3 137.49 3.68
0 8 -3 136.89 3.61
0 8 -3 134.28 3.69
0 -8 4 22.94 1.03
0 8 -4 25.95 1.07
0 8 -4 25.83 1.1
0 8 -5 7.28 0.58
0 -8 5 7.75 0.6
0 8 -5 7.86 0.54
0 8 -5 7.77 0.62
0 8 -6 4.43 0.4
0 8 -6 4.77 0.46
0 -8 6 4.54 0.47
0 8 -6 5.02 0.48
0 -8 6 4.54 0.48
0 8 -7 14.22 0.62
0 8 -7 15.04 0.63
1 0 -18 0.16 0.31
-1 0 18 0.02 0.27
-1 0 18 -0.22 0.34
1 0 -17 4.4 0.57
-1 0 17 4.51 0.59
-1 0 17 5.1 0.52
-1 0 16 -0.05 0.57
-1 0 16 -0.13 0.49
1 0 -16 0.64 0.58
-1 0 16 0.27 0.57
-1 0 16 -0.13 0.53
-1 0 15 8.79 0.91
-1 0 15 9.65 0.81
-1 0 15 7.63 0.93
-1 0 15 9 0.82
-1 0 14 -0.05 0.58
-1 0 14 -0.17 0.56
-1 0 14 0.79 0.7
-1 0 14 0.41 0.66
-1 0 14 0.44 0.52
-1 0 14 0.58 0.56
-1 0 14 0.5 0.71
-1 0 14 0.37 0.53
-1 0 13 44.71 1.79
-1 0 13 45.73 1.99
-1 0 13 44.53 1.8
-1 0 13 40.47 2.98
-1 0 13 45.65 1.94
-1 0 13 44.52 1.89
-1 0 13 45.11 2.95
1 0 -13 45.42 3.13
-1 0 13 46.18 1.83
-1 0 13 45.43 1.87
-1 0 13 47.64 2.02
1 0 -13 47.8 2.85
-1 0 12 -0.21 0.54
-1 0 12 -0.33 0.56
-1 0 12 -1.66 1.05
-1 0 12 -0.51 0.55
-1 0 12 -0.33 0.64
-1 0 12 0.25 0.64
-1 0 12 0.38 0.85
-1 0 12 0.56 0.62
1 0 -12 -0.42 1.21
-1 0 12 0.64 0.56
-1 0 12 -0.07 0.63
-1 0 12 0.42 0.58
1 0 -12 0.53 0.88
1 0 -11 195.02 6.64
-1 0 11 192.57 5.3
-1 0 11 195.75 5.34
-1 0 11 194.65 6.92
-1 0 11 200.78 5.45
1 0 -11 191.05 6.92
-1 0 11 214.43 6.92
-1 0 11 185.79 5.4
-1 0 11 191.35 5.48
-1 0 11 193.6 5.39
-1 0 11 186.33 5.36
-1 0 11 194.84 5.46
-1 0 11 197.03 5.36
-1 0 10 -0.04 0.44
-1 0 10 0.1 0.49
-1 0 10 0.82 0.88
-1 0 10 0.6 0.54
-1 0 10 0.1 0.54
1 0 -10 1.49 1.08
-1 0 10 1.39 0.94
-1 0 10 0.51 0.5
-1 0 10 0.16 0.53
-1 0 10 -0.05 0.5
-1 0 10 0.05 0.53
-1 0 10 0.5 0.58
1 0 -10 0.14 0.83
-1 0 9 105.22 3.07
-1 0 9 98.6 3.01
-1 0 9 108.76 4.2
-1 0 9 98.08 3
1 0 -9 100.87 4.08
-1 0 9 112.17 4.16
-1 0 9 101.36 3.04
-1 0 9 104.68 3.05
-1 0 9 99.68 3.02
-1 0 9 100.09 3.06
-1 0 9 102.88 3.12
1 0 -9 102.59 3.89
1 0 -8 -0.24 0.89
-1 0 8 0.39 0.88
-1 0 8 -2.39 0.91
1 0 -7 209.03 6.3
-1 0 7 205.39 6.45
-1 0 7 205.91 6.27
1 0 -6 0.41 0.77
-1 0 6 -0.09 0.79
-1 0 6 -0.41 0.68
1 0 -5 154.18 4.63
-1 0 4 -0.15 0.6
1 0 -4 -0.38 0.68
-1 0 3 799.25 19.77
-1 0 3 800.31 19.92
1 0 -3 823.5 19.82
-1 0 2 0.33 0.44
-1 0 2 -0.07 0.5
1 0 -2 0.1 0.46
1 0 -1 1720.98 42.07
-1 0 1 1773.82 41.99
-1 0 1 1772.59 42.13
1 0 -1 1768.53 42.16
-1 0 0 0.23 0.23
-1 0 0 0.47 0.32
1 0 0 1.11 0.32
1 0 0 0.32 0.26
1 0 1 2565.12 60.39
1 0 1 2478.81 60.43
-1 0 -1 2529.24 60.35
1 0 2 -0.13 0.45
1 0 2 0.17 0.25
1 0 2 0.38 0.46
1 0 2 0.18 0.48
-1 0 -2 -0.2 0.45
1 0 3 462.86 11.53
1 0 3 460.39 11.28
1 0 3 470.62 11.59
1 0 3 454.96 11.59
-1 0 -3 455.97 11.29
-1 0 -3 447.4 11.56
1 0 4 0.05 0.6
1 0 4 0.11 0.43
1 0 4 -0.06 0.62
1 0 4 1 0.67
-1 0 -4 -0.13 0.41
-1 0 -4 -0.46 0.66
1 0 5 745.21 18.48
1 0 5 735.53 18.56
1 0 5 731.08 18.24
1 0 5 734.63 18.56
-1 0 -5 725.94 18.53
-1 0 -5 740.67 18.07
1 0 6 -0.32 0.68
1 0 6 -0.2 0.55
1 0 6 0.18 0.74
1 0 7 45.39 2.21
1 0 7 48.67 2.1
1 0 7 49.39 2.38
1 0 8 0.47 0.73
-1 0 -8 -0.25 0.9
1 0 8 0.08 0.47
1 0 8 -0.59 0.63
1 0 8 0.26 0.83
1 0 9 44.31 1.69
1 0 9 46.53 2.64
1 0 9 43.44 2.26
1 0 9 43.32 1.56
-1 0 -9 46.58 2.58
1 0 9 49.77 2.53
1 0 9 45.7 1.7
1 0 9 48 1.66
-1 0 -9 47.34 2.63
1 0 10 -0.09 0.48
1 0 10 -0.04 0.39
1 0 10 0.53 1.02
1 0 10 0.16 0.57
1 0 10 0.61 0.47
-1 0 -10 0.51 0.92
1 0 10 -0.31 0.85
1 0 10 0.24 0.49
1 0 10 0.22 0.56
-1 0 -10 -0.51 0.96
1 0 11 3.27 0.59
1 0 11 2.78 0.51
1 0 11 3.29 0.56
1 0 11 5.8 1.37
1 0 11 3.51 0.77
1 0 11 3.19 1.07
-1 0 -11 2.14 1.13
1 0 11 3.6 0.6
1 0 11 1.76 0.61
1 0 11 3.49 0.72
-1 0 -11 3.67 1.16
1 0 12 0.52 0.45
1 0 12 0.7 0.54
1 0 12 0.05 0.5
1 0 12 -0.22 1.01
1 0 12 -0.14 0.67
1 0 12 -0.58 0.94
-1 0 -12 1.28 1.27
1 0 12 -0.05 0.5
1 0 12 -0.27 0.7
1 0 12 -0.06 0.56
-1 0 -12 0.63 0.96
1 0 13 225.06 6.22
1 0 13 236.11 6.16
1 0 13 231.93 8.29
1 0 13 221.64 6.14
1 0 13 212.05 7.75
-1 0 -13 233.27 8.17
1 0 13 228.79 6.45
1 0 13 226.91 6.29
-1 0 -13 244.32 8.19
1 0 14 -0.52 0.61
1 0 14 0.1 0.46
1 0 14 0.07 0.69
1 0 15 3.02 0.79
1 0 15 3.09 0.54
1 0 15 3.76 0.7
1 0 16 -0.1 0.59
1 0 16 -0.03 0.38
1 0 16 -0.14 0.51
1 0 17 55.48 1.89
1 0 17 59.95 1.87
1 0 17 55.65 1.63
1 0 18 -0.12 0.27
-1 -1 18 -0.13 0.3
-1 1 18 0.13 0.3
-1 1 18 0.16 0.27
-1 1 17 29.62 1.17
-1 -1 17 28.83 1.17
1 1 -17 25.73 1.1
1 -1 -17 28.25 1.13
-1 -1 17 29.39 1.23
-1 -1 17 27.24 1.04
-1 1 17 29.45 1.13
-1 -1 16 7.24 0.74
-1 1 16 8.58 0.74
-1 -1 16 8.31 0.67
1 1 -16 8.04 0.74
1 -1 -16 8.05 0.74
-1 -1 16 8.21 0.87
-1 1 16 7.11 0.7
-1 -1 16 8.32 0.71
-1 -1 15 7.31 0.85
-1 -1 15 6.99 0.85
-1 1 15 7.57 0.8
-1 -1 15 6.5 0.68
-1 -1 15 6.71 0.87
-1 -1 15 5.85 0.72
-1 -1 15 7.65 0.93
-1 -1 15 7.78 0.77
-1 1 15 7.51 0.76
-1 -1 14 79.49 2.62
-1 1 14 80.11 2.61
-1 1 14 74.69 2.41
-1 1 14 81.89 2.64
-1 -1 14 75.02 2.69
-1 1 14 78.11 2.75
-1 -1 14 82.79 2.78
-1 -1 14 83.21 2.68
-1 1 14 77.5 2.76
-1 -1 14 75.26 2.68
-1 -1 14 77.92 2.83
-1 -1 14 76.61 2.74
-1 -1 14 71.61 2.52
1 -1 -13 10.82 1.59
-1 1 13 13.3 0.94
-1 -1 13 11.23 0.79
-1 -1 13 12.62 0.94
-1 1 13 12.63 0.97
-1 1 13 13.07 1.01
-1 1 13 11.99 0.83
-1 -1 13 11.57 1.73
-1 1 13 7.86 1.52
-1 1 13 13.6 1.07
-1 -1 13 12.73 1.02
-1 1 13 8.33 1.29
1 -1 -13 14.07 1.83
-1 -1 13 12.43 1.12
1 1 -13 10.61 1.67
-1 -1 13 11.78 1.66
-1 -1 13 12.72 1.05
-1 1 13 11.41 0.89
-1 -1 13 13.12 1.02
-1 1 13 10.66 1.05
-1 1 13 11.15 0.87
-1 -1 13 10.97 1.06
-1 -1 13 13.07 0.98
-1 1 13 11.24 0.88
-1 -1 13 11.15 1.07
1 1 -12 3.45 1.07
1 -1 -12 3.67 1.17
-1 -1 12 2.55 0.64
-1 -1 12 3.68 0.57
-1 1 12 3.08 0.62
-1 1 12 2.54 0.57
-1 1 12 3.81 0.65
-1 1 12 0.62 1.06
-1 -1 12 1.86 1.18
-1 1 12 3.38 0.67
-1 -1 12 2.26 0.69
-1 1 12 2.5 0.72
-1 -1 12 3.69 0.76
-1 -1 12 3.56 0.74
1 -1 -12 2.71 1.33
-1 -1 12 2.09 1.14
1 1 -12 4.61 1.27
-1 1 12 4.37 1.08
-1 1 12 2.85 0.62
-1 -1 12 3.52 0.75
-1 -1 12 3.9 0.82
-1 1 12 4.33 0.79
-1 1 12 2.89 0.68
-1 -1 12 2.09 0.64
-1 1 12 3 0.63
-1 -1 12 2.53 0.63
1 1 -11 87.61 3.69
1 -1 -11 90.26 4.01
-1 -1 11 84.76 2.69
-1 -1 11 83.02 2.61
-1 1 11 87.07 2.7
-1 1 11 88.02 2.67
-1 1 11 85.46 2.78
-1 1 11 87.9 4.1
-1 -1 11 94.19 4.18
-1 -1 11 85.11 4.21
-1 -1 11 85.25 2.8
-1 1 11 87.97 2.88
-1 -1 11 82.87 2.84
-1 -1 11 90.09 4.15
-1 1 11 88.67 3.79
1 -1 -11 94.99 4.24
1 1 -11 86.98 4.07
-1 1 11 84.12 2.75
-1 -1 11 83.1 2.88
-1 -1 11 85.26 2.86
-1 1 11 83.17 2.88
-1 -1 11 87.93 2.83
-1 1 11 85.44 2.76
-1 -1 11 84.31 2.82
-1 1 11 84.69 2.76
-1 -1 11 85.44 2.78
-1 1 11 82.85 2.9
1 1 -10 25.18 1.79
-1 1 10 26.48 1.15
-1 -1 10 27.35 1.17
-1 1 10 24.56 1.2
-1 1 10 24.79 1.11
-1 -1 10 21.96 1.89
-1 1 10 27.36 2.08
-1 -1 10 30.57 2.31
-1 1 10 27.18 1.29
-1 -1 10 24.32 1.2
-1 1 10 26.25 1.21
-1 1 10 26.71 1.88
1 1 -10 28.79 2.13
-1 -1 10 25.4 1.31
1 -1 -10 27.39 2.12
-1 -1 10 26.23 2.09
-1 -1 10 23.79 1.25
-1 -1 10 25.77 1.29
-1 -1 10 24.93 1.27
-1 1 10 24.82 1.2
-1 1 10 25.78 1.24
-1 1 10 26.16 1.3
-1 1 10 26.95 1.24
-1 -1 10 27.35 1.26
-1 1 10 24.58 1.31
-1 -1 10 26.32 1.27
-1 -1 9 13.18 0.85
-1 -1 9 15.24 0.89
-1 1 9 12.93 0.83
-1 1 9 12.63 0.91
-1 -1 9 16.37 1.53
-1 1 9 17.18 1.63
-1 -1 9 13.28 0.83
-1 -1 9 12.63 1.65
-1 1 9 13.37 0.92
-1 1 9 12.91 1.34
-1 -1 9 13.98 0.91
1 -1 -9 14.17 1.6
-1 1 9 14.96 0.85
1 1 -9 15.59 1.59
-1 -1 9 12.47 0.88
-1 -1 9 14.08 0.88
-1 1 9 14.25 0.88
-1 1 9 13.68 0.86
-1 -1 9 13.45 0.9
-1 1 9 13.18 0.9
-1 -1 9 12.53 0.88
1 1 -9 14.61 1.33
-1 1 8 323.05 8.66
-1 1 8 357.19 9.86
-1 -1 8 350.99 9.83
-1 -1 8 355.29 10.06
1 -1 -8 331.62 9.72
1 1 -8 341.25 9.81
-1 -1 8 340.23 8.66
1 1 -8 355.22 9.44
1 -1 -7 384 10.71
1 1 -7 384.26 10.71
-1 -1 7 390.42 10.99
-1 -1 7 392.01 10.73
-1 1 7 401.7 10.78
1 1 -7 393.34 10.4
1 -1 -6 0.59 0.73
1 1 -6 0.51 0.8
-1 1 6 0.25 0.71
-1 -1 6 0.92 0.75
1 1 -6 2.11 0.63
1 -1 -5 523.4 13.38
1 1 -5 526.19 13.39
1 1 -5 517.69 13.09
-1 1 5 525.4 13.37
-1 -1 5 515.79 13.36
-1 -1 4 2.99 0.79
1 1 -4 2.73 0.5
-1 1 4 2.32 0.6
-1 -1 4 2.85 0.67
1 -1 -4 2.92 0.69
1 1 -4 3.23 0.69
-1 -1 3 206.95 5.75
1 1 -3 212.92 5.3
-1 1 3 207.08 5.56
-1 -1 3 200.56 5.54
1 -1 -3 216.39 5.59
1 1 -3 206.64 5.59
-1 -1 2 2.02 0.58
1 -1 -2 2.55 0.66
1 1 -2 2.48 0.26
-1 -1 2 2.54 0.5
-1 1 2 2.44 0.52
1 1 -2 2.36 0.53
1 -1 -2 2.69 0.51
1 -1 -1 1.52 0.51
-1 -1 1 2.24 0.48
-1 1 1 1.25 0.53
-1 1 1 2.14 0.42
-1 -1 1 1.76 0.41
1 -1 -1 2.13 0.42
1 1 -1 2.82 0.43
1 -1 0 73.96 2.26
-1 -1 0 75.39 2.09
1 1 0 76.26 2.13
1 -1 0 78.04 2.13
-1 1 0 72.21 2.29
-1 1 0 78.08 2.13
-1 -1 0 72.12 2.1
1 -1 1 114.27 3.25
-1 -1 -1 108.42 2.83
1 1 1 116.52 3.06
1 -1 1 115.25 3.2
1 -1 1 113.79 3.06
1 1 1 107.46 3.09
1 -1 1 114.27 3.1
-1 1 -1 113.45 3.22
1 -1 2 15.13 0.96
1 -1 2 15.4 0.93
1 1 2 13.58 0.82
1 -1 2 13.3 0.84
1 -1 2 15.17 0.84
1 1 2 14.92 0.86
1 -1 2 14.97 0.88
-1 1 -2 13.2 0.9
1 1 3 5.34 0.52
1 -1 3 5.1 0.8
1 -1 3 5.16 0.72
1 -1 3 5.74 0.75
1 -1 3 4.9 0.67
1 1 3 5.69 0.67
1 1 3 6.36 0.7
1 -1 3 5.56 0.72
-1 1 -3 5.61 0.74
1 1 4 44.4 1.6
1 -1 4 43.98 1.89
1 -1 4 44.51 1.78
1 1 4 45.5 1.84
1 -1 4 37.16 1.76
1 1 4 43.49 1.82
1 -1 4 45.52 1.87
-1 1 -4 45.89 1.8
1 1 5 707.03 17.58
1 -1 5 706.19 17.9
1 -1 5 697.65 17.79
1 1 5 717.48 17.91
1 1 5 703.24 17.88
1 -1 5 733.19 17.91
-1 1 -5 708.43 17.75
-1 1 -5 685.25 17.88
1 1 6 155.53 4.67
1 -1 6 151.62 4.84
1 1 6 163.45 5.03
1 -1 6 159.93 5.01
-1 1 -6 164.65 4.8
-1 1 -6 154.51 4.96
1 -1 7 724.18 19.05
1 1 7 718.72 18.58
1 -1 7 745.96 18.84
1 -1 7 743.95 19.02
1 1 7 727.9 18.99
-1 1 -7 733.46 18.63
-1 1 -7 734.03 18.94
1 -1 8 624.37 15.65
1 1 8 610.54 15.66
1 1 8 655.18 17
1 -1 8 644.7 16.99
1 -1 8 648.32 16.77
1 1 8 643.47 15.71
-1 1 -8 660.98 16.97
1 -1 8 657.78 17.06
1 1 8 624.05 16.48
-1 -1 -8 660.41 16.93
1 -1 8 626.19 15.62
-1 1 -8 641.66 16.88
-1 -1 -8 632.46 17.03
1 -1 9 0.28 0.48
1 1 9 -0.15 0.97
1 -1 9 1.38 0.93
1 1 9 0.19 0.53
1 -1 9 -0.09 0.49
1 -1 9 -0.41 0.8
1 1 9 0.3 0.55
-1 -1 -9 0.45 0.86
1 -1 9 -0.47 0.89
-1 1 -9 -0.45 0.98
1 1 9 -0.12 0.67
1 -1 9 0.09 0.45
1 -1 9 -0.16 0.43
1 1 9 0.09 0.49
1 -1 9 0.04 0.46
1 1 9 -0.04 0.42
1 -1 9 0.15 0.36
-1 1 -9 0.15 0.9
-1 1 -10 39.96 2.5
1 -1 10 38.27 1.48
1 1 10 38.2 1.49
1 -1 10 36.96 1.49
1 1 10 39.48 1.49
1 1 10 36.18 1.39
1 1 10 40.57 2.6
1 -1 10 43.37 2.69
1 -1 10 36.49 2.35
1 -1 10 40.43 1.64
1 1 10 37.44 1.65
1 1 10 39.8 2.27
1 -1 10 40.68 1.58
-1 1 -10 36.38 2.47
1 -1 10 37.6 1.5
-1 -1 -10 46.51 2.69
1 -1 10 39.85 2.6
1 -1 10 38.98 1.57
1 1 10 36.64 1.59
1 -1 10 37.65 1.45
1 1 10 38.09 1.53
1 1 10 38.27 1.66
-1 1 -11 61.94 3.27
1 1 11 57.8 2.02
1 -1 11 57.98 2.03
1 -1 11 60.18 2.05
1 -1 11 55.87 1.92
1 1 11 53.55 2
1 1 11 56.31 1.9
1 -1 11 65.14 3.48
1 1 11 55.73 3.31
1 -1 11 53.8 3
1 -1 11 59.16 2.21
-1 -1 -11 53.57 3.18
1 -1 11 56.88 3.28
-1 1 -11 56.25 3.26
1 1 11 57.83 2.92
1 -1 11 56.91 2.1
1 -1 11 60.15 2.16
1 -1 11 58.48 2.02
1 1 11 56.21 2.07
1 1 11 56.19 2.2
1 1 12 5.9 0.72
1 -1 12 5.64 0.72
1 -1 12 4.47 0.71
1 1 12 6.28 0.73
1 -1 12 5.81 0.62
1 1 12 5.27 1.42
1 -1 12 7.04 1.53
1 1 12 3.93 0.81
1 -1 12 5.79 0.86
1 -1 12 5.05 0.77
-1 1 -12 4.43 1.42
1 -1 12 4.12 1.23
-1 -1 -12 5.92 1.41
1 1 12 6.25 0.75
1 -1 12 3.45 0.73
1 -1 12 6.09 0.69
-1 -1 -12 5.04 1.39
-1 1 -12 4.02 1.24
-1 1 -13 19.74 2.04
-1 -1 -13 17.99 2.09
1 -1 13 20.93 1.11
1 1 13 21.64 1.15
1 -1 13 21.63 1.07
1 1 13 20.57 1
1 -1 13 22.96 2.29
1 1 13 16.5 1.98
1 -1 13 22.35 1.35
-1 1 -13 21.62 2.16
1 -1 13 19.9 1.21
-1 -1 -13 20.18 2.14
1 -1 13 20.33 2.1
1 1 13 19.21 1.13
1 -1 13 20.28 1.24
1 1 13 22.73 1.37
1 -1 13 20.57 1.34
1 1 14 7.21 0.75
1 -1 14 5.96 0.62
1 1 14 5.91 0.85
1 -1 14 7.74 0.86
1 -1 14 7.47 0.98
1 -1 14 6.53 0.9
1 -1 14 6.33 0.75
1 -1 14 5.91 0.94
1 -1 14 6.71 0.79
1 -1 14 6.36 0.67
1 -1 15 4.09 0.76
1 -1 15 3.57 0.76
1 1 15 4.98 0.63
1 -1 15 4.53 0.5
1 -1 15 3.8 0.64
1 -1 15 4.41 0.73
1 1 15 4.48 0.75
1 -1 16 27.9 1.36
1 1 16 31 1.33
1 -1 16 29.29 1.3
1 1 16 30.17 1.2
1 -1 16 30.14 1.39
1 1 17 5.7 0.47
1 -1 17 6.06 0.56
1 1 17 5.49 0.55
1 -1 17 5.9 0.6
1 1 18 -0.17 0.22
1 -1 18 0.09 0.22
-1 1 -18 -0.02 0.22
-1 2 18 8.23 0.41
-1 -2 17 -0.03 0.35
-1 -2 17 0.05 0.33
1 -2 -17 0.07 0.29
-1 -2 17 0.32 0.44
-1 2 17 0.03 0.36
-1 -2 17 -0.15 0.23
-1 -2 16 25.61 1.1
-1 2 16 22.78 1.05
1 2 -16 23.22 1.03
1 -2 -16 22.64 1.02
-1 2 16 23.72 1.08
-1 2 16 23.48 0.93
-1 -2 16 22.33 0.95
-1 -2 16 22.51 1.19
-1 -2 16 22.44 1.08
-1 -2 15 4.6 0.71
-1 -2 15 5.54 0.75
-1 -2 15 6.21 0.62
-1 2 15 5.68 0.6
1 -2 -15 5.85 0.68
-1 -2 15 6.23 0.83
1 2 -15 6.71 0.69
-1 -2 15 6.23 0.75
-1 -2 15 5.55 0.62
-1 2 15 6.82 0.65
-1 2 14 56.3 1.98
-1 -2 14 53.76 1.92
-1 -2 14 56.75 2
-1 2 14 59.52 2.01
-1 2 14 54.73 2.12
-1 -2 14 58.59 2.14
-1 -2 14 56.08 2.24
-1 -2 14 57.05 2.2
-1 -2 14 58.52 2.16
-1 -2 14 55.56 2.03
-1 -2 14 52.97 2.12
1 -2 -13 81.56 4.19
-1 2 13 83.07 2.66
-1 -2 13 83.3 2.67
-1 -2 13 84.94 2.66
-1 2 13 85.06 2.7
-1 2 13 82.07 2.79
-1 -2 13 74.72 4.03
-1 2 13 81.97 4.07
-1 -2 13 86.32 2.83
1 2 -13 73.74 4.01
-1 -2 13 83.11 2.91
1 -2 -13 72.67 3.95
-1 -2 13 80.29 2.88
-1 -2 13 80.61 2.83
-1 -2 13 80.63 2.86
-1 2 13 82.57 2.63
-1 -2 13 82.25 2.84
-1 -2 13 79.27 2.74
-1 2 13 84.15 2.68
-1 -2 12 111.52 3.39
-1 -2 12 110.74 3.36
-1 2 12 114.85 3.37
-1 2 12 109.2 3.51
-1 2 12 114.95 3.41
-1 -2 12 113.07 4.9
-1 2 12 107.72 4.8
-1 -2 12 111.73 3.5
-1 -2 12 107.56 5.16
1 -2 -12 103.94 4.79
1 2 -12 112.62 4.92
-1 -2 12 116.94 3.6
-1 -2 12 114.29 3.62
-1 2 12 110.49 3.39
-1 2 12 109.71 3.33
-1 -2 12 114.92 3.64
-1 -2 12 113.61 3.65
-1 -2 12 111.23 3.5
-1 -2 12 113.11 3.54
-1 2 12 110.94 3.42
-1 -2 11 10.21 0.74
-1 2 11 9.53 0.76
-1 -2 11 8.82 0.79
-1 2 11 9.96 0.82
-1 2 11 8.9 0.8
-1 2 11 10.97 0.92
-1 -2 11 9.84 1.47
-1 2 11 6.42 1.33
-1 -2 11 9.36 0.85
-1 -2 11 7.79 1.57
-1 2 11 9.61 0.94
-1 -2 11 10.87 1.6
1 2 -11 8.48 1.48
1 -2 -11 8.87 1.41
-1 -2 11 7.84 0.87
-1 2 11 9.91 0.79
-1 2 11 7.86 0.74
-1 -2 11 9.2 0.91
-1 -2 11 8.81 0.95
-1 -2 11 9.83 0.92
-1 2 11 9.69 0.86
-1 -2 11 8.98 0.84
-1 -2 11 7.69 0.81
1 2 -10 29.69 1.9
-1 2 10 35.24 1.34
-1 -2 10 31.82 1.34
-1 -2 10 32.11 1.37
-1 2 10 34.51 1.42
-1 2 10 34.02 1.47
-1 2 10 33.55 1.39
-1 2 10 34.73 2.27
-1 -2 10 29.91 2.19
-1 2 10 33.27 1.56
-1 -2 10 33.25 2.57
-1 -2 10 33.02 1.43
-1 2 10 30.55 1.86
-1 -2 10 35.47 2.54
1 -2 -10 30.26 2.24
1 2 -10 30.02 2.21
-1 -2 10 33.69 1.56
-1 2 10 33.36 1.39
-1 2 10 33.08 1.43
-1 -2 10 38.5 1.6
-1 -2 10 33.72 1.51
-1 -2 10 30.97 1.46
-1 2 10 30.66 1.5
-1 -2 10 31.05 1.47
-1 2 10 36.55 1.48
-1 -2 10 34.15 1.47
1 2 -9 44.3 2.17
-1 2 9 44.64 1.64
-1 2 9 45.31 1.71
-1 2 9 46.3 1.64
-1 -2 9 51.31 2.6
-1 2 9 46.89 2.53
-1 2 9 41.71 1.75
-1 -2 9 49.66 2.9
-1 -2 9 46.86 1.66
-1 -2 9 47.23 1.79
-1 -2 9 47.71 1.77
1 2 -9 41.69 2.46
-1 2 9 45.47 2.19
-1 -2 9 49 2.84
1 -2 -9 48.83 2.6
-1 2 9 42.18 1.64
-1 -2 9 44.61 1.73
-1 -2 9 43.12 1.71
-1 2 9 44.55 1.63
-1 2 9 43.2 1.75
-1 -2 9 44.34 1.76
-1 -2 9 43.05 1.72
-1 -2 9 45.27 1.66
-1 2 9 44.52 1.68
-1 2 8 8.08 0.71
-1 -2 8 8.62 0.73
-1 -2 8 7.45 0.64
-1 2 8 7.91 1.11
-1 -2 8 6.9 1.1
-1 2 8 8.25 0.75
-1 -2 8 8.21 0.64
-1 2 8 6.21 0.74
-1 -2 8 8.03 0.67
-1 -2 8 8.1 0.7
-1 -2 8 7.34 0.71
-1 2 8 7.95 0.69
-1 -2 8 7.27 0.72
-1 -2 8 10.28 1.36
1 -2 -8 9.49 1.22
1 2 -8 10.54 1.24
1 2 -8 6.84 0.87
-1 -2 7 2.24 0.94
1 -2 -7 2.07 0.84
1 2 -7 0.42 0.77
1 2 -7 1.44 0.59
-1 -2 7 2.07 0.73
-1 2 7 1.73 0.75
-1 -2 6 171.93 5.46
1 2 -6 163.61 5.16
1 -2 -6 162.85 5.14
-1 -2 6 168.9 5.56
1 2 -6 166.74 4.86
-1 2 6 176.44 5.19
-1 -2 6 171.84 5.18
1 2 -5 50.68 2.09
1 -2 -5 54.52 2.16
-1 -2 5 51.69 2.44
1 2 -5 50.96 1.86
-1 2 5 48.51 2.03
-1 -2 5 51.65 2.1
1 -2 -4 779.88 19.37
1 2 -4 791.42 19.4
-1 -2 4 786.31 19.8
1 2 -4 766.16 19.13
-1 -2 4 788.03 19.38
-1 2 4 784.67 19.37
1 -2 -3 65.86 2.42
-1 -2 3 59.98 2.37
1 2 -3 61.19 1.9
-1 2 3 59.04 2
-1 -2 3 61.02 2.01
1 -2 -3 60.58 2.02
1 2 -3 59.92 2.04
1 -2 -2 1714.25 39.55
-1 -2 2 1632.79 39.5
1 2 -2 1584.79 39.02
1 -2 -2 1639.83 39.06
1 2 -2 1620.25 39.07
-1 -2 2 1599.13 39.04
-1 2 2 1640.6 39.05
1 -2 -1 4749.23 111.6
1 -2 -1 4620.47 112.07
-1 -2 1 4731.4 112.01
1 2 -1 4644.17 111.6
-1 2 1 4668 111.58
-1 -2 1 4679.26 111.59
1 -2 0 9954.21 234.2
1 2 0 9979.01 234.2
-1 -2 0 9467.97 234.11
1 -2 0 9943.42 234.68
-1 -2 0 9999 234.55
-1 -2 0 9993.03 234.19
-1 2 0 9901.93 234.18
1 -2 1 1206.33 29.24
-1 2 -1 1182.03 28.78
-1 -2 -1 1193.95 28.78
1 -2 1 1214.35 29.24
-1 -2 -1 1238.46 29.01
1 -2 1 1194.03 28.83
1 2 1 1180.86 28.8
1 -2 2 675.85 16.59
1 2 2 655.29 16.18
1 -2 2 674.63 16.52
1 -2 2 624.15 16.19
1 2 2 644.53 16.21
1 -2 2 675.98 16.23
-1 2 -2 692.43 16.61
1 -2 3 920.15 22.7
1 -2 3 863.74 22.31
1 -2 3 921.21 22.54
1 2 3 891.08 22.29
1 -2 3 958.36 22.72
1 -2 3 911.59 22.31
1 2 3 907.89 22.32
-1 2 -3 923.08 22.71
-1 2 -3 916.89 22.61
1 -2 4 301.2 8.23
1 -2 4 297.49 8.17
1 2 4 286.34 7.86
1 -2 4 288.92 7.86
-1 2 -4 303.01 8.13
-1 2 -4 293.63 8.16
1 -2 5 213.46 6.31
1 -2 5 220.58 6.24
1 -2 5 211.61 5.98
1 2 5 222.38 6.02
-1 2 -5 216.96 6.23
-1 2 -5 213.85 6.16
1 -2 6 162.74 5.29
1 2 6 147.09 4.29
-1 2 -6 161.53 4.95
-1 -2 -6 160.41 4.93
1 -2 6 153.7 5.1
1 -2 6 152.18 4.95
1 2 6 166.12 5.02
-1 2 -6 152.45 5.05
-1 2 -6 153.94 5.06
1 -2 7 1.24 0.46
1 -2 7 0.79 0.78
1 2 7 0.68 0.75
1 2 7 1.09 0.52
1 -2 7 0.84 0.47
1 -2 7 0.5 0.74
1 -2 7 0.79 0.43
1 2 7 1.26 0.42
1 -2 7 0.68 0.88
-1 2 -7 1.21 0.83
-1 -2 -7 0.75 0.74
1 -2 7 0.95 0.47
1 -2 7 0.92 0.43
-1 2 -7 1.65 0.9
-1 2 -7 0.34 0.75
1 -2 8 5.41 0.6
1 -2 8 5.3 0.64
1 -2 8 5.49 1.05
1 2 8 5.61 1.05
1 -2 8 5.55 0.66
1 2 8 3.81 0.6
1 2 8 4.76 0.66
1 -2 8 3.63 0.98
-1 -2 -8 4.59 0.98
-1 2 -8 5.06 1.03
1 -2 8 5.24 0.62
1 -2 8 4.73 1.18
1 -2 8 4.68 0.63
1 -2 8 5.83 0.64
1 -2 8 5.34 0.64
-1 2 -8 3.64 1
-1 2 -8 4.86 0.94
-1 2 -9 19.59 1.75
1 2 9 21.19 0.98
1 -2 9 20.85 1.06
1 -2 9 22.73 1.06
1 -2 9 21.3 0.99
1 2 9 21.21 1.05
1 2 9 20.6 1.02
1 2 9 20.88 1.08
1 -2 9 22.4 1.83
1 2 9 24.51 1.91
1 -2 9 20.77 1.11
1 -2 9 22.94 1.96
1 2 9 21.85 1.2
-1 -2 -9 17.98 1.7
-1 2 -9 20.69 1.76
1 -2 9 24.82 2.09
1 -2 9 21.59 1.12
1 -2 9 20.17 1.11
1 -2 9 22.29 1.13
1 2 9 19.91 1
1 -2 9 21.29 1.06
1 -2 9 20.96 1.13
1 -2 9 20.69 1.13
1 -2 9 20.15 1.1
1 2 9 20.52 1.15
-1 2 -10 60.45 3.15
-1 -2 -10 60.17 3.32
1 -2 10 57.43 2.04
1 -2 10 54.45 1.91
1 2 10 56.81 1.93
1 -2 10 55.54 1.95
1 2 10 53.72 1.97
1 2 10 49.68 2
1 2 10 55.25 1.93
1 2 10 62.9 3.24
1 -2 10 63.37 3.24
1 -2 10 60.76 3.21
1 -2 10 56.47 2.11
1 2 10 54.92 2.15
-1 2 -10 58.63 3.11
-1 -2 -10 57.07 3.08
1 -2 10 55.77 2.05
1 -2 10 59.19 2.12
1 -2 10 57.77 1.99
1 -2 10 57.05 2.1
1 -2 10 57.17 2.12
1 -2 10 53.65 2.04
1 -2 10 56.76 2.13
-1 2 -11 33.15 2.41
-1 -2 -11 36.14 2.71
1 -2 11 32.98 1.4
1 -2 11 34.03 1.43
1 2 11 31.13 1.39
1 -2 11 36.26 1.53
1 2 11 33 1.41
1 2 11 33.89 1.56
1 2 11 34.22 1.49
1 -2 11 32.31 2.49
1 2 11 34.78 2.54
1 -2 11 30.71 2.42
1 2 11 35.29 1.69
1 -2 11 36.05 1.65
-1 -2 -11 28.31 2.36
1 -2 11 34.91 1.62
1 -2 11 31.26 1.5
-1 2 -11 32.12 2.44
1 -2 11 37.96 1.69
1 -2 11 33.93 1.45
1 -2 11 37.2 1.64
1 -2 11 35.46 1.64
1 -2 12 1.97 0.53
1 -2 12 1.92 0.62
1 2 12 2.75 0.64
1 2 12 1.44 0.56
1 -2 12 0.42 1.03
1 2 12 2.11 1.07
1 -2 12 1.08 0.71
1 2 12 1.42 0.72
1 -2 12 1.68 0.74
1 -2 12 1.2 0.98
-1 -2 -12 4.19 1.29
1 -2 12 2.58 0.7
1 -2 12 2.6 1.19
-1 2 -12 2.02 1.06
1 -2 12 1.4 0.63
1 -2 12 1.12 0.49
1 -2 12 2.04 0.75
1 -2 12 2.32 0.69
-1 -2 -12 1.82 1.23
-1 2 -12 0.77 0.95
1 -2 13 135.9 3.98
1 2 13 135.26 3.87
1 2 13 130.91 3.97
1 2 13 138.49 3.84
1 -2 13 143.46 4.06
1 2 13 135.2 4.02
1 2 13 130.27 4.16
1 -2 13 140.13 4.2
1 -2 13 132.21 4.09
1 -2 13 132.56 4.22
1 -2 13 135.13 4.14
1 -2 13 129.5 3.96
1 -2 13 131.13 4.14
1 -2 14 27.18 1.24
1 2 14 24.07 1.11
1 2 14 22.77 1.23
1 -2 14 25.95 1.29
1 2 14 24.45 1.25
1 -2 14 26.24 1.44
1 -2 14 25.08 1.32
1 -2 14 26.46 1.35
1 -2 14 25.86 1.47
1 -2 14 24.54 1.42
1 -2 15 8.34 0.68
1 2 15 9 0.77
1 2 15 8.5 0.75
1 -2 15 8.94 0.77
1 -2 15 8.21 0.84
1 -2 15 8.29 0.8
1 -2 15 10.2 0.96
1 -2 15 11.49 0.88
1 -2 15 9.08 0.91
1 2 16 3.59 0.53
1 -2 16 4.87 0.65
1 -2 16 4.8 0.65
1 2 16 3.56 0.53
1 -2 16 4.17 0.55
1 -2 17 9.04 0.62
1 -2 17 8.66 0.5
-1 2 -17 8.64 0.53
1 2 17 9.81 0.53
-1 3 17 39.91 1.25
-1 3 16 31.94 1.11
-1 3 16 32.68 1.19
-1 -3 15 0.33 0.36
-1 -3 15 0.19 0.33
-1 3 15 -0.23 0.43
-1 3 15 0.12 0.47
-1 -3 15 0.55 0.55
-1 -3 15 0.75 0.6
-1 -3 15 0.88 0.48
-1 -3 15 0.12 0.47
-1 -3 14 0.85 0.55
-1 -3 14 0.97 0.56
-1 3 14 1.42 0.54
-1 3 14 2.1 0.6
1 -3 -14 0.9 0.46
-1 -3 14 1.28 0.62
-1 -3 14 1.45 0.65
-1 -3 14 1.4 0.6
-1 -3 14 2.74 0.57
-1 -3 13 7.3 0.72
-1 -3 13 7.93 0.68
-1 3 13 7.87 0.66
-1 -3 13 7.54 0.8
-1 -3 13 8.19 0.81
-1 -3 13 8.59 0.83
-1 3 13 8.09 0.8
-1 3 13 8.06 0.8
1 -3 -13 8.34 0.68
-1 -3 13 7.56 0.98
-1 -3 13 7.33 0.87
-1 -3 13 9.05 0.99
-1 -3 13 7.16 0.93
-1 -3 13 7.12 0.87
-1 -3 13 8.17 0.86
-1 3 12 128.37 3.77
-1 -3 12 142.24 4.03
-1 -3 12 138.49 3.82
-1 3 12 134.13 3.99
-1 3 12 139.49 4.01
-1 -3 12 130.01 5.9
-1 -3 12 132.94 3.99
1 -3 -12 133.02 5.64
-1 -3 12 145.36 5.93
-1 -3 12 129.38 4.16
1 -3 -12 135.13 3.81
1 3 -12 127.48 3.81
-1 -3 12 139.23 4.21
-1 -3 12 127.82 4.07
-1 -3 12 128.93 4.17
-1 -3 12 141.81 4.18
-1 3 12 133.77 3.94
-1 -3 12 143.87 4.12
-1 -3 12 130.4 3.97
-1 3 11 16.93 0.9
-1 -3 11 16.08 1.08
-1 -3 11 16.02 0.9
-1 3 11 18.27 1.09
-1 3 11 18.4 1.06
-1 3 11 16.17 1.69
-1 -3 11 18.79 1.12
-1 -3 11 13.39 1.96
1 -3 -11 14.11 1.83
-1 -3 11 16.7 1.98
-1 -3 11 16.25 1.2
1 3 -11 15.7 1.64
-1 -3 11 17.1 1.22
-1 -3 11 14.59 1.18
-1 -3 11 15.41 1.1
-1 -3 11 17.29 1.19
-1 -3 11 16.46 1.14
-1 -3 11 16.93 1.08
-1 3 11 16.28 1.06
-1 3 10 126.77 3.57
-1 -3 10 132 3.81
-1 3 10 130.36 3.79
-1 3 10 123.03 3.73
-1 3 10 126.54 3.83
-1 3 10 121.79 4.77
-1 -3 10 130.2 4.91
1 -3 -10 130.24 5.37
-1 -3 10 126.81 3.75
-1 -3 10 137.61 5.71
-1 -3 10 131.53 5.42
1 -3 -10 123.46 4.8
-1 -3 10 121.63 3.91
1 3 -10 114.73 4.74
-1 -3 10 127.23 3.93
-1 -3 10 131.5 3.94
-1 -3 10 124.44 3.8
-1 3 10 127.08 3.74
-1 3 10 130.47 3.81
-1 -3 10 127.52 3.76
-1 -3 10 130.09 3.9
-1 3 9 98.64 3.03
-1 3 9 101.83 2.96
-1 3 9 95.48 2.96
-1 3 9 95.93 3.84
-1 -3 9 99.93 3.91
1 -3 -9 96.83 4.39
-1 -3 9 99.24 2.95
-1 -3 9 92.57 3.06
-1 -3 9 102.62 4.4
1 -3 -9 90.02 3.8
1 3 -9 93.6 3.89
-1 -3 9 96.62 3.11
-1 3 9 95.89 2.96
-1 -3 9 94.99 3.06
-1 -3 9 91.89 2.97
-1 -3 9 93.06 2.91
-1 3 9 95.29 3.01
-1 -3 9 96.47 3.09
-1 3 8 701.7 17.33
-1 3 8 700.48 17.18
-1 -3 8 704.24 18.28
-1 3 8 703.25 17.29
-1 3 8 701.31 18.23
-1 -3 8 701.66 17.2
1 -3 -8 744.65 19.08
1 3 -8 685.98 18.27
-1 -3 8 706.37 17.32
-1 -3 8 758.3 19.04
-1 -3 8 704.3 17.37
1 -3 -8 676.67 18.19
-1 -3 8 702.85 17.32
-1 -3 8 690.55 17.21
-1 3 8 704.6 17.25
-1 3 8 682.23 17.29
-1 -3 8 679 17.16
-1 3 8 681.77 17.09
-1 3 7 390.64 9.8
-1 -3 7 382.97 9.66
-1 3 7 382.37 9.66
-1 3 7 378.02 10.48
-1 -3 7 389.51 10.58
-1 -3 7 375.8 11.41
1 -3 -7 421.1 11.35
-1 -3 7 392.31 9.7
-1 -3 7 391.28 9.8
1 -3 -7 375.36 10.52
1 3 -7 381.88 10.56
-1 -3 7 394.31 9.86
-1 -3 7 416.3 11.2
-1 -3 7 371.56 9.68
-1 3 7 383.06 9.76
-1 -3 7 391.25 9.79
1 3 -7 368.57 10.21
1 3 -7 375.98 9.59
-1 3 6 35.67 1.37
-1 -3 6 35.91 1.72
-1 3 6 31.67 1.64
1 -3 -6 37.67 2.21
-1 -3 6 38.5 2.34
-1 -3 6 33.7 1.32
-1 -3 6 34.7 1.38
1 3 -6 32.28 1.69
1 -3 -6 32.93 1.68
-1 -3 6 40.03 2.17
-1 3 6 34.62 1.33
-1 -3 6 32.03 1.3
1 3 -6 36.09 1.62
-1 -3 5 502.44 13.12
1 3 -5 483.43 12.56
1 -3 -5 480.7 12.52
1 -3 -5 515.57 13.37
-1 -3 5 487.78 13.45
-1 -3 5 495.52 12.58
-1 3 5 489.13 12.52
1 3 -5 474.48 12.49
-1 -3 4 78.69 2.86
1 3 -4 74.12 2.42
1 -3 -4 74.37 2.39
-1 -3 4 76.01 3.11
1 -3 -4 76.09 3.06
-1 3 4 72.99 2.37
-1 -3 4 72.99 2.41
1 3 -4 71.85 2.47
-1 -3 3 49.18 1.98
1 3 -3 46.33 1.57
-1 -3 3 45.18 2.26
1 -3 -3 54 2.3
-1 3 3 48.57 1.54
-1 -3 3 47.68 1.58
1 3 -3 45.97 1.78
-1 3 3 46.87 1.92
1 -3 -2 211.07 5.58
-1 -3 2 198.59 5.58
-1 3 2 204.4 5.35
-1 -3 2 203.33 5.08
1 -3 -1 39.14 1.84
-1 -3 1 42.5 1.91
-1 3 1 42.63 1.87
-1 -3 1 37.01 1.38
-1 -3 0 2.29 0.68
1 -3 0 3.88 0.78
-1 -3 0 2.18 0.35
-1 3 0 2.97 0.78
-1 3 0 3.32 0.85
-1 -3 -1 34.56 1.63
-1 -3 -1 32.83 1.27
1 -3 1 33.58 1.69
-1 3 -1 37.41 1.83
-1 3 -1 33.1 1.84
-1 -3 -2 52.13 1.83
1 -3 2 51.38 2.12
1 -3 2 49.97 2.36
-1 -3 -2 52.56 2
1 -3 2 50.52 2.15
-1 3 -2 47.35 1.44
-1 3 -2 46.56 1.43
-1 3 -2 54.28 2.31
-1 3 -2 53.99 2.36
1 -3 3 134.35 4.31
-1 -3 -3 127.65 3.54
-1 3 -3 127.45 3.56
1 -3 3 128.95 4.12
-1 -3 -3 136.43 4
-1 3 -3 129.97 4.3
1 -3 3 118.99 3.57
-1 -3 -4 140.32 4.08
1 -3 4 145.1 4.8
-1 3 -4 143.72 4.11
1 -3 4 136.13 4.53
-1 3 -4 153.26 4.78
-1 3 -4 145.56 4.85
1 -3 4 138.62 4.15
1 3 4 140.15 4.16
1 -3 5 429.08 11.35
1 3 5 419.75 11.33
1 -3 5 442.99 12.11
1 -3 5 439.65 10.84
1 -3 5 452.89 12.09
-1 -3 -5 424.64 11.25
1 -3 5 431.16 10.83
-1 3 -5 440.65 11.31
1 -3 5 427.46 10.8
-1 3 -5 433.05 11.86
-1 3 -5 448.23 12.11
1 -3 6 67.24 2.06
1 -3 6 67.58 2.13
1 3 6 65.89 2.64
1 -3 6 67.95 2.67
1 -3 6 63.3 2.14
1 -3 6 71.26 3.28
-1 -3 -6 63.53 2.55
-1 3 -6 66.6 2.61
1 -3 6 66.15 2.14
1 -3 6 71.92 3.18
1 -3 6 66.92 2.12
-1 3 -6 67.31 2.96
-1 3 -6 60.64 3
-1 3 -7 455.26 12.64
-1 3 -7 450.97 12.44
1 3 7 452.32 11.15
1 3 7 436.86 11.12
1 3 7 422.73 12
1 -3 7 441.35 12.08
1 -3 7 451.37 11.2
1 -3 7 449.8 12.78
-1 -3 -7 429.92 11.92
1 -3 7 441.88 12.75
1 -3 7 443.21 11.2
-1 3 -7 451.85 12.03
1 -3 7 458.15 11.19
1 -3 7 426.68 11.09
1 -3 7 438.84 11.17
-1 3 -8 18.72 1.78
-1 3 -8 21.44 1.81
1 -3 8 22.83 1.12
1 3 8 21.6 1.07
1 3 8 20.27 1.08
1 3 8 22.58 1.68
1 -3 8 19.58 1.6
1 -3 8 20.3 1.92
1 -3 8 22.91 1.15
-1 -3 -8 19.39 1.58
-1 3 -8 21.22 1.63
1 -3 8 23.47 1.18
1 -3 8 23.44 1.19
1 -3 8 20.91 1.07
1 -3 8 20.35 1.12
-1 3 -9 2.47 1.06
1 -3 9 2.23 0.61
1 3 9 2.44 0.58
1 -3 9 2.58 0.94
1 3 9 2.72 0.93
1 3 9 2.31 0.59
1 -3 9 1.68 0.64
1 -3 9 0.99 0.96
1 -3 9 3.32 1.31
-1 3 -9 1.29 0.75
-1 -3 -9 1.66 0.82
1 -3 9 2.61 0.63
1 -3 9 2 0.56
1 -3 9 2.44 0.64
1 -3 9 2.14 0.61
1 -3 9 2.77 0.67
1 -3 9 1.93 0.54
1 -3 9 2.98 0.59
-1 3 -10 225.81 7.52
1 -3 10 225.12 6.11
1 3 10 217.62 6.1
1 3 10 223.02 6.1
1 3 10 225.24 7.43
1 3 10 227.2 5.98
1 -3 10 225.6 7.48
1 -3 10 225.84 6.2
1 -3 10 221.22 7.89
-1 3 -10 225.18 7.35
1 -3 10 223.32 6.2
1 -3 10 242.51 8.24
1 -3 10 228.76 6.14
1 -3 10 227.6 6.24
1 -3 10 214.48 6.19
1 -3 10 214.48 6.09
1 -3 10 220.54 6.19
1 -3 10 225.57 6.01
-1 -3 -11 3.55 1.41
-1 3 -11 1.99 1
1 -3 11 1.89 0.64
1 -3 11 2.32 0.77
1 3 11 1.39 0.64
1 3 11 1.66 0.64
1 3 11 1.99 1.03
1 3 11 1.49 0.66
1 -3 11 0.94 0.54
1 3 11 1.56 0.54
1 -3 11 3.55 0.82
1 -3 11 2.87 1.35
-1 3 -11 1.71 0.93
1 -3 11 2.71 0.84
1 -3 11 0.96 1.31
1 -3 11 1.19 0.77
1 -3 11 2.96 0.81
1 -3 11 2.74 0.76
1 -3 11 2.48 0.67
1 -3 11 1.93 0.71
-1 -3 -12 4.27 1.28
1 -3 12 5.36 0.77
1 -3 12 3.5 0.68
1 3 12 3.73 0.73
1 3 12 4.49 0.7
1 3 12 3.97 0.75
1 3 12 5.33 0.65
1 -3 12 5.1 0.66
1 -3 12 5.17 0.8
1 -3 12 4.1 0.81
1 -3 12 5.42 1.39
1 -3 12 5.62 0.85
1 -3 12 5.9 0.86
1 -3 12 4.55 0.68
1 -3 12 3.69 0.75
1 -3 12 5.82 0.87
1 3 13 -0.25 0.49
1 3 13 -0.43 0.58
1 -3 13 -0.05 0.47
1 3 13 0.09 0.47
1 -3 13 -0.19 0.66
1 -3 13 -0.25 0.64
1 -3 13 -0.06 0.68
1 -3 13 -0.13 0.73
1 -3 13 0.45 0.66
1 -3 13 0.57 0.62
1 -3 13 0.32 0.48
1 -3 13 0.27 0.58
-1 3 -14 22.65 1.14
1 -3 14 23.83 1.19
1 3 14 24.8 1.19
1 3 14 24.97 1.14
1 -3 14 24.53 1.09
1 -3 14 22.86 1.27
1 -3 14 21.09 1.25
1 -3 14 20.95 1.28
1 -3 14 24.33 1.29
1 -3 14 23.83 1.27
1 3 15 0.74 0.46
1 3 15 0.75 0.39
1 -3 15 0.57 0.36
1 -3 15 0.72 0.54
1 -3 15 1.36 0.53
1 -3 15 1.87 0.63
1 -3 15 0.23 0.51
1 -3 15 1.07 0.57
1 -3 15 0.43 0.47
-1 3 -15 1.18 0.5
1 3 16 0.79 0.4
1 -3 16 0.33 0.42
1 -3 16 0.44 0.42
1 3 17 2.73 0.29
-1 -4 16 0.19 0.35
-1 4 16 0.05 0.26
-1 4 16 0.07 0.26
-1 -4 15 11.28 0.66
-1 -4 15 11.64 0.79
-1 -4 15 8.94 0.74
-1 -4 15 10.73 0.77
-1 4 15 11.46 0.67
-1 4 15 11.22 0.67
-1 4 14 71.48 2.36
-1 4 14 82.57 2.39
-1 4 14 73.08 2.29
-1 -4 14 67.18 2.21
-1 -4 14 74.44 2.31
-1 -4 14 70.74 2.44
-1 -4 14 73.28 2.46
-1 -4 14 77.25 2.42
-1 -4 14 77.14 2.5
-1 -4 14 70.04 2.21
-1 4 13 44.75 1.65
-1 4 13 43.81 1.74
-1 4 13 44.81 1.72
-1 -4 13 43.22 1.63
-1 -4 13 41.8 1.62
-1 -4 13 43.36 1.69
-1 -4 13 43.05 1.83
-1 -4 13 40.7 1.81
-1 -4 13 43.17 1.78
-1 -4 13 38.51 1.63
-1 -4 13 46.9 1.86
-1 -4 13 44.16 1.62
-1 -4 13 44.31 1.7
-1 4 12 43.97 1.8
-1 4 12 43.59 1.81
-1 4 12 48.3 1.77
-1 -4 12 43.85 1.71
-1 -4 12 46.7 1.83
-1 -4 12 42.67 1.75
-1 -4 12 44.54 1.9
-1 -4 12 42.88 1.89
-1 -4 12 46.76 1.92
-1 -4 12 40.66 1.73
-1 -4 12 42.3 1.82
-1 -4 12 43.64 1.7
-1 4 11 19.97 1.23
-1 4 11 22.58 1.26
-1 4 11 22.04 1.18
-1 -4 11 21.87 1.37
-1 -4 11 21.98 1.17
-1 -4 11 21.35 2.39
-1 -4 11 25.34 1.41
-1 -4 11 24.19 1.38
-1 -4 11 21.4 1.21
-1 -4 11 20.62 1.15
-1 -4 11 22.82 1.35
-1 4 10 27.93 1.31
-1 4 10 28.7 1.4
1 -4 -10 21.44 2.17
-1 -4 10 27.8 1.32
-1 4 10 28.55 1.2
-1 -4 10 26.67 1.45
-1 -4 10 24.26 1.47
-1 -4 10 23.84 2.25
-1 -4 10 27.3 1.48
-1 -4 10 28.41 1.53
-1 -4 10 24.88 1.3
-1 -4 10 28.76 1.29
-1 -4 10 27.29 1.45
1 4 -9 14.1 0.82
-1 -4 9 15.45 1.03
-1 4 9 15.09 0.93
-1 4 9 14.06 1.01
-1 4 9 13.9 0.97
-1 4 9 15.03 0.87
-1 -4 9 12.16 0.9
-1 -4 9 12.54 1.9
1 -4 -9 11.16 1.59
-1 -4 9 14.15 1.08
-1 -4 9 13.57 1.06
-1 -4 9 13.63 1.69
-1 -4 9 11.93 1.03
-1 -4 9 12.71 0.92
-1 4 9 12.18 0.77
-1 -4 9 14.73 0.94
-1 4 8 -0.47 0.52
1 4 -8 0.21 0.44
-1 4 8 -0.05 0.5
-1 4 8 -0.32 0.44
-1 4 8 0.12 0.56
-1 4 8 0.11 0.51
-1 -4 8 -0.18 0.88
-1 -4 8 -0.29 0.59
-1 -4 8 0.27 0.46
-1 4 8 -0.17 0.43
-1 -4 8 -0.06 0.57
-1 -4 8 0.05 0.46
-1 -4 8 0.44 0.62
-1 -4 8 0.53 0.49
-1 -4 8 -0.67 1.2
1 -4 -8 -0.19 0.94
1 4 -7 24.77 1.11
-1 4 7 23.61 1.17
-1 4 7 24.14 1.27
-1 4 7 23.77 1.09
-1 -4 7 20.82 2.14
-1 -4 7 25.17 1.16
1 -4 -7 26.99 2.1
-1 4 7 25.89 1.17
-1 -4 7 27.56 1.35
-1 -4 7 25.46 1.94
-1 -4 7 25.61 1.27
-1 -4 7 26.45 1.27
-1 4 7 25.34 1.15
-1 -4 7 22.88 1.08
1 4 -6 13.49 0.82
-1 4 6 13.64 0.88
-1 4 6 15.64 0.91
-1 4 6 14.78 0.87
-1 4 6 13.95 0.97
-1 4 6 13.18 0.92
-1 -4 6 14.32 0.85
-1 4 6 13.1 0.82
-1 -4 6 16.69 1.83
1 -4 -6 11.16 1.51
-1 -4 6 13.74 0.88
-1 -4 6 10.6 1.32
-1 -4 6 15.41 1
-1 -4 6 14.29 0.91
-1 4 6 14.77 0.85
1 4 -5 17.87 0.94
-1 4 5 18.41 0.96
-1 4 5 18.32 0.99
-1 4 5 18.86 1.04
-1 4 5 17.7 1.01
-1 -4 5 16.77 0.93
-1 -4 5 17.26 1.41
-1 4 5 16.14 0.93
-1 -4 5 17.96 0.95
-1 -4 5 19.12 0.91
-1 -4 5 20.02 1.82
1 -4 -5 17.03 1.6
-1 4 5 17.23 0.95
-1 -4 4 20.6 1.73
-1 4 4 15.73 0.93
1 -4 -4 19.56 1.6
-1 -4 4 19.24 0.91
-1 4 4 19.97 0.96
-1 -4 4 21.02 0.94
-1 -4 4 17.84 1.33
-1 -4 4 19.12 0.96
1 4 -4 20.32 0.97
-1 4 4 17.85 1.15
-1 4 3 156.1 4.31
-1 4 3 160.23 4.87
1 4 -3 159.83 4.29
-1 -4 3 158.56 5.46
1 -4 -3 170.07 5.34
-1 4 3 150.82 4.29
-1 4 2 579.28 14.42
-1 4 2 597.24 15.23
-1 -4 2 595.22 15.66
1 -4 -2 571.26 15.39
-1 4 1 933.31 23.54
1 4 -1 931.31 22.58
1 4 -1 932.96 22.61
-1 -4 1 942.84 23.75
-1 4 1 918.91 22.62
1 -4 -1 924.39 23.54
1 4 0 430.23 10.97
1 4 0 443.91 11.02
-1 4 0 441.95 12.03
-1 4 0 443.74 11.04
1 -4 0 440.9 11.88
-1 -4 0 440.72 12.02
1 -4 0 479.89 12.54
-1 4 -1 168.02 4.44
1 4 1 156.08 4.35
-1 4 -1 176.92 5.52
1 4 1 163.19 4.4
-1 -4 -1 161.19 5.21
1 -4 1 175.29 5.76
1 -4 1 167.51 5.19
1 -4 2 45.77 1.57
1 4 2 46.38 1.57
-1 4 -2 45.2 1.59
-1 4 -2 49.25 2.49
-1 4 -2 46.62 2.45
1 -4 2 46.58 1.57
1 -4 2 49.57 2.61
1 -4 2 41.72 2.1
-1 -4 -2 48.18 2.18
1 -4 3 118.53 3.36
-1 4 -3 118.33 4.41
-1 4 -3 119.82 4.52
-1 4 -3 118.58 3.34
1 4 3 117.52 3.31
1 -4 3 116.75 3.33
-1 -4 -3 118.16 3.97
1 -4 3 131.29 4.76
1 -4 3 116.45 4.06
1 -4 4 0.32 0.93
1 -4 4 1.02 0.46
1 -4 4 -0.13 0.73
1 -4 4 0.88 0.49
1 -4 4 1.11 0.43
-1 4 -4 1.2 0.79
-1 4 -4 0.3 0.95
1 4 4 0.42 0.38
-1 4 -5 -0.14 0.78
1 4 5 0.42 0.37
1 4 5 0.17 0.43
1 4 5 -0.18 0.44
1 4 5 -0.38 0.45
1 -4 5 -0.05 0.49
-1 -4 -5 0.22 0.62
1 -4 5 0.46 0.49
1 -4 5 0.15 0.8
1 -4 5 -0.34 0.44
1 -4 5 0.26 0.43
1 4 6 4.45 0.48
-1 4 -6 4.92 1.15
-1 4 -6 8.24 1.39
1 -4 6 5.86 0.67
-1 4 -6 5.64 0.64
1 4 6 5.98 0.64
1 4 6 4.31 0.57
1 4 6 5.28 0.65
1 4 6 6.93 0.66
1 4 6 5.82 0.6
1 -4 6 5.79 0.71
1 -4 6 4.67 1.28
-1 -4 -6 5.26 1.02
1 -4 6 5.2 1.2
1 -4 6 5.48 0.71
1 -4 6 5.96 0.7
1 -4 6 5.62 0.67
1 -4 6 5.01 0.63
-1 4 -7 92.27 4.14
-1 4 -7 87.1 2.69
-1 4 -7 87.52 3.82
1 4 7 85.79 2.68
1 4 7 86.23 2.67
1 4 7 87.43 2.74
1 4 7 83.45 2.62
1 -4 7 89 4.21
1 -4 7 83.12 2.77
-1 -4 -7 92.23 3.77
1 -4 7 86.81 2.76
1 -4 7 87.92 2.83
1 -4 7 91.26 4.13
1 -4 7 85.78 2.77
1 -4 7 83.94 2.83
1 -4 7 89.47 2.78
1 -4 7 84.2 2.63
-1 4 -8 19.32 1.86
-1 4 -8 23.27 1.17
1 4 8 21.43 1.11
1 4 8 21.56 1.09
1 4 8 23.13 1.2
-1 -4 -8 23.43 1.95
1 -4 8 24.37 1.29
1 -4 8 23.68 2.22
1 -4 8 23.7 1.24
1 -4 8 18.57 2.04
1 -4 8 24.97 1.34
1 -4 8 22.2 1.23
1 -4 8 24.25 1.25
1 -4 8 23.93 1.14
-1 4 -9 40.03 2.61
-1 4 -9 46.91 1.79
1 4 9 46.45 1.84
1 4 9 47.95 1.68
1 4 9 49.74 1.89
1 4 9 45.27 1.75
1 -4 9 47.86 1.91
-1 -4 -9 41.1 2.69
1 -4 9 46.76 3.16
1 -4 9 47.5 1.94
1 -4 9 48.51 1.9
1 -4 9 44.56 1.93
1 -4 9 46.83 1.98
1 -4 9 40.59 2.98
1 -4 9 45.57 1.88
1 -4 9 42.19 1.73
1 -4 9 49.6 1.91
-1 4 -10 18.91 1.11
1 4 10 19.49 1.09
1 4 10 17.56 1.15
1 4 10 19.03 1.16
1 -4 10 19.09 1.2
1 -4 10 17.38 2.07
1 -4 10 19.23 1.19
1 -4 10 18.97 1.19
1 -4 10 17 2.04
1 -4 10 21.32 1.31
1 -4 10 18.08 1.21
1 -4 10 18.47 1.16
1 -4 10 21.66 1.27
1 -4 10 18.79 1.09
1 -4 10 20.21 1.22
-1 4 -11 205.93 5.71
1 4 11 195.57 5.71
1 4 11 217.69 5.85
1 4 11 209.38 5.81
1 -4 11 216.46 5.91
1 -4 11 210.32 5.81
1 -4 11 209.38 5.85
1 -4 11 208.44 5.94
1 -4 11 212.85 5.94
1 -4 11 214.52 5.93
1 -4 11 210.66 5.84
1 -4 11 209.06 5.87
-1 4 -12 27.44 1.3
1 4 12 31.92 1.44
1 -4 12 29.69 1.47
1 -4 12 30.27 1.41
1 -4 12 27.94 1.45
1 -4 12 31.42 1.41
1 -4 12 31.06 1.5
1 -4 12 30.43 1.52
1 -4 12 31.54 1.5
-1 4 -13 19.02 0.99
1 -4 13 20.66 1.03
1 -4 13 19.92 1.14
1 4 13 19.93 1.07
1 -4 13 19.53 1.18
1 -4 13 19.8 1.13
1 -4 13 19.65 1.17
1 -4 13 19.24 1.13
1 4 14 2.75 0.53
1 -4 14 2.83 0.62
1 -4 14 2.01 0.55
1 -4 14 1.75 0.57
1 -4 14 3.05 0.62
1 -4 14 2.3 0.6
1 -4 14 2.43 0.55
1 4 15 3.67 0.4
1 -4 15 2.84 0.51
1 -4 15 4.12 0.52
1 -4 15 3.13 0.49
1 -4 15 3.51 0.49
1 -4 15 3.74 0.47
1 4 16 0.66 0.26
-1 5 15 11.04 0.55
-1 -5 15 14.17 0.55
-1 5 14 25.27 0.98
-1 -5 14 19.99 0.94
-1 -5 14 22.86 0.99
-1 -5 14 22.76 0.94
-1 -5 14 21.49 0.99
-1 5 13 0.48 0.46
-1 -5 13 -0.18 0.52
-1 -5 13 0.53 0.51
-1 -5 13 0.66 0.5
-1 -5 13 0.54 0.44
1 5 -12 43.18 1.5
-1 5 12 45.02 1.62
-1 5 12 42.51 1.51
-1 -5 12 39.57 1.48
-1 -5 12 40.84 1.63
-1 -5 12 41.36 1.7
-1 -5 12 41.56 1.73
-1 -5 12 43.48 1.71
-1 -5 12 42.92 1.77
-1 -5 12 39.62 1.62
-1 5 11 291.74 7.43
-1 5 11 291.62 7.59
-1 5 11 286.52 7.55
-1 -5 11 270.43 7.41
-1 -5 11 293.82 7.64
-1 -5 11 296.67 7.63
-1 -5 11 289.75 7.76
-1 -5 11 284.17 7.66
-1 -5 11 295.37 7.69
-1 -5 11 273.2 7.62
-1 5 10 335.05 8.87
-1 5 10 358.61 8.93
-1 5 10 344.56 8.76
-1 -5 10 331.39 8.77
-1 -5 10 343.27 8.95
-1 -5 10 336.26 9.08
-1 -5 10 333.06 8.97
-1 -5 10 345.21 9.01
-1 -5 10 339.19 9.03
1 5 -9 304.78 7.75
-1 5 9 295.99 7.91
-1 5 9 299.78 7.92
-1 5 9 295.96 7.75
-1 5 9 306.68 7.8
-1 -5 9 287.82 7.8
-1 -5 9 294.1 7.96
-1 -5 9 296.08 8
-1 -5 9 307.22 8.13
-1 -5 9 299.19 8.12
-1 -5 9 292.56 7.98
-1 -5 9 303.88 8.09
-1 -5 8 15.57 1.08
-1 5 8 14.6 0.97
-1 5 8 13.93 1.08
-1 5 8 16.31 1.02
-1 5 8 14.28 0.87
-1 -5 8 14.88 0.95
-1 5 8 15.65 0.98
-1 -5 8 13.11 1.89
1 -5 -8 11.44 1.58
-1 -5 8 13.95 1.04
-1 -5 8 15.75 1.13
-1 -5 8 14.32 1.07
-1 -5 8 14.68 1.15
1 5 -8 14.91 0.92
-1 5 7 4.86 0.57
-1 5 7 3.75 0.78
-1 5 7 5.4 0.66
-1 5 7 4.64 0.68
-1 -5 7 4.11 0.71
1 -5 -7 3.43 1.08
-1 -5 7 3.68 0.6
-1 -5 7 5.71 1.41
-1 -5 7 4.25 0.83
-1 -5 7 2.87 0.66
-1 5 7 3.95 0.63
1 5 -7 4.46 0.63
-1 5 6 0.06 0.62
-1 5 6 0.17 0.57
-1 5 6 0.44 0.52
-1 -5 6 -0.14 0.46
1 -5 -6 -0.17 0.84
-1 -5 6 1.35 1.2
-1 -5 6 -0.37 0.51
-1 -5 6 0.83 0.53
-1 -5 6 0.13 0.63
-1 5 6 0.16 0.54
-1 5 6 0.16 0.55
1 5 -6 0.51 0.54
-1 5 5 -0.31 0.63
-1 5 5 -0.41 0.44
-1 5 5 -0.06 0.61
1 -5 -5 -0.16 0.78
-1 -5 5 0.56 0.51
-1 -5 5 0.21 0.99
-1 -5 5 -0.24 0.47
-1 -5 5 0.1 0.53
-1 -5 5 0.3 0.6
-1 5 5 -0.4 0.53
-1 5 5 0.68 0.56
1 5 -5 0.51 0.57
-1 5 4 22.42 1.05
-1 5 4 23.19 1.22
-1 5 4 23.57 1.32
-1 -5 4 20.42 2.02
-1 5 4 21.93 1.18
1 -5 -4 22.72 1.86
-1 -5 4 21.02 1.07
-1 5 4 21.89 1.25
-1 -5 4 23.96 1.16
1 5 -4 24.78 1.2
-1 5 4 22.53 1.13
-1 5 3 -0.31 0.51
1 5 -3 0.3 0.44
-1 5 3 1.02 0.64
1 -5 -3 -0.14 0.69
-1 -5 3 -0.37 0.87
-1 5 3 0.23 0.61
-1 -5 3 0.32 0.45
-1 5 3 -0.05 0.48
-1 5 3 0.56 0.51
1 5 -3 0.2 0.49
-1 5 2 3.11 0.6
1 5 -2 3.34 0.57
-1 5 2 3.66 0.73
-1 5 2 3.49 0.62
1 -5 -2 3.93 0.93
1 -5 -2 5.61 1.23
-1 -5 2 4.58 1.06
-1 5 1 8.66 0.84
-1 5 1 6.89 0.71
1 5 -1 8.62 0.75
-1 5 1 9.45 1.16
-1 5 1 7.24 0.75
-1 5 1 7.84 0.69
1 5 -1 8.09 0.74
1 -5 -1 7.94 1.08
-1 -5 1 7.6 1.25
1 -5 -1 9.62 1.5
-1 5 0 119.83 3.65
-1 -5 0 114.01 4.53
1 -5 0 130.91 5.14
1 5 0 117.87 3.55
-1 5 0 123.36 3.52
-1 5 0 123.55 3.59
-1 5 0 116.09 3.47
-1 5 0 117.15 4.49
1 5 0 125.08 3.57
1 5 0 123.62 3.52
1 5 1 4.09 0.62
1 5 1 4.36 0.58
-1 5 -1 3.5 0.56
1 5 1 2.91 0.6
-1 5 -1 4.36 0.72
1 5 1 3.35 0.62
-1 -5 -1 3.87 0.95
1 -5 1 3.38 1.25
1 -5 1 3.28 0.52
1 -5 1 3.68 0.52
-1 5 -1 2.57 1
-1 5 -1 3.18 0.55
-1 5 -1 3.55 0.62
1 5 1 3.52 0.51
1 5 1 3.22 0.6
1 5 1 4.13 0.58
1 -5 2 79.58 2.56
1 5 2 84.15 2.64
-1 5 -2 82.44 2.5
1 5 2 78.66 2.5
1 5 2 79.71 2.53
1 5 2 83.25 2.64
1 5 2 81.61 2.55
1 5 2 79.63 2.65
1 -5 2 82.19 3.97
1 -5 2 84.4 2.56
1 -5 2 81.1 2.53
1 5 2 81.87 2.58
1 5 2 77.96 2.51
-1 5 -2 84.35 2.56
-1 5 -2 84.83 2.64
1 5 2 81.66 2.43
-1 5 -2 86.92 3.76
1 5 3 178.52 4.85
1 5 3 179.58 4.73
-1 5 -3 181.04 6.38
-1 5 -3 178.13 4.89
-1 5 -3 172.79 4.81
1 5 3 170.3 4.8
1 5 3 177.57 4.79
1 5 3 166.64 4.86
1 5 3 171.74 4.81
1 5 3 171.49 4.91
1 -5 3 156.52 6.33
1 -5 3 185.9 4.88
1 -5 3 180.63 4.84
1 -5 3 177.2 4.89
-1 5 -4 158.73 5.84
-1 5 -4 149.02 4.22
1 5 4 154.46 4.23
1 5 4 145.37 4.05
1 -5 4 148.51 4.18
1 5 4 149.69 4.16
1 5 4 148.54 4.24
1 5 4 148.64 4.25
1 5 4 144.19 4.29
1 5 4 145.84 4.26
1 5 4 151.86 4.29
1 -5 4 149.98 4.34
1 -5 4 154.62 6
1 -5 4 159.63 4.34
1 -5 4 152.48 4.26
1 -5 4 154.49 4.3
-1 5 -5 72.83 3.65
-1 5 -5 67.19 2.22
1 5 5 69.21 2.2
-1 5 -5 58.61 3.22
1 -5 5 70.58 2.25
1 -5 5 66.67 2.34
1 5 5 67.11 2.28
1 5 5 64.17 2.13
1 5 5 66.98 2.28
1 5 5 63.07 2.29
1 5 5 67.47 2.26
1 5 5 66.29 2.26
1 -5 5 63.78 2.32
1 -5 5 68.82 3.73
1 -5 5 69.4 2.34
1 -5 5 62.81 2.24
1 -5 5 69.63 2.43
1 -5 5 67.79 2.31
-1 5 -6 0.21 0.94
1 5 6 0.55 0.43
-1 5 -6 0.68 0.5
-1 5 -6 1.68 0.98
1 5 6 0.6 0.57
1 5 6 1.09 0.55
1 5 6 -0.21 0.51
1 5 6 0.66 0.57
1 -5 6 -0.06 0.62
1 -5 6 0.42 0.55
1 -5 6 0.36 0.63
1 -5 6 0.88 0.6
1 -5 6 0.94 0.64
1 -5 6 -0.11 0.49
1 -5 6 0.6 0.52
-1 5 -7 0.74 0.5
1 5 7 0.46 0.52
1 5 7 1.13 0.63
1 5 7 0.69 0.61
1 5 7 1.07 0.61
1 -5 7 0.72 0.64
1 -5 7 1.38 0.61
1 -5 7 1.2 0.66
1 -5 7 0.49 0.63
1 -5 7 1.42 0.69
1 -5 7 0.5 0.58
1 -5 7 1.31 0.58
-1 5 -8 56.44 2.01
-1 5 -8 56.15 1.98
1 5 8 59.36 2.06
1 5 8 54.63 2.12
1 5 8 55.92 2.09
1 -5 8 52.1 3.45
1 -5 8 57.09 2.17
1 -5 8 58.53 2.13
1 -5 8 57.41 2.22
1 -5 8 57.22 2.21
1 -5 8 58.45 2.13
1 -5 8 58.54 2.24
1 -5 8 56.63 2.12
-1 5 -9 11.45 0.85
-1 5 -9 10.52 0.75
1 5 9 10.72 0.76
1 5 9 9.99 0.87
1 -5 9 9.27 0.92
1 -5 9 9.76 0.9
1 -5 9 11.35 1.01
1 -5 9 10.77 0.95
1 -5 9 11.57 0.99
1 -5 9 10.56 0.91
-1 5 -10 0.71 0.5
1 5 10 0.68 0.58
1 -5 10 0.35 0.6
1 -5 10 0.39 0.62
1 -5 10 0.13 0.67
1 -5 10 0.74 0.65
1 -5 10 0.52 0.73
1 -5 10 -0.18 0.6
1 -5 10 0.38 0.72
1 -5 10 0.34 0.54
1 5 11 55.83 1.99
1 5 11 54.76 2.01
1 -5 11 54.01 2.02
1 -5 11 54.34 2.01
1 -5 11 55.21 2.05
1 -5 11 56.59 2.11
1 -5 11 54.07 2.09
1 -5 11 57.16 2.04
1 -5 11 53.19 2.02
1 -5 11 55.21 2.1
1 -5 11 52.36 1.98
1 5 12 9.5 0.78
1 5 12 8.31 0.71
1 -5 12 8.12 0.76
1 -5 12 9.11 0.75
1 -5 12 10.97 0.81
1 -5 12 8.09 0.83
1 -5 12 7.26 0.77
1 -5 12 8.39 0.77
1 -5 12 8.36 0.77
1 5 13 70.6 2.19
1 5 13 72.58 2.17
1 -5 13 68.62 2.19
1 -5 13 71.21 2.19
1 -5 13 68.65 2.14
1 -5 13 70.74 2.27
1 -5 13 67.06 2.17
1 -5 13 71.04 2.22
1 -5 13 68.53 2.16
1 -5 14 1.95 0.41
1 -5 14 2.99 0.46
1 5 14 2.96 0.41
1 5 14 3.38 0.42
1 -5 14 2.65 0.46
-1 6 13 1.11 0.31
-1 -6 13 1.32 0.32
-1 -6 13 1.6 0.32
-1 -6 12 1.95 0.47
-1 -6 12 1.62 0.45
-1 6 12 0.57 0.37
-1 -6 12 1.22 0.38
-1 -6 12 1.21 0.49
-1 -6 12 0.53 0.4
1 6 -12 1.07 0.35
1 6 -11 4.13 0.52
-1 -6 11 5.29 0.62
-1 6 11 4.18 0.56
-1 -6 11 3.99 0.55
-1 -6 11 4.07 0.66
-1 -6 11 5.01 0.62
-1 -6 11 4.45 0.6
1 6 -10 27.49 1.09
1 6 -10 30.79 1.27
-1 -6 10 31.47 1.34
-1 -6 10 31.7 1.4
-1 6 10 30.75 1.27
-1 -6 10 29.23 1.26
-1 -6 10 33.63 1.46
-1 -6 10 27.95 1.3
-1 -6 10 31.54 1.42
-1 -6 10 29.82 1.39
1 6 -9 0.04 0.44
-1 6 9 0.22 0.5
-1 -6 9 0.54 0.58
-1 -6 9 0.42 0.51
-1 -6 9 0.47 0.62
-1 -6 9 -0.2 0.54
-1 -6 9 -0.24 0.66
-1 -6 9 0.7 0.65
-1 -6 8 7.33 0.77
-1 -6 8 7.54 0.67
-1 6 8 6.33 0.67
-1 -6 8 6.18 0.7
-1 -6 8 7.3 0.85
-1 -6 8 7.15 0.91
-1 -6 8 7.57 0.77
1 6 -8 7.44 0.7
-1 6 8 7.51 0.71
-1 -6 7 25.45 1.27
-1 -6 7 25.75 1.17
-1 6 7 22.99 1.11
-1 6 7 23.85 1.16
-1 6 7 24.65 1.34
-1 -6 7 25.25 1.38
-1 -6 7 22.87 1.23
-1 6 7 22.7 1.18
1 6 -7 23.34 1.21
-1 -6 6 50.31 1.91
-1 6 6 50.46 1.81
-1 6 6 51.06 1.82
-1 6 6 50.77 2.05
-1 -6 6 51.32 1.85
-1 -6 6 52.54 2.06
-1 -6 6 52.7 1.95
-1 6 6 49.42 1.92
1 6 -6 53.2 1.97
-1 -6 5 17.76 1.06
-1 6 5 18.31 0.98
-1 6 5 18.63 1.26
-1 6 5 19.73 1.24
-1 6 5 17.46 0.97
-1 -6 5 18.65 1.03
-1 -6 5 20.03 2.16
-1 -6 5 19.05 1.17
-1 -6 5 20.05 1.11
1 6 -5 19.41 1.13
-1 6 5 19.03 1.14
-1 -6 4 78.99 2.56
1 6 -4 78.74 2.5
-1 6 4 86.03 2.76
-1 6 4 77.91 2.81
-1 6 4 78.06 2.79
-1 -6 4 71.89 4.04
-1 -6 4 78.8 2.57
-1 -6 4 88.45 2.77
-1 -6 4 81.11 2.62
-1 6 4 84.82 2.73
-1 6 4 76.11 2.57
1 6 -4 82.1 2.71
-1 6 4 80.17 2.45
-1 6 3 402.14 10.49
-1 6 3 402.17 10.34
1 6 -3 391.08 10.17
-1 6 3 405.68 10.46
-1 -6 3 400.65 10.3
-1 -6 3 400.26 10.2
-1 -6 3 383.78 12.15
1 -6 -3 391.12 12.08
-1 -6 3 394.15 10.19
-1 6 3 404.06 10.36
-1 6 3 399.69 10.2
-1 6 3 399.18 10.14
1 -6 -2 21.36 2.1
-1 -6 2 26.56 2.25
-1 6 2 21.78 1.24
1 6 -2 21.12 1.15
-1 6 2 24.61 1.38
-1 6 2 24.6 1.15
1 6 -2 23.01 1.23
-1 6 2 22.17 1.14
-1 6 1 20.77 1.17
1 6 -1 18.2 1.11
1 -6 -1 18.07 1.93
1 6 -1 22.06 1.29
1 -6 -1 18.48 1.02
-1 6 1 20.7 1.07
-1 6 1 20.63 1.2
1 6 -1 20.15 1.1
1 6 -1 20.23 1.16
-1 6 0 42.02 1.7
1 6 0 42.95 1.76
1 -6 0 39.77 2.86
1 6 0 42.94 1.85
-1 6 0 44.34 1.89
1 -6 0 41.72 1.61
-1 6 0 45.09 1.81
1 6 0 46 1.67
-1 6 0 41.15 1.65
1 6 0 46.78 1.76
1 6 1 22.03 1.25
1 6 1 22.32 1.26
-1 6 -1 25.38 1.22
1 6 1 23.91 1.33
-1 6 -1 26.18 1.38
1 -6 1 20.5 2.16
1 -6 1 25.38 1.14
-1 6 -1 23.38 1.29
-1 6 -1 22.99 1.16
1 6 1 23.44 1.16
-1 6 -1 20.75 1.83
1 6 1 23.66 1.09
-1 6 -2 43.15 2.73
1 6 2 44.7 1.71
-1 6 -2 44.38 1.7
1 -6 2 44.55 1.69
1 6 2 46.01 1.81
-1 6 -2 46.64 1.68
1 6 2 47.08 1.86
1 6 2 44.32 1.63
-1 6 -2 47.17 1.93
1 6 2 45.04 1.86
1 -6 2 46.13 3.12
1 -6 2 49.12 1.74
1 -6 2 44.28 1.78
1 6 3 34.7 1.37
-1 6 -3 32.99 1.4
1 -6 3 33.84 1.46
1 6 3 35.1 1.52
1 6 3 33.42 1.38
1 6 3 30.69 1.52
1 6 3 33.81 1.54
-1 6 -3 35.77 1.64
1 -6 3 32.61 2.66
1 -6 3 33.3 1.56
1 -6 3 35.35 1.45
1 -6 3 32.29 1.39
1 -6 3 33.23 1.48
-1 6 -4 10.33 0.81
1 -6 4 10.57 0.88
1 6 4 11.97 0.87
1 6 4 12.13 0.88
1 6 4 12.73 0.9
1 6 4 11.26 0.91
-1 6 -4 10.54 1.01
1 -6 4 12.11 1.85
1 -6 4 10.46 0.95
1 -6 4 11.77 0.86
1 -6 4 11.79 0.85
1 -6 4 10.86 0.97
1 -6 4 11.91 0.91
-1 6 -5 3.21 0.66
-1 6 -5 3.29 0.59
1 -6 5 3.22 0.69
1 -6 5 4.18 0.59
1 6 5 4.04 0.66
1 6 5 3.61 0.73
1 6 5 3.47 0.65
1 6 5 4.48 0.65
1 6 5 2.47 0.63
-1 6 -5 3.01 0.72
1 -6 5 3.9 0.72
1 -6 5 3.36 1.18
1 -6 5 3.33 0.64
1 -6 5 5.58 0.82
1 -6 5 3.38 0.62
1 -6 5 3.14 0.62
-1 6 -6 27.74 1.33
-1 6 -6 25.37 1.19
1 -6 6 28.92 1.27
1 -6 6 26.05 1.37
1 6 6 29.16 1.34
1 6 6 26.85 1.26
1 6 6 28.97 1.3
1 6 6 29.29 1.39
-1 6 -6 28.79 1.42
1 -6 6 26.42 1.4
1 -6 6 29.22 1.39
1 -6 6 25.05 1.42
1 -6 6 27.83 1.32
1 -6 6 26.07 1.32
-1 6 -7 43.42 1.66
1 -6 7 43.81 1.65
1 -6 7 41.39 1.75
1 6 7 42.2 1.69
1 6 7 38.8 1.61
1 6 7 43.95 1.73
-1 6 -7 40.76 1.73
1 -6 7 45.08 1.77
1 -6 7 41.41 1.7
1 -6 7 43.65 1.89
1 -6 7 41.49 1.77
1 -6 7 40.93 1.62
1 -6 7 39.84 1.66
-1 6 -8 4.31 0.6
1 -6 8 5.67 0.68
1 -6 8 4.86 0.79
1 6 8 3.93 0.63
1 6 8 5.19 0.72
-1 6 -8 4.48 0.69
1 -6 8 5.05 0.72
1 -6 8 6.13 0.79
1 -6 8 4.42 0.62
1 -6 8 5.7 0.88
1 -6 8 2.82 0.72
1 -6 8 5.03 0.69
-1 6 -9 87.99 2.58
1 -6 9 85.02 2.69
1 -6 9 88.39 2.84
1 6 9 87.38 2.68
1 6 9 86.31 2.74
-1 6 -9 91.6 2.71
1 -6 9 88.16 2.78
1 -6 9 85.63 2.88
1 -6 9 87.13 2.8
1 -6 9 85.85 2.83
1 -6 9 86.94 2.68
1 -6 9 89.33 2.85
1 -6 9 86.29 2.7
1 -6 10 256.73 6.61
1 -6 10 250.18 6.5
1 6 10 246.18 6.45
1 6 10 256.05 6.56
-1 6 -10 247.47 6.41
1 -6 10 242.24 6.53
1 -6 10 255.05 6.6
1 -6 10 248.05 6.6
1 -6 10 259.07 6.65
1 -6 10 237.19 6.44
1 -6 10 244.5 6.48
1 6 11 186.98 4.75
1 6 11 178.65 4.65
1 -6 11 184.46 4.74
1 -6 11 170.03 4.64
1 -6 11 178.26 4.78
1 -6 11 175.05 4.74
1 -6 11 178.37 4.81
1 -6 11 166.85 4.61
1 -6 11 176.6 4.69
1 -6 12 116.07 3.12
1 -6 12 114.34 3.19
1 -6 12 116.33 3.21
1 -6 12 115.63 3.21
1 -6 12 120.27 3.13
1 -6 12 123.84 3.18
1 -6 13 -0.07 0.23
1 -6 13 0.05 0.23
-1 -7 11 8.55 0.45
-1 -7 10 109.53 3.08
-1 -7 10 112.9 3.07
-1 -7 10 108.31 2.97
1 7 -10 118.23 3.08
-1 -7 10 112.39 3.07
-1 -7 10 117.25 3.14
1 7 -10 114.92 3.03
-1 -7 9 27.83 1.2
1 7 -9 31.83 1.21
-1 -7 9 29.62 1.08
-1 -7 9 32.54 1.19
-1 -7 9 29.85 1.16
-1 -7 9 29.83 1.22
1 7 -9 30.54 1.15
1 7 -9 27.28 1.01
-1 -7 8 21.95 1.09
1 7 -8 23.39 1.1
1 7 -8 20.03 0.97
1 7 -8 22.21 0.95
-1 -7 8 19.93 1
-1 -7 8 21.34 1.07
-1 -7 8 19.78 0.9
-1 -7 8 20.2 0.9
-1 -7 8 21.28 1.01
1 7 -7 20.86 1.13
1 7 -7 20.14 0.98
-1 -7 7 21.9 1.06
-1 -7 7 22.48 1.15
-1 -7 7 19.1 0.92
-1 -7 7 19.08 0.9
-1 -7 7 19.67 1.01
-1 -7 6 2.03 0.46
-1 -7 6 2.01 0.57
-1 7 6 3.33 0.63
-1 -7 6 2.84 0.64
-1 -7 6 2.2 0.56
1 7 -6 1.66 0.52
-1 7 6 1.73 0.51
1 7 -6 1.45 0.55
1 7 -6 2.56 0.69
-1 -7 5 2.27 0.55
-1 7 5 1.96 0.61
-1 -7 5 1.59 0.55
-1 7 5 1.47 0.54
1 7 -5 2.4 0.6
1 7 -5 2.62 0.6
-1 7 4 9.99 0.94
-1 -7 4 12.63 0.83
1 7 -4 11.85 0.87
1 7 -4 11.49 0.87
-1 7 4 13.02 0.9
-1 -7 4 10.39 0.79
-1 7 3 0.83 0.66
1 7 -3 0.48 0.62
-1 -7 3 0.08 0.43
-1 -7 3 0.12 0.45
-1 7 3 -0.47 0.56
1 7 -3 0.51 0.5
1 7 -3 -0.39 0.43
-1 7 3 1.55 0.69
-1 -7 2 16.92 0.92
1 7 -2 17.61 0.95
-1 7 2 17.29 1.16
1 7 -2 18.01 1.06
1 7 -2 15.54 0.94
-1 7 2 16.49 0.91
1 7 -2 17.1 1.16
1 7 -1 3.12 0.72
1 7 -1 2.88 0.6
-1 7 1 1.58 0.68
1 7 -1 1.34 0.62
-1 -7 1 2.72 0.55
1 7 -1 3.73 0.65
-1 7 1 3.2 0.58
1 -7 -1 3.38 0.62
1 7 0 9.35 0.91
-1 7 0 8.11 0.9
-1 7 0 8.38 0.77
1 7 0 8.68 0.76
1 -7 0 9.85 0.77
1 7 0 9.05 0.83
1 7 0 9.12 0.81
-1 7 0 9.03 0.97
1 7 1 61.36 2.17
-1 7 -1 57.45 2.22
1 7 1 57.38 2.06
-1 7 -1 59.44 2.26
1 7 1 58.34 2.09
1 -7 1 55.08 1.98
-1 7 -1 59.13 2.06
1 7 1 57.19 1.98
-1 7 -2 13.85 0.96
1 7 2 14.28 1.01
1 7 2 13.11 0.93
1 -7 2 13.01 0.95
-1 7 -2 16.74 1.13
1 7 2 14.25 1.03
1 -7 2 15.91 1.01
1 -7 2 14.12 0.88
1 7 3 44.79 1.78
-1 7 -3 46.42 1.89
1 7 3 44.86 1.76
1 -7 3 43.39 1.77
1 -7 3 45.61 1.79
1 -7 3 46.02 1.67
-1 7 -4 7.59 0.74
1 -7 4 5.2 0.61
1 7 4 5.55 0.73
1 7 4 5.23 0.66
-1 7 -4 5.56 0.8
1 -7 4 6.65 0.74
1 -7 4 6.91 0.75
1 -7 4 5.94 0.65
1 -7 5 71.46 2.35
1 -7 5 75.67 2.35
-1 7 -5 76.01 2.52
1 -7 5 76.38 2.49
1 -7 5 79.76 2.59
1 -7 5 76.17 2.51
-1 7 -5 77.2 2.45
1 -7 6 1.13 0.5
1 -7 6 0.84 0.44
-1 7 -6 1.02 0.57
1 -7 6 0.94 0.53
1 -7 6 0.05 0.56
1 -7 6 0.85 0.51
-1 7 -6 1.55 0.53
1 -7 7 5.96 0.65
1 -7 7 6.62 0.55
-1 7 -7 7.26 0.69
1 -7 7 6.82 0.65
1 -7 7 7.27 0.58
1 -7 7 6.97 0.69
1 -7 7 6.21 0.72
-1 7 -7 6.75 0.61
-1 7 -8 17.01 0.77
-1 7 -8 16.4 0.83
1 -7 8 14.43 0.81
1 -7 8 18.74 0.97
1 -7 8 17.19 0.95
1 -7 8 16.77 0.9
1 -7 8 16.24 0.86
1 -7 9 48.33 1.59
1 -7 9 45.93 1.55
1 -7 9 46.23 1.53
1 -7 9 46.84 1.51
1 -7 9 44.81 1.45
1 -7 10 -0.23 0.34
1 -7 10 -0.11 0.35
1 -7 10 0.2 0.33
-1 7 -10 -0.04 0.3
1 8 -7 1.56 0.32
-1 -8 6 -0.17 0.37
1 8 -6 0.17 0.29
1 8 -6 0.12 0.28
1 8 -6 0.26 0.37
1 8 -5 -0.2 0.34
-1 -8 5 0.37 0.33
-1 -8 4 0.67 0.37
-1 8 4 0.06 0.37
-1 8 3 19.08 0.91
1 8 -3 16.15 0.88
-1 -8 3 17.48 0.8
1 8 -3 17.74 0.84
-1 8 2 2.36 0.51
1 -8 -2 1.54 0.47
1 8 -2 2.08 0.51
-1 -8 2 1.58 0.37
1 8 -2 2.28 0.45
1 -8 -1 -0.03 0.43
1 8 -1 0.11 0.46
-1 8 1 0.88 0.5
1 8 -1 0.98 0.4
1 -8 0 0.89 0.46
1 8 0 1.52 0.49
-1 8 0 1.27 0.51
-1 8 0 1.45 0.54
-1 8 -1 0.63 0.5
1 -8 1 0.47 0.42
1 8 1 0.31 0.43
-1 8 -1 0.55 0.49
1 -8 1 0.25 0.33
-1 8 -1 -0.03 0.38
-1 8 -2 5.08 0.62
-1 8 -2 3.86 0.59
1 -8 2 4.03 0.5
1 -8 2 2.71 0.43
-1 8 -2 3.98 0.51
-1 8 -3 13.75 0.8
-1 8 -3 12.98 0.77
1 -8 3 13.81 0.7
1 -8 3 9.85 0.63
1 -8 3 10.68 0.62
-1 8 -3 11.17 0.67
1 -8 4 1.32 0.38
1 -8 4 1.59 0.34
1 -8 4 1.66 0.38
-1 8 -4 1.12 0.43
-1 8 -4 2.17 0.48
-1 8 -5 0.71 0.36
1 -8 5 0.86 0.41
-1 8 -5 0.62 0.33
-1 8 -5 0.75 0.42
-1 8 -6 0.72 0.28
1 -8 6 0.73 0.35
-1 8 -6 0.65 0.38
-2 0 18 37.27 1.18
-2 0 18 38.08 1.23
2 0 -18 37.47 1.2
2 0 -17 0.07 0.42
-2 0 17 -0.03 0.41
-2 0 17 0.25 0.41
2 0 -16 60.72 2.05
-2 0 16 58.41 2
-2 0 16 59.23 2
-2 0 15 0.2 0.54
-2 0 15 -0.1 0.54
-2 0 15 0.61 0.57
2 0 -15 -0.21 0.57
-2 0 15 -0.06 0.57
-2 0 15 0.32 0.53
-2 0 15 0.2 0.54
-2 0 14 16.78 1.13
-2 0 14 16.64 1.1
2 0 -14 17.29 1.15
-2 0 14 15.46 1.05
-2 0 14 15.11 1.09
-2 0 14 15.98 1.04
-2 0 13 0.22 0.55
-2 0 13 0.35 0.44
-2 0 13 -0.11 0.54
-2 0 13 -0.88 1.03
-2 0 13 -0.12 0.62
-2 0 13 0.41 0.96
2 0 -13 0.23 1.13
-2 0 13 0.4 0.6
-2 0 13 0.07 0.63
-2 0 13 -0.13 0.64
2 0 -12 229.54 7.55
-2 0 12 239.44 6.4
-2 0 12 239.89 6.39
-2 0 12 228.46 8.2
-2 0 12 233.97 6.46
2 0 -12 237.66 8.35
-2 0 12 243.32 8.18
-2 0 12 239.8 6.59
-2 0 12 237.81 6.55
-2 0 12 236.11 6.55
-2 0 12 237.65 6.53
-2 0 12 227.72 6.51
-2 0 11 -0.2 0.5
-2 0 11 0.12 0.57
-2 0 11 0.19 0.98
-2 0 11 -0.1 0.51
-2 0 11 -0.06 0.57
-2 0 11 -0.7 0.59
-2 0 11 0.12 0.62
-2 0 11 0.19 0.87
2 0 -11 -0.6 1.2
-2 0 11 -0.07 0.62
-2 0 11 -0.18 0.58
-2 0 11 -0.25 0.66
2 0 -11 0.29 0.75
2 0 -10 27.83 1.9
-2 0 10 28.88 1.26
-2 0 10 30.49 1.26
-2 0 10 33.1 2.4
-2 0 10 27.93 1.27
-2 0 10 30.38 1.42
2 0 -10 30.82 2.28
-2 0 10 30.02 1.41
-2 0 10 29.61 1.39
-2 0 10 27.4 1.4
-2 0 10 26.31 1.31
-2 0 10 29.28 1.39
-2 0 10 28.67 1.2
-2 0 9 0.45 0.88
-2 0 9 -0.04 0.44
-2 0 9 0.18 0.51
-2 0 9 -0.1 0.53
2 0 -9 -0.77 0.89
-2 0 9 0.15 0.53
-2 0 9 0.3 0.52
-2 0 9 0.15 0.55
-2 0 9 -0.08 0.4
-2 0 9 -0.05 0.52
-2 0 8 9.71 0.75
2 0 -8 10.77 1.35
-2 0 8 8.9 1.25
-2 0 8 8.61 0.74
-2 0 8 9.15 0.72
-2 0 8 7.12 0.7
-2 0 8 8.86 0.74
2 0 -7 0.79 0.98
-2 0 6 765.67 19.19
2 0 -6 734.14 19.22
-2 0 5 0.69 0.7
2 0 -5 0.08 0.78
-2 0 4 105.66 3.41
2 0 -4 103.68 3.44
-2 0 3 -0.17 0.62
2 0 -3 0.09 0.54
2 0 -3 -0.3 0.7
-2 0 2 363.69 9.53
2 0 -2 372.58 9.42
2 0 -2 380.82 9.61
2 0 -1 -0.18 0.47
-2 0 1 0.3 0.37
-2 0 1 0.89 0.63
2 0 -1 -0.28 0.6
-2 0 0 1035.03 25.34
-2 0 0 1061.88 25.56
2 0 0 1048.71 25.59
2 0 0 1053.11 25.45
-2 0 -1 -0.15 0.48
2 0 1 0.29 0.52
2 0 1 -0.1 0.54
2 0 2 1506.03 37.19
2 0 2 1573.76 37.72
2 0 2 1578.72 37.63
2 0 2 1580.15 37.82
-2 0 -2 1602.28 37.61
2 0 3 0.07 0.63
2 0 3 0.02 0.29
2 0 3 -1.42 0.67
2 0 3 -0.28 0.75
-2 0 -3 0.35 0.6
2 0 4 344.01 9.19
2 0 4 338.93 8.55
2 0 4 345.32 9.22
2 0 4 342.63 9.26
-2 0 -4 348.23 9.18
-2 0 -4 333.98 8.74
2 0 5 -0.44 0.77
2 0 5 -0.36 0.7
2 0 5 0.08 0.36
2 0 5 0.48 0.78
-2 0 -5 -0.17 0.72
-2 0 -5 0.05 0.47
2 0 6 350.52 9.83
2 0 6 342.98 9.16
2 0 6 350.57 9.96
2 0 6 363.71 10.01
-2 0 -6 381.81 9.99
-2 0 -6 354.41 9.19
2 0 7 -0.12 0.85
2 0 7 -0.25 0.9
2 0 7 -0.32 0.41
2 0 7 -0.65 0.91
-2 0 -7 0.49 0.85
-2 0 -7 0.17 0.4
2 0 8 209.19 5.61
2 0 8 208.4 5.63
2 0 8 218.28 7
2 0 8 210.47 5.63
2 0 8 211.94 6.78
2 0 8 213.14 5.6
-2 0 -8 206.81 6.87
2 0 9 0.2 0.53
2 0 9 -0.87 0.98
2 0 9 -0.1 0.53
2 0 9 -0.05 0.5
2 0 9 -0.31 0.82
2 0 9 0.04 0.38
2 0 9 0.1 0.49
-2 0 -9 -0.33 0.93
2 0 10 7.88 0.64
2 0 10 5.98 1.3
2 0 10 8.28 0.84
2 0 10 7.56 0.8
2 0 10 7.38 1.31
2 0 10 8.21 0.71
2 0 10 6.74 0.8
2 0 10 5.73 0.64
2 0 11 0.22 0.45
2 0 11 0.88 1.11
2 0 11 -0.06 0.61
2 0 11 0.37 0.65
2 0 11 1.15 0.66
2 0 11 0.19 0.93
-2 0 -11 -0.41 1.07
2 0 11 -0.3 0.46
2 0 11 0.06 0.6
2 0 11 0.29 0.49
2 0 12 5.28 0.6
2 0 12 6.37 1.46
2 0 12 4.18 0.75
2 0 12 4.31 0.83
2 0 12 3.35 0.8
2 0 12 3.02 1.19
-2 0 -12 4.38 1.31
2 0 12 5.24 0.84
2 0 12 3.84 0.61
2 0 12 3.7 0.62
2 0 13 0.13 0.46
2 0 13 -0.27 0.45
2 0 13 0.72 1.04
2 0 13 0.13 0.63
2 0 13 -0.14 0.65
2 0 13 -0.41 0.7
-2 0 -13 -0.67 1.13
2 0 13 0.47 0.67
-2 0 -13 -0.22 1.09
2 0 14 13.9 1.08
2 0 14 14.37 0.83
2 0 14 14.37 1.11
2 0 14 13.33 1.1
2 0 15 0.11 0.6
2 0 15 0.22 0.63
2 0 15 -0.64 0.59
2 0 15 -0.29 0.37
2 0 16 21.18 1
2 0 16 23.48 1.12
2 0 16 21.08 1.11
2 0 17 0.38 0.38
-2 1 18 0.63 0.26
-2 -1 18 0.15 0.21
-2 1 18 0.6 0.27
-2 -1 18 0.49 0.28
2 -1 -17 106.92 2.99
2 1 -17 103.73 2.98
-2 1 17 112.92 3.02
-2 -1 17 106 2.96
2 1 -16 0.46 0.49
2 -1 -16 0.45 0.49
-2 1 16 0.58 0.51
-2 -1 16 0.79 0.46
-2 -1 16 0.89 0.48
-2 1 16 0.62 0.46
-2 1 15 2.78 0.6
-2 -1 15 3.2 0.63
-2 1 15 2.78 0.48
-2 -1 15 2 0.57
2 1 -15 2.92 0.64
2 -1 -15 2.6 0.63
-2 -1 15 2.89 0.68
-2 -1 15 2.4 0.66
-2 -1 15 3.59 0.63
-2 1 14 4.94 0.71
-2 -1 14 5.81 0.74
-2 1 14 3.6 0.58
-2 1 14 4.3 0.73
-2 -1 14 4.96 0.71
2 1 -14 4.8 0.75
2 -1 -14 3.6 0.75
-2 -1 14 4.34 0.82
-2 1 14 4.86 0.74
-2 1 14 4.54 0.71
-2 -1 14 4.58 0.88
-2 -1 14 4.55 0.8
-2 1 14 5.13 0.75
-2 -1 14 3.8 0.72
2 -1 -13 10.98 1.47
-2 -1 13 11.85 0.94
-2 1 13 11.47 0.9
-2 1 13 12.1 0.84
-2 1 13 12.25 0.95
-2 -1 13 7.15 1.4
-2 1 13 11.49 1.64
-2 -1 13 11.04 0.92
-2 1 13 10.15 0.97
-2 1 13 11.2 1.47
2 -1 -13 9.74 1.65
-2 -1 13 11.96 1.1
2 1 -13 10.26 1.73
-2 -1 13 7.67 1.56
-2 1 13 12.45 1.09
-2 -1 13 10.62 1.01
-2 1 13 11.26 0.98
-2 -1 13 13.13 1.16
-2 -1 13 10.73 1.05
-2 1 13 10.81 0.96
-2 -1 13 12.63 1.04
-2 -1 13 9.82 0.94
-2 1 13 11.94 1.02
2 -1 -12 181.71 6.55
-2 -1 12 185.1 5.16
-2 1 12 185.7 5.16
-2 1 12 189.97 5.16
-2 1 12 187.71 5.24
-2 -1 12 194.5 6.97
-2 1 12 182.81 6.86
-2 -1 12 180.36 5.17
-2 1 12 173.78 5.23
-2 -1 12 188.19 6.96
2 -1 -12 199.91 7.12
2 1 -12 181.73 6.95
-2 -1 12 182.69 5.38
-2 1 12 195.77 6.7
-2 -1 12 187.97 5.39
-2 -1 12 188.79 5.41
-2 1 12 175.15 5.36
-2 1 12 185.97 5.31
-2 1 12 183.67 5.3
-2 -1 12 191.86 5.38
-2 1 12 192.33 5.33
-2 -1 12 177.36 5.24
-2 -1 12 190.38 5.33
-2 -1 11 228.99 6.12
-2 1 11 235.58 6.25
-2 -1 11 234.6 6.24
-2 1 11 235.42 6.33
-2 -1 11 234.72 7.95
-2 1 11 249.54 8.14
-2 1 11 234.36 6.38
-2 -1 11 230.3 6.28
-2 -1 11 249.28 8.17
2 1 -11 229.59 8
2 -1 -11 238.15 8.09
-2 1 11 243.49 7.78
-2 1 11 228.25 6.39
-2 -1 11 225.47 6.46
-2 -1 11 239.61 6.48
-2 1 11 237.76 6.43
-2 -1 11 235.42 6.49
-2 -1 11 227.66 6.33
-2 -1 11 226.77 6.15
-2 1 11 237.71 6.42
-2 -1 11 234.35 6.44
2 1 -10 170.88 5.44
-2 -1 10 171.76 4.72
-2 1 10 175.03 4.73
-2 -1 10 169.2 4.63
-2 1 10 173.51 4.79
-2 1 10 184.78 6.32
-2 -1 10 186.25 6.34
-2 -1 10 166.01 4.72
-2 1 10 168.15 4.82
-2 -1 10 165.27 6.5
2 1 -10 183.8 6.36
2 -1 -10 170.27 6.27
-2 -1 10 177.44 4.93
-2 -1 10 167.68 4.9
-2 -1 10 176.62 4.95
-2 1 10 168.87 4.87
-2 1 10 173.94 4.89
-2 -1 10 168.85 4.87
-2 -1 10 164.05 4.77
-2 1 10 174.93 4.67
-2 -1 10 172.82 4.9
-2 1 10 174.88 4.88
-2 -1 10 175.16 4.7
-2 1 9 56.24 1.9
-2 -1 9 57.17 2.07
-2 1 9 60.61 2.09
-2 -1 9 58.81 1.98
-2 -1 9 59.08 1.94
-2 1 9 67.61 3.17
-2 -1 9 57.16 3
-2 -1 9 57.67 1.93
-2 1 9 60.03 2.03
2 1 -9 58.66 3.05
2 -1 -9 63.79 3.12
-2 -1 9 57.74 2.09
-2 -1 9 59.75 2.09
-2 -1 9 60.12 2.09
-2 1 9 57.35 2.06
-2 1 9 58.24 2.07
-2 -1 9 58.38 2.06
2 1 -9 59 2.45
-2 1 8 21.2 1.1
-2 -1 8 23.04 1.11
-2 -1 8 24.89 1.81
-2 1 8 24.88 1.79
-2 -1 8 22.43 1.13
2 -1 -8 22.26 1.85
2 1 -8 24.45 1.85
-2 -1 8 25.44 1.13
-2 -1 8 21.39 1.05
-2 1 8 23.26 1.12
-2 1 8 22.41 1.13
-2 1 8 22.36 1.13
2 1 -8 20.96 1.29
2 1 -7 57.17 2.72
2 -1 -7 57.79 2.66
-2 -1 7 55.24 2.84
2 1 -7 51.47 2.03
-2 1 7 54.7 2.56
-2 -1 7 54.29 2.57
-2 -1 6 3.86 1
2 1 -6 4.94 0.6
-2 -1 6 5.74 0.95
-2 1 6 6.03 0.94
2 1 -6 6.77 1.11
2 -1 -6 4.09 0.95
-2 -1 5 911.29 22.1
2 1 -5 829.73 21.06
-2 1 5 928.58 21.8
-2 -1 5 870.16 21.75
2 1 -5 870.47 21.84
2 -1 -5 860.94 21.8
2 -1 -4 59.59 2.37
-2 -1 4 59.28 2.47
2 1 -4 57.42 1.66
-2 -1 4 54.97 2.2
-2 1 4 61.13 2.28
2 1 -4 63.03 2.35
2 -1 -4 60.93 2.32
-2 1 3 634.83 15.85
-2 -1 3 633.08 15.84
2 -1 -3 635.26 15.97
-2 -1 3 635.79 16.03
2 1 -3 620.69 15.43
2 1 -3 647.26 15.93
2 -1 -3 631.05 15.89
-2 -1 2 105.33 3.13
-2 1 2 101.56 3.13
-2 -1 2 104.66 3.17
2 1 -2 97.33 2.67
2 1 -2 106.04 3.18
2 -1 -2 99.91 3.12
2 1 -1 -0.1 0.23
-2 -1 1 -0.04 0.48
-2 1 1 0.43 0.55
-2 1 1 0.36 0.59
-2 -1 1 0.09 0.54
2 1 -1 -0.14 0.57
2 -1 -1 -0.05 0.55
-2 -1 0 23.12 0.84
-2 1 0 28.08 1.3
-2 -1 0 23.84 1.22
-2 1 0 25.1 1.19
2 1 0 25.96 1.21
2 -1 0 25.02 1.22
-2 -1 0 26.6 1
-2 1 -1 14.93 1.03
-2 -1 -1 13.57 0.73
2 -1 1 15.19 0.97
2 1 1 15.72 0.98
2 -1 2 192.98 5.39
2 1 2 190.18 5.38
-2 -1 -2 202.35 5.27
-2 1 -2 196.29 5.46
2 1 2 185.5 5.46
2 -1 2 189.65 5.47
2 -1 3 266.92 6.98
2 -1 3 261.76 7.16
2 1 3 264.51 7.16
-2 -1 -3 260.78 7.05
-2 1 -3 250.91 7.06
-2 1 -3 257.46 7.21
2 1 3 263.99 7.25
2 -1 3 256.8 7.22
2 -1 4 199.05 5.38
2 -1 4 200.96 5.66
2 1 4 203.49 5.66
2 1 4 202.4 5.76
2 -1 4 204.95 5.75
-2 1 -4 196.67 5.51
-2 1 -4 204.04 5.72
-2 -1 -4 203.45 5.62
2 1 5 552.97 14.91
2 -1 5 585.71 14.91
2 -1 5 595.61 15.29
2 1 5 580.69 15.24
2 -1 5 599.83 15.35
2 1 5 595.99 15.34
-2 1 -5 581.15 15.3
-2 -1 -5 596.93 15.24
-2 1 -5 593.54 15.04
2 1 6 -0.17 0.63
2 -1 6 0.12 0.84
2 -1 6 0.89 0.85
2 -1 6 -0.48 0.55
2 1 6 0.11 0.8
2 1 6 -0.23 0.8
2 -1 6 -0.23 0.85
-2 1 -6 -0.08 0.61
-2 -1 -6 0.65 0.78
2 -1 7 4.32 0.56
2 1 7 5.01 1.09
2 -1 7 5.28 1.07
2 -1 7 3.79 0.55
2 -1 7 3.62 0.97
2 1 7 4.34 1.01
2 -1 7 4.29 0.77
2 1 7 5.62 0.91
2 -1 7 3.3 1.07
2 -1 7 4.49 0.54
2 1 7 5.21 0.55
-2 1 -7 5.72 0.91
2 -1 7 4.86 0.53
-2 -1 -7 2.56 0.97
2 1 8 23.78 1.09
2 -1 8 20.44 1.05
2 1 8 22.18 1.87
2 -1 8 22.98 1.86
2 1 8 22.12 1.1
2 -1 8 20.62 1.5
2 -1 8 22.26 1.08
2 -1 8 20.9 0.99
2 1 8 21.31 1.56
2 -1 8 24.25 1.94
2 -1 8 20.26 0.98
2 -1 8 22.68 1.08
2 1 8 22.09 1.06
-2 1 -8 23.23 1.52
-2 -1 -8 20.21 1.77
-2 -1 -9 5.37 1.36
2 -1 9 9.74 0.73
2 1 9 9.58 0.68
2 -1 9 9.39 1.48
2 1 9 7.25 1.27
2 -1 9 10.11 0.81
2 1 9 8.24 0.8
2 -1 9 6.54 0.95
2 -1 9 9.01 0.74
2 1 9 9.81 1.24
2 -1 9 8.03 1.31
-2 -1 -9 7 1.26
-2 1 -9 8.94 1.45
2 1 9 7.33 0.73
2 -1 9 8.13 0.77
2 -1 9 8.33 0.72
2 -1 9 8.09 0.8
2 1 9 8.5 0.77
2 -1 9 8.91 0.78
-2 1 -10 75.44 3.65
-2 -1 -10 69.38 3.62
2 -1 10 70.6 2.32
2 1 10 67.64 2.17
2 1 10 66.15 2.22
2 1 10 74.64 2.41
2 -1 10 70.12 2.38
2 -1 10 73.02 3.72
2 1 10 70.24 3.64
2 1 10 66.75 2.41
2 -1 10 67.36 2.42
2 1 10 58.66 3.04
2 -1 10 68.16 2.3
-2 1 -10 73.06 3.62
2 -1 10 69.79 3.64
-2 -1 -10 70 3.59
2 -1 10 68.07 2.31
2 -1 10 72.45 2.45
2 1 10 67.1 2.35
2 -1 10 70.25 2.44
2 -1 10 65.39 2.43
2 1 10 66.44 2.4
-2 1 -11 29.54 2.47
-2 -1 -11 28.31 2.45
2 -1 11 30.11 1.37
2 1 11 29.38 1.34
2 1 11 30.81 2.49
2 1 11 28.56 1.46
2 -1 11 29.35 2.41
2 -1 11 30.86 1.46
2 1 11 28.78 1.5
2 -1 11 29.36 1.52
2 -1 11 29.63 1.37
2 -1 11 31.05 2.54
-2 1 -11 28.35 2.27
-2 -1 -11 28.57 2.31
2 -1 11 30.74 1.39
2 1 11 29.45 1.44
2 -1 11 29.64 1.5
2 -1 11 31.04 1.52
2 1 11 29.4 1.48
-2 -1 -12 42.04 3.06
-2 1 -12 38.4 2.92
2 -1 12 43.22 1.74
2 1 12 44.2 1.71
2 -1 12 40.72 3.07
2 1 12 41.51 3.09
2 1 12 45.92 1.88
2 -1 12 43.04 1.86
2 -1 12 45.59 1.95
2 1 12 46.64 1.95
2 -1 12 38.32 2.87
-2 -1 -12 39.5 2.97
-2 1 -12 40.02 2.88
2 -1 12 42.6 1.72
2 -1 12 42.53 1.75
2 -1 12 42.49 1.91
2 -1 12 44.53 1.92
2 1 12 42.51 1.88
2 -1 13 31.64 1.42
2 1 13 32.27 1.37
2 1 13 32.17 1.4
2 -1 13 34.09 1.61
2 1 13 31.51 1.54
2 -1 13 31.01 1.63
2 1 13 32 1.63
2 -1 13 33.87 1.44
2 -1 13 31.23 1.63
2 -1 13 31.61 1.45
2 -1 13 33.15 1.67
2 1 13 31.92 1.6
2 -1 14 21.59 1.07
2 1 14 20.78 1.06
2 1 14 20.75 1.28
2 1 14 19.98 1.19
2 -1 14 20.36 1.22
2 -1 14 20.02 1.25
2 -1 14 20.94 1.3
2 1 15 17.67 0.95
2 1 15 18.7 1.09
2 -1 15 19.29 1.12
2 1 15 18.43 0.92
2 -1 15 18.95 1.15
2 1 15 19.21 1.11
2 1 16 12.29 0.65
2 -1 16 12.72 0.87
2 1 16 13.69 0.82
2 -1 16 11.95 0.8
2 -1 17 2.28 0.38
2 1 17 2.24 0.4
2 -1 17 2.23 0.39
2 -2 -17 39.32 1.28
-2 -2 17 41.12 1.28
-2 2 17 44.48 1.38
-2 -2 17 40.57 1.46
-2 -2 17 43.77 1.35
2 -2 -16 0.29 0.41
-2 2 16 0.22 0.46
-2 -2 16 -0.1 0.38
-2 2 16 0.52 0.36
-2 -2 16 -0.15 0.54
-2 -2 16 -0.52 0.5
-2 -2 16 0.13 0.4
-2 2 16 0.19 0.39
-2 -2 15 14.19 0.85
-2 2 15 15.06 0.86
-2 2 15 13.4 0.95
-2 2 15 13.95 0.85
-2 2 15 14.27 0.91
2 -2 -15 12.53 0.83
2 2 -15 14.28 0.89
-2 -2 15 12.8 1
-2 -2 15 12.33 1.03
-2 -2 15 11.87 0.93
-2 -2 15 14.18 0.94
-2 2 14 9.44 0.77
-2 -2 14 9.43 0.8
-2 2 14 9.21 0.8
-2 2 14 8.6 0.75
-2 2 14 7.5 0.8
-2 -2 14 7.47 0.75
-2 -2 14 8.43 0.82
2 -2 -14 8.27 0.78
2 2 -14 7.71 0.8
-2 -2 14 8.3 0.98
-2 -2 14 9.94 0.9
-2 -2 14 7.91 0.95
-2 2 14 8.36 0.76
-2 -2 14 8.34 0.87
-2 2 14 9.15 0.82
-2 -2 13 1.75 0.59
-2 -2 13 1.64 0.53
-2 2 13 1.84 0.55
-2 2 13 1.93 0.59
-2 2 13 2.76 0.66
-2 2 13 2.79 0.67
-2 -2 13 1.41 0.59
-2 -2 13 2.3 0.59
2 2 -13 2.92 0.66
2 -2 -13 1.82 0.62
-2 -2 13 3.42 0.82
-2 -2 13 2.35 0.75
-2 2 13 1.35 0.57
-2 -2 13 1.58 0.65
-2 2 13 1.47 0.64
-2 -2 13 2.34 0.74
-2 2 13 1.81 0.63
-2 2 12 17.29 1.02
-2 -2 12 17.37 1.01
-2 -2 12 17.6 1.03
-2 2 12 19.62 1.12
-2 2 12 18.87 1.1
-2 2 12 15.12 1.11
-2 2 12 18.04 1.93
-2 -2 12 18.98 1.92
-2 -2 12 14.69 0.99
2 -2 -12 14.21 1.9
-2 -2 12 14.88 2
-2 -2 12 16.84 1.97
-2 -2 12 18.11 1.24
2 2 -12 18.35 2.02
2 -2 -12 12.92 1.81
2 2 -12 18.8 1.11
2 -2 -12 16.75 1.05
-2 -2 12 17.16 1.25
-2 2 12 16.02 1.06
-2 -2 12 17.92 1.22
-2 -2 12 18.76 1.23
-2 2 12 15.98 1.12
-2 -2 12 18.03 1.18
-2 2 12 18.15 1.14
-2 -2 12 17.2 1.07
-2 -2 11 106.84 3.1
-2 -2 11 98.57 3.08
-2 2 11 100.84 3.08
-2 2 11 104.08 3.17
-2 2 11 103.31 3.22
-2 2 11 100.69 3.13
-2 -2 11 102.02 4.48
-2 2 11 98.49 4.41
-2 -2 11 97.8 3.08
-2 -2 11 101.89 4.91
-2 -2 11 103.81 4.68
2 -2 -11 99.17 4.49
2 2 -11 91.22 4.43
-2 -2 11 103.34 3.35
-2 -2 11 96.26 3.22
-2 2 11 98.8 3.22
-2 -2 11 102.28 3.35
-2 -2 11 103.6 3.33
-2 2 11 100.6 3.27
-2 -2 11 103.77 3.34
-2 -2 11 97.04 3.03
-2 2 11 108.37 3.31
-2 -2 11 101.59 3.15
-2 -2 10 3.39 0.59
-2 -2 10 4.7 0.77
-2 2 10 3.67 0.56
-2 2 10 2.95 0.66
-2 2 10 3.4 1.08
-2 2 10 4.5 0.69
-2 -2 10 4.99 1.13
-2 -2 10 5.17 0.68
-2 -2 10 3.18 0.56
-2 -2 10 5.49 1.31
2 -2 -10 4.71 1.15
-2 -2 10 3.04 0.68
2 2 -10 4.62 1.17
-2 2 10 3.46 0.67
-2 -2 10 3.78 0.67
-2 -2 10 4.5 0.7
-2 2 10 4.78 0.73
-2 -2 10 4.33 0.58
-2 2 10 4.14 0.59
-2 2 9 25.76 1.13
-2 -2 9 25.6 1.15
-2 -2 9 24.02 1.27
-2 2 9 25.39 1.29
-2 2 9 22.66 1.84
-2 -2 9 22.46 1.91
-2 2 9 24.57 1.21
-2 -2 9 22.22 2.15
-2 -2 9 28.69 2.2
-2 -2 9 24.62 1.27
2 2 -9 27.42 2.01
2 -2 -9 21.39 1.87
-2 -2 9 25.66 1.28
-2 2 9 27.54 1.29
-2 -2 9 25.01 1.32
-2 2 9 26.84 1.27
-2 -2 9 26.22 1.22
-2 2 9 27.19 1.13
-2 -2 9 26.04 1.11
-2 2 8 61.09 2.85
-2 -2 8 65 2.91
-2 -2 8 58.33 3.13
2 2 -8 51.99 2.77
2 -2 -8 62.82 2.94
-2 -2 8 56.63 2.04
-2 -2 8 62.78 2.12
-2 -2 8 58.74 2.01
-2 -2 8 59.27 2.08
-2 2 8 57.75 2.04
-2 2 8 57.68 2.05
-2 -2 8 56.61 1.96
-2 2 8 61.13 2.08
-2 2 8 59.73 1.95
-2 2 7 0.68 0.71
-2 -2 7 1.14 0.77
-2 -2 7 -0.15 0.9
-2 -2 7 0.3 0.45
2 2 -7 0.24 0.79
2 -2 -7 2.09 0.89
-2 -2 7 0.48 0.49
-2 2 7 0.82 0.49
-2 -2 7 1.42 0.47
-2 -2 7 0.44 0.48
-2 2 7 0.79 0.48
-2 2 7 0.61 0.49
2 2 -6 12.65 1.26
2 -2 -6 15.72 1.29
-2 -2 6 11.95 1.39
2 -2 -6 13.58 1.45
-2 -2 6 13.31 1.24
-2 2 6 11.95 1.15
-2 -2 5 362.73 9.61
-2 2 5 350.95 9.58
-2 -2 5 359.04 10.08
2 -2 -5 356.46 9.99
2 -2 -5 354.05 9.67
2 2 -5 355.31 9.66
-2 -2 4 679.66 16
-2 2 4 683.08 16.01
-2 -2 4 648.55 16.39
2 -2 -4 652.75 16.4
2 -2 -4 668.06 16.05
2 2 -4 674.55 16.07
-2 -2 3 110.83 3.33
-2 2 3 105.49 3.3
-2 -2 3 102.36 3.59
2 -2 -3 103.5 3.63
2 2 -3 108.81 3.36
2 -2 -3 100.19 3.29
-2 2 2 136.83 3.85
-2 -2 2 130.45 3.82
-2 -2 2 135.21 4.09
2 -2 -2 126.06 4.17
2 2 -2 134.16 3.87
2 -2 -2 124.75 3.81
2 2 -1 22.87 1.14
2 -2 -1 23.56 1.15
2 -2 -1 24.75 1.43
-2 -2 1 25.3 1.24
-2 2 1 20.25 1.38
-2 -2 1 21.38 1.12
-2 2 1 21.08 1.12
2 2 0 793.81 19.59
2 -2 0 803.55 19.59
-2 -2 0 798.59 19.52
2 -2 0 767.88 19.93
-2 2 0 813.92 20.01
-2 -2 0 787.96 19.55
-2 2 0 799.8 19.57
2 2 1 23.13 1.18
-2 -2 -1 23.46 0.95
2 -2 1 23.65 1.18
2 -2 1 24.22 1.44
-2 2 -1 26.21 1.52
-2 2 -1 25.79 1.2
-2 -2 -1 22.32 1.15
-2 2 -2 14.08 1.19
-2 2 -2 12.4 1.15
-2 -2 -2 11.33 0.44
2 2 2 11.78 0.91
2 -2 2 12.16 0.92
2 -2 2 12.71 1.11
2 -2 3 10.84 1.18
2 2 3 7.52 0.83
2 -2 3 9.09 0.97
2 -2 3 11.36 1.1
2 -2 3 10.45 0.93
-2 2 -3 8.01 1.08
2 -2 3 8.18 0.94
2 2 3 8.96 0.97
2 -2 4 15.03 1.41
2 -2 4 10.91 1.1
2 -2 4 13.83 1.14
2 2 4 13.44 1.1
2 -2 4 13.34 1.22
-2 2 -4 12.32 1.2
2 -2 4 12.22 1.12
2 2 4 15.23 1.2
2 -2 5 296.45 8.59
2 -2 5 290.24 8.24
2 -2 5 287.02 8.16
2 2 5 289.36 8.15
-2 2 -5 277 8.24
2 -2 5 286.13 8.22
2 2 5 284.93 8.24
2 2 6 22.32 1.62
2 -2 6 20.16 1.61
2 -2 6 22.73 1.61
2 -2 6 23.58 1.61
2 2 6 23.72 1.6
2 -2 6 22.27 1.01
2 -2 6 26.84 1.95
2 -2 6 22.04 0.99
2 -2 6 20.29 0.97
2 -2 6 19.61 0.98
-2 2 -6 22.57 1.72
-2 2 -6 22.12 1.61
2 -2 7 17.64 0.95
2 -2 7 13.63 1.45
2 2 7 14.29 1.48
2 2 7 15.54 0.91
2 -2 7 16.38 1.43
2 -2 7 16.65 0.93
2 -2 7 18.5 1.72
2 -2 7 15.96 0.89
2 -2 7 17.02 0.9
-2 2 -7 17.78 1.64
-2 2 -7 18.5 1.55
-2 2 -8 5.4 1.11
-2 -2 -8 6.78 1.3
-2 2 -8 6.36 1.22
2 -2 8 6.28 0.67
2 2 8 5.21 0.6
2 2 8 6.01 0.6
2 2 8 4.54 1.14
2 -2 8 6.92 1.18
2 2 8 6.13 0.64
2 2 8 5.09 0.65
2 2 8 5.28 0.7
2 -2 8 6.17 0.68
2 -2 8 4.23 0.99
-2 2 -8 6.57 1.19
2 -2 8 6.6 0.66
2 -2 8 6.18 0.63
2 -2 8 5.72 0.63
2 -2 8 5.61 0.67
-2 2 -9 189.08 6.75
-2 2 -9 188.12 6.35
-2 -2 -9 197.18 6.9
2 -2 9 186.37 5.3
2 -2 9 190.29 5.27
2 2 9 191.99 5.22
2 2 9 193.37 5.22
2 2 9 196.01 5.26
2 -2 9 209.89 6.93
2 2 9 193.42 5.28
2 2 9 195.79 6.82
2 -2 9 198 5.29
2 -2 9 196.92 5.38
2 2 9 184.36 5.37
2 -2 9 186.89 6.48
2 -2 9 197.29 5.33
2 -2 9 192.5 5.25
-2 -2 -9 198.67 6.68
-2 2 -9 196.59 6.68
2 -2 9 195.53 5.33
2 -2 9 195.9 5.37
2 2 9 184.24 5.29
-2 2 -10 290.11 9.26
-2 -2 -10 290.39 9.41
2 -2 10 282.92 7.53
2 -2 10 283.64 7.44
2 2 10 275.02 7.41
2 2 10 279.78 7.46
2 2 10 288.14 7.41
2 2 10 297.88 7.54
2 -2 10 284.78 9.3
2 2 10 272.99 9.19
2 -2 10 294.72 7.54
2 -2 10 267.67 8.79
2 2 10 267.15 7.6
2 -2 10 288.43 7.56
-2 -2 -10 281.58 9.06
-2 2 -10 295.67 9.19
2 -2 10 277.94 7.46
2 -2 10 284.63 7.54
2 -2 10 276.88 7.59
-2 2 -11 189.79 6.88
-2 -2 -11 189.45 7.05
2 -2 11 180.15 5.05
2 -2 11 194.65 5.23
2 2 11 180.84 5.12
2 2 11 183.16 5.05
2 2 11 177.2 5.01
2 2 11 194.32 6.97
2 -2 11 181.07 6.87
2 2 11 191.2 5.11
2 2 11 183.94 5.17
2 -2 11 181.48 5.18
2 2 11 183.47 5.3
-2 2 -11 179.76 6.68
2 -2 11 172.67 7.02
2 -2 11 184.67 5.21
-2 -2 -11 178.27 6.67
2 -2 11 179.77 5.07
2 -2 11 182.04 5.21
2 -2 11 178.16 5.25
2 -2 12 -0.05 0.47
2 -2 12 0.17 0.6
2 2 12 0.22 0.54
2 2 12 -0.09 0.46
2 2 12 0.1 0.45
2 2 12 1.1 1
2 2 12 0.46 0.52
2 -2 12 0.22 0.98
2 2 12 -0.24 0.61
2 -2 12 0.18 0.63
2 2 12 0.55 0.66
2 -2 12 1.23 1.24
2 -2 12 -0.06 0.61
-2 -2 -12 0.2 0.99
-2 2 -12 -0.4 1.01
2 -2 12 1.33 0.79
2 -2 12 0.36 0.6
-2 -2 -12 -0.45 1.09
-2 2 -12 -0.42 1.07
2 2 13 27.84 1.33
2 2 13 26.58 1.18
2 2 13 26.57 1.23
2 2 13 26.28 1.36
2 -2 13 26.83 1.36
2 2 13 27.31 1.48
2 -2 13 28.31 1.38
2 -2 13 28.63 1.38
2 -2 13 28.14 1.48
2 -2 13 26.08 1.34
2 -2 14 47.55 1.76
2 2 14 46.74 1.81
2 -2 14 46.66 1.81
2 -2 14 49.09 1.96
2 2 14 47.46 1.76
2 -2 15 6.39 0.6
2 -2 15 5.68 0.74
2 2 15 7 0.61
2 -2 15 5.19 0.61
2 2 15 5.81 0.64
2 2 16 9.1 0.58
-2 2 -16 7.76 0.62
2 -2 16 7.42 0.56
-2 2 -17 36.05 1.13
-2 3 17 0.17 0.22
-2 3 16 0.03 0.35
-2 -3 16 0.08 0.26
-2 3 16 -0.34 0.32
-2 -3 16 0.3 0.46
-2 -3 16 0.69 0.45
-2 -3 15 40.53 1.69
-2 -3 15 42.48 1.7
-2 -3 15 40.92 1.66
-2 -3 15 44.01 1.66
-2 3 15 43.5 1.62
-2 3 15 44.9 1.56
-2 3 15 41.52 1.53
-2 -3 14 3.48 0.49
-2 -3 14 3.04 0.54
-2 3 14 1.87 0.57
-2 3 14 2.91 0.56
-2 3 14 2.74 0.67
-2 -3 14 2.2 0.74
2 -3 -14 1.77 0.44
-2 -3 14 3.67 0.74
-2 -3 14 3.6 0.74
-2 -3 14 2.68 0.7
-2 -3 14 2.5 0.64
-2 -3 13 5.07 0.59
-2 -3 13 5.66 0.68
-2 3 13 5.77 0.6
-2 3 13 6.73 0.72
-2 3 13 6.3 0.74
-2 3 13 4.72 0.77
2 -3 -13 5.45 0.59
-2 -3 13 4.26 0.9
-2 3 13 5.07 0.73
-2 -3 13 5.8 0.79
-2 -3 13 4.62 0.79
-2 -3 13 5.84 0.88
-2 -3 13 5.78 0.67
-2 -3 12 129.47 3.65
-2 3 12 126.45 3.62
-2 -3 12 126.08 3.79
-2 3 12 131.11 3.93
-2 3 12 136.06 3.89
-2 3 12 126.44 3.76
2 -3 -12 115.93 5.38
-2 -3 12 131.3 5.6
-2 -3 12 127.28 4.02
2 -3 -12 124.16 3.63
2 3 -12 123.99 3.66
-2 -3 12 130.56 4.01
-2 -3 12 135.19 4.07
-2 -3 12 131.33 3.99
-2 -3 12 124.17 3.72
-2 3 12 125.34 3.87
-2 3 11 813.16 20.24
-2 -3 11 844.61 20.47
-2 -3 11 832.81 20.27
-2 3 11 823.89 20.56
-2 3 11 841.11 20.42
-2 3 11 855.15 20.52
-2 3 11 794.82 21.89
2 -3 -11 846.47 22.8
-2 -3 11 858.26 22.83
2 3 -11 795.73 21.98
-2 -3 11 831.01 20.67
2 3 -11 805.56 20.28
2 -3 -11 823.61 20.27
-2 -3 11 796.06 20.46
-2 -3 11 826.83 20.62
-2 3 11 845.46 20.57
-2 -3 11 837.87 20.71
-2 3 11 820.82 20.23
-2 -3 11 843.88 20.69
-2 -3 11 810.61 20.38
-2 3 11 833.46 20.58
-2 3 10 441.21 11.29
-2 3 10 461.89 11.56
-2 3 10 457.24 11.45
-2 3 10 450.26 11.6
-2 3 10 445.63 12.82
-2 -3 10 455.49 12.94
-2 -3 10 465.76 14.02
2 -3 -10 454.41 13.63
2 3 -10 450.1 11.35
-2 -3 10 463.68 13.54
-2 -3 10 451.06 11.68
2 -3 -10 435.17 11.3
2 3 -10 450.26 12.95
-2 -3 10 466.54 11.75
-2 -3 10 432.98 11.47
-2 -3 10 446.8 11.63
-2 3 10 469.12 11.63
-2 3 10 446.85 11.37
-2 3 10 455.69 11.64
-2 -3 10 472.06 11.75
-2 3 9 74.26 2.34
-2 -3 9 66.62 3.22
-2 3 9 72.34 3.28
-2 -3 9 66.72 3.79
2 -3 -9 77.15 3.82
-2 -3 9 75.15 3.77
2 3 -9 66.79 3.24
-2 -3 9 73.8 2.54
2 -3 -9 72.56 3.32
2 3 -9 74.32 2.27
-2 -3 9 73.89 2.57
-2 -3 9 68.24 2.47
-2 -3 9 72.04 2.56
-2 3 9 77.53 2.54
-2 -3 9 69.62 2.36
-2 3 9 76.23 2.55
-2 -3 9 72.55 2.57
-2 3 9 70.49 2.33
2 3 -8 35.22 1.3
-2 3 8 34.57 1.55
-2 3 8 35.53 1.46
-2 3 8 37.43 1.38
-2 -3 8 39.46 2.18
-2 3 8 36.16 2.06
-2 -3 8 37.67 2.63
2 -3 -8 34.79 2.5
-2 -3 8 37.35 2.38
-2 -3 8 35.03 1.56
2 3 -8 30.14 2
-2 -3 8 34.04 1.54
2 -3 -8 32.67 2.03
2 3 -8 32.37 1.26
-2 -3 8 34.78 1.56
-2 -3 8 37.01 1.5
-2 3 8 35.58 1.53
-2 3 8 35.68 1.42
-2 3 8 34.31 1.54
-2 3 7 233.22 6.19
2 3 -7 226.92 6.06
-2 3 7 236.15 6.3
-2 3 7 240.88 7.04
-2 -3 7 241.93 7.09
-2 -3 7 236.97 7.86
2 -3 -7 252.15 7.82
-2 -3 7 247.79 7.6
-2 -3 7 224.88 6.24
2 3 -7 228.4 7.03
-2 -3 7 230.18 6.29
2 -3 -7 237.14 7.05
-2 -3 7 231.58 6.31
-2 -3 7 232.44 6.2
-2 3 7 231.18 6.27
-2 3 7 239.84 6.19
-2 3 7 239.28 6.3
-2 3 6 10.64 0.75
-2 3 6 9.77 0.98
-2 -3 6 8.16 1
-2 -3 6 9.03 1.4
2 -3 -6 12.32 1.48
-2 -3 6 11.17 1.29
-2 -3 6 9.83 0.77
2 3 -6 11.2 1.05
2 -3 -6 8.99 1.03
-2 -3 6 7.91 0.7
-2 -3 6 8.7 0.68
-2 -3 6 12.34 0.81
-2 3 6 9.28 0.77
2 3 -6 9.81 0.67
-2 3 5 0.76 0.44
-2 -3 5 0.65 0.56
-2 3 5 0.15 0.46
-2 -3 5 1.52 0.87
2 -3 -5 -0.13 0.79
2 -3 -5 1.02 0.56
2 3 -5 0.08 0.53
-2 -3 5 1.2 0.76
-2 -3 5 1.11 0.48
-2 3 5 2.01 0.52
2 3 -4 6.62 0.75
2 -3 -4 6.98 0.79
-2 -3 4 9.17 0.85
-2 3 4 7.37 0.74
2 -3 -4 7.93 1.25
2 -3 -3 3.24 0.57
-2 -3 3 3.16 0.83
2 -3 -3 5.6 1.01
-2 -3 3 4.4 0.62
-2 3 3 3.65 0.56
2 -3 -2 51.46 1.77
2 -3 -2 50.41 2.38
-2 -3 2 49.47 2.21
2 3 -2 48.95 1.74
-2 -3 2 47.63 1.73
-2 3 2 47.22 1.7
2 -3 -1 89.74 2.67
-2 -3 1 88.44 3.09
2 3 -1 83.04 2.6
2 -3 -1 87.33 3.38
-2 -3 1 90.67 2.65
-2 3 1 91.9 2.64
-2 -3 1 85.67 2.65
-2 3 0 221.33 6.49
-2 -3 0 213.61 5.61
-2 3 0 214.73 5.6
2 3 0 202.12 5.59
2 -3 0 211.11 5.64
2 -3 0 230.23 6.46
-2 -3 0 214.12 6.01
-2 3 -1 1.39 0.86
-2 3 -1 2.13 0.44
-2 -3 -1 1 0.4
2 -3 1 1.96 0.8
-2 -3 -1 1.81 0.49
2 -3 1 1.44 0.45
2 3 1 1.29 0.39
-2 3 -2 181.33 5.11
-2 -3 -2 190.29 5.14
2 -3 2 205.37 6.15
2 -3 2 200.38 5.88
2 -3 2 175.79 5.2
2 3 2 188.94 5.19
-2 3 -3 559.33 14.88
-2 3 -3 558.12 14.91
-2 -3 -3 560.22 14.03
-2 3 -3 546.82 14
2 3 3 537.07 14.06
2 -3 3 568.36 14.94
2 -3 3 573.12 14.73
2 -3 3 553.47 14.12
2 -3 4 290.1 7.49
2 3 4 293.72 8.03
2 -3 4 280.86 8.02
2 -3 4 305.09 8.73
2 -3 4 289.26 7.51
2 -3 4 282.52 8.49
2 -3 4 301.45 8.79
2 -3 4 292.28 7.49
2 -3 4 300.22 7.5
-2 3 -4 289.12 8.65
-2 3 -4 307.61 8.79
2 -3 5 172.04 4.62
2 -3 5 170.03 4.58
2 3 5 163.82 5.29
2 -3 5 172.69 5.33
2 -3 5 168.39 4.63
2 -3 5 171.89 5.79
2 -3 5 176.32 6.01
2 -3 5 166.85 4.62
2 -3 5 171.17 4.64
-2 3 -5 178.88 5.85
-2 3 -5 173.2 5.86
2 -3 6 173.42 4.61
2 -3 6 162.85 4.54
2 -3 6 157.58 5.35
2 3 6 152.05 5.32
2 -3 6 168.78 5.81
2 -3 6 164.76 6.01
-2 3 -6 171.81 5.34
2 -3 6 165.06 4.59
2 -3 6 171.91 4.61
-2 3 -6 167.8 5.84
-2 3 -6 166.1 5.81
-2 3 -7 500.26 13.85
-2 3 -7 499.69 13.88
2 -3 7 491.04 12.26
2 -3 7 487.88 12.29
2 3 7 479.17 12.24
2 3 7 479.51 12.26
2 3 7 487.27 12.17
2 3 7 481.98 13.38
2 -3 7 470.64 13.34
2 -3 7 458.03 13.75
2 -3 7 494.37 14.18
-2 3 -7 487.61 13.26
-2 -3 -7 499.33 13.26
2 -3 7 488.86 12.31
2 -3 7 492.61 12.3
2 -3 7 494.55 12.3
2 -3 7 482.38 12.24
-2 3 -8 2.05 0.94
-2 3 -8 4.08 1.26
2 -3 8 4.92 0.69
2 -3 8 4.75 0.67
2 3 8 5.76 0.62
2 3 8 4.11 0.61
2 3 8 3.7 0.63
2 -3 8 3.5 1
2 3 8 3.67 0.58
2 3 8 2.74 0.86
2 3 8 4.28 0.59
2 -3 8 3.19 1.02
2 -3 8 4.58 0.7
2 -3 8 4.01 1.29
-2 -3 -8 3.34 0.93
-2 3 -8 3.74 0.95
2 -3 8 4.69 0.68
2 -3 8 5.39 0.71
2 -3 8 3.85 0.66
2 -3 8 4.94 0.69
-2 3 -9 28.89 2.37
-2 3 -9 33.85 2.41
-2 -3 -9 39.81 2.68
2 -3 9 31.3 1.47
2 -3 9 30.53 1.48
2 3 9 32.69 1.46
2 3 9 28.82 1.35
2 3 9 34.22 1.36
2 3 9 31.78 1.42
2 3 9 31.87 1.32
2 -3 9 30.22 2.21
2 3 9 28.37 2.15
2 3 9 30.68 1.31
2 -3 9 27.27 2.28
2 -3 9 32.88 2.68
-2 -3 -9 32.91 2.17
2 -3 9 32.9 1.48
2 -3 9 31.31 1.5
-2 3 -9 34.08 2.21
2 -3 9 37.77 1.57
2 -3 9 31.01 1.39
2 -3 9 32.82 1.53
2 -3 9 33.16 1.53
2 -3 9 35.49 1.54
-2 -3 -10 -0.63 1.1
-2 3 -10 1.19 1
2 -3 10 1.2 0.64
2 3 10 0.77 0.44
2 3 10 0.78 0.58
2 3 10 0.85 0.61
2 -3 10 1.19 0.47
2 3 10 0.87 0.49
2 3 10 1.03 0.5
2 3 10 0.54 0.93
2 -3 10 -0.2 0.94
2 -3 10 0.49 1.1
2 -3 10 1.26 0.63
-2 3 -10 1.17 0.87
2 -3 10 0.99 0.63
2 -3 10 0.76 0.5
2 -3 10 1.37 0.67
2 -3 10 0.71 0.57
2 -3 10 0.73 0.62
2 -3 10 0.89 0.66
-2 3 -11 124.84 5.4
-2 -3 -11 129.81 5.58
2 -3 11 135.04 3.96
2 3 11 137.36 3.96
2 3 11 127.06 3.74
2 3 11 133.27 3.99
2 3 11 134.93 3.79
2 3 11 124.42 3.82
2 -3 11 129.71 3.86
2 -3 11 133.67 4.07
2 -3 11 142.03 6.01
2 -3 11 135.44 3.98
2 -3 11 136.54 4.05
2 -3 11 133.77 4.12
2 -3 11 134.96 4.04
2 -3 11 140.33 4.13
-2 3 -12 62.37 2.23
2 -3 12 62.68 2.27
2 -3 12 60.61 2.16
2 3 12 62.9 2.19
2 3 12 61.48 2.21
2 -3 12 60.64 2.12
2 3 12 63.1 2.12
2 -3 12 59.63 2.31
2 -3 12 59.47 2.28
2 -3 12 60.56 2.17
2 -3 12 61.99 2.26
2 -3 12 63.09 2.4
2 -3 12 59.07 2.32
-2 3 -13 22.9 1.23
2 -3 13 25.41 1.28
2 3 13 23.8 1.16
2 3 13 25.55 1.23
2 -3 13 23.76 1.13
2 -3 13 24.79 1.32
2 -3 13 21.8 1.23
2 -3 13 21.29 1.24
2 -3 13 23.27 1.35
2 -3 13 25.38 1.35
-2 3 -14 20.29 1.04
2 -3 14 19.5 1.01
2 3 14 17.54 1
2 3 14 20.56 0.94
2 -3 14 16.8 0.9
2 -3 14 19.97 1.13
2 -3 14 20.13 1.08
2 -3 14 19.94 1.16
2 -3 14 19.26 1.04
2 -3 14 18.28 1.11
-2 3 -15 4.32 0.55
2 -3 15 3.54 0.49
2 3 15 4.13 0.51
2 -3 15 3.59 0.58
2 -3 15 3.94 0.6
-2 3 -16 33.8 1.11
2 -3 16 29.78 1.16
2 -3 16 31.2 1.17
-2 4 16 40.05 1.21
-2 -4 15 7.45 0.63
-2 -4 15 5.67 0.58
-2 4 15 7.68 0.58
-2 4 14 45.04 1.58
-2 -4 14 41.46 1.67
-2 -4 14 43.53 1.54
-2 -4 14 42.61 1.66
-2 -4 14 44.31 1.67
-2 -4 14 40.83 1.59
-2 4 13 4.14 0.68
-2 4 13 3.43 0.55
-2 -4 13 4.11 0.75
-2 -4 13 3.64 0.59
-2 -4 13 4.2 0.64
-2 -4 13 3.83 0.71
-2 -4 13 4.99 0.8
-2 -4 13 3.72 0.75
-2 -4 13 4.7 0.69
-2 4 12 46.25 1.69
-2 -4 12 49.96 1.83
-2 -4 12 44.32 1.91
-2 -4 12 43.58 1.94
-2 -4 12 43.91 1.85
-2 -4 12 43.54 1.89
2 4 -11 4.53 0.62
-2 4 11 2.56 0.58
-2 -4 11 5.64 0.79
-2 4 11 3.92 0.6
-2 4 11 6.06 0.81
-2 -4 11 5.39 0.87
-2 -4 11 4.7 0.87
-2 -4 11 4.77 0.78
-2 -4 11 3.75 0.87
2 4 -10 57.21 1.99
-2 4 10 53.82 1.94
-2 4 10 57.56 2.1
-2 4 10 57.48 2.17
-2 -4 10 57.28 3.7
2 -4 -10 49.54 3.24
-2 4 10 53.46 2
-2 -4 10 48.31 3.18
-2 -4 10 54.05 2.19
-2 -4 10 60.58 2.3
-2 -4 10 53.25 2.22
-2 -4 10 55.74 2.13
-2 4 10 54.49 1.91
-2 -4 10 59.18 2.29
2 4 -9 87.87 2.72
-2 4 9 92.7 2.93
-2 4 9 90.14 2.77
-2 4 9 88.86 2.98
-2 -4 9 88.41 4.21
-2 -4 9 93.6 3.1
-2 -4 9 88.74 3.03
-2 4 9 95.46 2.86
-2 4 9 95.47 3.06
-2 -4 9 90.24 3.07
-2 -4 9 86.78 2.95
-2 -4 9 88.26 4.58
2 -4 -9 89.21 4.34
2 4 -8 2.1 0.49
-2 -4 8 2.53 1.19
2 -4 -8 3.43 1.17
-2 4 8 1.77 0.45
-2 4 8 1.8 0.55
-2 -4 8 1.58 0.93
-2 -4 8 1.76 0.66
-2 -4 8 0.83 0.63
-2 -4 8 2.78 0.64
-2 -4 8 2.4 0.67
-2 4 8 2.41 0.7
-2 4 8 1.96 0.56
2 4 -7 1.37 0.48
-2 4 7 0.79 0.57
-2 -4 7 -0.21 1.12
2 -4 -7 -0.38 1.03
-2 4 7 0.34 0.45
-2 -4 7 1.08 0.72
-2 -4 7 0.42 0.56
-2 -4 7 0.71 0.58
-2 -4 7 0.3 0.5
-2 -4 7 0.18 0.56
-2 4 7 1.24 0.62
-2 4 7 0.8 0.51
2 4 -6 37.37 1.43
-2 4 6 35.9 1.49
-2 4 6 37.65 1.44
-2 4 6 33.94 1.57
-2 -4 6 34.41 2.47
2 -4 -6 39.52 2.51
-2 -4 6 33.62 2.1
-2 -4 6 32.81 1.4
-2 -4 6 34.84 1.54
-2 -4 6 35.01 1.43
-2 4 6 34.84 1.45
-2 4 5 31.07 1.36
2 4 -5 33.41 1.34
-2 4 5 31.63 1.75
-2 4 5 32.44 1.28
-2 4 5 31.55 1.46
2 4 -5 33.03 1.37
-2 -4 5 32.81 2.33
2 -4 -5 32.06 2.23
-2 -4 5 29.79 1.83
-2 -4 5 33.38 1.41
-2 -4 5 31.93 1.28
-2 4 5 29.82 1.36
-2 4 4 837.78 20.6
2 4 -4 840.37 20.49
-2 4 4 840.49 20.56
-2 -4 4 805.27 20.46
-2 4 4 850.01 20.5
-2 4 4 833.7 20.49
-2 4 4 799.59 21.32
2 4 -4 845.87 20.44
-2 -4 4 825.97 22.01
2 -4 -4 856.82 22.05
-2 -4 3 432.59 10.88
-2 -4 3 443.01 12.28
2 -4 -3 448.76 12.32
-2 4 3 418.15 10.94
-2 4 3 433.85 11.9
2 4 -3 442.51 10.9
-2 4 2 189.28 5.25
2 -4 -2 207.8 6.5
-2 -4 2 196.97 6.27
2 -4 -2 194.04 5.15
-2 4 2 206.99 6.3
-2 4 2 197.21 5.27
-2 -4 1 1690.34 41.7
-2 4 1 1688.79 40.67
2 -4 -1 1754.23 42.03
2 -4 -1 1706.28 40.56
-2 4 1 1726.9 41.92
2 4 -1 1656.25 40.63
-2 4 1 1657.34 40.68
-2 4 0 2744.79 64.17
2 -4 0 2618.54 64.06
2 4 0 2633.04 64.11
2 4 0 2713.33 64.11
-2 4 0 2695.68 65.57
-2 -4 0 2666.75 65
2 -4 0 2735.8 65.47
-2 4 0 2665.46 64.16
2 -4 1 76.02 2.28
2 4 1 73.68 2.29
2 4 1 73.32 2.28
-2 4 -1 77.13 3.38
-2 4 -1 74.49 3.41
2 -4 1 84.97 3.7
-2 4 -1 79.59 2.36
2 -4 1 75.55 3.25
2 -4 2 26.03 1.81
2 -4 2 23.16 1.02
2 -4 2 24.49 1.13
2 -4 2 23.47 1.09
-2 4 -2 24 1.05
-2 4 -2 28.09 2.03
2 4 2 23.59 0.99
2 4 2 23.96 1.02
-2 4 -2 25.95 1.91
-2 4 -3 173.13 4.7
-2 4 -3 185.25 6.21
2 4 3 171.37 4.6
2 4 3 176.27 4.63
-2 4 -3 174.19 6.22
2 4 3 169.88 4.77
2 4 3 172.67 4.78
2 -4 3 183.86 5.91
2 -4 3 179.03 4.82
2 -4 3 193.09 4.85
2 -4 3 169.65 4.68
-2 4 -4 18.57 1.76
-2 4 -4 17.63 0.97
-2 4 -4 19.23 0.9
2 4 4 17.05 0.94
2 4 4 16.98 0.99
2 4 4 18.67 1
2 4 4 15.89 0.95
2 -4 4 18.41 1.78
2 -4 4 20.06 1.66
2 -4 4 17.97 1.01
2 -4 4 20.19 1.04
2 -4 4 19.31 1.03
2 -4 4 17.43 1
2 -4 4 17.98 0.91
-2 4 -5 42.1 2.52
-2 4 -5 35.94 1.47
-2 4 -5 36.49 2.52
2 4 5 34.78 1.47
2 4 5 37.91 1.47
2 4 5 36.01 1.43
2 4 5 34.54 1.48
2 -4 5 39.97 2.56
2 -4 5 36.17 1.43
2 -4 5 33.74 1.5
2 -4 5 36.99 1.52
2 -4 5 34.77 1.48
2 -4 5 38.04 1.46
2 -4 5 35.62 1.51
-2 4 -6 34.61 2.44
-2 4 -6 35.46 1.49
-2 4 -6 33.9 2.45
2 4 6 33.82 1.41
2 4 6 36.21 1.45
2 4 6 36.43 1.5
2 -4 6 35.44 2.54
2 -4 6 37.17 1.49
2 -4 6 33.45 1.53
2 -4 6 35.82 1.54
2 -4 6 34.3 1.49
2 -4 6 35.29 1.55
2 -4 6 33.87 1.52
2 -4 6 34.05 1.42
-2 4 -7 17.52 1.91
-2 4 -7 15.63 1.82
-2 4 -7 20.51 1.12
2 -4 7 18.97 1.09
2 -4 7 18.02 1.13
2 4 7 17.28 0.99
2 4 7 20.06 1.02
2 -4 7 19.02 1.15
2 -4 7 18.04 1.9
2 -4 7 21.36 2.12
2 -4 7 17.09 1.14
2 -4 7 19.87 1.15
2 -4 7 20.24 1.17
2 -4 7 18.98 1.1
2 -4 7 18.24 1.11
-2 4 -8 3.86 1.14
-2 4 -8 3.45 1.18
2 -4 8 2.68 0.66
-2 4 -8 2.35 0.66
2 4 8 2.38 0.55
2 4 8 2.29 0.53
2 4 8 2.64 0.64
2 4 8 2.21 0.51
2 -4 8 2.37 0.67
2 -4 8 3.18 1.17
2 -4 8 3.54 0.78
2 -4 8 4.51 1.35
2 -4 8 2.47 0.72
2 -4 8 2.79 0.69
2 -4 8 2.28 0.69
2 -4 8 3.41 0.63
-2 -4 -9 167.57 6.54
-2 4 -9 169.85 6.62
-2 4 -9 188.33 5.22
2 4 9 184.85 5.26
2 4 9 178.01 5.01
2 -4 9 191.4 5.33
2 -4 9 180.42 6.92
2 -4 9 185.23 5.28
2 -4 9 183.47 5.23
2 -4 9 177.72 7.06
2 -4 9 187.75 5.32
2 -4 9 194.9 5.35
2 -4 9 189.96 5.33
2 -4 9 187.85 5.31
2 -4 9 186.4 5.21
-2 4 -10 622.73 15.72
-2 -4 -10 581.36 17.44
2 4 10 595.56 15.47
2 4 10 626.71 15.77
2 -4 10 652.98 15.89
2 -4 10 637.98 15.81
2 -4 10 649.02 15.84
2 -4 10 645.83 15.87
2 -4 10 637.2 15.87
2 -4 10 616.98 15.7
2 -4 10 648.89 15.9
2 -4 10 619.11 15.74
2 -4 10 623.66 15.85
-2 4 -11 297.61 7.94
2 4 11 312.66 8.02
2 4 11 299.48 8
2 -4 11 306.65 8.1
2 -4 11 298 8.02
2 -4 11 298.86 7.99
2 -4 11 291.98 8.01
2 -4 11 304.61 8.07
2 -4 11 307.27 8.12
2 -4 11 305.9 8.08
2 4 12 8.57 0.82
2 4 12 7.21 0.79
2 -4 12 7.68 0.85
2 -4 12 7.81 0.78
2 -4 12 6.97 0.81
-2 4 -12 5.72 0.71
2 -4 12 8.53 0.88
2 -4 12 7.5 0.82
2 -4 12 6.41 0.87
2 -4 12 6.83 0.75
2 -4 12 6.48 0.82
-2 4 -13 44.23 1.59
2 4 13 45.37 1.61
2 4 13 43.84 1.64
2 -4 13 41.43 1.68
2 -4 13 41.61 1.55
2 -4 13 41.64 1.69
2 -4 13 41.08 1.64
2 -4 13 43.58 1.73
2 -4 13 43.22 1.71
-2 4 -14 72.33 2.15
2 -4 14 67.99 2.24
2 4 14 73.43 2.15
2 4 14 72.78 2.2
2 -4 14 71.72 2.25
2 -4 14 68.52 2.26
2 -4 14 69.04 2.19
2 -4 14 72.45 2.26
2 4 15 0.3 0.33
2 4 15 0.41 0.24
2 -4 15 0.79 0.34
2 -4 15 0.37 0.38
2 -4 15 0.62 0.32
2 -4 15 0.72 0.36
2 -4 15 0.47 0.35
-2 5 15 0.78 0.23
-2 -5 14 19.37 0.79
-2 -5 14 16.88 0.86
-2 -5 14 14.24 0.76
-2 -5 14 16.17 0.83
-2 5 14 18.6 0.8
-2 5 13 0.55 0.45
-2 -5 13 0.18 0.47
-2 -5 13 0.1 0.42
-2 -5 13 -0.16 0.48
-2 -5 13 0.4 0.52
-2 -5 13 0.08 0.43
-2 -5 13 0.47 0.46
2 5 -12 4.99 0.53
-2 5 12 6.28 0.71
-2 -5 12 7.01 0.74
-2 5 12 5.77 0.67
-2 -5 12 6.68 0.8
-2 -5 12 4.91 0.74
-2 -5 12 5.94 0.7
-2 -5 12 5.34 0.73
2 5 -11 143.99 4.06
-2 5 11 147.17 4.22
-2 5 11 147.61 4.19
-2 -5 11 149.48 4.25
-2 -5 11 143.71 4.21
-2 -5 11 153.05 4.38
-2 -5 11 140.38 4.31
-2 -5 11 144.7 4.31
2 5 -10 127.24 3.65
2 5 -10 122.48 3.46
-2 -5 10 124.64 3.76
-2 5 10 126.84 3.74
-2 5 10 128.38 3.7
-2 5 10 120.37 3.59
-2 -5 10 124.43 3.74
-2 -5 10 122.73 3.84
-2 -5 10 119.67 3.69
-2 -5 10 125.42 3.87
-2 -5 10 117.64 3.84
-2 -5 9 4.13 0.74
-2 5 9 3.64 0.69
-2 5 9 3.61 0.71
-2 -5 9 2.96 0.71
-2 -5 9 2.68 0.78
-2 -5 9 4.06 0.7
-2 -5 9 4.18 0.81
2 5 -9 3.76 0.71
2 5 -9 3.94 0.6
-2 5 9 3.9 0.65
2 5 -8 216.96 5.81
-2 5 8 210.22 5.85
-2 5 8 218.52 5.97
-2 -5 8 215.2 6.06
-2 -5 8 211.67 5.89
-2 5 8 219.59 5.86
-2 -5 8 213.18 5.89
-2 -5 8 218.53 6.11
-2 -5 8 197.89 7.85
-2 5 8 216.23 5.91
2 -5 -8 203.47 7.44
2 5 -7 255.92 6.7
-2 -5 7 238.14 8.72
-2 5 7 252.63 6.78
2 -5 -7 238.42 8.34
-2 5 7 247.6 6.66
-2 -5 7 244.34 6.68
-2 -5 7 253.69 6.88
-2 -5 7 247.65 6.91
-2 -5 7 250.6 6.72
-2 5 7 255.35 6.74
-2 5 6 34.01 1.56
2 5 -6 36.25 1.56
-2 -5 6 32.33 2.62
-2 5 6 36.19 1.58
2 -5 -6 30.87 2.42
-2 5 6 35.14 1.44
-2 -5 6 35.68 1.62
-2 -5 6 38.35 1.52
-2 5 6 37.85 1.59
-2 5 5 8.91 0.82
2 5 -5 9.64 0.85
2 5 -5 7.94 0.68
-2 5 5 9.8 0.74
2 -5 -5 7.98 1.41
-2 5 5 9.52 0.84
-2 -5 5 9.16 1.61
-2 -5 5 9.68 0.74
-2 -5 5 8.35 0.82
-2 5 5 10.43 0.86
-2 5 4 14.66 0.99
2 5 -4 12.46 0.94
2 5 -4 13.16 0.87
-2 5 4 14.39 1.06
2 -5 -4 11.35 1.58
-2 -5 4 11.93 1.61
-2 -5 4 15.61 0.96
2 -5 -4 13.41 0.81
-2 5 4 13.38 0.97
-2 5 3 40.92 1.76
-2 5 3 38.73 1.76
2 5 -3 42.15 1.62
-2 5 3 45.62 1.71
2 5 -3 40.06 1.65
-2 5 3 39.03 2.24
-2 -5 3 38.97 2.61
2 -5 -3 37.15 2.5
-2 5 3 42.73 1.71
-2 5 2 25.03 1.33
-2 5 2 24.82 1.36
2 5 -2 24.18 1.22
2 5 -2 25.87 1.27
-2 5 2 27.38 1.26
-2 5 2 25.21 1.88
-2 -5 2 27.56 2.07
-2 5 2 27.47 1.33
2 -5 -2 28.19 2.1
-2 5 1 0.35 0.57
2 -5 -1 0.2 1.01
2 -5 -1 0.16 0.7
2 5 -1 0.7 0.48
-2 5 1 0.15 0.79
2 5 -1 0.09 0.47
-2 5 1 0.37 0.53
2 5 -1 0.48 0.53
-2 5 1 0.81 0.53
-2 5 0 53.7 1.94
2 -5 0 51.55 3.12
2 -5 0 48.43 2.69
2 -5 0 51.07 1.78
2 5 0 44.97 1.68
2 5 0 52.51 1.9
2 5 0 45.88 1.81
-2 5 0 50.08 1.86
2 5 0 47.55 1.77
2 5 0 49.98 1.8
-2 5 0 45.53 1.82
-2 5 0 51.2 2.82
2 5 1 56.45 1.99
2 5 1 50.41 1.86
2 5 1 52.29 1.97
2 5 1 51.3 1.91
2 5 1 55.69 1.95
-2 5 -1 55.55 2.01
2 -5 1 56.29 3.23
2 -5 1 54.57 1.92
2 -5 1 54.62 1.95
-2 5 -1 54.22 1.94
2 5 1 56.66 1.91
-2 5 -1 52.86 1.94
2 5 1 51.11 1.83
-2 5 -1 58.62 3.05
2 -5 2 14.42 0.9
2 5 2 13.83 0.94
2 5 2 12.8 0.9
2 5 2 13.3 0.94
-2 5 -2 14.96 1
2 5 2 14.85 0.93
2 -5 2 9.99 1.67
2 -5 2 16.32 1.57
2 -5 2 14.07 0.94
2 -5 2 14.84 0.94
-2 5 -2 13.62 1.68
-2 5 -2 15.92 0.94
2 5 2 15.93 0.9
-2 5 -2 14.51 0.93
2 5 2 12.53 0.79
-2 5 -3 131.57 3.75
-2 5 -3 128.77 3.78
2 5 3 124.19 3.61
-2 5 -3 138.67 5.39
2 -5 3 129.06 3.78
2 5 3 122.2 3.75
2 5 3 122.38 3.74
2 5 3 130.26 3.76
-2 5 -3 128.53 3.84
2 5 3 126.13 3.7
2 -5 3 128.29 4.85
2 -5 3 134.3 3.83
2 -5 3 134.35 3.82
2 -5 3 128.91 3.83
-2 5 -4 7.67 0.8
2 5 4 5.81 0.57
-2 5 -4 6.37 1.38
-2 5 -4 7.24 1.42
2 -5 4 8.88 0.85
2 5 4 9.59 0.79
2 5 4 7.22 0.76
2 5 4 8.14 0.79
2 5 4 8.38 0.78
2 5 4 7.03 0.68
-2 5 -4 5.28 0.77
2 -5 4 8.26 0.86
2 -5 4 7.72 0.81
2 -5 4 7.92 0.77
2 -5 4 8.45 0.82
-2 5 -5 160.93 6.34
-2 5 -5 163.9 4.72
-2 5 -5 159.85 6.24
2 -5 5 165.98 4.62
2 -5 5 168.2 4.8
2 5 5 165.33 4.75
2 5 5 164.88 4.64
2 5 5 166.34 4.73
2 5 5 161.38 4.73
-2 5 -5 166.46 4.74
2 -5 5 161 4.78
2 -5 5 155.03 6.37
2 -5 5 175.7 4.82
2 -5 5 173.05 4.78
2 -5 5 168.48 4.76
-2 5 -6 199.4 7.09
-2 5 -6 192.09 5.42
2 -5 6 191.03 5.37
2 -5 6 194.41 5.54
2 5 6 193.15 5.34
2 5 6 191.98 5.49
2 5 6 197.26 5.45
2 5 6 196.61 5.47
-2 5 -6 201.32 5.45
2 -5 6 200.75 5.55
2 -5 6 190.66 7.32
2 -5 6 205.09 5.58
2 -5 6 196.89 5.5
2 -5 6 199.26 5.51
2 -5 6 192.35 5.31
-2 5 -7 84.21 4.29
-2 5 -7 73.3 3.95
-2 5 -7 82.25 2.76
2 -5 7 82.99 2.74
2 -5 7 89.59 2.92
2 5 7 85.6 2.66
2 5 7 90.15 2.9
2 5 7 86.28 2.75
2 5 7 86.34 2.82
-2 5 -7 86.36 2.74
2 -5 7 79.58 4.26
2 -5 7 85.2 2.87
2 -5 7 85.72 2.9
2 -5 7 84.54 2.85
2 -5 7 84.85 2.68
2 -5 7 86.54 2.86
-2 5 -8 6.16 0.73
2 -5 8 5.89 0.82
2 -5 8 6.72 0.74
2 5 8 6.02 0.63
2 5 8 5.47 0.8
2 5 8 6.24 0.7
-2 5 -8 5.79 0.68
2 -5 8 6.42 0.87
2 -5 8 6.23 0.85
2 -5 8 5.76 0.79
2 -5 8 5.72 0.82
2 -5 8 6.08 0.69
-2 5 -9 9.04 0.82
-2 5 -9 8.28 0.67
2 5 9 6.94 0.65
2 5 9 8.79 0.84
2 -5 9 7.68 0.89
2 -5 9 8.44 0.82
2 -5 9 7.26 0.89
2 -5 9 9.43 0.97
2 -5 9 7.57 0.86
2 -5 9 7.97 0.73
2 -5 9 8.4 0.85
-2 5 -10 100.11 3.11
2 5 10 105.2 3.24
2 5 10 103.59 3.19
2 -5 10 107.43 3.27
2 -5 10 100.38 3.17
2 -5 10 102.95 3.26
2 -5 10 101.18 3.28
2 -5 10 102.22 3.24
2 -5 10 104.27 3.17
2 -5 10 106.56 3.28
2 -5 10 101.14 3.23
-2 5 -11 5.44 0.63
2 5 11 4.48 0.68
2 5 11 5.38 0.7
2 -5 11 5.36 0.75
2 -5 11 4.95 0.72
2 -5 11 4.18 0.67
2 -5 11 5.85 0.79
2 -5 11 5.71 0.73
2 -5 11 5.11 0.73
2 -5 11 4.99 0.7
2 -5 11 5.44 0.72
2 -5 12 5.5 0.64
2 -5 12 5.75 0.65
2 -5 12 4.55 0.64
2 -5 12 5.88 0.66
2 5 12 4.38 0.63
2 -5 12 6.04 0.7
2 -5 12 4.63 0.6
2 -5 12 4.8 0.65
2 -5 12 4.57 0.65
-2 5 -12 5.5 0.55
2 -5 13 0.06 0.38
2 -5 13 -0.12 0.4
2 -5 13 -0.03 0.41
2 -5 13 0.55 0.43
2 5 13 -0.12 0.4
2 -5 13 0.99 0.45
2 -5 13 0.34 0.43
2 -5 14 0.28 0.29
2 5 14 0.58 0.28
-2 -6 13 -0.02 0.24
-2 -6 13 0.37 0.27
-2 6 13 -0.08 0.22
2 6 -13 0.08 0.23
-2 6 12 2.52 0.4
-2 -6 12 2.47 0.47
-2 -6 12 1.95 0.46
-2 -6 12 2.22 0.45
-2 -6 12 2.77 0.45
-2 -6 12 2.93 0.45
2 6 -11 11.67 0.68
-2 6 11 13.18 0.72
-2 -6 11 12.65 0.84
-2 -6 11 10.65 0.68
-2 -6 11 13.08 0.84
-2 -6 11 12.7 0.84
-2 -6 11 11.93 0.77
-2 -6 10 48.74 1.75
-2 -6 10 47.76 1.79
-2 -6 10 47.3 1.64
-2 -6 10 48.79 1.84
2 6 -10 48.24 1.68
-2 6 10 49.34 1.68
-2 6 10 46.05 1.64
-2 -6 9 29.85 1.35
-2 6 9 31.76 1.27
-2 6 9 29.86 1.28
-2 -6 9 31.29 1.42
-2 -6 9 28.96 1.25
-2 -6 9 29.89 1.44
-2 6 9 30.2 1.28
2 6 -9 31.36 1.24
2 6 -9 29.37 1.32
2 6 -8 9.63 0.78
-2 6 8 9.48 0.81
2 6 -8 10.39 0.89
-2 6 8 9.13 0.91
-2 6 8 8.32 0.71
-2 6 8 9.14 0.77
-2 -6 8 9.19 0.85
-2 -6 8 10.02 0.86
-2 -6 8 10.45 0.79
-2 -6 8 8.86 0.93
-2 -6 8 10.64 0.98
-2 -6 7 2.38 0.65
-2 6 7 1.77 0.74
-2 6 7 2.47 0.51
-2 6 7 2.12 0.57
2 6 -7 2.33 0.67
-2 6 7 2.43 0.63
2 6 -7 1.94 0.58
-2 -6 7 1.83 0.65
-2 -6 7 1.83 0.73
-2 6 6 6.74 0.79
2 6 -6 6.64 0.75
-2 -6 6 6.92 0.77
-2 -6 6 6.69 0.86
-2 6 5 17.86 1.15
-2 6 5 16.5 1.08
2 6 -5 16.62 1.08
-2 -6 5 15.66 1.02
2 -6 -4 10.22 1.6
2 6 -4 9.84 0.8
-2 6 4 9.56 0.84
2 6 -4 8.15 0.86
2 6 -4 9.27 0.89
2 -6 -3 48.15 3.25
-2 6 3 50.93 2.17
2 6 -3 58.43 2.05
-2 6 3 57.91 2.08
2 6 -3 58.77 2.1
2 -6 -2 169.64 6.45
-2 6 2 159.95 4.72
2 6 -2 157.15 4.53
-2 6 2 160.61 4.64
2 6 -2 153.14 4.5
-2 6 2 159.64 4.55
2 6 -2 155.55 4.55
-2 6 1 418.89 10.75
2 6 -1 407.6 10.54
-2 6 1 407.84 10.67
2 6 -1 414.36 10.62
2 -6 -1 408.13 12.67
2 -6 -1 414.37 10.5
-2 6 1 407.2 10.51
-2 6 1 406.48 10.57
2 6 -1 407 10.45
2 6 -1 397.53 10.49
2 6 0 261.16 7.1
2 6 0 269.56 7.24
2 6 0 269.63 7.25
-2 6 0 275.42 7.37
2 -6 0 281.02 9.33
2 -6 0 266.38 7.07
2 -6 0 276.93 7.19
-2 6 0 267.92 8.58
-2 6 0 265.2 7.26
-2 6 0 269.5 7.19
2 6 0 267.85 7.1
2 6 0 272.57 7.17
2 6 1 10.16 0.97
-2 6 -1 11.23 1.03
2 6 1 11.21 0.92
2 -6 1 10.66 1.74
2 -6 1 10.26 0.83
2 -6 1 10.73 0.86
2 6 1 12.37 0.81
-2 6 -1 9.21 1.41
-2 6 -1 11.13 0.94
-2 6 -1 11 0.9
2 6 1 11.76 0.85
-2 6 -2 45.11 2.9
-2 6 -2 45.36 1.82
2 6 2 47.08 1.61
-2 6 -2 46.24 1.83
2 6 2 44.51 1.7
2 -6 2 48.04 1.74
2 6 2 44.95 1.71
2 6 2 45.63 1.89
2 6 2 45.08 1.78
-2 6 -2 47.55 1.96
2 -6 2 46.81 3.19
2 -6 2 48.02 1.79
2 -6 2 44.72 1.79
2 -6 2 48.47 1.91
-2 6 -3 6.28 0.72
-2 6 -3 5.76 1.31
2 6 3 6.29 0.63
2 -6 3 5.25 0.68
2 6 3 5.78 0.7
2 6 3 5.41 0.7
-2 6 -3 6.12 0.83
2 -6 3 7.24 0.88
2 -6 3 5.19 1.38
2 -6 3 6.11 0.72
2 -6 3 7.21 0.77
2 -6 3 7.15 0.79
-2 6 -4 1.64 0.61
2 -6 4 0.7 0.58
2 6 4 1.52 0.64
2 6 4 2.05 0.59
2 6 4 2.38 0.63
2 6 4 0.89 0.51
-2 6 -4 2.36 0.73
2 -6 4 1.24 0.69
2 -6 4 1.46 0.61
2 -6 4 1.31 0.56
2 -6 4 1.34 0.63
-2 6 -5 7.35 0.77
2 -6 5 8.94 0.85
2 6 5 7.26 0.72
2 6 5 7.51 0.8
2 6 5 8.3 0.81
2 6 5 8.89 0.83
-2 6 -5 8.59 0.85
2 -6 5 7.54 0.89
2 -6 5 7.97 0.84
2 -6 5 9.01 0.9
2 -6 5 6.68 0.77
2 -6 5 7.69 0.86
-2 6 -6 0.54 0.55
2 -6 6 2.53 0.71
2 -6 6 1.32 0.48
2 6 6 1.8 0.6
2 6 6 2.33 0.67
2 6 6 0.91 0.58
-2 6 -6 0.95 0.56
2 -6 6 1.42 0.68
2 -6 6 1.31 0.62
2 -6 6 1.68 0.65
2 -6 6 0.8 0.57
2 -6 6 1.73 0.6
-2 6 -7 15.13 0.94
-2 6 -7 12.84 0.88
2 -6 7 13.09 0.89
2 -6 7 12.81 0.98
2 6 7 14.67 0.97
2 6 7 14.32 0.92
2 6 7 14.02 0.95
-2 6 -7 13.09 0.89
2 -6 7 12.96 0.99
2 -6 7 14.48 1.03
2 -6 7 14.8 1.05
2 -6 7 13.47 0.95
2 -6 7 14.05 1
-2 6 -8 4.63 0.6
-2 6 -8 6.16 0.65
2 -6 8 5.35 0.78
2 -6 8 4.11 0.58
2 6 8 4.34 0.59
2 6 8 4.93 0.67
2 6 8 5.33 0.74
-2 6 -8 4.25 0.58
2 -6 8 3.88 0.69
2 -6 8 4.45 0.72
2 -6 8 4.93 0.75
2 -6 8 5.31 0.7
2 -6 8 5.56 0.7
-2 6 -9 2.49 0.45
2 -6 9 2.26 0.66
2 -6 9 3.46 0.53
2 -6 9 3.44 0.63
2 6 9 3.11 0.6
2 6 9 1.93 0.57
2 -6 9 2.48 0.65
2 -6 9 3.5 0.68
2 -6 9 3.05 0.59
2 -6 9 2.07 0.56
2 -6 9 2.26 0.56
2 -6 10 117.01 3.27
2 -6 10 118.63 3.39
2 -6 10 119.89 3.4
2 6 10 117.1 3.35
2 6 10 117.71 3.31
2 -6 10 116.77 3.41
2 -6 10 117.63 3.43
2 -6 10 116.6 3.34
2 -6 10 117.45 3.36
2 -6 11 20.64 0.87
2 -6 11 20.89 0.95
2 6 11 22.6 0.93
2 -6 11 21.11 0.99
2 -6 11 21.9 0.98
2 -6 11 21.66 0.92
2 -6 11 19.88 0.91
2 6 12 0.23 0.28
2 6 12 0.29 0.32
2 -6 12 0.07 0.31
2 -6 12 0.03 0.33
2 -6 12 0.11 0.32
2 -6 12 0.02 0.28
2 -6 12 -0.1 0.3
-2 -7 10 2.59 0.33
-2 -7 10 3.51 0.42
2 7 -10 2.95 0.42
-2 -7 9 20.53 0.87
-2 -7 9 22.14 0.95
2 7 -9 23.37 0.92
-2 -7 9 22.89 0.97
2 7 -9 22.37 0.99
-2 -7 8 13.4 0.87
-2 -7 8 11 0.75
2 7 -8 13.02 0.75
-2 -7 8 11.29 0.67
-2 -7 8 13.38 0.79
-2 -7 7 6.15 0.73
-2 -7 7 6.59 0.65
-2 -7 7 6.25 0.56
-2 -7 7 6.55 0.67
-2 7 7 5.66 0.6
2 7 -7 5.91 0.58
2 7 -6 3.65 0.68
-2 7 6 3.15 0.67
-2 -7 6 3.17 0.5
-2 -7 6 3.87 0.64
-2 7 6 3.44 0.58
2 7 -6 3.1 0.58
2 7 -6 3.03 0.54
2 7 -5 15.81 1.05
-2 7 5 17.03 1.05
-2 -7 5 14.62 0.81
-2 -7 5 16 0.96
-2 7 5 16.33 0.97
2 7 -5 14.68 0.92
2 7 -5 14.49 0.92
2 7 -4 -0.1 0.4
-2 -7 4 0.28 0.51
2 7 -4 -0.54 0.53
2 7 -4 0.46 0.51
2 7 -4 -0.21 0.57
2 7 -3 4.95 0.62
-2 -7 3 5.55 0.66
-2 7 3 6.13 0.64
2 7 -3 6.92 0.71
2 7 -3 6.93 0.78
2 7 -2 29.87 1.29
2 -7 -2 31.09 1.21
-2 7 2 29.15 1.36
-2 7 2 26.73 1.24
-2 7 2 31.21 1.27
2 7 -2 26.23 1.3
2 7 -2 30.43 1.28
-2 7 2 31.19 1.47
2 7 -2 27.67 1.39
-2 7 1 0.26 0.49
-2 7 1 1.12 0.51
-2 7 1 1.3 0.62
2 7 -1 0.98 0.53
2 7 -1 1.2 0.55
2 -7 -1 0.71 0.45
2 -7 -1 1.51 0.59
-2 7 1 1.4 0.68
2 7 -1 1.76 0.66
-2 7 0 16.31 0.93
-2 7 0 15.55 0.95
2 7 0 15.24 0.93
-2 7 0 15.62 1.09
2 7 0 13.69 0.96
2 7 0 15.56 1
2 -7 0 15.09 0.87
2 -7 0 14.86 0.97
-2 7 -1 0.53 0.56
2 7 1 0.58 0.47
-2 7 -1 0.46 0.47
2 7 1 -0.1 0.53
-2 7 -1 0.91 0.67
2 7 1 1.12 0.63
-2 7 -1 -0.43 0.72
2 -7 1 0.56 0.59
2 -7 1 0.36 0.44
2 -7 1 0.45 0.53
-2 7 -2 1.35 0.57
2 7 2 1.32 0.6
2 -7 2 0.93 0.64
-2 7 -2 0.33 0.61
2 -7 2 0.82 0.58
2 -7 2 0.52 0.46
2 -7 2 1.26 0.57
2 7 3 8.09 0.8
-2 7 -3 7.23 0.79
2 -7 3 7.75 0.8
2 -7 3 7.5 0.8
2 -7 3 5.91 0.61
2 -7 3 7.8 0.73
2 -7 4 -0.28 0.41
2 -7 4 0.54 0.5
-2 7 -4 -0.38 0.53
2 -7 4 0.6 0.59
2 -7 4 -0.69 0.43
2 -7 4 0.36 0.57
2 -7 4 -0.19 0.4
-2 7 -4 -0.04 0.53
-2 7 -5 2.24 0.56
2 -7 5 1.97 0.48
2 7 5 2.56 0.59
-2 7 -5 2.7 0.57
2 -7 5 2.31 0.58
2 -7 5 2.03 0.48
2 -7 5 2.05 0.6
2 -7 5 1.68 0.45
2 -7 5 1.26 0.53
-2 7 -6 23.14 1.06
2 -7 6 23.53 1.04
2 7 6 23.89 1.09
-2 7 -6 21.6 1.03
2 -7 6 23.12 1.12
2 -7 6 22.47 1.02
2 -7 6 22.46 1.18
2 -7 6 24.81 1.18
2 -7 6 22.85 0.98
2 -7 6 24.86 1.08
2 -7 7 -0.47 0.43
2 -7 7 -0.03 0.41
-2 7 -7 0.31 0.39
2 -7 7 -0.23 0.38
-2 7 -7 -0.15 0.37
2 -7 7 0.04 0.5
2 -7 7 0.28 0.35
2 -7 7 0.12 0.48
2 -7 7 0.54 0.47
2 -7 8 1.51 0.45
2 -7 8 0.95 0.42
2 -7 8 0.87 0.36
2 -7 8 0.82 0.36
2 -7 8 1.08 0.48
2 -7 8 1.47 0.44
2 -7 8 0.88 0.43
-2 7 -8 1.42 0.33
2 -7 9 2.29 0.38
2 -7 9 1.91 0.42
2 -7 9 2.23 0.38
2 -7 10 0.32 0.24
2 8 -6 3.47 0.38
-2 -8 5 10.31 0.61
2 8 -5 9.87 0.59
-2 8 4 0.91 0.42
2 8 -4 0.11 0.37
-2 -8 4 0.96 0.4
2 -8 -3 10.28 0.65
-2 8 3 10.29 0.69
2 -8 -3 8.66 0.53
2 8 -3 10.23 0.65
2 -8 -2 4.29 0.51
-2 8 2 2.98 0.51
2 -8 -2 3.38 0.41
2 -8 -2 3.14 0.37
2 -8 -1 0.89 0.45
2 8 -1 1.18 0.35
2 -8 -1 0.81 0.35
2 -8 -1 0.32 0.31
2 -8 0 0.53 0.42
2 8 0 1.36 0.41
2 -8 0 0.41 0.36
2 -8 0 0.57 0.32
-2 8 -1 3.51 0.44
2 8 1 3.99 0.49
2 -8 1 2.56 0.47
2 -8 1 2.37 0.43
2 -8 1 3.43 0.45
2 -8 1 3.05 0.38
-2 8 -2 0.11 0.34
2 8 2 0.58 0.4
-2 8 -2 -0.19 0.41
2 -8 2 0.34 0.4
2 -8 2 0.03 0.34
2 -8 2 0.34 0.36
2 -8 2 -0.02 0.27
-2 8 -3 8.74 0.58
2 -8 3 8.77 0.6
2 -8 3 7.57 0.57
2 -8 3 8.63 0.58
-2 8 -3 10.08 0.68
-2 8 -4 0.79 0.41
2 -8 4 0.77 0.35
2 -8 4 0.61 0.34
2 -8 4 0.17 0.32
-2 8 -4 0.38 0.33
-2 8 -4 0.91 0.34
-2 8 -5 0.32 0.36
-2 8 -5 0.1 0.27
-2 8 -6 1.78 0.31
-3 0 18 -0.2 0.21
3 0 -17 82.57 2.44
-3 0 17 86.12 2.45
-3 0 17 87.88 2.44
3 0 -16 0.24 0.48
-3 0 16 0.89 0.49
-3 0 16 -0.08 0.47
-3 0 16 0.11 0.46
3 0 -15 12.31 0.9
-3 0 15 11.7 0.92
-3 0 15 13.08 0.99
-3 0 15 11.6 0.95
-3 0 15 12.75 0.88
-3 0 14 0.52 0.6
-3 0 14 0.12 0.41
3 0 -14 -0.06 0.63
-3 0 14 0.07 0.67
-3 0 14 0.39 0.66
-3 0 14 0.56 0.76
-3 0 14 -0.06 0.63
-3 0 13 50.53 1.98
-3 0 13 51.39 1.89
3 0 -13 51.29 3.05
-3 0 13 44.77 3.05
3 0 -13 46.12 3.22
3 0 -13 56.65 2.11
-3 0 13 55.46 2.2
-3 0 13 56.08 2.24
-3 0 13 54.58 2.18
-3 0 13 55.13 2.19
-3 0 12 0.29 0.49
-3 0 12 0.54 0.73
-3 0 12 0.79 0.52
-3 0 12 -0.22 1.03
-3 0 12 -0.41 0.54
3 0 -12 -0.19 0.87
3 0 -12 0.35 0.65
-3 0 12 -0.42 0.97
3 0 -12 -0.45 1.19
-3 0 12 0.14 0.71
-3 0 12 0.07 0.69
-3 0 12 0.44 0.74
-3 0 12 -0.22 0.58
-3 0 11 33.75 1.46
-3 0 11 30.48 1.33
-3 0 11 33.87 2.56
3 0 -11 31.41 2.32
3 0 -11 32.51 2.62
3 0 -11 32.29 1.51
-3 0 11 31.53 1.59
-3 0 11 33.87 1.61
-3 0 11 29.16 1.58
-3 0 11 35.72 1.62
-3 0 11 32.06 1.41
-3 0 10 -0.2 0.54
-3 0 10 0.19 0.9
-3 0 10 0.44 0.43
3 0 -10 0.32 0.88
3 0 -10 -0.05 0.53
3 0 -10 0.58 1.08
-3 0 10 0.19 0.59
-3 0 10 0.05 0.51
-3 0 9 0.3 0.46
-3 0 9 0.05 0.45
-3 0 9 -1 0.98
3 0 -9 0.64 0.53
3 0 -9 0.35 1.05
3 0 -9 0.79 0.57
-3 0 9 -0.06 0.55
3 0 -9 -0.14 0.84
3 0 -8 0.5 0.84
-3 0 8 -0.13 0.47
-3 0 8 -0.1 0.52
3 0 -8 0.12 0.45
3 0 -8 -0.46 0.96
-3 0 8 0.31 0.55
-3 0 8 0.24 0.5
-3 0 8 0.05 0.5
-3 0 8 0.14 0.87
3 0 -7 18.59 1.43
-3 0 7 17.86 0.98
-3 0 7 17.58 0.94
3 0 -7 19.55 0.93
3 0 -7 17.87 1.65
-3 0 7 19.09 1.02
-3 0 7 18.26 0.96
-3 0 7 17.23 0.99
-3 0 7 19.62 1.56
-3 0 6 -0.22 0.86
3 0 -6 2.06 0.76
3 0 -6 0.12 0.93
-3 0 5 1641.03 40.04
3 0 -5 1641.6 39.78
3 0 -5 1584.46 40.11
-3 0 4 0.52 0.79
3 0 -4 0.83 0.61
3 0 -4 0.09 0.79
-3 0 3 1519.93 36.83
3 0 -3 1470.89 36.55
3 0 -3 1523.87 36.92
-3 0 2 0.44 0.76
3 0 -2 -0.11 0.5
3 0 -2 1.17 0.71
3 0 -1 605.74 15
3 0 -1 572.12 14.67
-3 0 1 591.77 14.91
-3 0 1 577.69 14.46
3 0 0 -0.15 0.69
3 0 0 0.4 0.56
-3 0 0 -0.42 0.72
-3 0 0 0.5 0.53
3 0 1 559.91 14.33
3 0 1 576.05 14.16
-3 0 -1 555.52 14.29
-3 0 -1 539.32 13.99
3 0 2 -0.07 0.57
3 0 2 0.57 0.75
-3 0 -2 0.13 0.57
3 0 3 16.61 0.7
3 0 3 17.88 1.38
-3 0 -3 19.25 1.3
3 0 3 17.29 1.44
3 0 4 0.82 0.85
-3 0 -4 0.63 0.74
3 0 4 -0.23 0.91
3 0 5 163.56 5.38
-3 0 -5 162.52 5.26
-3 0 -5 158.89 4.71
3 0 5 161.08 5.51
3 0 6 0.13 0.82
-3 0 -6 -0.5 0.87
-3 0 -6 0.2 0.48
3 0 6 -0.3 0.41
3 0 6 -0.44 0.96
3 0 7 36.55 2.38
3 0 7 35.95 1.34
3 0 7 35.56 1.38
3 0 7 33.51 1.35
3 0 7 29.85 2.2
3 0 7 36.6 1.32
-3 0 -7 35.93 2.22
3 0 7 31.28 1.37
3 0 8 0.72 0.48
3 0 8 0.56 0.99
3 0 8 0.2 0.5
3 0 8 -0.38 0.5
3 0 8 -0.13 0.45
3 0 8 0.33 0.46
3 0 8 0.7 0.99
3 0 8 0.22 0.45
-3 0 -8 0.33 0.97
3 0 8 0.24 0.5
3 0 9 1124.55 27.63
3 0 9 1129.59 29.86
3 0 9 1132.08 27.76
3 0 9 1112.87 27.72
3 0 9 1135.33 27.69
3 0 9 1158.26 27.73
3 0 9 1119.18 27.65
-3 0 -9 1204.81 29.71
3 0 10 0.16 0.58
3 0 10 0.12 0.57
3 0 10 -0.23 1.05
3 0 10 -0.19 0.6
3 0 10 -0.42 0.63
3 0 10 0.28 0.58
3 0 10 -0.28 0.61
-3 0 -10 0.2 1.07
3 0 11 598.07 14.92
3 0 11 595.54 15.04
3 0 11 581.46 15.1
3 0 11 588.29 17.37
3 0 11 600.8 15.1
-3 0 -11 590.75 17.09
3 0 11 595.83 15.01
-3 0 -11 618.56 17.2
-3 0 -12 0.22 1.13
3 0 12 0.25 1.14
3 0 12 0.79 0.68
3 0 12 0.13 0.61
3 0 12 -0.33 0.69
-3 0 -12 -0.44 1
3 0 12 0.36 0.61
3 0 12 0.05 0.55
3 0 13 32.12 1.55
3 0 13 32.79 1.35
3 0 13 35.72 1.6
3 0 13 28.58 1.43
3 0 13 30.77 1.52
3 0 14 -0.04 0.47
3 0 14 -0.06 0.63
3 0 14 -0.42 0.56
3 0 14 0.28 0.62
3 0 15 6.34 0.58
3 0 15 6.91 0.73
3 0 15 7.09 0.68
3 0 15 5.95 0.69
3 0 16 0.09 0.37
-3 0 -17 61.65 1.68
3 1 -17 27.82 1.01
3 -1 -17 25.15 0.99
-3 1 17 27.58 1.02
-3 -1 17 26.4 1
-3 -1 17 27.2 0.99
-3 1 17 26.68 1
-3 -1 16 0.42 0.44
-3 1 16 0.35 0.44
3 1 -16 0.07 0.46
3 -1 -16 0.48 0.49
-3 1 16 0.44 0.45
-3 -1 16 -0.11 0.44
-3 1 16 -0.31 0.32
-3 -1 16 0.13 0.52
-3 -1 16 -0.04 0.48
-3 -1 16 -0.14 0.54
-3 -1 16 0.56 0.47
-3 1 15 9.11 0.76
-3 -1 15 9.73 0.77
3 1 -15 10.24 0.81
3 -1 -15 10.07 0.81
-3 1 15 10.08 0.79
-3 1 15 9.41 0.69
-3 1 15 9.45 0.82
-3 -1 15 10.1 0.96
-3 -1 15 11.08 0.91
-3 1 15 9.2 0.83
-3 -1 15 8.61 0.89
-3 -1 15 8.37 0.83
-3 1 15 9.5 0.84
-3 -1 14 52.02 1.91
-3 1 14 50.83 1.91
-3 1 14 49.24 1.88
-3 1 14 49.69 1.84
-3 1 14 54.43 1.95
3 1 -14 50.51 1.97
3 -1 -14 52.68 1.97
-3 1 14 51.28 2.01
-3 -1 14 50.85 2.1
-3 -1 14 52.38 2.11
-3 -1 14 53.77 2.1
-3 1 14 49.89 2
-3 -1 14 54.38 2.08
-3 1 14 49.34 2.01
-3 -1 13 5.7 0.79
-3 1 13 5.83 0.73
-3 1 13 4.88 0.71
-3 1 13 5.86 0.76
3 1 -13 6.38 0.83
3 -1 -13 5.82 0.8
-3 1 13 5.25 0.84
-3 -1 13 7.29 0.95
-3 -1 13 4.72 0.88
-3 -1 13 5.96 0.92
-3 1 13 5.97 0.83
-3 -1 13 6.99 0.9
-3 1 13 7.96 0.89
-3 -1 12 1105.57 27.31
-3 1 12 1147.98 27.34
-3 1 12 1109.16 27.34
-3 1 12 1105.71 29.54
-3 -1 12 1126.11 29.55
3 -1 -12 1096.68 29.48
-3 -1 12 1084.59 29.62
-3 1 12 1110.85 29.24
3 1 -12 1138.18 29.74
3 -1 -12 1113.89 29.66
3 1 -12 1156.89 27.42
3 -1 -12 1143.57 27.4
-3 1 12 1107.56 27.55
-3 -1 12 1119.74 27.6
-3 1 12 1093.26 27.63
-3 1 12 1118.98 27.56
-3 -1 12 1112.86 27.27
-3 1 12 1117.76 27.53
-3 1 12 1085.59 27.22
-3 -1 12 1112.9 27.55
-3 -1 11 100.25 3.16
-3 1 11 102.4 3.17
-3 1 11 105.17 3.21
-3 1 11 100.73 4.63
-3 -1 11 105.15 4.64
3 -1 -11 114.52 4.8
3 1 -11 101.81 4.73
3 -1 -11 110.38 4.86
3 1 -11 101.33 3.23
3 -1 -11 102.26 3.24
-3 -1 11 100.58 3.4
-3 1 11 102.17 3.38
-3 -1 11 103.86 3.38
-3 1 11 107.47 3.44
-3 1 11 101.39 3.37
-3 -1 11 104.2 3.19
-3 1 11 104.53 3.17
-3 1 11 107.02 3.38
-3 -1 10 990.32 24.52
-3 1 10 1016.08 24.54
-3 1 10 994.04 24.55
-3 1 10 1017.87 26.51
-3 -1 10 1011.57 26.52
3 1 -10 972.81 25.71
3 -1 -10 1005.66 26.43
3 1 -10 1012.18 26.63
3 -1 -10 1009.32 26.57
-3 -1 10 980.53 24.76
3 1 -10 1021.41 24.59
3 -1 -10 1028.81 24.59
-3 -1 10 998.1 24.78
-3 1 10 982.28 24.75
-3 1 10 998.43 24.78
-3 -1 10 1004.62 24.76
-3 1 10 1004.5 24.75
-3 -1 10 1003.34 24.74
-3 -1 10 1002.07 24.59
-3 1 10 1004.5 24.57
-3 -1 9 114.92 3.35
-3 1 9 113.87 3.33
-3 -1 9 114.48 3.45
-3 1 9 109.91 3.28
-3 -1 9 106.26 4.5
-3 1 9 119.86 4.69
3 1 -9 109.53 4.64
3 -1 -9 111.38 4.65
-3 -1 9 106.42 3.44
3 1 -9 111.5 3.31
3 -1 -9 111.2 3.31
-3 1 9 112.46 3.26
-3 -1 9 110.57 3.25
-3 -1 9 111.59 3.49
-3 -1 9 109.27 3.39
-3 1 9 112.34 3.46
-3 1 9 107.97 3.45
-3 -1 9 111 3.44
3 1 -9 112.59 4.1
3 -1 -9 117.85 4.68
-3 -1 8 143.31 4.21
3 1 -8 150.46 5.43
3 -1 -8 152.56 5.43
3 1 -8 143.03 4.04
3 -1 -8 141.74 4.04
-3 1 8 149.36 4.11
-3 -1 8 148.56 4.13
-3 -1 8 148.8 4.2
-3 1 8 140.67 4.18
-3 -1 8 139.21 4.2
-3 -1 8 146.69 4.15
-3 1 8 144.34 4.2
-3 -1 8 147.33 4.2
-3 1 8 147.07 4.22
3 1 -8 150.39 4.81
3 -1 -8 152.92 5.35
-3 -1 7 101.03 4.29
3 1 -7 107.95 3.56
3 -1 -7 114.62 4.13
-3 1 7 105.22 3.03
-3 -1 7 103.46 3.07
-3 1 7 96.04 3.04
3 1 -7 104.24 4.1
3 -1 -7 100.32 4.08
-3 -1 7 97.09 3.05
3 1 -7 102.67 2.96
3 -1 -7 97.14 2.94
-3 -1 7 101.77 3.09
-3 -1 7 103.2 3.01
-3 1 7 103.47 3.09
-3 -1 7 102.31 3.08
-3 1 7 105.24 3.09
-3 -1 7 109.1 4.04
-3 1 7 102.86 3.99
-3 -1 6 104.14 3.95
-3 1 6 110.45 4.02
-3 -1 6 112.39 4.32
3 1 -6 109.03 3.53
3 -1 -6 110.3 4.04
3 1 -6 110.18 4.15
3 -1 -6 112.93 4.14
-3 1 5 81.78 3.1
-3 -1 5 80.75 3.09
-3 -1 5 84.39 3.34
3 -1 -5 71.43 3.05
3 1 -5 73.74 2.56
3 1 -5 80.28 3.18
3 -1 -5 75.2 3.1
-3 1 4 4.94 0.91
-3 -1 4 3.68 0.9
3 -1 -4 3.62 0.86
-3 -1 4 3.68 0.97
3 1 -4 3.61 0.54
3 1 -4 2.91 0.93
3 -1 -4 4.83 0.94
-3 -1 3 37.55 1.87
-3 1 3 37.2 1.86
-3 -1 3 37.34 1.93
3 -1 -3 39.8 1.91
3 1 -3 36.23 1.36
3 1 -3 34.94 1.88
3 -1 -3 40.31 1.92
-3 1 2 93.61 3.18
-3 -1 2 96.71 3.18
3 -1 -2 86.32 3.13
3 1 -2 87.66 2.58
3 1 -2 84.93 3.15
3 -1 -2 91.33 3.17
-3 1 1 176.64 5.2
-3 -1 1 174.81 5.24
-3 1 1 184.38 5.29
3 1 -1 186.48 5.34
3 -1 -1 182.37 5.35
3 -1 -1 178.34 5.33
3 1 -1 179.71 4.76
-3 -1 0 388.35 9.97
-3 1 0 411.71 10.58
-3 1 0 399.99 10.62
-3 -1 0 420.6 10.64
3 -1 0 405.54 10.66
3 1 0 425.26 10.71
3 -1 0 404.15 10.71
3 1 0 400.12 10.12
-3 -1 -1 53.26 1.83
-3 1 -1 52.77 2.19
-3 -1 -1 50.67 2.2
-3 1 -1 51.66 2.18
3 1 1 58.05 2.27
3 -1 1 56.68 2.26
3 -1 1 52.88 2.24
-3 1 -2 1784.38 43.12
-3 -1 -2 1747.25 42.75
3 1 2 1831.63 43.19
3 -1 2 1771.42 43.14
3 -1 2 1699.04 43.15
3 1 3 235.61 6.77
3 -1 3 228.98 6.73
3 -1 3 220.16 6.3
3 -1 3 236.17 6.78
-3 -1 -3 243.25 6.52
-3 1 -3 238.08 6.76
3 1 3 221.78 6.84
3 -1 3 218.02 6.83
3 -1 4 349.72 9.17
3 -1 4 343.12 9.69
3 1 4 356.09 9.73
-3 -1 -4 350.58 9.51
-3 1 -4 351.36 9.7
-3 1 -4 338.85 9.5
3 1 4 347.36 9.85
3 -1 4 340.2 9.81
3 -1 5 120.44 3.79
3 -1 5 125.6 4.45
3 1 5 124.4 4.44
3 -1 5 123.04 4.51
3 1 5 114.05 4.46
-3 1 -5 127.36 4.43
-3 -1 -5 125.99 4.3
-3 1 -5 118.79 4.08
3 -1 6 0.81 0.44
3 -1 6 0.64 0.4
3 1 6 -0.29 0.95
3 -1 6 0.59 0.93
3 -1 6 1.36 0.83
3 1 6 1.22 0.84
3 -1 6 1.52 0.49
3 -1 6 1.05 0.97
3 -1 6 0.86 0.41
3 1 6 0.68 0.41
-3 1 -6 1.09 0.62
3 -1 6 1.07 0.47
-3 -1 -6 1.49 0.88
-3 1 -6 1.73 0.94
3 -1 7 69.88 2.27
3 -1 7 70.8 2.23
3 1 7 69.22 2.19
3 1 7 70.82 2.18
3 1 7 64.97 3.43
3 -1 7 69.38 3.4
3 -1 7 68.81 3.3
3 1 7 69.47 3.3
3 -1 7 70.47 2.25
3 1 7 69.19 2.2
3 -1 7 69.05 3.44
3 -1 7 70.17 2.17
3 -1 7 69.19 2.23
3 1 7 70.33 2.25
-3 1 -7 70.35 3.37
-3 -1 -7 66.35 3.22
3 -1 7 70.29 2.26
-3 1 -7 66.13 2.81
-3 1 -8 77.85 3.15
3 1 8 78.96 2.58
-3 1 -8 78.35 3.75
3 -1 8 81.9 2.59
-3 -1 -8 77.94 3.67
3 -1 8 81.1 2.58
3 -1 8 77.59 2.5
3 1 8 79.12 2.48
3 1 8 82.63 2.45
3 -1 8 82.53 3.92
3 1 8 85.72 4.01
3 1 8 82.47 2.63
3 -1 8 76.82 2.59
3 1 8 82.83 3.83
3 -1 8 83.16 2.59
3 1 8 79.62 2.57
3 -1 8 83.89 3.84
3 -1 8 83.55 2.49
3 -1 8 80.53 3.92
3 -1 8 81.24 2.56
3 1 8 79.84 2.51
3 1 8 78.55 2.54
3 -1 8 81.43 2.59
3 -1 8 79.04 2.6
-3 1 -9 99.77 4.4
-3 -1 -9 99.33 4.37
3 -1 9 91.08 2.86
3 -1 9 98.58 2.99
3 1 9 95.16 2.88
3 1 9 93.77 2.83
3 -1 9 96.96 4.48
3 1 9 97.47 4.53
3 1 9 93.82 3.02
3 -1 9 94.49 3.01
3 -1 9 96.4 3.01
3 1 9 94.12 2.98
3 -1 9 97.94 2.88
3 -1 9 98.37 4.55
3 1 9 94.07 2.88
3 -1 9 90.29 2.81
3 -1 9 94.14 2.98
3 1 9 90.93 2.92
3 -1 9 97.03 3
3 -1 9 90.91 3.02
-3 1 -10 191.75 7.37
-3 -1 -10 220.6 7.59
3 -1 10 209.54 5.78
3 -1 10 204.89 5.64
3 1 10 213.2 5.67
3 1 10 208.97 5.63
3 -1 10 208.55 7.71
3 1 10 205.02 5.84
3 -1 10 209.67 5.89
3 1 10 222.83 7.81
3 -1 10 216.02 5.88
3 1 10 217.65 5.86
-3 1 -10 224.34 7.59
3 -1 10 202.47 7.54
3 -1 10 205.14 5.66
-3 -1 -10 222.37 7.59
3 1 10 197.93 5.67
3 -1 10 208.99 5.64
3 -1 10 218.08 5.87
3 -1 10 220.02 5.88
3 1 10 204.18 5.76
-3 -1 -11 6.56 1.72
3 1 11 9.04 0.76
3 -1 11 9.9 0.95
3 -1 11 8.21 0.73
3 1 11 9.9 0.78
3 1 11 9.05 0.82
3 1 11 8.09 1.72
3 -1 11 10.97 1.92
3 1 11 8.67 0.91
3 -1 11 7.27 0.94
3 -1 11 10.9 0.99
3 1 11 7.53 0.89
3 1 11 8.39 0.93
3 -1 11 7.69 0.76
-3 -1 -11 7.73 1.59
-3 1 -11 7.43 1.61
3 -1 11 8.45 0.91
3 -1 11 9.7 0.98
-3 -1 -12 83.03 4.32
3 -1 12 92.02 2.89
3 1 12 81.9 2.66
3 1 12 88.4 2.83
3 1 12 92.78 2.75
3 1 12 78.9 4.37
3 -1 12 79.61 4.45
3 1 12 90.57 3
3 -1 12 91.35 3.01
3 -1 12 92.52 3.01
3 1 12 85.77 2.94
-3 -1 -12 78.14 4.19
-3 1 -12 90.42 4.35
3 -1 12 89.5 2.99
3 1 12 81.84 2.87
3 -1 12 90.08 2.97
3 1 13 19.24 1.04
3 1 13 18.32 0.96
3 1 13 19.88 1.15
3 -1 13 17.76 1.16
3 1 13 19.98 1.2
3 -1 13 18.82 1.06
3 -1 13 20.88 1.24
3 1 13 19.35 1.17
3 -1 13 18.58 1.2
3 -1 13 17.44 1.15
3 1 14 32.13 1.31
3 1 14 34.12 1.25
3 1 14 34.82 1.42
3 1 14 33.36 1.5
3 -1 14 31.99 1.46
3 -1 14 32.8 1.34
3 -1 14 34.33 1.52
3 1 14 33.02 1.46
3 -1 14 31.24 1.46
3 -1 14 32.22 1.49
3 -1 15 18.59 1.04
3 -1 15 19.53 0.93
3 1 15 21.58 0.98
3 1 15 18.67 1
3 -1 15 18.85 1.03
3 -1 15 18.72 1.02
3 -1 16 60.66 1.93
-3 1 -16 64.89 1.91
-3 1 -17 8.05 0.39
3 -1 17 5.78 0.36
-3 2 17 15.56 0.64
-3 -2 17 14.89 0.63
-3 -2 17 14.34 0.71
-3 -2 17 14.99 0.61
-3 2 16 54.23 1.7
-3 2 16 53.88 1.65
3 -2 -16 54.39 1.66
-3 -2 16 51.06 1.83
-3 -2 16 52.69 1.83
-3 -2 16 54.66 1.81
-3 -2 16 49.5 1.63
-3 2 15 1.59 0.47
-3 -2 15 1.46 0.48
-3 2 15 0.9 0.51
-3 2 15 1.89 0.48
-3 2 15 2.04 0.51
3 2 -15 1.81 0.52
3 -2 -15 1.84 0.51
-3 -2 15 1.3 0.62
-3 -2 15 1.82 0.61
-3 -2 15 1.8 0.62
-3 2 15 2.35 0.56
-3 -2 15 2.45 0.61
-3 -2 14 3.78 0.6
-3 2 14 2.7 0.54
-3 2 14 4.11 0.69
3 2 -14 2.74 0.62
3 -2 -14 3.8 0.63
-3 2 14 3.44 0.6
-3 2 14 3.85 0.61
-3 2 14 3.21 0.67
-3 -2 14 4.72 0.79
-3 -2 14 3.68 0.73
-3 2 14 2.8 0.67
-3 2 14 3.06 0.7
-3 -2 14 2.87 0.71
-3 -2 13 29.36 1.34
-3 -2 13 30.34 1.26
-3 2 13 28.7 1.3
-3 2 13 31.29 1.43
-3 2 13 32.11 1.38
-3 2 13 27.96 1.39
3 2 -13 30.3 1.4
3 -2 -13 26.76 1.33
-3 -2 13 27.94 1.54
-3 2 13 29.42 1.46
-3 -2 13 30.51 1.54
-3 2 13 28.85 1.48
-3 -2 13 28.12 1.53
-3 2 13 27.57 1.46
-3 2 12 172.55 4.75
-3 -2 12 164.3 4.67
-3 -2 12 167.77 4.74
-3 2 12 168.45 4.79
-3 2 12 168.68 4.87
-3 2 12 166.8 4.84
-3 2 12 169.79 6.39
-3 -2 12 161.8 6.3
3 -2 -12 160.68 6.55
-3 -2 12 171.84 6.66
3 2 -12 160.18 6.41
3 -2 -12 153.63 6.31
-3 -2 12 171.4 5.05
3 2 -12 178.62 4.83
3 -2 -12 170.93 4.78
-3 -2 12 172.13 5.07
-3 -2 12 171.27 5
-3 2 12 172.89 4.96
-3 2 12 174.55 5
-3 2 12 166.37 4.98
-3 2 12 165.53 4.66
-3 -2 12 171.18 5.03
-3 -2 12 169.03 4.76
-3 -2 11 39.73 1.57
-3 2 11 40.8 1.6
-3 2 11 38.11 1.59
-3 2 11 43.84 1.73
-3 -2 11 36.13 2.61
-3 2 11 35.86 2.6
3 -2 -11 46.28 2.99
-3 -2 11 39.85 2.86
3 2 -11 36.77 2.7
3 -2 -11 41.84 2.81
-3 -2 11 37.27 1.81
3 2 -11 36.93 1.63
3 -2 -11 37.93 1.61
-3 -2 11 36.48 1.79
-3 2 11 43.13 1.86
-3 -2 11 40.75 1.8
-3 -2 11 39.77 1.83
-3 2 11 42.09 1.83
-3 -2 11 38.08 1.65
-3 2 11 38.78 1.59
-3 2 11 38.29 1.8
-3 2 10 134.6 3.87
-3 -2 10 129.19 3.89
-3 2 10 126.37 4.01
-3 2 10 130.01 5.2
-3 -2 10 126.29 5.22
-3 2 10 131.96 3.91
-3 -2 10 127.7 5.74
3 -2 -10 133.86 5.49
-3 -2 10 136.36 5.56
3 2 -10 129.96 5.29
3 -2 -10 128.19 5.27
-3 -2 10 131.99 4.04
3 2 -10 131.65 3.82
3 -2 -10 126.7 3.8
-3 -2 10 126.83 4.05
-3 2 10 136.58 4.05
-3 -2 10 128.39 3.95
-3 -2 10 134.37 4.09
-3 2 10 129.29 4.01
-3 2 10 135.97 3.79
-3 -2 10 130.17 3.76
-3 -2 9 21.77 1.26
-3 2 9 21.15 1.14
-3 2 9 24.19 1.97
-3 -2 9 17.94 1.82
-3 -2 9 23.77 2.31
3 -2 -9 25.11 2.11
3 2 -9 23.32 2.02
3 -2 -9 21.79 1.93
-3 -2 9 21.68 1.25
3 2 -9 23.22 1.12
3 -2 -9 21.58 1.09
-3 2 9 24.3 1.29
-3 -2 9 23.8 1.21
-3 -2 9 21.26 1.26
-3 -2 9 22.05 1.26
-3 2 9 21.14 1.25
-3 2 9 23.27 1.07
-3 -2 9 18.94 1.05
-3 -2 8 0.74 0.42
-3 2 8 0.54 0.38
-3 -2 8 0.61 0.58
-3 2 8 0.44 0.53
-3 2 8 0.33 0.55
-3 2 8 0.3 0.83
-3 -2 8 -0.6 0.88
3 2 -8 -0.08 0.43
3 -2 -8 -0.08 0.44
3 2 -8 1.08 0.85
3 -2 -8 -0.46 0.91
-3 -2 8 0.05 0.57
3 2 -8 0.24 0.39
-3 -2 8 0.17 0.53
-3 2 8 0.56 0.63
-3 -2 8 -0.29 0.49
-3 -2 8 1.21 0.58
3 -2 -8 0.35 0.96
-3 -2 8 0.2 1.11
-3 2 7 19.69 1.6
-3 -2 7 16.2 1.46
-3 -2 7 16.2 1.77
3 -2 -7 15.67 1.62
-3 -2 7 14.97 0.96
-3 2 7 16.09 0.99
-3 2 7 15.45 0.91
3 2 -7 15.46 1.52
3 -2 -7 14.99 1.48
-3 -2 7 14.51 0.95
3 2 -7 14.81 0.83
3 -2 -7 15.43 0.83
-3 -2 7 17.26 1.02
-3 2 7 14.15 0.98
-3 -2 7 15.41 0.89
-3 -2 7 16.73 0.97
3 2 -7 15.56 0.79
-3 -2 6 264.8 7.78
-3 2 6 276.16 7.82
-3 -2 6 264.39 8.27
3 -2 -6 268.91 8.13
-3 2 6 270.05 6.87
-3 2 6 268.09 6.9
-3 -2 6 260.91 6.88
3 2 -6 258.56 7.85
3 -2 -6 277.99 7.95
-3 -2 6 257.79 6.85
3 2 -6 253.28 6.69
-3 2 6 255.17 6.92
-3 -2 6 260.99 6.87
-3 -2 6 262.16 6.89
-3 2 6 260.82 6.91
3 2 -6 266.94 6.71
-3 -2 5 138.55 4.92
-3 2 5 137.68 3.86
3 2 -5 138.95 4.68
3 -2 -5 140.44 4.68
-3 2 5 134.58 3.89
-3 2 5 139.74 4.61
-3 -2 5 150.05 4.69
-3 -2 4 604.74 15.58
-3 2 4 607.15 15.59
3 2 -4 590 15.63
3 -2 -4 584.94 15.6
-3 -2 4 618.39 15.92
-3 -2 3 778.65 19.82
-3 2 3 778.41 19.83
3 2 -3 799.11 19.93
3 -2 -3 771.23 19.87
-3 -2 3 796.87 20.05
-3 2 2 0.46 0.67
-3 -2 2 1.3 0.67
3 2 -2 1.68 0.71
3 -2 -2 0.72 0.61
-3 -2 2 0.95 0.66
-3 -2 1 0.07 0.6
-3 2 1 0.09 0.82
3 2 -1 -0.38 0.66
3 -2 -1 0.38 0.62
-3 -2 1 -0.12 0.49
-3 -2 0 584.85 14.4
-3 2 0 575.83 14.38
-3 2 0 567.91 14.69
3 2 0 554.17 14.39
3 -2 0 569.77 14.42
-3 -2 0 532.09 13.89
-3 -2 -1 2.91 0.74
-3 2 -1 2.88 0.7
-3 -2 -1 1.28 0.35
-3 2 -1 2.54 0.99
3 2 1 2.35 0.73
3 -2 1 2.13 0.69
3 -2 1 2.11 0.82
-3 -2 -2 357.76 9.49
-3 2 -2 352.96 9.45
3 2 2 347.41 9.49
3 -2 2 345.93 9.5
3 -2 2 334.72 9.77
-3 2 -2 362.58 9.8
-3 -2 -2 344.22 9.09
3 -2 3 -0.56 0.78
3 -2 3 1.34 0.74
3 -2 3 0.67 0.68
3 2 3 2.84 0.76
-3 -2 -3 0.6 0.51
-3 2 -3 1.46 0.88
-3 2 -3 1.57 0.95
3 -2 4 76.64 2.99
3 -2 4 79.35 3.12
3 2 4 72.39 3.02
3 -2 4 73.65 3.19
3 -2 4 72.74 2.24
-3 2 -4 75.08 3.25
-3 -2 -4 75.34 2.89
-3 2 -4 71.71 3.12
3 -2 5 11.42 0.74
3 -2 5 11.76 0.73
3 -2 5 11.86 1.34
3 2 5 11.02 1.34
3 -2 5 12.26 1.28
3 2 5 10.26 1.25
3 -2 5 10.34 0.73
3 -2 5 8.64 1.04
3 -2 5 11.96 0.74
3 -2 5 10.59 0.71
-3 2 -5 10.18 1.3
-3 -2 -5 13.34 1.25
-3 2 -5 11.71 1.42
3 -2 6 125.39 3.61
3 -2 6 123.31 3.6
3 -2 6 132.26 4.88
3 2 6 115.9 4.66
3 -2 6 119.9 4.35
3 -2 6 127.76 3.6
3 -2 6 130.49 4.77
3 2 6 122.21 4.61
3 -2 6 129.33 3.6
3 -2 6 132.68 3.63
3 -2 6 123.51 3.56
3 -2 6 124.74 3.57
3 2 6 125.35 3.54
-3 2 -6 129.17 4.86
-3 -2 -6 133.54 4.68
-3 2 -6 136.49 4.72
3 -2 7 74.31 2.36
3 2 7 75.67 2.38
-3 -2 -7 81 3.52
-3 2 -7 75.18 3.33
3 -2 7 74.24 2.42
3 -2 7 71.69 2.41
3 2 7 77.5 2.4
3 2 7 74.21 2.36
3 2 7 72.93 2.36
3 2 7 78.54 3.64
3 -2 7 70.65 3.48
3 2 7 73.92 2.39
3 2 7 73.92 2.39
3 -2 7 74.99 2.39
3 -2 7 76.45 3.49
3 2 7 70.14 3.36
3 -2 7 76.77 2.43
3 -2 7 72.8 3.12
3 2 7 71.25 2.35
3 -2 7 75.02 2.41
3 -2 7 77.43 2.36
3 -2 7 76.39 2.46
3 -2 7 78.1 2.45
3 -2 7 74.06 2.44
-3 2 -8 143.4 5.09
-3 -2 -8 137.21 5.31
3 -2 8 140.17 4.06
3 -2 8 131.54 3.98
3 2 8 136.29 3.87
3 2 8 138.46 3.99
3 2 8 139.71 3.95
3 2 8 138.33 3.95
3 2 8 141.68 4
3 -2 8 137.48 5.46
3 -2 8 138.74 4.01
3 2 8 137.23 4
3 2 8 148.93 5.58
3 -2 8 141.44 4.06
3 2 8 131.34 3.96
3 -2 8 132.82 4.86
3 -2 8 139.04 3.91
3 -2 8 140.33 4
3 -2 8 145.11 3.97
3 -2 8 142.07 4.06
3 -2 8 136.51 4.05
3 -2 8 140.5 4.06
-3 2 -9 421.08 12.02
-3 -2 -9 428.62 12.6
3 2 9 409.48 10.6
3 -2 9 417.27 10.77
3 2 9 437.56 10.78
3 2 9 411.89 10.7
3 2 9 419.47 10.73
3 2 9 402.9 12.63
3 -2 9 421.69 12.73
3 2 9 428.21 10.79
3 2 9 416.82 10.81
3 -2 9 417.93 10.81
3 -2 9 420.56 10.86
3 2 9 407.65 10.79
3 -2 9 420.13 10.78
3 -2 9 414.22 13.01
3 -2 9 413.49 10.64
3 -2 9 432.78 10.75
3 -2 9 437.16 10.9
3 -2 9 438.65 10.89
3 -2 9 425.67 10.89
-3 2 -10 438.34 13.46
-3 -2 -10 466.32 13.55
3 -2 10 443.75 11.48
3 2 10 449.67 11.48
3 2 10 439.67 11.39
3 2 10 443.94 11.44
3 2 10 428.35 13.46
3 2 10 465.2 11.52
3 -2 10 455.19 13.64
3 2 10 439.96 11.54
3 -2 10 454.3 11.57
3 2 10 453.42 11.42
3 -2 10 463.9 11.63
3 2 10 436.22 11.54
3 -2 10 440.67 11.5
-3 -2 -10 449.93 13.29
-3 2 -10 438.9 13.23
3 -2 10 448.83 11.46
3 -2 10 466.59 11.66
3 -2 10 458.98 11.65
3 -2 10 462.49 11.63
-3 2 -11 355.43 11.44
-3 -2 -11 364.56 11.49
3 -2 11 359.82 9.43
3 -2 11 368.03 9.57
3 2 11 364.72 9.45
3 2 11 358.06 9.37
3 2 11 362.62 9.45
3 2 11 351.47 11.49
3 -2 11 351.88 11.51
3 2 11 376.03 9.51
3 2 11 369.16 9.38
3 2 11 358.97 9.55
3 -2 11 367.63 9.56
3 2 11 364.92 9.57
3 -2 11 376.2 9.66
-3 -2 -11 366.24 11.32
3 -2 11 369.97 9.52
-3 2 -11 383.29 11.4
3 -2 11 370.42 9.67
3 -2 11 356.26 9.45
3 -2 11 353.92 9.63
3 -2 11 383.09 9.68
3 -2 12 24.09 1.29
3 -2 12 21.75 1.11
3 2 12 23.37 1.14
3 2 12 23.1 1.08
3 2 12 22.88 1.17
3 2 12 24.18 1.22
3 2 12 21.84 1.24
3 -2 12 23.26 1.27
3 -2 12 22.24 1.31
3 -2 12 23.72 1.22
3 -2 12 24.05 1.38
3 -2 12 21.71 1.31
3 -2 13 35.87 1.51
3 2 13 32.72 1.41
3 2 13 35.19 1.52
3 -2 13 35.08 1.52
3 2 13 31.43 1.33
3 2 13 33.87 1.4
3 -2 13 33.55 1.59
3 -2 13 36.37 1.61
3 -2 13 34.24 1.59
3 2 14 3.14 0.53
3 2 14 3.54 0.56
3 -2 14 3.95 0.62
3 2 14 3.36 0.52
3 -2 14 2.96 0.66
3 -2 14 2.82 0.65
3 -2 14 3.17 0.69
-3 2 -14 3.49 0.63
3 -2 14 3.37 0.58
3 -2 15 3.7 0.59
3 -2 15 3.5 0.6
3 2 15 3.47 0.43
-3 2 -15 4.03 0.56
3 -2 15 5.02 0.51
3 -2 16 1.19 0.36
3 -2 16 1.34 0.38
3 -2 16 0.97 0.28
-3 2 -16 1.91 0.38
3 -2 16 1.2 0.34
-3 -3 16 0.13 0.41
-3 -3 16 0.09 0.37
-3 -3 16 -0.03 0.37
-3 -3 16 0.31 0.29
-3 3 16 0.12 0.31
-3 -3 15 0.11 0.29
-3 3 15 -0.11 0.46
-3 3 15 0.03 0.41
-3 -3 15 0.18 0.51
-3 -3 15 -0.25 0.49
-3 -3 15 0.04 0.49
-3 -3 14 56.24 1.78
-3 3 14 57.01 1.87
-3 3 14 59.88 2.04
-3 3 14 60.74 1.99
3 -3 -14 54.12 1.76
-3 -3 14 57.03 2.13
-3 -3 14 55.65 2.05
-3 -3 14 54.45 2.04
-3 3 14 59.28 2.02
-3 -3 13 -0.09 0.52
-3 -3 13 0.19 0.44
-3 3 13 -0.55 0.63
-3 -3 13 0.57 0.73
3 -3 -13 0.07 0.42
-3 3 13 0.15 0.54
-3 3 13 0.3 0.46
-3 -3 13 0.07 0.69
-3 -3 13 -0.12 0.63
-3 3 13 -0.51 0.57
-3 -3 13 0.62 0.64
-3 3 12 11.27 0.75
-3 -3 12 12.39 0.88
-3 -3 12 10.01 0.74
-3 3 12 10.58 0.8
-3 3 12 11.3 0.96
-3 3 12 10.79 0.88
-3 -3 12 10.35 1.01
3 3 -12 11.59 0.79
3 -3 -12 11.55 0.75
-3 -3 12 11.98 1.11
-3 -3 12 9.97 1.03
-3 -3 12 10.03 0.99
-3 -3 12 11.54 0.85
-3 -3 12 10.63 1.01
-3 3 12 9.09 0.97
-3 3 11 81.62 2.54
-3 -3 11 83.15 2.57
-3 3 11 85.21 2.84
-3 3 11 78.65 2.59
-3 3 11 85.14 2.78
-3 -3 11 71.69 4.34
-3 -3 11 86.07 4.27
-3 -3 11 85.15 2.93
3 3 -11 82.68 2.59
3 -3 -11 83.09 2.57
-3 -3 11 79.69 2.9
-3 -3 11 81.85 2.82
-3 -3 11 84.04 2.95
-3 3 11 85.11 2.88
-3 -3 11 84.92 2.77
-3 3 11 83.86 2.65
-3 3 11 82.83 2.87
3 3 -10 52.08 1.78
-3 -3 10 49.07 1.76
-3 3 10 51.29 1.76
-3 3 10 50.02 1.8
-3 3 10 50.72 2.02
-3 3 10 46.69 2.75
-3 -3 10 49.97 3.44
-3 -3 10 59.16 3.38
3 3 -10 44.17 2.78
-3 -3 10 56.27 2.13
3 3 -10 49.01 1.79
3 -3 -10 49.49 1.77
-3 -3 10 52.8 2.12
-3 -3 10 49.41 2
-3 -3 10 51.22 2.1
-3 3 10 52.81 2.11
-3 3 10 49.68 1.89
-3 -3 10 48.81 2.12
-3 3 10 54.79 2.11
3 3 -9 65.4 2.19
-3 3 9 65.32 2.12
-3 3 9 66.83 2.16
-3 3 9 65.59 3.22
-3 -3 9 66.08 3.25
-3 -3 9 65.15 3.78
-3 -3 9 63.17 3.52
3 3 -9 65.67 3.27
-3 -3 9 65.33 2.43
3 3 -9 68.55 2.18
3 -3 -9 66.17 2.14
-3 -3 9 67.66 2.49
-3 -3 9 65.96 2.33
-3 -3 9 67.57 2.49
-3 3 9 75.2 2.53
-3 -3 9 72.27 2.54
-3 3 9 69.67 2.35
3 3 -8 0.88 0.46
3 3 -8 1 0.46
-3 3 8 0.61 0.38
3 3 -8 0.94 0.45
-3 3 8 0.56 0.72
-3 -3 8 0.73 0.68
-3 -3 8 -0.65 1.03
3 -3 -8 -0.4 1.09
3 3 -8 0.53 0.42
-3 -3 8 0.91 0.95
3 3 -8 0.15 0.75
3 -3 -8 0.14 0.77
-3 -3 8 0.11 0.59
-3 -3 8 0.85 0.6
-3 -3 8 0.41 0.5
-3 -3 8 1.82 0.65
-3 3 8 1.3 0.65
-3 -3 8 0.93 0.63
-3 3 8 0.37 0.54
-3 3 7 111.47 3.4
3 3 -7 115.61 3.29
3 3 -7 119.4 3.35
-3 3 7 112.31 3.5
3 3 -7 116.62 3.32
-3 3 7 108.83 4.17
-3 -3 7 113.05 4.26
-3 -3 7 112.31 4.84
3 -3 -7 118.56 4.87
3 3 -7 109.64 4.25
3 -3 -7 115.99 4.31
-3 -3 7 114.23 3.43
3 3 -7 113.41 3.2
-3 -3 7 117.58 3.51
-3 -3 7 113.99 3.34
-3 -3 7 112.03 3.5
-3 3 7 113.42 3.52
-3 3 7 118.37 3.46
-3 -3 7 113.43 3.52
-3 3 7 115.94 3.52
-3 3 6 102.12 3.11
3 3 -6 110.33 3.11
3 3 -6 107.98 3.05
-3 3 6 100.38 3.18
3 3 -6 104.46 3.07
-3 3 6 102.26 3.82
-3 -3 6 102.41 3.87
-3 -3 6 106.18 3.18
3 3 -6 103.9 3.89
3 -3 -6 103.72 3.87
-3 -3 6 104.82 3.12
-3 3 6 100.72 3.16
-3 3 6 103.9 3.21
-3 -3 6 106.63 3.19
-3 -3 6 100.27 4.38
3 -3 -6 108.05 4.49
-3 -3 5 39.68 1.98
-3 3 5 38.69 1.93
-3 -3 5 42.45 2.49
3 -3 -5 39.35 2.47
-3 3 5 39.23 1.54
-3 -3 5 36.46 1.45
3 3 -5 33.47 1.89
3 -3 -5 43.59 2.08
-3 -3 5 36.57 1.46
-3 3 5 38.45 1.56
3 3 -5 37.72 1.43
3 3 -5 35.11 1.42
-3 3 4 117.04 3.85
-3 -3 4 119.38 3.89
3 3 -4 122.31 3.96
3 -3 -4 113.55 3.89
-3 -3 4 117.08 4.38
3 -3 -4 120.93 4.6
-3 3 4 114.09 3.36
-3 -3 4 114.29 3.3
3 3 -4 116.22 3.3
3 3 -4 110.95 3.26
3 -3 -3 8.88 1.24
3 -3 -3 6.99 0.87
3 3 -3 7.9 0.86
-3 -3 3 7.21 1.06
-3 3 3 8.71 0.69
-3 3 3 8.1 0.69
-3 -3 3 8.16 0.92
-3 3 3 8.58 0.91
3 3 -3 9.09 0.67
3 3 -3 7.12 0.62
-3 3 2 128.11 4.03
-3 -3 2 132.23 4.08
3 3 -2 130.67 4.07
3 -3 -2 131.83 4.09
-3 -3 2 133.94 4.36
3 -3 -2 136.46 4.78
-3 3 2 124.29 3.61
3 3 -1 0.14 0.43
3 -3 -1 0.25 0.82
3 -3 -1 0.07 0.47
-3 -3 1 0.24 0.54
-3 3 1 0.36 0.42
3 -3 -1 0.64 0.39
3 3 -1 0.47 0.41
3 3 -1 0.37 0.41
-3 -3 1 1.28 0.56
-3 3 1 2.01 0.49
3 3 0 160.62 4.98
3 -3 0 174.09 5.05
3 -3 0 165.86 5.67
-3 3 0 171.31 5.73
3 3 0 173.02 4.53
3 3 0 176.35 4.54
3 -3 0 167.45 4.53
-3 -3 0 177.85 5.06
-3 3 0 160.45 4.94
3 -3 1 36.02 1.31
-3 3 -1 39.79 2.26
3 3 1 32.63 1.25
-3 -3 -1 37.45 1.68
-3 3 -1 34.65 1.63
3 3 1 35.69 1.67
3 -3 1 34.82 1.68
3 -3 1 35.99 2.12
3 -3 2 110.29 3.13
3 3 2 108.42 3.08
-3 3 -2 113.88 4.31
-3 3 -2 111.62 4.33
-3 -3 -2 109.92 3.64
-3 3 -2 118.23 3.68
3 -3 2 111.47 3.71
3 3 2 105.2 3.63
3 -3 2 113.62 4.26
3 -3 3 225.66 5.93
3 -3 3 229.88 5.97
-3 3 -3 231.17 7.3
-3 -3 -3 223.96 6.49
-3 3 -3 223.89 7.32
3 3 3 222.01 5.83
-3 -3 -3 229.33 6.58
-3 3 -3 229.95 6.56
3 -3 3 232.15 7.22
3 -3 3 219.6 6.63
3 3 3 230.58 6.64
3 -3 3 237.04 7.22
3 -3 4 1.2 0.46
3 -3 4 1.18 0.46
3 -3 4 1.88 0.9
3 -3 4 1.83 0.51
3 -3 4 1.29 0.69
3 3 4 1.66 0.63
3 -3 4 1.67 0.84
-3 3 -4 1.67 1.04
-3 -3 -4 2.93 0.72
-3 3 -4 1.63 0.68
-3 -3 -4 1.87 0.71
3 -3 5 69.54 2.22
-3 -3 -5 75.04 2.97
-3 3 -5 62.38 2.78
3 -3 5 65.79 2.28
3 3 5 69.62 2.23
3 3 5 64.56 2.25
3 3 5 66.67 2.22
3 3 5 70.04 2.22
3 -3 5 75.41 3.09
3 -3 5 69.45 2.27
3 -3 5 72.28 3.24
3 3 5 61.59 2.84
3 -3 5 70.93 2.29
3 -3 5 67.83 2.24
3 -3 5 71.18 2.28
-3 3 -5 71.13 2.26
-3 -3 -5 65.37 2.91
-3 3 -5 70.24 3.34
-3 -3 -6 72.94 3.24
-3 3 -6 70.39 2.36
-3 3 -6 80.77 3.64
3 -3 6 70.09 2.35
3 3 6 70.97 2.34
3 3 6 70.4 2.38
3 3 6 72.73 2.23
3 3 6 69.22 2.34
3 3 6 71.69 2.26
3 3 6 72.55 2.33
3 -3 6 74.09 2.41
3 -3 6 69.71 3.32
3 -3 6 70.73 2.38
3 -3 6 73.58 2.38
3 -3 6 74.87 2.39
3 -3 6 71.69 2.39
-3 3 -7 0.17 0.86
-3 -3 -7 0.16 0.86
-3 3 -7 1.51 1.06
3 -3 7 0.67 0.57
-3 3 -7 0.99 0.53
3 -3 7 0.79 0.55
3 3 7 0.49 0.47
3 3 7 0.82 0.54
3 3 7 0.74 0.6
3 3 7 0.86 0.5
3 -3 7 0.81 0.56
3 -3 7 1.14 0.91
3 -3 7 1.18 0.58
3 -3 7 1.02 0.53
3 -3 7 0.8 0.55
3 -3 7 0.86 0.58
-3 3 -8 61.56 3.29
-3 3 -8 58.28 3.37
-3 -3 -8 61.71 3.29
-3 3 -8 64.83 2.27
3 -3 8 64.23 2.29
3 -3 8 62.49 2.27
3 3 8 64.95 2.22
3 3 8 63.18 2.24
3 3 8 61.37 2.22
3 3 8 63.17 2.17
3 -3 8 58.47 3.17
3 3 8 61.57 2.11
3 -3 8 64.57 2.31
3 -3 8 59.81 3.21
-3 -3 -8 62.69 3.14
-3 3 -8 61.54 3.1
3 -3 8 66.15 2.29
3 -3 8 66.67 2.26
3 -3 8 64.22 2.28
3 -3 8 64.19 2.3
-3 3 -9 71.58 3.66
-3 3 -9 69.93 3.85
-3 -3 -9 77.87 3.85
3 -3 9 77.65 2.66
3 -3 9 77.55 2.64
3 3 9 76.64 2.55
3 3 9 77.2 2.61
3 3 9 77.29 2.6
3 -3 9 73.49 2.48
3 3 9 77.07 2.53
3 3 9 76.26 2.49
3 -3 9 79.53 2.68
-3 3 -9 76.56 3.63
3 -3 9 78.14 2.66
3 -3 9 80.2 2.6
3 -3 9 73.36 2.58
3 -3 9 80.93 2.69
3 -3 9 77.62 2.68
-3 -3 -10 12.71 1.68
-3 3 -10 13.21 1.76
3 -3 10 14.49 1.07
3 -3 10 15.02 1.04
3 3 10 12.72 0.93
3 3 10 13.34 0.98
3 3 10 12.9 0.98
3 -3 10 14.22 0.91
3 3 10 14.36 0.91
3 3 10 14.65 0.96
3 -3 10 12.5 1.08
3 -3 10 15.37 0.95
3 -3 10 13.63 1.05
3 -3 10 15.24 1.02
3 -3 10 12.17 1.03
3 -3 10 16.65 1.14
3 -3 11 4.42 0.72
3 -3 11 2.84 0.73
3 3 11 3.71 0.69
3 3 11 2.64 0.59
3 3 11 3.52 0.68
3 3 11 2.95 0.59
3 3 11 2.81 0.59
3 -3 11 3.84 0.62
3 -3 11 4.53 0.77
3 -3 11 3.85 0.75
3 -3 11 4.24 0.83
3 -3 11 3.23 0.67
3 -3 11 5.15 0.81
3 -3 11 3.03 0.76
3 3 12 3.61 0.64
3 3 12 2.43 0.53
3 3 12 3.37 0.59
3 3 12 2.89 0.56
3 -3 12 3.47 0.67
3 -3 12 3.71 0.66
3 -3 12 2.48 0.74
3 -3 12 2.92 0.7
3 -3 12 3.26 0.72
3 -3 13 3.11 0.65
3 -3 13 4.06 0.72
3 3 13 2.95 0.52
3 3 13 3.51 0.59
3 -3 13 3.85 0.62
3 -3 13 4.16 0.76
3 -3 13 3.94 0.65
3 -3 14 0.35 0.5
3 -3 14 0.47 0.52
3 3 14 0.03 0.41
3 -3 14 0.54 0.53
3 -3 14 1.41 0.5
3 -3 15 46.4 1.45
3 3 15 47.03 1.41
3 -3 15 45.04 1.54
3 -3 15 45.4 1.52
3 -3 15 43.98 1.51
-3 4 15 6.22 0.53
-3 4 15 6.9 0.51
-3 -4 15 6.69 0.6
-3 -4 15 5.9 0.51
-3 4 14 0.8 0.45
-3 -4 14 1.95 0.43
-3 4 14 1.38 0.49
-3 -4 14 1.74 0.57
-3 -4 14 1.96 0.48
-3 -4 14 1.35 0.51
-3 4 13 19.26 1.05
-3 -4 13 17.93 0.95
-3 -4 13 16.76 1.11
-3 -4 13 17.07 0.99
-3 -4 13 18.7 1.12
-3 -4 13 17.97 1.09
-3 4 12 0.05 0.62
-3 -4 12 -0.46 0.63
-3 4 12 0.22 0.46
-3 -4 12 -0.06 0.67
-3 -4 12 -0.26 0.54
-3 -4 12 -0.31 0.63
-3 -4 12 0.44 0.58
3 4 -11 71.12 2.26
-3 -4 11 73.5 2.45
-3 -4 11 71.42 2.53
-3 4 11 69.47 2.51
-3 4 11 71.55 2.46
-3 -4 11 73.28 2.62
-3 -4 11 69.98 2.44
-3 -4 11 70.65 2.61
-3 -4 11 73.17 2.47
3 4 -10 68.25 2.26
-3 4 10 67.38 2.37
-3 -4 10 66.72 2.44
-3 -4 10 66.71 2.49
-3 -4 10 63 2.32
-3 -4 10 67.08 2.51
-3 4 10 66.63 2.29
-3 -4 10 70.14 2.58
-3 4 10 68.43 2.49
3 4 -9 0.96 0.55
-3 -4 9 -0.25 1.15
3 -4 -9 0.44 1.05
-3 4 9 0.56 0.55
-3 -4 9 0.74 0.65
-3 -4 9 0.38 0.81
-3 -4 9 0.54 0.7
-3 -4 9 -0.11 0.53
-3 -4 9 0.07 0.67
-3 4 9 0.06 0.53
-3 -4 9 0.42 0.69
3 4 -8 10.76 0.9
3 4 -8 11.01 0.82
-3 -4 8 7.48 1.58
3 -4 -8 7.8 1.5
-3 4 8 10.89 0.86
-3 4 8 10.78 1.01
-3 -4 8 9.81 1.39
-3 -4 8 10.74 0.91
-3 -4 8 12.13 0.87
-3 -4 8 9.98 0.96
-3 -4 8 10.12 0.97
-3 -4 8 11.68 1.09
-3 4 8 12.68 0.96
-3 4 7 14 0.99
3 4 -7 12.99 0.91
3 4 -7 12.44 0.88
-3 4 7 13.07 0.9
-3 4 7 11.3 0.99
3 -4 -7 12.05 1.71
-3 -4 7 12.63 1.75
-3 -4 7 13.05 0.93
-3 -4 7 13.23 1.01
-3 -4 7 13.45 1.05
-3 -4 7 13.23 1.05
-3 4 7 13.46 1.08
-3 4 7 12.58 0.94
-3 4 6 0.6 0.56
3 4 -6 0.87 0.54
3 4 -6 2.3 0.55
3 4 -6 1.29 0.47
-3 4 6 1.35 0.67
-3 4 6 2.2 0.53
3 4 -6 1.39 0.52
3 -4 -6 1.18 1.05
-3 -4 6 1 0.98
-3 -4 6 0.94 0.57
-3 -4 6 1.73 0.63
-3 4 6 1.64 0.63
-3 4 6 1.28 0.59
-3 4 5 61.37 2.06
-3 4 5 61.16 2.27
3 4 -5 62.1 2.09
3 4 -5 64.92 2.21
-3 -4 5 65.56 3.35
3 -4 -5 67.96 3.47
-3 -4 5 61.17 2.15
-3 -4 5 64.12 2.21
3 4 -5 65 2.2
3 4 -5 62.19 2.14
-3 4 5 63.97 2.21
3 4 -4 14.2 0.92
-3 4 4 14 0.98
-3 4 4 16.83 1.05
-3 4 4 13.93 0.78
3 4 -4 17.14 0.95
3 -4 -4 16.8 1.73
-3 -4 4 14.55 1.5
-3 -4 4 15.67 0.91
-3 4 4 12.36 1.36
3 4 -4 16.21 0.97
-3 4 4 14.89 0.99
3 4 -4 13.9 0.93
3 4 -3 88.68 2.75
-3 4 3 87.08 2.81
3 4 -3 90.77 2.82
-3 4 3 86.91 2.85
3 4 -3 83.72 2.77
3 4 -3 91.23 2.73
-3 -4 3 85.67 3.66
3 -4 -3 90.97 3.98
-3 4 3 86.97 2.77
3 4 -3 93.29 2.76
-3 4 3 83.99 3.7
-3 4 3 87.28 2.78
3 4 -2 0.05 0.55
-3 4 2 0.84 0.49
3 4 -2 0.52 0.53
3 4 -2 0.77 0.48
-3 4 2 1.56 0.59
3 -4 -2 1.64 1.03
-3 -4 2 0.12 0.65
3 -4 -2 1.45 0.47
-3 4 2 0.95 0.55
-3 4 2 1.66 0.91
-3 4 2 1.45 0.52
3 4 -2 0.88 0.51
3 4 -1 15.98 0.91
3 4 -1 15.59 0.9
-3 4 1 16.67 1.66
3 4 -1 16.04 0.92
-3 4 1 14.12 0.92
3 4 -1 17.72 0.98
3 4 -1 14.28 0.95
3 4 -1 16.39 0.93
-3 4 1 15.64 0.91
3 -4 -1 19.1 1.72
3 -4 -1 16.96 0.92
-3 4 1 15.66 0.94
3 4 0 4.83 0.63
3 4 0 5.02 0.6
3 -4 0 4.57 1.11
3 4 0 5.98 0.62
-3 4 0 4.6 0.6
3 4 0 5.02 0.61
3 4 0 5.03 0.64
-3 4 0 5.47 1.26
3 4 0 5.05 0.6
-3 4 0 5.07 0.62
3 4 0 5.01 0.59
3 -4 0 4.28 0.57
-3 4 0 6.5 0.65
3 4 1 16.67 0.98
3 4 1 17.11 1.02
3 4 1 18.16 0.96
3 4 1 19.13 0.97
3 4 1 17.28 0.99
3 -4 1 18.99 1.83
-3 4 -1 19.14 0.96
3 -4 1 18.73 1.74
3 -4 1 17.68 0.95
-3 4 -1 19.06 0.98
3 4 1 16.74 0.91
3 4 1 18.96 0.96
-3 4 -1 22.9 1.9
3 4 2 0.89 0.44
-3 4 -2 1.49 0.47
-3 4 -2 1.04 1
3 4 2 0.62 0.41
3 -4 2 1.41 0.51
3 4 2 0.87 0.52
3 4 2 1.45 0.51
3 4 2 0.86 0.5
3 4 2 1.3 0.41
-3 4 -2 0.44 0.47
3 4 2 0.67 0.43
3 4 2 1.01 0.54
3 -4 2 0.8 0.89
3 -4 2 1.43 1.01
3 -4 2 0.97 0.52
3 -4 2 0.6 0.45
-3 4 -3 13.69 0.76
3 4 3 14.12 0.79
3 4 3 11.9 0.74
-3 4 -3 14.32 1.67
3 -4 3 12.58 0.87
3 4 3 13.33 0.89
3 4 3 12.68 0.88
3 4 3 12.87 0.87
3 4 3 12.03 0.77
3 4 3 13.01 0.88
3 4 3 13.29 0.82
3 -4 3 15.04 1.57
3 -4 3 15.34 1.75
3 -4 3 13.83 0.92
3 -4 3 13.83 0.91
3 -4 3 12.68 0.84
-3 4 -4 19.15 1.93
3 4 4 17.68 0.87
-3 4 -4 22.28 2.06
3 -4 4 18.21 1.1
3 -4 4 18.47 0.97
3 4 4 20.72 1.09
3 4 4 21.12 1.13
3 4 4 21.05 1.06
3 4 4 20.28 1.04
3 -4 4 21.12 1.9
3 -4 4 19.8 1.09
3 -4 4 22.15 1.91
3 -4 4 17.14 1.05
3 -4 4 18.46 1.08
3 -4 4 18.7 1.04
-3 4 -5 189.25 7.01
-3 4 -5 195.41 7.08
3 -4 5 202.17 5.49
3 -4 5 195.24 5.32
3 4 5 197.85 5.41
3 4 5 195.04 5.34
3 4 5 185.46 5.39
3 4 5 189.86 5.31
3 -4 5 200.68 5.46
3 -4 5 196.72 6.93
3 -4 5 199.77 5.47
3 -4 5 196.26 5.45
3 -4 5 199.74 5.39
-3 4 -6 0.2 0.99
-3 4 -6 0.81 1.12
-3 4 -6 0.06 0.57
3 -4 6 0.66 0.63
3 -4 6 0.62 0.56
3 4 6 0.05 0.45
3 4 6 0.11 0.51
3 4 6 0.94 0.58
3 4 6 0.34 0.55
3 4 6 0.91 0.49
3 -4 6 0.4 0.61
3 -4 6 -0.19 0.9
3 -4 6 1.24 0.63
3 -4 6 0.98 0.55
3 -4 6 0.58 0.56
3 -4 6 0.27 0.51
-3 4 -7 2.68 1.25
-3 4 -7 1.05 1.08
3 4 7 1.81 0.59
3 4 7 2.84 0.55
3 4 7 2.95 0.68
3 4 7 2.83 0.7
3 4 7 2.66 0.59
3 -4 7 1.55 0.68
-3 4 -7 2.11 0.62
3 -4 7 2.54 0.65
3 -4 7 1.87 0.68
3 -4 7 1.59 1.03
3 -4 7 1.42 0.62
3 -4 7 2.98 0.7
3 -4 7 2.43 0.69
-3 4 -8 7.77 1.5
-3 4 -8 8.7 1.55
-3 4 -8 8.22 0.83
3 -4 8 7.22 0.84
3 4 8 7.41 0.65
3 4 8 7.18 0.86
3 4 8 8.43 0.8
3 4 8 9.28 0.91
3 4 8 8.26 0.76
3 -4 8 6.82 0.85
3 -4 8 10.39 1.51
3 -4 8 9.32 0.9
3 -4 8 8.8 0.92
3 -4 8 8.71 0.89
3 -4 9 6.25 0.85
-3 4 -9 5.57 0.8
3 -4 9 5.84 0.8
3 4 9 5.77 0.82
3 4 9 6.17 0.71
3 4 9 5.51 0.82
3 4 9 7.13 0.68
3 -4 9 6.67 0.86
3 -4 9 7.02 0.86
3 -4 9 6.49 0.84
3 -4 9 7.62 0.81
3 -4 9 5.84 0.79
3 -4 9 7.18 0.8
-3 4 -10 37.71 1.65
3 4 10 36.84 1.5
3 4 10 39.56 1.69
3 4 10 39.31 1.68
3 -4 10 38.08 1.72
3 -4 10 39.24 1.69
3 -4 10 41.06 1.72
3 -4 10 38.88 1.73
3 -4 10 37.57 1.63
3 -4 10 40.05 1.75
3 -4 10 38.54 1.65
3 -4 10 43.66 1.73
3 -4 11 9.48 0.86
3 -4 11 9.05 0.9
3 -4 11 10.9 0.93
3 4 11 10.7 0.88
3 4 11 9.55 0.84
3 -4 11 10.13 0.91
3 -4 11 10.93 0.97
3 -4 11 8.25 0.8
-3 4 -11 9.8 0.87
3 -4 12 9.54 0.77
3 -4 12 8.77 0.78
3 -4 12 8.08 0.8
3 4 12 10.36 0.77
3 4 12 9.07 0.76
3 -4 12 9.62 0.83
3 -4 12 9.33 0.84
-3 4 -12 9.38 0.78
3 -4 13 83.32 2.46
3 -4 13 76.87 2.47
3 4 13 82.82 2.38
3 4 13 81.64 2.44
3 -4 13 76.12 2.45
3 -4 13 80.94 2.53
-3 4 -13 80.88 2.43
3 -4 14 0.24 0.38
3 4 14 0.1 0.34
-3 4 -14 0.23 0.35
3 -4 15 17.03 0.61
-3 -5 14 14.65 0.62
-3 -5 14 13.43 0.69
-3 5 14 13.64 0.63
-3 5 13 0.21 0.38
-3 -5 13 0.03 0.38
-3 -5 13 0.08 0.39
-3 5 13 0.46 0.42
-3 -5 13 0.37 0.46
-3 -5 13 0.08 0.44
3 -5 -13 0.35 0.29
-3 -5 13 0.11 0.45
-3 5 12 0.87 0.5
-3 5 12 0.7 0.46
-3 -5 12 0.84 0.54
-3 -5 12 0.51 0.39
-3 -5 12 1.56 0.59
-3 -5 12 1.62 0.54
-3 5 11 7.72 0.77
-3 5 11 6.66 0.68
-3 5 11 7.44 0.67
-3 -5 11 6.71 0.78
-3 -5 11 7.42 0.65
-3 -5 11 7.43 0.81
3 5 -11 6.94 0.61
3 5 -10 0.04 0.49
-3 5 10 0.87 0.54
-3 5 10 1.41 0.59
-3 5 10 0.47 0.52
-3 -5 10 0.81 0.55
-3 -5 10 0.53 0.65
-3 -5 10 0.63 0.47
-3 -5 10 1.7 0.68
-3 -5 10 1.25 0.73
-3 5 9 0.44 0.61
3 5 -9 0.3 0.53
-3 5 9 0.06 0.62
-3 5 9 1.04 0.56
-3 -5 9 0.68 0.66
-3 -5 9 0.19 0.66
-3 5 9 0.61 0.53
-3 -5 9 1.6 0.72
3 5 -8 29.22 1.39
3 5 -8 26.33 1.26
-3 5 8 26.96 1.28
-3 5 8 28.97 1.53
-3 -5 8 29.21 1.46
-3 -5 8 30.2 1.49
-3 -5 8 28.87 1.55
-3 5 8 26.74 1.34
-3 5 8 27.11 1.38
3 5 -7 24.94 1.3
3 5 -7 21.64 1.17
3 -5 -7 19.5 2.05
-3 5 7 22.68 1.27
-3 -5 7 22.72 2.26
-3 5 7 23.39 1.15
-3 5 7 24.45 1.39
-3 -5 7 23.48 1.29
-3 -5 7 22.53 1.31
-3 -5 7 23.92 1.39
-3 5 7 21.85 1.25
3 5 -6 12.3 0.95
3 5 -6 12.17 0.93
3 -5 -6 11.56 1.69
-3 -5 6 13.71 1.81
-3 5 6 11.24 0.81
-3 5 6 11.4 1.03
3 5 -6 11.77 0.82
-3 -5 6 12.44 0.93
-3 -5 6 11.4 0.97
3 -5 -6 12.4 0.89
-3 5 6 14.24 1.01
-3 -5 5 31.13 2.44
3 -5 -5 36.31 2.66
-3 5 5 34.1 1.36
3 5 -5 36.17 1.49
-3 5 5 37.51 1.74
3 -5 -5 36.43 1.49
-3 -5 5 34.68 1.59
3 5 -5 36.38 1.6
3 5 -5 36.44 1.58
-3 5 4 2.19 0.67
-3 5 4 2.46 0.65
3 5 -4 2.62 0.67
3 5 -4 2.52 0.61
-3 5 4 2.01 0.76
3 -5 -4 1 0.99
-3 -5 4 2.6 0.61
3 -5 -4 2.36 0.57
3 5 -3 23.6 1.26
-3 5 3 25.28 1.32
-3 5 3 23.51 1.92
-3 5 3 25.01 1.34
-3 5 3 22.61 1.37
3 5 -3 23.75 1.22
-3 5 3 26.13 1.32
3 -5 -3 25.42 2.2
3 -5 -3 24.75 1.17
-3 -5 3 24.2 1.2
-3 5 3 23.56 1.26
3 5 -2 19.07 1.1
-3 5 2 18.52 1.22
-3 5 2 20.87 1.15
3 -5 -2 19.27 1.89
3 5 -2 20.19 1.12
-3 5 2 20.88 1.22
-3 5 2 16.02 1.69
3 5 -2 17.51 1.08
-3 5 2 19.32 1.15
3 5 -2 20.73 1.12
-3 5 2 18.33 1.13
3 -5 -2 18.28 1.03
3 5 -1 18.45 1.11
3 5 -1 20.65 1.13
-3 5 1 20.66 1.16
3 5 -1 18.17 1.09
3 -5 -1 17.37 1.8
-3 5 1 18.59 1.12
3 -5 -1 17.69 1.98
3 5 -1 17.55 1.07
-3 5 1 19.34 1.13
3 5 -1 18.66 1.08
-3 5 1 18 1.8
3 -5 -1 19.44 1.04
-3 5 1 18.59 1.09
3 5 0 12.36 0.95
3 5 0 10.33 0.86
3 5 0 11.68 0.85
-3 5 0 8.88 0.89
3 5 0 9.87 0.83
3 -5 0 8.62 1.45
3 -5 0 10.52 1.68
-3 5 0 11.18 0.89
3 -5 0 12.46 0.91
3 -5 0 9.14 0.76
-3 5 0 7.28 1.4
3 5 0 10.51 0.82
3 5 0 9.6 0.83
-3 5 0 10.47 0.91
3 5 1 0.28 0.49
-3 5 -1 -0.2 0.9
-3 5 -1 0.4 0.57
-3 5 -1 0.51 0.5
3 5 1 0.53 0.48
3 -5 1 0.09 0.48
3 5 1 -0.28 0.58
3 5 1 0.63 0.63
3 5 1 0.63 0.57
3 5 1 0.55 0.48
-3 5 -1 0.74 0.57
3 5 1 -0.09 0.44
3 5 1 0.2 0.53
3 -5 1 0.36 0.85
3 -5 1 -0.11 0.54
3 -5 1 -0.23 0.56
3 -5 1 0.19 0.46
-3 5 -2 12.12 0.85
-3 5 -2 14.65 1.71
3 5 2 12.44 0.81
3 5 2 12.51 0.85
-3 5 -2 12.13 0.93
3 -5 2 10.91 0.85
3 5 2 13.72 1
3 5 2 11.26 0.88
3 5 2 12.62 1
3 5 2 12.49 0.84
-3 5 -2 12.67 0.93
3 5 2 12.28 0.9
3 -5 2 8.85 1.36
3 -5 2 11.94 1.66
3 -5 2 11.27 0.89
3 -5 2 12.48 0.95
3 -5 2 13.41 0.87
-3 5 -3 6.32 1.39
3 5 3 9.76 0.71
-3 5 -3 10.25 0.78
-3 5 -3 12.63 0.93
3 -5 3 10.39 0.89
3 5 3 11.29 0.96
3 5 3 12.25 0.98
3 5 3 12.82 0.97
3 5 3 9.76 0.94
-3 5 -3 9.06 0.84
3 5 3 9.27 0.82
3 -5 3 14.71 1.04
3 -5 3 10.11 1.49
3 -5 3 11.73 1.67
3 -5 3 13.84 0.98
3 -5 3 12.67 0.96
3 -5 3 12.37 0.85
3 -5 3 10.5 0.95
-3 5 -4 2.71 0.67
-3 5 -4 2.6 1.08
-3 5 -4 3.23 1.2
3 -5 4 2.5 0.7
3 5 4 3.08 0.69
3 5 4 2.6 0.63
3 5 4 2.36 0.64
3 5 4 2.45 0.71
3 5 4 2.52 0.55
-3 5 -4 2.68 0.61
3 -5 4 3.62 0.73
3 -5 4 2.65 1.09
3 -5 4 4.38 0.77
3 -5 4 3.44 0.72
3 -5 4 3.58 0.74
3 -5 4 3.25 0.64
-3 5 -5 112.9 3.44
-3 5 -5 102.35 4.87
3 -5 5 104.91 3.23
3 -5 5 107.96 3.44
3 5 5 115.96 3.51
3 5 5 109.5 3.38
3 5 5 112.53 3.4
3 5 5 110.33 3.46
3 5 5 102.95 3.21
3 -5 5 106.42 4.92
3 -5 5 109.41 3.46
3 -5 5 112.97 3.51
3 -5 5 110.92 3.48
3 -5 5 112.53 3.47
3 -5 5 117.64 3.38
-3 5 -6 13.57 0.98
-3 5 -6 12.96 1.75
-3 5 -6 12.66 1.77
3 5 6 12.31 0.95
3 5 6 14.04 1.07
3 5 6 12.95 0.94
3 -5 6 12.04 1.03
3 -5 6 13.45 1.78
3 -5 6 14.45 1.08
3 -5 6 14.88 0.98
3 -5 6 14.24 1.08
3 -5 6 13.62 1
3 -5 6 13.46 1.06
3 -5 6 13.53 0.89
3 -5 6 13.8 1.03
-3 5 -7 117.21 3.62
3 -5 7 116.28 3.52
3 -5 7 118.42 3.7
3 5 7 119.66 3.55
3 5 7 115.61 3.5
3 -5 7 124.68 3.74
3 -5 7 121.71 3.7
3 -5 7 118.52 3.69
3 -5 7 117.39 3.55
3 -5 7 120.91 3.69
-3 5 -8 39.55 1.65
3 -5 8 40.15 1.76
3 -5 8 39.09 1.59
3 5 8 37.9 1.54
3 5 8 38.86 1.49
3 -5 8 41.9 1.77
3 -5 8 39.02 1.7
3 -5 8 40.51 1.72
3 -5 8 37.27 1.57
3 -5 8 41.05 1.72
-3 5 -9 4.01 0.65
-3 5 -9 2.62 0.46
3 -5 9 4.42 0.76
3 -5 9 3.06 0.6
3 5 9 3.43 0.71
3 -5 9 2.9 0.7
3 -5 9 3.69 0.73
3 -5 9 2.73 0.68
3 -5 9 4.18 0.68
3 -5 9 3.22 0.69
3 -5 9 3.96 0.62
-3 5 -10 1.02 0.54
3 -5 10 0.93 0.51
3 5 10 0.66 0.59
3 5 10 0.87 0.6
3 -5 10 0.42 0.59
3 -5 10 1.39 0.57
3 -5 10 0.39 0.51
3 -5 10 1.17 0.61
-3 5 -11 1.35 0.5
3 5 11 0.88 0.55
3 5 11 2.12 0.55
3 -5 11 1.59 0.56
3 -5 11 1.53 0.49
3 -5 11 1.14 0.56
3 -5 11 1.24 0.52
3 -5 11 1.19 0.55
3 5 12 0.03 0.41
3 5 12 0.41 0.42
3 -5 12 -0.25 0.42
3 -5 12 0.33 0.46
-3 5 -12 0.12 0.4
3 -5 12 -0.11 0.44
3 -5 12 0.49 0.4
3 -5 12 -0.06 0.42
3 5 13 12.81 0.62
3 -5 13 12.69 0.65
3 -5 13 12.94 0.67
3 -5 13 13.78 0.67
3 -5 13 12.24 0.62
-3 -6 12 23.27 0.85
-3 -6 12 21.02 0.84
-3 -6 12 21.35 0.85
-3 6 11 0.57 0.37
-3 -6 11 -0.07 0.45
-3 -6 11 0.22 0.41
-3 -6 11 -0.27 0.37
-3 -6 11 -0.03 0.43
3 6 -11 0.02 0.3
-3 6 10 0.39 0.43
-3 -6 10 0.49 0.47
-3 -6 10 0.23 0.5
-3 -6 10 0.18 0.45
-3 -6 10 0.68 0.53
3 6 -10 0.49 0.42
-3 6 9 56.94 1.87
3 6 -9 55.75 1.86
-3 6 9 52.15 1.84
-3 -6 9 58.19 1.93
-3 -6 9 51.78 1.84
-3 -6 9 51.28 1.92
-3 -6 9 51.79 1.98
3 6 -8 19.93 1.07
-3 6 8 18.44 1.05
-3 6 8 18.48 1.04
-3 -6 8 19.34 1.09
-3 -6 8 18.17 1
-3 -6 8 19.7 1.12
-3 -6 8 18.54 1.16
3 6 -7 10.24 0.88
3 6 -7 10.26 0.81
-3 6 7 10.61 0.96
-3 -6 7 8.19 0.74
-3 -6 7 9.57 0.85
-3 -6 7 10.65 0.97
-3 6 7 10.4 0.85
-3 6 6 9.09 1
-3 6 6 9.95 0.88
3 6 -6 9.6 0.85
3 6 -6 7.57 0.78
-3 -6 6 9.09 0.84
3 6 -5 3.94 0.59
-3 6 5 3.8 0.82
-3 -6 5 4.1 0.66
-3 6 5 4.66 0.75
3 6 -5 3.66 0.73
3 6 -4 69.67 2.34
-3 6 4 69.36 2.59
-3 6 4 71.09 2.48
-3 -6 4 70.88 2.38
-3 6 4 71.28 2.48
3 6 -4 72.1 2.47
3 6 -4 68.46 2.43
3 6 -3 14.82 1
-3 6 3 16.95 1.2
-3 6 3 17.14 1.15
3 6 -3 15.06 1.04
-3 6 3 15.52 1.06
3 -6 -3 16.59 0.94
-3 6 2 367.78 9.82
3 -6 -2 380.93 9.6
-3 6 2 368.85 9.89
3 6 -2 369.87 9.7
-3 6 2 374.99 9.75
3 6 -2 373.22 9.68
-3 6 2 371.58 9.74
3 6 -2 382.54 9.72
-3 6 1 484.49 12.78
3 6 -1 500.82 12.66
3 6 -1 493.78 12.59
-3 6 1 499.72 12.75
3 -6 -1 491.52 14.92
3 -6 -1 501.34 12.55
3 -6 -1 493.42 12.64
-3 6 1 488.64 12.64
3 6 -1 490.8 12.55
-3 6 1 507.87 12.67
3 6 -1 504.71 12.6
-3 6 0 309.59 8.19
3 6 0 301.47 8.07
-3 6 0 310.44 8.11
3 6 0 294.66 7.92
3 -6 0 297.94 10.09
3 -6 0 311.81 7.97
3 -6 0 306.05 8.06
-3 6 0 303.08 8.02
3 6 0 294.56 7.89
-3 6 0 303.82 8.05
3 6 0 299 7.95
-3 6 -1 70.24 2.33
3 6 1 61.68 2.15
-3 6 -1 63.86 2.33
3 6 1 66.03 2.25
3 6 1 63.79 2.38
-3 6 -1 67.64 2.39
3 6 1 65.02 2.2
3 -6 1 68.62 2.33
3 -6 1 67.79 2.36
3 -6 1 66.85 2.4
3 -6 2 1.33 0.7
-3 6 -2 2.09 0.65
3 -6 2 0.96 0.5
3 -6 2 1.27 0.61
3 -6 2 2.46 0.64
-3 6 -2 2.45 0.64
-3 6 -2 2 0.67
-3 6 -3 50.58 1.94
3 6 3 48.25 1.91
-3 6 -3 47.19 1.89
3 -6 3 46.86 1.81
3 -6 3 52.54 1.96
3 -6 3 52.28 1.97
3 -6 3 48.87 1.97
-3 6 -4 1.2 0.6
3 6 4 1.42 0.61
3 6 4 0.61 0.6
3 6 4 -0.05 0.55
-3 6 -4 0.31 0.53
3 -6 4 0.83 0.6
3 -6 4 0.17 0.56
3 -6 4 0.34 0.6
3 -6 4 0.82 0.65
-3 6 -5 28.04 1.35
3 6 5 26.63 1.25
3 6 5 27.7 1.35
3 6 5 27.16 1.33
-3 6 -5 27.53 1.23
3 -6 5 26.07 1.34
3 -6 5 29.26 1.4
3 -6 5 26.94 1.32
3 -6 5 26.86 1.33
-3 6 -6 4.82 0.69
3 -6 6 5.29 0.73
3 6 6 3.4 0.59
3 6 6 5.52 0.75
3 6 6 4.58 0.71
3 6 6 4.58 0.66
3 -6 6 6.06 0.75
3 -6 6 6.04 0.74
3 -6 6 4.64 0.72
-3 6 -7 1.26 0.56
3 -6 7 1.89 0.62
3 -6 7 0.85 0.41
3 6 7 1.12 0.58
3 6 7 1.8 0.61
3 6 7 1.83 0.52
3 -6 7 1.25 0.61
3 -6 7 1.22 0.57
3 -6 7 1.75 0.56
3 -6 7 1.82 0.6
-3 6 -8 1.39 0.52
-3 6 -8 1.9 0.45
3 -6 8 1.46 0.59
3 -6 8 0.78 0.39
3 6 8 1.51 0.56
3 6 8 1.82 0.54
3 -6 8 1.87 0.61
3 -6 8 2.01 0.57
3 -6 8 1.74 0.61
3 -6 8 0.76 0.51
3 -6 8 1.7 0.6
-3 6 -9 3.85 0.52
3 -6 9 4.6 0.63
3 -6 9 3.59 0.45
3 -6 9 4.91 0.63
3 6 9 4.78 0.61
3 -6 9 3.05 0.56
3 -6 9 4.1 0.59
3 -6 9 4.65 0.61
3 -6 9 4.63 0.61
3 -6 10 12.74 0.74
3 -6 10 11.56 0.74
3 -6 10 12.36 0.73
3 -6 10 12.42 0.74
3 -6 10 12.49 0.74
3 -6 10 11.82 0.6
3 -6 10 12.06 0.76
3 -6 11 16.27 0.74
3 -6 11 15.78 0.73
3 -6 11 15.06 0.6
-3 -7 10 2.18 0.29
-3 -7 9 50.56 1.5
-3 -7 9 51.65 1.58
-3 -7 9 51.36 1.61
3 7 -9 50.16 1.52
3 7 -9 52.39 1.59
3 7 -8 64.08 1.91
-3 -7 8 60.8 1.93
-3 -7 8 60.77 1.8
-3 -7 8 59.79 1.86
-3 -7 8 55.58 1.77
-3 7 8 63.96 1.84
3 7 -8 58.52 1.83
3 7 -7 72.12 2.18
-3 -7 7 69.99 2.21
-3 -7 7 72.24 2.07
-3 -7 7 64.16 2.03
3 -7 -7 63.72 1.96
-3 7 7 71.74 2.13
3 7 -7 72.71 2.13
-3 7 6 5.07 0.59
3 7 -6 5.14 0.64
-3 7 6 5.03 0.67
-3 -7 6 5.51 0.53
3 -7 -6 4.66 0.48
-3 -7 6 4.53 0.49
-3 -7 6 5.2 0.65
3 7 -5 1.56 0.53
3 7 -5 3.12 0.6
-3 7 5 1.84 0.62
-3 -7 5 1.77 0.42
3 -7 -5 1.48 0.44
-3 -7 5 1.44 0.56
3 7 -4 6.49 0.69
3 7 -4 5.24 0.55
-3 7 4 5.23 0.75
-3 -7 4 4.68 0.5
3 -7 -4 5 0.56
-3 7 4 6 0.68
3 7 -4 5.74 0.63
-3 7 4 5.56 0.64
3 7 -3 12.6 0.8
-3 7 3 12.43 0.97
3 -7 -3 11.52 0.76
-3 7 3 11.54 0.83
3 7 -3 12.1 0.79
-3 7 3 12.25 0.82
3 7 -3 11.71 0.84
3 7 -3 12.34 0.85
3 7 -2 20.15 1.05
-3 7 2 20.88 1.22
3 -7 -2 21.86 1.02
-3 7 2 20.6 1.1
-3 7 2 19.31 1.03
3 7 -2 20.49 1.01
3 7 -2 19.91 1.04
3 7 -2 20.47 1.06
-3 7 1 114.94 3.37
-3 7 1 114.34 3.34
3 7 -1 112.96 3.36
-3 7 1 114.26 3.51
3 -7 -1 111.19 3.29
3 -7 -1 116.18 3.42
-3 7 0 41.4 1.59
-3 7 0 41.17 1.68
-3 7 0 43.43 1.78
3 7 0 41.01 1.64
3 -7 0 41.61 1.56
3 -7 0 44.67 1.68
-3 7 -1 8.13 0.71
-3 7 -1 7.33 0.76
3 7 1 7.89 0.77
-3 7 -1 6.26 0.82
3 -7 1 5.8 0.57
3 -7 1 6.06 0.63
3 -7 1 6.43 0.71
-3 7 -2 -0.16 0.47
-3 7 -2 -0.54 0.53
3 7 2 -0.6 0.52
-3 7 -2 -0.05 0.6
3 -7 2 -0.37 0.43
3 -7 2 0.1 0.56
3 -7 2 -0.33 0.48
3 -7 2 0.05 0.53
-3 7 -3 0.54 0.47
-3 7 -3 0.4 0.59
-3 7 -3 0.2 0.46
3 -7 3 0.38 0.43
3 -7 3 -0.05 0.52
3 -7 3 -0.16 0.45
3 -7 3 0.4 0.47
-3 7 -4 14.98 0.81
-3 7 -4 15.28 0.85
3 -7 4 13.91 0.73
-3 7 -4 14.05 0.94
3 7 4 14.11 0.87
-3 7 -4 13.17 0.79
3 -7 4 13.9 0.81
3 -7 4 13.2 0.82
3 -7 4 14.9 0.95
3 -7 4 15.28 0.89
-3 7 -5 94.84 2.74
3 -7 5 89.94 2.63
-3 7 -5 98.67 2.85
3 7 5 94.99 2.75
-3 7 -5 85.92 2.59
3 -7 5 95.17 2.82
3 -7 5 91.63 2.71
3 -7 5 96.42 2.84
3 -7 5 93.76 2.72
3 -7 5 98.13 2.8
-3 7 -6 46.13 1.52
3 7 6 46.86 1.53
3 -7 6 45.19 1.6
3 -7 6 41.85 1.47
3 -7 6 46.66 1.54
3 -7 6 46.29 1.66
3 -7 6 44.89 1.62
3 -7 6 43.88 1.51
3 -7 6 49.17 1.61
-3 7 -7 8.73 0.52
-3 7 -7 7.59 0.6
3 -7 7 9.26 0.65
3 -7 7 7.75 0.56
3 -7 7 8.15 0.56
3 -7 7 8.12 0.56
3 -7 7 8.62 0.6
3 -7 8 14.69 0.7
3 -7 8 15.03 0.72
-3 7 -8 12.73 0.64
3 -7 8 13.24 0.65
3 -7 8 13.43 0.65
-3 8 3 6.76 0.52
3 8 -2 256.13 6.51
3 -8 -2 262.11 6.59
3 -8 -2 252.7 6.61
3 8 -1 57.75 1.69
-3 8 1 61.29 1.83
3 -8 -1 55.51 1.73
3 -8 -1 58.71 1.71
3 8 0 67.76 1.94
-3 8 0 70.15 2.03
3 -8 0 67.96 1.97
3 -8 0 69.61 2
-3 8 -1 21.55 0.78
3 8 1 21.07 0.82
-3 8 -1 21.1 0.89
3 -8 1 18.08 0.8
3 -8 1 17.86 0.76
3 -8 1 18.71 0.83
3 8 2 49.5 1.45
-3 8 -2 45.38 1.48
3 -8 2 45.12 1.44
3 -8 2 46.7 1.47
-3 8 -2 46.21 1.41
3 -8 3 1.14 0.32
-3 8 -3 0.95 0.34
-3 8 -4 0.7 0.27
4 0 -17 0.04 0.29
-4 0 17 0.27 0.28
-4 0 17 0.06 0.29
-4 0 16 47.54 1.6
4 0 -16 49.73 1.63
-4 0 16 50.69 1.62
-4 0 16 47.39 1.68
-4 0 16 47.68 1.68
-4 0 16 47.38 1.66
-4 0 15 -0.08 0.51
4 0 -15 -0.21 0.51
-4 0 15 -0.6 0.36
-4 0 15 0.05 0.59
-4 0 15 0.86 0.59
-4 0 15 -0.15 0.56
-4 0 14 3.24 0.65
4 0 -14 2.52 0.66
-4 0 14 2.16 0.5
-4 0 14 1.76 0.71
-4 0 14 3.13 0.78
-4 0 14 2.22 0.69
-4 0 13 0.29 0.51
-4 0 13 0.07 0.74
-4 0 13 1 0.62
4 0 -13 -0.06 0.62
-4 0 12 251.26 6.79
4 0 -12 251.68 8.74
4 0 -12 259.92 6.85
-4 0 12 248.52 7
-4 0 12 248.49 6.78
-4 0 11 0.99 0.61
-4 0 11 2.07 0.73
-4 0 11 0.43 1.04
4 0 -11 1.96 0.98
4 0 -11 1.43 0.65
4 0 -11 3.1 1.33
-4 0 11 1.84 0.79
-4 0 11 0.76 0.72
-4 0 11 0.71 0.63
-4 0 10 304.44 7.95
-4 0 10 295.38 8.04
-4 0 10 280.52 9.57
4 0 -10 304.04 9.81
4 0 -10 306.26 7.9
-4 0 10 290.08 7.82
-4 0 10 292.62 8.09
-4 0 10 301.21 8.04
-4 0 10 299.03 8.08
4 0 -10 296.8 9.14
4 0 -9 -0.14 0.68
-4 0 9 0.11 0.53
-4 0 9 0.37 0.61
4 0 -9 0.05 0.52
4 0 -9 1.95 0.94
-4 0 9 0.07 0.62
-4 0 9 -0.19 0.57
-4 0 9 -1.5 0.61
-4 0 9 0.73 0.53
4 0 -8 0.79 0.72
-4 0 8 0.42 0.52
-4 0 8 0.22 0.54
4 0 -8 1.22 0.54
4 0 -8 0.36 1.01
-4 0 8 0.36 0.57
-4 0 8 1.14 0.57
-4 0 8 1.02 0.61
-4 0 8 0.4 0.47
-4 0 8 0.99 1
4 0 -7 -0.12 0.66
-4 0 7 -0.1 0.52
-4 0 7 0.3 0.53
4 0 -7 -0.17 0.46
4 0 -7 0.49 0.96
-4 0 7 0.38 0.56
-4 0 7 0.05 0.54
-4 0 7 0.05 0.47
-4 0 7 0.04 0.43
-4 0 7 -0.15 0.94
4 0 -6 226.78 6.8
-4 0 6 233.32 6.04
4 0 -6 236.52 7.41
4 0 -6 220.06 5.95
-4 0 6 229.15 6.1
-4 0 6 223.19 5.98
-4 0 6 225.9 6.04
-4 0 6 228.47 7.2
4 0 -5 -0.19 0.61
-4 0 5 0.29 0.5
4 0 -5 1.14 0.47
4 0 -5 0.81 0.98
-4 0 5 -0.04 0.46
-4 0 5 0.38 0.86
-4 0 4 1857.86 45.36
4 0 -4 1851.05 45.48
4 0 -4 1809.12 44.87
-4 0 3 -0.44 0.89
4 0 -3 -0.58 0.93
4 0 -3 -0.33 0.61
4 0 -2 22.25 1.64
4 0 -2 22.14 1.32
-4 0 2 19.87 1.57
4 0 -1 0.08 0.57
4 0 -1 0.64 0.8
-4 0 1 -0.11 0.49
-4 0 1 0.31 0.78
4 0 0 447.49 12.37
4 0 0 467.92 12.06
-4 0 0 455.68 11.79
-4 0 0 461.09 12.36
4 0 1 -0.09 0.62
4 0 1 0.11 0.77
-4 0 -1 0.79 0.64
-4 0 -1 0.11 0.82
4 0 2 69.73 3.06
4 0 2 73.23 2.85
-4 0 -2 69.47 2.98
-4 0 -2 70.24 2.71
4 0 3 0.5 0.41
4 0 3 0.12 0.78
-4 0 -3 -0.12 0.86
-4 0 -3 1.06 0.7
-4 0 -4 2.69 0.86
4 0 4 3.96 1.08
4 0 4 4.06 0.54
4 0 5 -0.3 0.91
4 0 5 -0.15 0.39
4 0 5 -0.46 0.48
-4 0 -5 0.17 0.56
-4 0 -5 -0.39 0.81
4 0 6 164.52 6.17
4 0 6 154.1 4.58
4 0 6 163.83 4.49
4 0 6 168.24 5.97
4 0 6 163.16 4.54
-4 0 -6 173.8 5.82
4 0 6 167.73 4.56
4 0 7 0.55 0.52
4 0 7 -0.13 0.46
4 0 7 -0.61 1.08
4 0 7 0.06 0.57
4 0 7 -0.04 0.4
4 0 7 -0.1 0.5
4 0 7 0.19 0.9
4 0 7 -0.04 0.41
4 0 7 0.04 0.38
-4 0 -7 0.33 0.92
4 0 7 0.36 0.49
4 0 8 506.06 12.5
4 0 8 495.29 12.36
4 0 8 502.55 14.69
4 0 8 493.41 12.57
4 0 8 495.52 12.36
4 0 8 493.01 12.46
4 0 8 473.48 14.39
4 0 8 487.16 12.38
4 0 8 491.21 12.33
4 0 8 471.04 12.49
-4 0 -8 503.09 14.27
4 0 9 0.78 0.57
4 0 9 0.13 0.46
4 0 9 0.24 1.08
4 0 9 0.52 0.64
4 0 9 0.23 0.58
4 0 9 0.2 0.49
4 0 9 0.05 0.52
4 0 9 0.64 0.47
-4 0 -9 0.2 0.99
4 0 10 1879.04 43.79
4 0 10 1808.43 43.82
4 0 10 1827.34 43.72
4 0 10 1773.91 46.4
4 0 10 1740.38 43.88
4 0 10 1799.42 43.75
4 0 10 1781.28 43.67
-4 0 -10 1829.57 46.03
4 0 11 -0.5 1.13
4 0 11 -0.27 0.66
4 0 11 0.16 0.54
4 0 11 -0.06 0.59
-4 0 -11 0.65 1.07
4 0 11 0.61 0.62
-4 0 -11 1.3 1.19
4 0 12 -0.06 0.65
4 0 12 0.25 0.65
4 0 12 0.22 0.58
4 0 12 0.4 0.54
4 0 12 0.65 0.57
4 0 13 -0.1 0.52
4 0 13 -0.06 0.62
4 0 13 0.34 0.47
4 0 14 6.68 0.64
4 0 14 5.96 0.61
-4 0 -15 0.02 0.33
4 0 15 0.16 0.35
4 0 16 25.13 0.86
-4 1 17 6.03 0.4
-4 -1 17 7.01 0.45
-4 -1 17 6.68 0.42
-4 1 16 5.3 0.51
-4 -1 16 5.12 0.5
4 1 -16 4.64 0.51
4 -1 -16 4.29 0.49
-4 1 16 5.1 0.51
-4 1 16 4.79 0.4
-4 -1 16 4.07 0.58
-4 -1 16 5.76 0.6
-4 1 16 4.29 0.52
-4 1 16 4.81 0.55
-4 -1 16 4.52 0.54
-4 -1 15 57.14 1.89
-4 1 15 56.43 1.87
-4 1 15 53.26 1.8
-4 1 15 57.71 1.88
4 1 -15 55.42 1.89
4 -1 -15 56.63 1.9
-4 -1 15 55.45 2.04
-4 1 15 59.34 2.02
-4 -1 15 53.05 1.99
-4 1 15 55.13 1.97
-4 -1 15 55.98 2.01
-4 1 15 57.1 1.98
-4 -1 14 -0.14 0.54
-4 1 14 0.82 0.55
-4 1 14 0.24 0.45
4 1 -14 -0.19 0.55
4 -1 -14 0.24 0.52
-4 1 14 0.23 0.5
-4 1 14 -0.49 0.48
-4 1 14 0.24 0.61
-4 -1 14 0.35 0.58
-4 1 14 0.18 0.61
-4 1 14 0.4 0.62
-4 -1 13 23.45 1.22
-4 1 13 25.29 1.25
-4 1 13 22.29 1.14
4 1 -13 26.04 1.29
4 -1 -13 23.93 1.27
-4 1 13 24.41 1.38
-4 -1 13 23.59 1.36
-4 -1 13 25.46 1.43
-4 1 13 25.02 1.41
-4 -1 13 24.23 1.19
-4 1 12 237.64 6.35
-4 -1 12 235.84 6.34
-4 1 12 231.32 6.28
-4 1 12 231.1 8.21
-4 -1 12 220.8 8.07
4 -1 -12 224.13 7.89
4 1 -12 250.57 8.44
4 -1 -12 228.35 8.22
4 1 -12 242.08 6.42
4 -1 -12 233.79 6.38
-4 -1 12 225.24 6.58
-4 1 12 242.8 6.63
-4 -1 12 237.97 6.56
-4 -1 12 225.66 6.55
-4 -1 12 227.75 6.56
-4 1 12 237.53 6.35
-4 -1 12 234.49 6.39
-4 -1 11 956.59 23.98
-4 1 11 986.58 24.01
-4 1 11 954.98 23.95
-4 1 11 951.8 26.13
-4 -1 11 977.26 26.18
4 -1 -11 949.68 25.83
4 1 -11 989.36 26.32
4 -1 -11 957.36 26.23
4 1 -11 967.53 24.05
4 -1 -11 998.45 24.06
-4 -1 11 976.15 24.32
-4 1 11 973.27 24.28
-4 -1 11 971.86 24.19
-4 -1 11 979.25 24.26
-4 -1 11 1001.83 24.11
-4 1 11 978.86 24.06
-4 -1 11 984.98 24.26
-4 1 11 993.63 24.25
-4 1 10 97.17 3.06
-4 -1 10 95.75 3.05
-4 1 10 97.41 3.02
-4 1 10 92.54 4.38
-4 -1 10 99.93 4.53
4 -1 -10 103.13 4.43
4 1 -10 100.35 4.58
4 -1 -10 104.05 4.68
4 1 -10 97.45 3.08
4 -1 -10 97.32 3.1
-4 -1 10 99.88 3.3
-4 -1 10 95.75 3.16
-4 -1 10 101.39 3.29
-4 1 10 96.42 3.25
-4 -1 10 98.4 3.25
-4 1 10 97.45 3.13
-4 -1 10 99.71 3.18
-4 1 10 100.22 3.27
-4 1 9 18.52 1.11
-4 -1 9 17.22 1.13
-4 -1 9 17.51 1.13
-4 1 9 17.36 1.16
-4 1 9 17.72 0.98
-4 1 9 18.57 1.85
-4 -1 9 16.46 1.76
4 1 -9 15.81 1.84
4 -1 -9 17.07 1.86
4 1 -9 19.1 1.07
4 -1 -9 16.61 1.02
-4 1 9 17.87 1.04
-4 -1 9 17.42 1.01
-4 -1 9 16.66 1.15
-4 -1 9 15.46 1.06
-4 -1 9 19.2 1.17
-4 1 9 17.46 1.19
4 -1 -9 16.33 1.71
4 -1 -8 21.1 1.83
-4 -1 8 20.69 1.18
-4 -1 8 20.43 1.18
-4 1 8 20.27 1.17
-4 1 8 20.11 1.16
4 -1 -8 21.53 1.95
4 1 -8 18.07 1.84
4 1 -8 21.62 1.09
4 -1 -8 20.86 1.07
-4 -1 8 21.09 1.23
-4 1 8 20.23 1.25
-4 -1 8 19.09 1.07
-4 -1 8 21.46 1.19
-4 1 8 21.05 1.19
-4 1 8 20 1.03
-4 1 8 22.53 1.92
-4 -1 8 19.96 1.03
-4 -1 8 20.41 1.9
4 -1 -7 52.08 2.66
-4 1 7 45.85 1.78
-4 -1 7 43.35 1.73
-4 1 7 46.5 1.78
4 1 -7 52.46 2.84
4 -1 -7 47.77 2.74
4 1 -7 47.51 1.7
4 -1 -7 46.88 1.68
-4 -1 7 46.51 1.82
-4 1 7 46.53 1.87
-4 -1 7 46.34 1.68
-4 -1 7 44.42 1.78
-4 1 7 45.94 1.81
-4 -1 7 43.87 1.62
-4 -1 7 48.34 2.65
-4 1 7 47.93 1.67
-4 1 7 46.35 2.63
-4 1 6 2.08 0.93
-4 -1 6 2.21 0.93
4 -1 -6 3.06 0.91
-4 -1 6 2.35 0.61
-4 1 6 3.13 0.55
-4 -1 6 2.55 0.54
4 1 -6 2.47 0.52
4 -1 -6 3.15 0.54
4 1 -6 1.78 1.01
4 -1 -6 3.24 1.09
-4 -1 6 2.64 0.55
-4 1 6 1.84 0.59
-4 -1 6 2.93 0.56
-4 1 6 2.8 0.59
4 1 -6 2.36 0.42
4 1 -5 -0.06 0.38
4 -1 -5 -0.61 0.8
-4 -1 5 -0.26 0.46
-4 1 5 -0.09 0.46
-4 -1 5 0.16 0.45
-4 1 5 -0.04 0.43
4 1 -5 -0.11 0.41
4 -1 -5 0.04 0.39
4 1 -5 0.14 0.8
4 -1 -5 -0.13 0.87
-4 -1 5 -0.51 0.46
-4 1 5 0.28 0.49
-4 -1 5 -0.24 0.4
-4 1 5 0.13 0.48
-4 1 5 0.9 0.88
-4 -1 5 -0.26 0.83
4 -1 -4 30.83 1.89
4 1 -4 30.26 1.33
-4 1 4 27.86 1.22
4 1 -4 29.25 1.92
4 -1 -4 32.47 2.02
4 1 -4 28.56 1.14
4 -1 -4 26.65 1.12
-4 1 4 28.87 1.27
-4 -1 4 29.7 1.88
-4 1 4 30.55 1.89
4 1 -3 310.05 8.67
4 -1 -3 304.93 8.63
4 -1 -3 299.72 8.44
4 1 -3 277.62 7.62
-4 -1 3 286.33 8.48
-4 1 3 298.96 8.53
4 1 -2 140.72 4.67
4 -1 -2 134.17 4.57
4 1 -2 125.52 3.78
4 -1 -2 146.31 4.68
-4 -1 2 133.01 4.57
-4 1 2 129.76 4.55
-4 1 1 340.87 8.97
4 -1 -1 333.23 9.25
4 1 -1 338.51 9.26
4 -1 -1 333.42 9.15
4 1 -1 307.36 8.38
-4 -1 1 325.17 9.17
-4 1 1 311.85 9.13
-4 1 0 8.89 1.03
4 -1 0 7.05 1
4 1 0 7.08 1.09
4 -1 0 7.55 1.12
-4 -1 0 6.72 1.08
-4 1 0 8.56 1.15
-4 1 -1 50.89 2.26
-4 -1 -1 43.68 1.73
4 1 1 44.14 2.34
4 -1 1 46.3 2.34
4 -1 1 47.3 2.35
-4 1 -1 53.26 2.44
-4 -1 -1 46.68 2.32
-4 1 -2 129.93 4.46
-4 -1 -2 131.92 4.03
-4 -1 -2 139.76 4.67
-4 1 -2 127.9 4.55
4 1 2 132.87 4.63
4 -1 2 127.64 4.58
4 -1 2 128.74 4.57
4 -1 3 1044.85 26.25
4 1 3 1053.82 27.07
4 -1 3 1055.08 27.06
4 -1 3 1118.95 27.08
4 -1 3 1044.95 25.73
4 1 3 1059.6 25.75
4 -1 3 1048.86 25.73
-4 -1 -3 1135.05 27.11
-4 1 -3 1112.25 27.05
-4 1 -3 1092.64 26.94
-4 -1 -3 1047.74 26.47
4 1 4 68.43 2.15
4 -1 4 63.52 2.11
4 -1 4 67.51 2.43
4 -1 4 72.27 3.25
4 1 4 69.86 3.2
4 -1 4 68.66 2.18
4 -1 4 68.94 2.18
4 1 4 68.96 2.17
-4 1 -4 73.38 3.14
-4 -1 -4 69.98 2.86
-4 1 -4 75.33 3.05
4 1 5 11.11 0.67
4 -1 5 12.2 0.72
4 -1 5 11.71 0.79
4 -1 5 10.02 1.32
4 1 5 10.21 1.32
4 -1 5 11.11 0.69
4 -1 5 11.56 0.7
4 -1 5 11.68 0.72
-4 -1 -5 9.72 1.23
4 -1 5 10.08 0.76
4 1 5 11.1 0.78
-4 1 -5 11.28 1.19
-4 1 -5 9.04 1.4
-4 -1 -6 64.51 3.04
4 1 6 63.42 2.15
-4 1 -6 60.38 3.13
4 -1 6 66.31 2.17
-4 1 -6 63.47 2.78
4 1 6 61.07 2.11
4 -1 6 63.03 2.15
4 -1 6 63.15 2.15
4 1 6 64.63 2.14
4 1 6 66.54 2.16
4 1 6 62.07 2.17
4 -1 6 58.37 2.17
4 -1 6 65.55 2.06
4 -1 6 66.87 3.32
4 1 6 63.37 3.3
4 -1 6 62.6 2.01
4 -1 6 63.63 2.06
4 -1 6 64.02 2.15
4 1 6 61.48 2.01
4 -1 6 64.67 2.07
4 -1 7 120.72 3.54
4 1 7 121.02 3.56
-4 1 -7 123.02 4.92
-4 -1 -7 123.03 4.75
4 1 7 119.27 3.52
4 -1 7 112.84 3.52
4 1 7 120.37 3.52
4 1 7 110.06 4.95
4 -1 7 117.14 5.06
4 1 7 115.26 3.57
4 -1 7 114.85 3.59
4 -1 7 121.34 3.46
4 -1 7 128.93 5.06
4 1 7 116.72 4.93
4 -1 7 117.12 3.37
4 -1 7 118.91 3.46
4 1 7 116.24 3.42
4 -1 7 119.95 3.56
4 -1 7 122.76 3.47
4 1 8 0.82 0.54
4 -1 8 0.26 0.51
4 -1 8 -0.2 0.49
4 -1 8 0.74 0.62
4 1 8 0.1 0.49
4 1 8 -0.22 1.1
4 -1 8 0.66 1.14
4 1 8 0.6 0.6
4 -1 8 0.3 0.57
4 -1 8 0.15 0.49
4 1 8 0.23 0.44
4 -1 8 0.81 1.11
4 1 8 -0.61 1.15
4 -1 8 0.17 0.39
4 -1 8 0.2 0.48
-4 -1 -8 -0.36 0.92
4 -1 8 0.17 0.57
4 1 8 0.06 0.55
-4 1 -8 1.75 1.11
4 -1 9 110.15 3.38
4 -1 9 105.43 3.28
4 1 9 103.06 3.26
4 -1 9 114.5 3.35
4 -1 9 110.19 3.43
4 1 9 101.47 4.91
4 -1 9 108.58 5.04
4 1 9 106.53 3.41
4 -1 9 103.85 3.42
4 -1 9 110.93 3.33
4 1 9 104.47 3.22
4 -1 9 102.71 3.12
4 -1 9 109.32 3.31
-4 1 -9 110.65 4.89
-4 -1 -9 109.83 4.74
-4 1 -10 76.16 4.03
-4 -1 -10 73.85 3.9
4 -1 10 80.91 2.66
4 1 10 74.6 2.52
4 -1 10 74.27 2.47
4 1 10 70.67 4.08
4 -1 10 66.89 4.05
4 1 10 73.12 2.66
4 -1 10 71.03 2.65
4 1 10 75.14 2.59
4 -1 10 78.23 2.62
4 1 10 75.97 2.51
4 -1 10 76.48 2.58
4 -1 10 83.8 2.74
4 -1 10 75.25 2.57
4 1 11 61.68 2.11
4 -1 11 55.43 2.17
4 -1 11 60.23 2.03
4 1 11 63.22 2.25
4 1 11 58.01 2.3
4 -1 11 63 2.32
4 1 11 61.55 2.21
4 -1 11 58.87 2.18
4 1 11 57.58 2.1
4 -1 11 59.67 2.18
4 -1 11 58.96 2.18
4 -1 11 60.62 2.29
4 1 12 24.79 1.15
4 -1 12 26.26 1.29
4 1 12 25.14 1.26
4 1 12 25.88 1.32
4 1 12 23.83 1.31
4 -1 12 25.1 1.35
4 1 12 22.48 1.21
4 -1 12 24.52 1.28
4 -1 12 21.47 1.2
4 -1 12 24.6 1.28
4 1 13 0.43 0.56
4 -1 13 0.69 0.58
4 -1 13 0.54 0.55
4 1 13 0.9 0.5
4 1 13 0.49 0.5
-4 1 -13 0.6 0.54
4 -1 13 0.73 0.55
4 1 14 3.72 0.5
4 -1 14 4.34 0.57
4 1 14 3.2 0.54
4 -1 14 3.33 0.58
-4 1 -14 2.86 0.52
4 -1 14 3.29 0.52
4 1 15 79.45 2.26
4 -1 15 81.96 2.3
4 -1 15 77.34 2.28
-4 1 -15 81.2 2.26
4 -1 15 80.87 2.25
4 -1 16 6.37 0.4
-4 -2 17 20.25 0.68
-4 -2 16 3.16 0.36
4 -2 -16 3.69 0.36
-4 2 16 3.41 0.37
-4 -2 16 3.54 0.49
-4 2 16 3.61 0.44
-4 -2 16 3.34 0.46
4 -2 -15 7.8 0.59
-4 2 15 8.44 0.63
-4 2 15 7.6 0.6
-4 -2 15 8.12 0.73
-4 2 15 8.25 0.7
-4 2 15 8.38 0.59
-4 -2 15 6.54 0.57
-4 2 14 29.85 1.2
-4 -2 14 26.85 1.16
-4 2 14 27.5 1.16
-4 2 14 27.72 1.21
-4 2 14 26.66 1.22
4 2 -14 28.57 1.21
4 -2 -14 28.1 1.18
-4 -2 14 25.64 1.27
-4 -2 14 27.81 1.4
-4 2 14 25.83 1.3
-4 -2 14 26.01 1.37
-4 2 14 28.31 1.36
-4 2 13 0.8 0.51
-4 -2 13 0.18 0.48
-4 2 13 0.75 0.54
-4 2 13 0.39 0.47
-4 2 13 0.77 0.6
4 2 -13 0.52 0.52
4 -2 -13 1.02 0.56
-4 -2 13 0.26 0.67
-4 2 13 0.73 0.62
-4 -2 13 0.06 0.67
-4 -2 13 -0.41 0.6
-4 2 13 0.25 0.64
-4 2 13 0.91 0.67
-4 -2 12 1.35 0.47
-4 2 12 0.39 0.51
-4 -2 12 0.68 0.51
-4 2 12 0.23 0.46
-4 2 12 1.04 0.6
4 2 -12 1.03 0.61
4 -2 -12 1.16 0.58
-4 -2 12 0.78 0.73
-4 2 12 0.68 0.74
-4 -2 12 0.62 0.75
-4 -2 12 0.12 0.59
-4 2 12 1.62 0.69
-4 -2 12 1.57 0.66
-4 -2 12 0.62 0.71
-4 2 12 0.87 0.54
-4 2 11 56.02 1.97
-4 -2 11 50.55 1.93
-4 2 11 53.45 1.91
-4 2 11 53.63 2.05
-4 2 11 49.51 3.09
-4 -2 11 47.41 3.06
4 -2 -11 51.11 3.24
-4 -2 11 50.67 3.35
4 2 -11 60.12 3.41
4 -2 -11 52.59 3.22
4 2 -11 55.77 2.03
4 -2 -11 56.64 2.02
-4 -2 11 54.59 2.22
-4 2 11 53.93 2.19
-4 -2 11 55.87 2.11
-4 -2 11 53.67 2.24
-4 -2 11 52.32 2.07
-4 2 11 54.03 2.03
-4 -2 11 48.93 2.18
-4 2 11 53.79 2.18
-4 -2 10 33.03 1.69
-4 -2 10 34.18 1.62
-4 2 10 33.02 1.57
-4 2 10 36.98 1.74
-4 2 10 28.42 2.39
-4 -2 10 27.43 2.37
-4 2 10 34.16 1.58
4 -2 -10 34.82 2.65
4 2 -10 33.58 2.58
4 -2 -10 24.95 2.32
4 2 -10 36.38 1.52
4 -2 -10 35.66 1.52
-4 -2 10 36.92 1.72
-4 2 10 38.48 1.78
-4 -2 10 33.19 1.58
-4 -2 10 36.23 1.72
-4 2 10 37.74 1.5
-4 -2 10 36.7 1.5
-4 -2 9 0.37 0.66
-4 -2 9 0.07 0.64
-4 2 9 0.47 0.56
-4 2 9 0.07 0.67
-4 2 9 0.37 0.92
-4 -2 9 0.93 0.97
4 2 -9 0.3 0.49
4 -2 -9 0.2 0.52
4 2 -9 -0.76 0.92
4 -2 -9 0.19 0.96
-4 2 9 0.71 0.51
-4 -2 9 0.62 0.53
-4 -2 9 0.67 0.65
-4 2 9 0.07 0.68
-4 -2 9 0.28 0.54
-4 -2 9 0.59 0.62
-4 2 9 -0.13 0.69
4 -2 -9 -0.2 0.88
-4 2 8 1.28 0.51
-4 -2 8 0.98 0.52
-4 -2 8 1.22 0.63
-4 2 8 0.63 0.6
-4 2 8 0.67 0.62
4 -2 -8 1.89 1.06
4 2 -8 0.83 0.51
4 -2 -8 0.5 0.46
4 2 -8 0.89 0.93
4 -2 -8 -0.87 0.86
-4 -2 8 0.06 0.61
-4 -2 8 0.65 0.47
-4 -2 8 0.96 0.58
-4 2 8 1.07 0.63
4 2 -8 0.5 0.41
-4 2 7 57.2 2.86
-4 -2 7 51.86 2.78
-4 2 7 54.27 1.81
-4 -2 7 49.59 1.78
-4 -2 7 50.85 1.96
-4 2 7 51.88 1.97
-4 2 7 49.81 1.98
4 2 -7 51.82 1.77
4 -2 -7 56.48 3.05
4 2 -7 47.43 2.81
4 -2 -7 53.64 2.87
4 2 -7 51.99 1.83
4 -2 -7 52.65 1.83
-4 -2 7 55.78 2.04
-4 -2 7 54.18 1.98
-4 2 7 55.44 2.03
4 2 -7 52.18 1.77
-4 2 7 55.01 1.85
-4 -2 6 5.94 0.71
-4 2 6 4.55 0.66
4 -2 -6 5.19 1.22
-4 2 6 5.03 0.56
-4 2 6 4.73 1.03
-4 -2 6 6.29 1.17
4 2 -6 4.92 0.56
4 -2 -6 4.33 0.59
4 2 -6 3.29 1.04
4 -2 -6 5.17 1.07
-4 -2 6 6.03 0.69
-4 2 6 5.53 0.75
-4 -2 6 4.94 0.63
-4 2 6 4.78 0.71
4 2 -6 4.44 0.56
-4 2 5 673.72 16.72
-4 -2 5 671.86 16.68
-4 2 5 674.26 16.69
4 -2 -5 655.09 18.16
-4 2 5 700.8 17.91
-4 -2 5 692.81 17.92
4 2 -5 702.04 18.07
4 -2 -5 694 18.02
4 2 -5 664.41 16.55
4 -2 -5 662.95 16.54
-4 -2 5 663.98 16.64
-4 2 5 690.05 16.8
-4 -2 5 671.04 16.64
-4 2 5 677.73 16.74
4 2 -5 673.62 16.57
-4 2 4 316.05 7.83
-4 -2 4 296.3 7.72
-4 2 4 304.84 7.76
4 2 -4 310.65 8.93
4 -2 -4 313.78 8.92
4 -2 -4 298.75 9.08
-4 -2 4 300.45 8.8
-4 2 4 301.81 8.79
4 2 -4 292.45 7.63
4 -2 -4 291.13 7.62
-4 2 4 300.37 7.8
4 2 -4 304.28 7.69
-4 2 3 43.28 1.56
4 -2 -3 42.12 2.21
4 2 -3 44.51 2.28
4 -2 -3 45.81 2.48
-4 -2 3 41.88 2.21
-4 2 3 41.63 2.17
4 2 -3 39.6 1.42
-4 2 3 41.05 1.54
4 2 -3 42.33 1.49
4 -2 -2 -0.39 0.82
4 2 -2 0.68 0.75
4 -2 -2 0.34 0.74
-4 2 2 0.62 0.45
4 2 -2 0.11 0.39
-4 -2 2 0.98 0.78
-4 2 2 0.11 0.79
-4 -2 1 137.82 4.6
-4 2 1 135.27 4.56
-4 2 1 135.74 4.75
4 2 -1 130.15 3.68
4 2 -1 136.11 4.61
4 -2 -1 135.63 4.6
4 -2 -1 140.4 4.84
-4 -2 0 132.42 4.5
-4 2 0 134.51 4.5
-4 2 0 125.93 4.57
4 2 0 129.71 4.49
4 -2 0 129.39 4.48
4 -2 0 132.25 4.72
-4 -2 -1 191.24 5.92
-4 2 -1 186.87 5.9
4 2 1 183.81 5.93
4 -2 1 184.21 5.94
4 -2 1 189.34 6.16
-4 2 -1 185 6.06
4 2 1 188.28 4.96
4 -2 2 36.68 1.34
4 2 2 38.45 2.1
4 -2 2 41.09 2.14
-4 -2 -2 37.21 2.08
-4 2 -2 40.57 2.1
4 2 2 37.26 1.33
4 -2 2 36.87 1.34
4 -2 2 36.69 1.37
-4 2 -2 38.37 2.22
4 -2 3 0.07 0.41
4 -2 3 0.11 0.61
4 -2 3 -0.13 0.68
4 2 3 -0.26 0.74
-4 -2 -3 -0.37 0.83
-4 2 -3 0.12 0.74
4 2 3 0.14 0.41
4 -2 3 -0.03 0.4
4 -2 3 0.15 0.4
-4 2 -3 1.42 0.9
-4 2 -3 0.56 0.93
-4 -2 -4 0.2 0.6
-4 2 -4 -0.58 0.83
4 -2 4 0.08 0.42
4 2 4 0.24 0.41
-4 2 -4 0.75 0.9
-4 2 -4 0.13 0.71
-4 -2 -4 0.54 0.86
4 2 4 0.43 0.43
4 2 4 1.4 0.89
4 -2 4 0.4 0.38
4 -2 4 0.44 0.55
4 -2 4 0.14 0.85
4 -2 4 -0.33 0.45
4 -2 4 -0.08 0.42
4 -2 4 0.08 0.42
4 -2 5 222.85 5.81
4 2 5 221.79 5.81
-4 2 -5 223.5 7.35
-4 -2 -5 212.96 6.72
-4 2 -5 213.66 5.79
-4 2 -5 213.71 7.03
4 -2 5 228.16 5.88
-4 -2 -5 232.83 7.21
-4 2 -5 227.07 7.1
4 2 5 207.57 5.82
4 2 5 214.4 5.83
4 2 5 211.28 5.76
4 2 5 218.87 5.87
4 2 5 215.44 5.86
4 -2 5 220.72 5.78
4 -2 5 211.61 6.59
4 -2 5 215.5 7.13
4 2 5 227.56 7.22
4 -2 5 216.87 5.8
4 -2 5 215.62 5.82
4 -2 5 219.01 5.71
4 -2 5 224.19 5.81
-4 -2 -6 0.28 0.75
-4 2 -6 0.76 0.83
4 -2 6 0.28 0.47
4 2 6 -0.23 0.49
-4 2 -6 -0.54 1.13
4 -2 6 -0.27 0.57
-4 2 -6 0.05 0.5
4 2 6 0.09 0.44
4 -2 6 -0.05 0.55
4 2 6 -0.04 0.43
4 2 6 0.1 0.5
4 2 6 0.46 0.53
4 -2 6 -0.17 0.8
4 2 6 0.17 0.86
4 -2 6 0.68 0.48
4 2 6 0.3 0.48
4 -2 6 0.23 0.43
4 -2 6 0.51 0.37
4 -2 6 0.43 0.47
4 -2 6 -0.09 0.5
-4 2 -7 2.47 0.96
-4 -2 -7 3.17 1.01
4 -2 7 1.79 0.55
4 2 7 2.02 0.52
-4 2 -7 1.36 1.13
4 -2 7 2.3 0.65
4 2 7 2.65 0.59
-4 2 -7 2.82 0.61
4 -2 7 2.96 0.66
4 2 7 1.49 0.52
4 2 7 2.92 0.55
4 2 7 1.94 0.58
4 -2 7 2.1 0.61
4 -2 7 2.79 1.08
4 2 7 2.77 1.08
4 -2 7 2.15 0.57
4 2 7 1.73 0.57
4 -2 7 1.78 0.43
4 -2 7 3.66 0.62
4 -2 7 3.88 0.62
-4 2 -8 95.04 4.55
-4 -2 -8 98.57 4.31
-4 2 -8 101.52 3.16
-4 2 -8 102.49 4.17
4 -2 8 101.36 3.19
4 2 8 98 3.05
4 -2 8 99.34 3.18
4 2 8 100.2 3.16
4 2 8 99.03 3.06
4 2 8 96.97 3.04
4 2 8 99.52 3.16
4 2 8 100.98 3.13
4 2 8 98.76 3.16
4 -2 8 97.4 3.17
4 -2 8 105.42 3.17
4 -2 8 101.9 3.09
4 -2 8 99.88 3.16
4 -2 8 104.64 3.18
-4 2 -9 228.69 8.15
-4 -2 -9 238.01 7.92
-4 2 -9 235.29 6.34
4 -2 9 232.17 6.35
4 -2 9 240.68 6.4
4 2 9 230.44 6.32
4 2 9 225.1 6.22
4 2 9 234.04 6.23
4 2 9 233.48 6.35
4 2 9 236.19 6.3
4 2 9 227.65 6.36
4 -2 9 219.72 6.34
4 -2 9 236.35 6.36
4 -2 9 227.28 6.24
4 -2 9 233.78 6.36
4 -2 9 230.62 6.35
-4 2 -10 405.91 13
-4 -2 -10 403.59 12.67
-4 2 -10 439.95 11.07
4 -2 10 424.4 11.01
4 2 10 449.46 11.07
4 2 10 421.83 10.89
4 2 10 432.56 10.93
4 2 10 424.6 10.98
4 2 10 444.89 11.08
4 -2 10 419.56 11.08
4 -2 10 434.44 11.09
4 -2 10 427.3 10.96
-4 -2 -10 415.93 12.76
-4 2 -10 396.16 12.66
4 -2 10 435.24 11.12
4 -2 10 437.28 11.1
-4 2 -11 55.86 2.07
4 2 11 55.09 2.03
4 2 11 53.62 1.86
4 2 11 55.46 1.94
4 2 11 54.27 1.95
4 2 11 54.16 2.03
4 -2 11 55.16 1.99
4 -2 11 52.58 2.07
4 -2 11 56.9 2.1
4 -2 11 53.65 2.08
-4 2 -12 15.45 1.02
4 2 12 14.99 0.95
4 2 12 15 0.87
4 2 12 16.24 1
4 -2 12 13.57 0.96
4 -2 12 15.86 1.03
4 -2 12 14.07 0.99
4 -2 12 14.35 1.01
4 2 13 4 0.57
-4 2 -13 3.27 0.61
4 -2 13 3.39 0.61
4 -2 13 2.66 0.59
4 -2 13 2.46 0.61
4 -2 13 3.17 0.61
4 2 13 2.34 0.45
4 2 13 3.1 0.54
4 2 14 5.01 0.53
4 -2 14 5.92 0.59
4 -2 14 6.21 0.59
-4 2 -14 5.71 0.59
4 -2 15 36.19 1.15
-4 2 -15 34.35 1.15
-4 -3 16 0.71 0.24
-4 3 16 1.23 0.26
-4 3 15 7.9 0.58
-4 3 15 8.4 0.58
-4 -3 15 7.67 0.66
-4 -3 15 7.49 0.65
-4 -3 15 7.9 0.63
-4 -3 14 3.88 0.43
-4 3 14 5.18 0.6
-4 3 14 4.27 0.58
-4 -3 14 4.76 0.68
-4 -3 14 4.08 0.67
-4 -3 14 4.35 0.55
-4 3 14 4.28 0.61
-4 -3 13 42.81 1.47
4 -3 -13 41.33 1.45
-4 3 13 43.21 1.65
-4 3 13 42.44 1.66
-4 -3 13 43.48 1.8
-4 -3 13 42.99 1.65
-4 -3 13 44.92 1.8
-4 3 13 44.5 1.73
-4 -3 12 326.08 8.3
-4 -3 12 312.95 8.18
4 -3 -12 319.62 8.18
-4 3 12 324.15 8.44
-4 -3 12 325.61 8.59
-4 -3 12 304.04 8.35
-4 -3 12 331.75 8.59
-4 -3 12 324.44 8.4
-4 3 12 323.98 8.29
-4 -3 12 324.8 8.57
-4 -3 11 170.84 4.57
-4 3 11 165.78 4.53
-4 3 11 173.32 4.81
4 3 -11 157.43 4.55
4 -3 -11 162.6 4.53
-4 -3 11 170.33 4.95
-4 -3 11 162.6 4.72
-4 -3 11 172.69 4.94
-4 -3 11 162.65 4.8
-4 3 11 169.37 4.72
-4 -3 11 167.65 4.94
-4 -3 10 65.33 2.15
-4 3 10 63.98 2.11
-4 -3 10 62.73 2.38
-4 3 10 69.65 2.38
-4 -3 10 67.34 2.51
-4 3 10 69.89 2.52
-4 3 10 63.76 2.37
4 -3 -10 63.6 3.72
-4 -3 10 58.65 3.54
4 3 -10 66.24 2.17
4 -3 -10 65.42 2.14
-4 -3 10 68.4 2.52
-4 -3 10 63.72 2.27
-4 -3 10 64.26 2.45
4 3 -10 64.44 2.1
-4 3 9 32.51 1.31
-4 -3 9 33.99 1.35
-4 3 9 33.5 1.56
-4 -3 9 34.09 1.66
-4 3 9 31.9 1.61
-4 3 9 31.99 2.25
4 -3 -9 30.95 2.58
-4 -3 9 30.96 2.47
4 3 -9 29.88 2.25
4 3 -9 32.68 1.35
4 -3 -9 31.97 1.33
-4 -3 9 33.39 1.6
-4 -3 9 31.65 1.6
4 3 -9 34.49 1.38
-4 -3 8 8.44 0.68
-4 3 8 8.67 0.7
-4 3 8 8.81 0.94
-4 -3 8 9.61 0.95
-4 3 8 7.76 0.86
4 3 -8 7.65 0.71
-4 3 8 7.94 1.24
-4 -3 8 10.9 1.38
4 -3 -8 7.88 1.53
-4 -3 8 7.73 1.59
-4 -3 8 8.24 0.88
4 3 -8 9.96 1.35
4 3 -8 8.35 0.68
4 -3 -8 9.41 0.7
-4 -3 8 10.03 0.94
-4 -3 8 9.93 0.91
-4 3 8 7.85 0.92
4 3 -8 8.77 0.74
-4 3 7 48.51 1.83
4 3 -7 46.73 1.77
-4 3 7 51.35 1.69
-4 3 7 46.45 1.91
4 3 -7 48.38 1.77
-4 3 7 43.86 2.56
-4 -3 7 43.04 2.56
-4 -3 7 49.44 3.09
4 3 -7 49.19 2.71
4 -3 -7 42.2 2.57
4 3 -7 49.98 1.7
-4 -3 7 51.61 1.96
-4 -3 7 49.81 1.93
-4 3 7 46.51 1.96
-4 3 7 44.59 1.9
-4 -3 7 51.33 1.97
-4 3 7 52.06 1.99
-4 3 6 2.14 0.57
4 3 -6 1.49 0.57
-4 -3 6 1.77 0.84
-4 3 6 0.66 0.73
-4 3 6 1.63 0.57
4 3 -6 1.35 0.5
4 3 -6 1.56 0.74
4 -3 -6 3.25 0.94
-4 -3 6 1.32 1.02
4 3 -6 1.5 0.4
-4 -3 6 2 0.55
-4 -3 6 1.71 0.58
-4 3 6 1.43 0.58
-4 -3 6 2.16 0.65
4 3 -5 155.04 4.25
-4 3 5 156.19 4.27
-4 -3 5 157.09 5.2
-4 3 5 159.16 5.18
-4 3 5 155.97 4.3
4 3 -5 146.15 4.23
4 3 -5 153.09 5.24
4 -3 -5 152.04 5.22
-4 -3 5 138 5.42
4 3 -5 146.27 4.06
-4 -3 5 145.89 4.21
-4 -3 5 151.29 4.26
-4 3 5 152.35 4.35
-4 -3 5 143.97 4.28
-4 3 5 150.72 4.33
-4 3 4 18.65 1.44
-4 -3 4 13.86 1.31
4 3 -4 16.46 0.91
-4 3 4 16.41 0.96
4 3 -4 14.78 0.93
4 3 -4 18.29 1
4 3 -4 16.78 1.03
4 3 -4 12.47 1.28
-4 -3 4 15.59 1.52
4 -3 -4 15.43 1.39
4 3 -4 13.59 0.76
4 3 -4 15.79 0.95
-4 3 4 17.39 0.97
-4 -3 4 16.11 0.94
-4 3 4 16.4 1.01
-4 3 4 18.49 1.03
4 3 -3 141.71 3.88
4 3 -3 142.32 3.93
4 3 -3 133.35 3.94
4 3 -3 130.05 3.94
-4 -3 3 144.58 4.73
-4 3 3 135.67 4.62
4 3 -3 137.32 4.69
4 -3 -3 130.92 4.63
-4 3 3 138.69 3.96
-4 -3 3 137.29 3.87
-4 3 3 138.84 3.92
4 3 -3 133.89 3.88
-4 3 3 140.24 3.92
-4 3 2 11.66 0.82
4 3 -2 13.1 0.84
-4 -3 2 12.43 1.22
-4 3 2 11.38 1.13
4 3 -2 12.82 1.2
4 -3 -2 12.51 1.22
4 -3 -2 10.64 0.81
4 3 -2 13.01 0.82
-4 3 2 11.19 0.8
4 -3 -1 0.79 0.95
4 3 -1 0.53 0.56
4 -3 -1 0.86 0.67
-4 -3 1 -0.1 0.73
-4 3 1 -0.2 0.68
4 3 -1 0.18 0.45
4 3 -1 0.23 0.48
-4 3 1 0.3 0.46
4 -3 -1 0.52 0.46
4 3 0 9.84 0.75
4 3 0 12.07 0.85
4 3 0 12.75 0.8
4 3 0 11.34 0.82
-4 -3 0 9.8 1.13
-4 3 0 10.39 1.11
4 -3 0 7.93 1.26
4 3 0 12.09 1.13
4 -3 0 9.46 1.07
4 3 0 10.61 0.76
-4 3 0 10.08 1.42
-4 3 0 9.4 0.76
4 -3 0 12.05 0.82
-4 3 0 10.28 0.72
4 3 1 150.27 4.27
4 3 1 154.27 4.3
4 3 1 147.93 4.27
4 3 1 153.57 4.27
4 3 1 159.54 4.32
4 3 1 154.17 4.35
4 3 1 152.97 4.34
-4 -3 -1 159.93 5.07
-4 3 -1 157.75 5.04
4 3 1 155.85 5.09
4 -3 1 159.31 5.13
4 -3 1 156.89 5.63
4 -3 1 156.43 4.31
-4 3 -1 152.12 4.2
-4 3 -1 148.9 4.27
-4 3 -1 160.71 5.75
4 3 1 157.51 4.26
-4 3 -2 64.85 2.19
4 3 2 65.48 2.14
-4 3 -2 72.4 3.43
-4 3 -2 61.12 3.3
4 3 2 66.68 2.19
4 3 2 69.91 2.24
4 3 2 66.23 2.22
4 3 2 68.17 2.25
4 3 2 67.54 2.16
4 3 2 67.06 2.22
4 3 2 67.13 2.25
-4 -3 -2 68.43 2.88
-4 3 -2 68.15 2.87
4 -3 2 68.87 2.25
4 -3 2 68.03 2.16
4 -3 2 72.1 3.27
4 -3 2 67.72 2.92
4 3 2 66.77 2.9
4 -3 2 63.55 3.3
4 -3 2 67.37 2.22
4 -3 2 65.88 2.21
-4 3 -3 87.51 3.96
-4 3 -3 90.41 2.72
-4 3 -3 86.99 3.98
-4 -3 -3 83.74 3.42
-4 3 -3 87.33 3.43
4 -3 3 85.66 2.6
4 -3 3 88.31 2.76
4 3 3 80.7 2.69
4 3 3 82.29 2.74
4 3 3 85.63 2.71
4 3 3 84.17 2.64
4 3 3 88.73 2.76
4 3 3 85.71 2.62
4 3 3 85.36 2.69
4 3 3 91.37 2.74
4 -3 3 87.53 2.66
4 -3 3 84.54 3.69
4 -3 3 88.24 3.54
4 3 3 85.22 3.48
4 -3 3 89.9 3.95
4 -3 3 89.53 2.74
4 -3 3 90.03 2.7
4 -3 3 86.28 2.69
4 3 4 47.57 1.64
-4 3 -4 52.68 2.99
-4 3 -4 48.83 1.81
-4 3 -4 51.46 2.93
-4 -3 -4 50.49 2.52
4 -3 4 48.19 1.74
-4 3 -4 48.89 2.48
4 -3 4 47.97 1.88
4 3 4 50.9 1.86
4 3 4 47.68 1.79
4 3 4 49.76 1.74
4 3 4 46.01 1.65
4 3 4 46.7 1.8
4 3 4 49.26 1.77
4 3 4 47.58 1.78
4 -3 4 49.44 1.78
4 -3 4 54.24 2.78
4 -3 4 50.49 2.58
4 3 4 41.86 2.42
4 -3 4 49.75 2.88
4 -3 4 51.24 1.86
4 -3 4 49.97 1.83
4 -3 4 48.45 1.79
4 -3 4 47.65 1.79
4 3 5 137.92 3.83
-4 3 -5 140.46 5.56
-4 3 -5 136.81 3.99
-4 3 -5 136.13 5.4
4 -3 5 137.26 3.96
-4 -3 -5 141.36 4.98
-4 3 -5 127.25 4.81
4 -3 5 134.98 4.05
4 3 5 134.62 4.02
4 3 5 138.47 3.87
4 3 5 139.84 4.01
4 3 5 138.6 4.01
4 3 5 137.46 3.91
4 3 5 137.23 3.96
4 -3 5 143.46 4
4 -3 5 138.08 5.07
4 -3 5 129.2 4.97
4 3 5 128.96 4.95
4 -3 5 138.14 4.01
4 -3 5 143.19 4.03
4 -3 5 140.29 4.01
4 -3 5 132.61 4
-4 3 -6 18.64 1.92
4 -3 6 22.87 1.08
4 3 6 22.12 1.05
-4 3 -6 25.04 1.25
-4 3 -6 18.95 2.07
4 -3 6 21.55 1.16
-4 -3 -6 20.33 1.78
-4 3 -6 22.79 1.76
4 3 6 24 1.23
4 3 6 20.43 1.17
4 3 6 21.44 1.03
4 3 6 23.53 1.21
4 3 6 22.27 1.15
4 3 6 21.27 1.19
4 3 6 22.57 1.08
4 -3 6 26.11 2.02
4 3 6 22.52 1.83
4 -3 6 24.05 1.2
4 -3 6 19.21 1.73
4 -3 6 23.83 1.21
4 -3 6 22.41 1.19
4 -3 6 22.68 1.14
4 -3 6 24.02 1.23
4 -3 6 22.8 1.2
-4 3 -7 0.19 0.83
-4 3 -7 1.48 1.16
4 -3 7 0.86 0.69
-4 3 -7 0.39 0.58
-4 3 -7 0.31 0.77
4 -3 7 0.06 0.58
4 3 7 -0.44 0.57
4 3 7 0.23 0.57
4 3 7 -0.06 0.6
4 3 7 0.06 0.58
4 3 7 0.56 0.52
4 -3 7 0.11 0.56
4 -3 7 -0.4 0.59
4 -3 7 0.1 0.49
4 -3 7 0.53 0.6
4 -3 7 0.17 0.54
4 -3 7 0.48 0.62
-4 3 -8 15.09 1.74
-4 3 -8 18.17 1.14
4 -3 8 18.09 1.19
4 -3 8 17.2 1.12
-4 3 -8 20.49 1.81
4 3 8 18.15 1.14
4 3 8 18.41 1.13
4 3 8 18.68 1.12
4 3 8 17.33 1.04
4 3 8 20.82 1.14
4 -3 8 19.44 1.16
4 -3 8 20.65 1.17
4 -3 8 17.45 1.03
4 -3 8 19.51 1.19
4 -3 8 16.45 1.16
4 -3 8 18.34 1.13
-4 3 -9 18.31 1.12
4 -3 9 17.2 1.12
4 -3 9 19.99 1.17
4 3 9 17.01 1.07
4 3 9 16.29 1.06
4 3 9 15.15 1.04
4 3 9 14.74 1.04
4 3 9 16.13 0.95
4 -3 9 16.23 1.09
4 -3 9 15.1 1.03
4 -3 9 17.1 0.99
4 -3 9 15.81 1.11
4 -3 9 18.19 1.19
4 -3 9 16.18 1.12
-4 3 -10 62.28 2.27
4 -3 10 63.22 2.29
4 -3 10 65.01 2.28
4 3 10 64.83 2.24
4 3 10 62.28 2.21
4 3 10 64.25 2.23
4 3 10 65.52 2.23
4 -3 10 63.65 2.29
4 -3 10 62.25 2.24
4 -3 10 63.75 2.33
4 -3 10 61.07 2.32
4 -3 10 59.73 2.28
-4 3 -11 32.18 1.44
4 -3 11 33.96 1.51
4 -3 11 31.58 1.44
4 3 11 30.14 1.36
4 3 11 31.84 1.35
4 3 11 31.32 1.38
4 3 11 31.76 1.39
4 -3 11 33.9 1.47
4 -3 11 31.25 1.39
4 -3 11 33.38 1.53
4 -3 11 32.66 1.48
4 -3 11 31.56 1.53
-4 3 -12 7.94 0.76
4 3 12 8.25 0.68
4 3 12 8.98 0.7
4 3 12 8.28 0.69
4 -3 12 8.07 0.7
4 -3 12 8.07 0.77
4 -3 12 8.1 0.78
4 -3 12 8.93 0.83
4 -3 12 8.16 0.76
-4 3 -13 24.01 1.08
4 3 13 23.22 0.96
4 -3 13 22.16 0.98
4 -3 13 22.54 1.07
4 -3 13 22.82 1.09
4 -3 13 23.03 1.08
4 -3 14 0.7 0.38
4 3 14 0.53 0.28
4 -3 14 0.07 0.29
4 -3 14 0.17 0.37
4 -3 14 0.21 0.39
-4 3 -14 0.99 0.4
-4 3 -15 1.82 0.26
4 -3 15 2 0.27
-4 4 15 14.09 0.6
-4 -4 14 14.37 0.81
-4 -4 14 14.22 0.79
-4 4 14 14.26 0.75
-4 4 13 5.97 0.63
-4 -4 13 5.36 0.56
-4 -4 13 5.68 0.66
-4 -4 13 5.47 0.67
-4 -4 13 5.18 0.64
-4 4 12 67.57 2.25
-4 4 12 64.52 2.16
-4 -4 12 70.36 2.19
-4 4 12 63.09 2.13
-4 -4 12 66.22 2.3
-4 -4 12 64.07 2.27
-4 -4 12 63.68 2.3
4 4 -11 -0.34 0.39
-4 4 11 0.24 0.56
-4 -4 11 -0.29 0.63
-4 -4 11 -0.18 0.61
-4 -4 11 0.91 0.61
-4 4 11 0.77 0.47
-4 -4 11 0.06 0.63
-4 4 11 0.65 0.61
4 4 -10 18.07 0.98
-4 4 10 19.57 1.1
-4 -4 10 20.76 1.22
-4 -4 10 18.58 1.2
-4 -4 10 18.09 1.14
-4 -4 10 16.96 1.22
-4 4 10 19.19 1.08
-4 4 10 17.87 1.17
4 4 -9 73.6 2.39
-4 4 9 71.76 2.43
-4 -4 9 71.26 2.54
-4 -4 9 70.42 2.55
-4 4 9 70.79 2.48
-4 -4 9 72.22 2.62
-4 4 9 70.2 2.58
4 4 -8 40.64 1.61
-4 4 8 38.06 1.6
-4 -4 8 37.64 2.82
4 -4 -8 35.7 2.81
-4 -4 8 38.1 1.69
-4 -4 8 38.95 1.71
-4 4 8 38.22 1.7
-4 -4 8 35.98 1.75
-4 4 8 37.67 1.76
-4 4 7 27.98 1.37
4 4 -7 27.28 1.33
4 4 -7 30.03 1.35
-4 4 7 27.16 1.29
-4 4 7 26.54 1.43
4 4 -7 24.64 1.18
-4 -4 7 23.43 2.27
4 -4 -7 23.58 2.35
-4 -4 7 25.6 1.32
-4 -4 7 25.37 1.36
-4 -4 7 25.65 1.4
-4 4 7 26.57 1.4
-4 4 6 58.14 2.15
4 4 -6 58.88 2.12
4 4 -6 60.81 2.15
4 4 -6 57.75 2.04
-4 4 6 56.08 2
-4 4 6 58.16 2.2
-4 -4 6 53.23 3.23
4 -4 -6 56.91 3.44
-4 -4 6 56.99 2.06
-4 -4 6 58.48 2.13
-4 -4 6 59.26 2.21
4 4 -5 70.95 2.5
-4 4 5 73.87 2.53
4 4 -5 71.77 2.5
4 4 -5 77.7 2.49
-4 4 5 75.31 2.38
-4 4 5 71.87 2.55
-4 -4 5 72.56 2.46
-4 -4 5 76.28 2.58
-4 4 5 74.49 2.59
4 4 -4 2.04 0.58
4 4 -4 1.89 0.61
-4 4 4 2.79 0.69
4 -4 -4 1.23 1.17
-4 4 4 2.18 0.62
4 4 -4 2.7 0.61
4 4 -4 2.61 0.62
-4 4 4 1.33 0.59
4 -4 -4 2.3 0.61
4 4 -3 0.49 0.51
4 4 -3 0.69 0.67
4 4 -3 0.53 0.53
4 4 -3 0.79 0.53
-4 4 3 0.34 0.55
4 -4 -3 0.2 0.97
4 -4 -3 0.47 0.53
-4 4 3 0.06 0.56
4 4 -3 0.67 0.56
-4 4 3 0.66 0.56
4 4 -3 1.49 0.56
-4 4 2 60.31 2.16
4 4 -2 60.33 2.22
4 4 -2 61.46 2.15
-4 4 2 61.42 2.14
4 4 -2 57.33 2.14
4 -4 -2 61.89 3.35
-4 4 2 60.48 2.11
4 -4 -2 62.08 2.15
-4 4 2 60.82 2.14
-4 4 1 3.87 0.6
4 4 -1 3.68 0.64
4 4 -1 3.54 0.65
4 4 -1 2.24 0.64
4 4 -1 5.51 0.72
4 4 -1 4.17 0.68
-4 4 1 3.13 0.62
4 -4 -1 2.3 1.1
-4 4 1 6.64 1.33
-4 4 1 5 0.71
-4 4 1 3.5 0.58
4 4 -1 4.74 0.66
4 -4 -1 4.33 0.65
-4 4 1 3.63 0.62
4 -4 0 5.25 0.62
-4 4 0 4.84 0.64
4 4 0 5.46 0.65
4 4 0 5.52 0.68
4 4 0 4.89 0.73
4 4 0 4.71 0.72
4 -4 0 5.69 1.31
-4 4 0 4.86 0.61
-4 4 0 4.07 1.13
-4 4 0 4.5 0.69
4 4 0 4.15 0.6
-4 4 0 5.12 0.61
4 -4 0 5.68 0.69
4 -4 1 64.31 2.18
4 4 1 64.43 2.21
4 4 1 63.09 2.18
4 4 1 65.27 2.3
4 4 1 62.65 2.25
4 4 1 62.11 2.22
4 -4 1 68.24 3.58
4 -4 1 59.4 3.31
-4 4 -1 63.74 2.11
-4 4 -1 60.9 3.42
4 4 1 65.6 2.18
-4 4 -1 67.42 3.55
-4 4 -1 63.29 2.25
4 -4 1 62.88 2.21
-4 4 -1 66.83 2.17
4 -4 2 54.26 2
4 4 2 52.24 2.06
4 4 2 51.59 2.02
4 4 2 57.03 2.06
4 4 2 57.16 1.96
4 4 2 56.81 2.07
4 4 2 56.92 2
4 -4 2 53.88 2
4 -4 2 56.84 3.26
4 -4 2 57.33 3.23
-4 4 -2 57.81 2.09
-4 4 -2 54.96 3.27
4 4 2 61.05 1.98
4 -4 2 56.12 2.01
4 -4 2 55.81 2.04
4 -4 3 12.79 0.95
4 4 3 13.28 0.98
4 4 3 13.06 0.92
4 4 3 13.64 1
4 4 3 11.99 0.8
4 4 3 13.79 0.89
4 -4 3 11.24 1.55
4 -4 3 13.15 0.91
4 -4 3 12.07 1.57
4 -4 3 13.38 0.97
-4 4 -3 8.73 1.52
-4 4 -3 13.91 0.97
-4 4 -3 13.72 1.89
4 -4 3 13.19 0.96
4 -4 3 11.03 0.87
4 -4 4 12.21 0.82
4 -4 4 12.32 0.98
4 4 4 14.77 1
4 4 4 11.84 0.79
4 4 4 12.34 0.85
4 4 4 13.11 1
4 4 4 14.4 0.95
4 4 4 14.45 1.01
4 -4 4 11.06 1.55
4 -4 4 13.85 0.98
4 -4 4 11.96 1.52
-4 4 -4 12.89 1.74
-4 4 -4 14.78 1
4 -4 4 13.38 0.98
4 -4 4 12.27 0.95
4 -4 5 3.15 0.76
4 -4 5 2.51 0.6
4 4 5 3.1 0.73
4 4 5 2.95 0.69
4 4 5 2.21 0.55
4 4 5 1.53 0.7
4 4 5 1.64 0.51
4 4 5 2.94 0.67
4 4 5 2.48 0.57
4 -4 5 2.2 0.65
4 -4 5 3.39 1.15
4 -4 5 2.84 0.66
4 -4 5 2.02 0.63
-4 4 -5 3.41 0.72
-4 4 -5 1.71 1.08
-4 4 -6 8.91 1.55
-4 4 -6 9.26 0.89
4 -4 6 10.6 0.86
4 -4 6 10.58 0.99
4 4 6 9.97 0.9
4 4 6 8.6 0.9
4 4 6 10.28 0.79
4 4 6 9.46 0.92
4 4 6 8.85 0.75
4 4 6 8.63 0.84
4 -4 6 11.84 0.93
4 -4 6 10.41 1.45
4 -4 6 10.63 0.91
4 -4 6 10.15 0.87
4 -4 6 9.68 0.9
4 -4 6 10.31 0.9
-4 4 -7 7.63 1.4
-4 4 -7 8.09 0.85
-4 4 -7 6.84 1.45
4 -4 7 8.52 0.94
4 -4 7 9.7 0.86
4 4 7 8.52 0.83
4 4 7 7.43 0.65
4 4 7 7.93 0.91
4 4 7 9.22 0.91
4 4 7 8.61 0.8
4 -4 7 7.24 0.87
4 -4 7 8.07 0.9
4 -4 7 8.69 0.82
4 -4 7 7.74 0.87
4 -4 7 7.37 0.85
-4 4 -8 18.92 1.17
4 -4 8 19.2 1.14
4 4 8 18.66 1.12
4 4 8 21.26 1.23
4 4 8 19.01 1.18
4 4 8 18.6 1.09
4 -4 8 18.74 1.14
4 -4 8 20.79 1.22
4 -4 8 19.96 1.12
4 -4 8 17.51 1.16
4 -4 8 19.59 1.19
-4 4 -9 47.67 1.9
4 -4 9 48.01 1.86
4 -4 9 49.39 1.93
4 4 9 46.48 1.82
4 4 9 46.55 1.9
4 4 9 51.93 1.91
4 4 9 44.79 1.74
4 -4 9 46.52 1.88
4 -4 9 48.56 1.92
4 -4 9 49.85 1.82
4 -4 9 49.64 1.92
4 -4 9 51.4 1.96
-4 4 -10 0.1 0.55
4 4 10 0.53 0.59
4 4 10 1.1 0.54
4 4 10 0.54 0.58
4 -4 10 0.52 0.57
4 -4 10 1.33 0.58
4 -4 10 0.1 0.59
4 -4 10 1.14 0.62
4 -4 10 0.33 0.58
4 -4 10 0.27 0.57
4 -4 10 0.43 0.61
4 4 11 25.63 1.16
4 4 11 28.74 1.23
4 -4 11 27.54 1.25
4 -4 11 26.54 1.22
4 -4 11 28.55 1.26
4 -4 11 24.62 1.2
4 -4 11 27.23 1.29
4 -4 11 24.18 1.22
4 -4 11 27.01 1.26
4 -4 12 16.38 0.86
4 -4 12 13.19 0.8
4 4 12 16.59 0.83
4 -4 12 14.8 0.86
4 -4 12 14.39 0.89
4 -4 12 16.19 0.89
4 -4 13 2.92 0.44
4 -4 13 2.85 0.43
4 -4 13 3.68 0.48
4 4 13 3.34 0.41
4 -4 13 3.62 0.44
4 -4 14 1.69 0.24
4 -4 14 2.68 0.28
-4 5 13 14.29 0.64
-4 5 13 15.93 0.71
-4 -5 13 12.89 0.69
-4 -5 13 13.16 0.71
-4 -5 13 15.49 0.66
-4 5 12 14.53 0.73
-4 -5 12 13.4 0.77
4 -5 -12 13.59 0.68
-4 -5 12 13.92 0.81
-4 -5 12 13.04 0.83
-4 -5 12 14.29 0.77
-4 5 11 1.67 0.47
4 5 -11 0.56 0.35
-4 -5 11 0.91 0.52
-4 5 11 0.31 0.41
-4 -5 11 0.82 0.5
-4 -5 11 1.06 0.53
4 -5 -11 0.31 0.43
-4 -5 11 1.18 0.5
-4 -5 11 1.22 0.56
4 5 -10 9.41 0.68
-4 5 10 8.22 0.75
-4 -5 10 8.57 0.79
4 -5 -10 7.79 0.68
-4 -5 10 8.43 0.79
-4 5 10 7.87 0.67
-4 -5 10 6.72 0.76
-4 5 10 8.48 0.67
-4 5 9 0.72 0.57
4 5 -9 0.31 0.51
-4 -5 9 -0.4 0.54
-4 -5 9 0.71 0.57
-4 5 9 0.83 0.54
4 -5 -9 0.09 0.49
-4 -5 9 0.88 0.65
-4 5 9 0.04 0.44
4 5 -8 0.05 0.55
-4 -5 8 1.46 0.58
-4 -5 8 0.96 0.57
-4 5 8 0.87 0.62
-4 -5 8 1.37 0.72
4 -5 -8 1.67 0.58
-4 5 8 1.33 0.49
-4 5 7 42.88 1.76
4 5 -7 40.98 1.67
-4 5 7 39.22 1.5
-4 5 7 39.18 1.77
4 5 -7 37.49 1.5
4 -5 -7 40.18 1.64
-4 -5 7 40.64 1.68
-4 -5 7 42.58 1.81
-4 5 7 40.92 1.72
-4 5 6 17.85 1.14
4 5 -6 16.39 1.08
-4 5 6 14.99 0.86
-4 5 6 18.38 1.19
4 5 -6 15.16 0.96
-4 5 6 18.27 1.16
-4 -5 6 14.87 1
4 -5 -6 16.34 1.02
-4 -5 6 17.1 1.16
-4 5 5 5.87 0.76
-4 5 5 5.66 0.8
4 5 -5 4.64 0.73
4 5 -5 4.25 0.68
4 5 -5 5.41 0.7
-4 5 5 4.5 0.75
4 -5 -5 3.27 1.26
-4 -5 5 4.5 0.66
4 -5 -5 4.18 0.67
-4 5 5 4.15 0.74
-4 -5 5 3.42 0.69
4 5 -4 35.56 1.61
-4 5 4 37.69 1.72
4 5 -4 36.26 1.59
-4 5 4 37.64 1.68
4 5 -4 38.86 1.63
-4 5 4 35.28 2.44
4 -5 -4 37.55 1.59
-4 5 4 36.21 1.65
-4 5 4 35.51 1.61
4 -5 -4 32.97 2.63
4 5 -3 1.6 0.62
-4 5 3 1.6 0.66
4 -5 -3 1.29 1.06
-4 5 3 1.86 1.06
-4 5 3 2.58 0.7
-4 5 3 2.25 0.72
-4 5 3 2.22 0.71
4 -5 -3 1.59 0.61
4 5 -2 129.69 3.9
-4 5 2 129.49 3.95
4 5 -2 127.14 3.9
-4 5 2 125.94 3.86
4 -5 -2 132.1 5.52
4 5 -2 133.81 3.9
-4 5 2 128.84 3.93
4 5 -2 131.2 3.88
-4 5 2 116.37 5.16
4 -5 -2 134.07 3.88
-4 5 2 131.73 3.93
4 5 -1 259.41 7.03
-4 5 1 258.2 7.03
4 5 -1 265.41 7.09
4 5 -1 260.99 7.1
-4 5 1 253.73 7.09
4 5 -1 257.5 7.06
-4 5 1 265.19 7.01
4 -5 -1 281.77 9.31
4 -5 -1 267 8.9
4 -5 -1 267.41 7.02
-4 5 1 259.77 7.03
4 5 -1 266.91 7.01
-4 5 1 254.25 7.08
-4 5 1 256.6 8.71
4 5 0 81.15 2.66
-4 5 0 85.22 4.15
-4 5 0 81.49 2.77
4 5 0 80.39 2.78
4 5 0 78.8 2.72
4 5 0 83.08 2.7
-4 5 0 81.75 2.69
4 5 0 82.44 2.75
-4 5 0 80.55 2.65
4 -5 0 75.53 4.19
4 -5 0 81.33 4.08
4 -5 0 86.14 2.8
4 -5 0 78.04 2.66
4 -5 1 7.35 0.73
4 -5 1 6.2 0.76
-4 5 -1 6.26 0.72
4 5 1 7.08 0.77
4 5 1 6.04 0.81
4 -5 1 7.18 1.39
4 -5 1 6.41 1.48
4 -5 1 7.58 0.8
4 -5 1 7.15 0.86
-4 5 -1 6.86 1.46
-4 5 -1 5.85 0.68
4 5 1 6.64 0.7
-4 5 -2 0.66 0.96
-4 5 -2 0.14 0.45
4 5 2 -0.28 0.5
4 -5 2 0.38 0.56
4 5 2 -0.18 0.66
4 5 2 -0.35 0.59
4 5 2 -0.05 0.49
-4 5 -2 -0.15 0.48
4 5 2 0.28 0.62
4 -5 2 -0.2 0.98
4 -5 2 0.23 0.59
4 -5 2 -0.67 1.04
4 -5 2 0.74 0.62
4 -5 2 1.28 0.66
4 -5 2 0.85 0.66
4 -5 2 0.16 0.55
-4 5 -3 -0.22 1
4 -5 3 -0.51 0.61
4 5 3 0.24 0.6
4 5 3 0.75 0.61
4 5 3 -0.18 0.46
4 5 3 -0.6 0.57
4 -5 3 -0.4 0.93
4 -5 3 0.18 0.6
4 -5 3 -0.66 1.03
4 -5 3 0.19 0.62
4 -5 3 -0.18 0.63
4 -5 3 -0.27 0.54
4 -5 3 -0.48 0.61
4 -5 4 11.2 0.95
4 5 4 10.86 0.98
4 5 4 11.98 1.02
4 5 4 11.79 0.95
4 5 4 11.4 0.91
4 -5 4 12.62 0.96
4 -5 4 7.86 1.49
4 -5 4 11.65 1.01
4 -5 4 12.06 0.99
4 -5 4 11 0.91
4 -5 5 51.69 1.99
4 5 5 50.14 1.93
4 5 5 45.28 1.97
4 5 5 48.49 1.85
4 5 5 45.44 1.93
4 5 5 45.57 1.8
4 -5 5 52.15 1.97
4 -5 5 52.18 2.03
4 -5 5 49.95 1.96
4 -5 5 53.47 1.99
4 -5 5 46.78 1.87
4 -5 6 5.55 0.81
4 -5 6 4.92 0.6
4 5 6 5.89 0.84
4 5 6 5.9 0.68
4 5 6 6.06 0.75
4 5 6 5.49 0.69
4 -5 6 5.52 0.79
4 -5 6 5.42 0.78
4 -5 6 5.18 0.73
4 -5 6 6.69 0.83
4 -5 6 5.16 0.73
4 5 7 14.47 0.97
4 5 7 14.36 1.07
4 5 7 16.4 1.1
4 -5 7 15.61 1.02
4 -5 7 15.84 0.9
4 -5 7 13.87 1.03
4 -5 7 14.92 0.99
4 -5 7 15.11 1.07
4 -5 7 14.15 0.98
4 5 8 34.63 1.42
4 5 8 34.62 1.53
4 5 8 32.45 1.47
4 -5 8 33.5 1.5
4 -5 8 34.71 1.38
4 -5 8 32.13 1.51
4 -5 8 37.98 1.52
4 -5 8 35.42 1.48
4 -5 8 34.72 1.52
4 -5 8 34.05 1.45
4 5 9 -0.29 0.44
4 5 9 0.4 0.53
4 5 9 0.32 0.56
4 -5 9 0.09 0.53
4 -5 9 0.04 0.46
4 -5 9 -0.19 0.57
4 -5 9 -0.05 0.53
4 -5 9 0.04 0.47
4 -5 9 0.17 0.49
4 -5 10 0.84 0.44
4 -5 10 0.51 0.48
4 5 10 1.01 0.54
4 -5 10 0.54 0.49
4 -5 10 1.27 0.53
-4 5 -10 1.31 0.51
4 -5 11 0.05 0.37
4 -5 11 0.91 0.45
4 -5 11 0.45 0.39
4 5 11 0.8 0.43
4 -5 11 0.69 0.44
4 -5 11 0.7 0.45
-4 5 -11 0.68 0.39
4 -5 12 1.1 0.33
-4 5 -12 0.97 0.31
4 -5 12 1 0.29
4 -5 12 0.65 0.29
-4 -6 11 0.6 0.33
-4 -6 11 0.34 0.34
-4 6 11 0.88 0.33
-4 6 10 1.75 0.41
-4 -6 10 2.1 0.45
-4 -6 10 0.76 0.41
-4 -6 10 1.82 0.47
-4 -6 10 1.37 0.39
-4 6 10 1.48 0.39
4 6 -10 1.25 0.34
-4 6 9 7.9 0.62
4 6 -9 7.28 0.59
-4 6 9 6.19 0.61
-4 -6 9 8.51 0.68
-4 -6 9 6.57 0.58
4 -6 -9 5.88 0.48
-4 -6 9 6.45 0.67
-4 6 8 82 2.47
4 -6 -8 75.09 2.27
-4 -6 8 78.45 2.51
-4 -6 8 75.35 2.36
4 6 -8 80.94 2.43
-4 6 8 78.73 2.44
-4 -6 7 83.82 2.57
4 -6 -7 85.65 2.53
-4 -6 7 86.17 2.75
4 6 -7 88.92 2.69
4 6 -6 -0.22 0.43
-4 6 6 0.81 0.61
-4 6 6 0.2 0.57
4 6 -6 1.09 0.59
4 -6 -6 0.3 0.43
-4 -6 6 1.05 0.59
4 6 -5 -0.13 0.47
-4 6 5 0.11 0.61
4 -6 -5 0.52 0.42
-4 6 5 0.63 0.6
4 -6 -5 0.37 0.46
-4 -6 5 0.21 0.54
-4 6 4 11.94 0.95
4 -6 -4 14.03 0.86
4 6 -4 12.87 0.92
-4 6 4 13.15 1.03
4 6 -4 12.71 0.94
-4 -6 4 12.82 0.94
4 -6 -4 11.25 0.8
4 -6 -3 10.77 0.82
4 6 -3 11.78 0.9
-4 6 3 9.2 0.92
-4 -6 3 10.17 0.83
4 -6 -3 9.71 0.76
-4 6 3 11.77 0.91
4 6 -3 10.03 0.88
-4 6 2 88.86 2.86
4 6 -2 90.32 2.86
4 -6 -2 90.54 2.83
4 6 -2 90.44 2.91
-4 6 2 85.47 2.94
4 -6 -2 92.5 2.96
4 -6 -2 90.22 2.75
-4 6 1 28.97 1.34
4 6 -1 28.75 1.3
-4 6 1 26.23 1.4
4 -6 -1 26.82 1.29
-4 6 1 26.01 1.4
4 6 -1 26.85 1.36
4 -6 -1 28.14 1.41
4 -6 -1 26.71 1.21
-4 6 0 7.54 0.77
4 6 0 6.17 0.7
-4 6 0 7.23 0.81
4 6 0 8.39 0.85
-4 6 0 6.48 0.84
4 -6 0 7.38 0.8
4 -6 0 7.13 0.83
4 -6 0 7.71 0.68
-4 6 -1 83.88 2.63
4 6 1 82.28 2.59
-4 6 -1 85.2 2.79
-4 6 -1 86.45 2.82
4 6 1 82.87 2.78
4 -6 1 85.45 2.8
4 -6 1 84.96 2.75
4 -6 1 81.9 2.78
4 -6 1 82.25 2.59
-4 6 -2 10.5 0.9
4 -6 2 9.3 0.74
4 6 2 9.95 0.94
-4 6 -2 9.76 0.93
-4 6 -2 9.82 0.78
4 -6 2 10.51 0.91
4 -6 2 12.88 0.93
4 -6 2 10.4 0.9
4 -6 2 9.04 0.74
-4 6 -3 0.64 0.6
-4 6 -3 -0.05 0.56
4 6 3 1.34 0.64
4 6 3 0.58 0.56
4 -6 3 -0.16 0.6
4 -6 3 0.62 0.49
4 -6 3 0.38 0.55
4 -6 3 0.49 0.54
4 -6 3 0.39 0.47
-4 6 -4 0.31 0.61
4 6 4 0.53 0.62
4 6 4 0.34 0.55
4 -6 4 1.04 0.61
4 -6 4 -0.28 0.52
4 -6 4 1.43 0.6
4 -6 4 0.6 0.59
4 -6 4 0.42 0.59
4 -6 4 0.54 0.47
-4 6 -5 91.38 2.92
4 6 5 96.24 2.9
4 6 5 97.31 2.89
4 -6 5 95.01 2.96
4 -6 5 93.19 2.9
4 -6 5 95.03 2.98
4 -6 5 92.45 2.96
4 -6 5 100.14 3
4 -6 5 93.81 2.79
4 -6 5 94.02 2.98
-4 6 -6 24.76 1.18
4 6 6 24.61 1.11
4 6 6 25.09 1.09
4 -6 6 23.37 1.18
4 -6 6 22.82 1.16
4 -6 6 25.4 1.23
4 -6 6 26.47 1.21
4 -6 6 26.31 1.21
4 -6 6 23.56 1.04
4 -6 6 24.3 1.21
4 -6 7 21.82 1.1
4 -6 7 21.48 1.07
4 -6 7 22.83 1.08
4 -6 7 22.6 1.12
4 -6 7 22.48 1.1
4 -6 7 20.96 1.05
4 -6 7 22.25 1.09
-4 6 -7 23.35 1.08
4 -6 8 39.15 1.47
4 -6 8 40.22 1.44
4 -6 8 40.26 1.46
4 -6 8 41.33 1.5
4 -6 8 38.85 1.43
4 -6 8 38.29 1.41
4 -6 8 41.59 1.49
-4 6 -8 39.15 1.27
-4 6 -8 39.73 1.42
4 -6 9 3.66 0.48
4 -6 9 3.08 0.45
4 -6 9 3.91 0.5
4 -6 9 3.89 0.48
4 -6 9 4.3 0.51
-4 6 -9 3.23 0.45
4 -6 10 3.19 0.39
-4 6 -10 2.36 0.32
-4 -7 8 4.39 0.39
-4 -7 8 4.93 0.36
-4 -7 7 2.68 0.36
4 7 -7 2.04 0.4
-4 -7 6 3.98 0.43
-4 -7 6 4.25 0.46
4 -7 -6 3.11 0.42
-4 7 6 4.52 0.48
-4 7 5 16.96 0.85
4 7 -5 17.67 0.84
-4 -7 5 17.13 0.76
4 7 -5 16.07 0.69
-4 7 5 18.41 0.93
4 -7 -5 17.66 0.82
-4 -7 5 15.54 0.81
-4 7 4 21.05 0.97
4 7 -4 19.67 0.92
-4 -7 4 19.4 0.83
4 -7 -4 19.64 0.91
-4 -7 4 17.53 0.87
4 7 -4 20.05 0.86
-4 7 4 21.7 1.03
-4 7 3 1.65 0.51
-4 7 3 1.28 0.47
4 7 -3 1.71 0.44
4 7 -3 1.5 0.46
-4 7 3 0.83 0.52
4 -7 -3 1.31 0.46
4 -7 -3 1.15 0.51
-4 7 2 61.71 2
-4 7 2 63.33 2.05
4 7 -2 62.44 1.96
4 7 -2 63.28 2.03
-4 7 2 62.31 2.1
4 -7 -2 61.7 2.02
4 -7 -2 63.72 2.09
4 -7 -2 64.99 2.07
-4 7 1 212.31 5.7
4 -7 -1 221.08 5.75
4 7 -1 218.99 5.73
-4 7 1 214.39 5.77
4 -7 -1 212.16 5.7
4 -7 -1 220.1 5.77
-4 7 0 283.35 7.23
4 -7 0 280.9 7.27
4 7 0 283.48 7.26
-4 7 0 281.5 7.3
4 -7 0 267.92 7.1
4 -7 0 283.77 7.23
4 -7 0 285.7 7.29
-4 7 -1 96.71 2.82
4 -7 1 98.4 2.85
4 7 1 94.12 2.83
-4 7 -1 91.37 2.84
4 -7 1 96.21 2.73
4 -7 1 92.55 2.8
4 -7 1 95.68 2.86
-4 7 -2 10.22 0.7
4 -7 2 10.03 0.73
-4 7 -2 7.69 0.7
4 -7 2 9.04 0.64
4 -7 2 8.27 0.67
4 -7 2 9.66 0.73
-4 7 -3 0.93 0.44
4 -7 3 1.28 0.48
4 7 3 0.46 0.45
-4 7 -3 0.21 0.46
4 -7 3 1.1 0.42
4 -7 3 0.56 0.44
4 -7 3 1.5 0.51
-4 7 -4 1.47 0.43
-4 7 -4 1.3 0.42
4 7 4 1.56 0.44
-4 7 -4 1.71 0.47
4 -7 4 1.83 0.46
4 -7 4 1.38 0.4
4 -7 4 1.52 0.45
4 -7 4 1.2 0.41
4 -7 4 1.66 0.47
-4 7 -5 5.47 0.5
-4 7 -5 5.54 0.49
4 7 5 5.65 0.49
-4 7 -5 5.12 0.47
4 -7 5 4.98 0.52
4 -7 5 4.24 0.37
4 -7 5 5.4 0.51
4 -7 5 5.55 0.54
4 -7 5 5.41 0.5
4 -7 5 5.15 0.53
-4 7 -6 27.86 0.92
4 -7 6 29.04 1.01
4 -7 6 28.35 0.98
4 -7 6 29.63 1.05
4 -7 6 27.19 1
4 -7 6 27.76 0.97
4 -7 6 29.7 1.03
5 0 -16 0.19 0.31
-5 0 16 0.12 0.27
-5 0 16 0.31 0.32
5 0 -15 20.95 0.95
-5 0 15 20.17 0.91
-5 0 15 17.96 0.79
-5 0 15 20.65 0.93
-5 0 14 0.32 0.47
5 0 -14 -0.26 0.51
-5 0 14 -0.04 0.4
-5 0 14 0.57 0.59
-5 0 14 0.51 0.63
-5 0 13 26.28 1.25
-5 0 13 27.39 1.44
-5 0 13 28.33 1.47
-5 0 13 28.08 1.43
-5 0 13 27.6 1.3
5 0 -13 29.8 1.35
-5 0 12 -0.34 0.6
-5 0 12 -0.26 0.68
-5 0 12 -0.21 0.74
-5 0 12 0.33 0.64
-5 0 12 -0.36 0.58
5 0 -12 0.11 0.59
-5 0 11 77.99 2.71
-5 0 11 79.16 2.8
5 0 -11 77.6 4.18
5 0 -11 77.85 2.68
-5 0 11 75.48 2.81
-5 0 11 76.29 2.78
-5 0 11 81.18 2.64
-5 0 10 -0.19 0.61
-5 0 10 -0.27 0.63
5 0 -10 0.81 0.62
5 0 -10 -1.34 1.22
-5 0 10 0.65 1.04
-5 0 10 0.51 0.79
-5 0 10 -0.21 0.68
-5 0 10 -0.11 0.57
-5 0 9 7.4 0.9
-5 0 9 6.08 0.83
-5 0 9 7.35 0.89
-5 0 9 5.82 0.87
-5 0 9 5.63 0.75
5 0 -9 6.3 0.78
5 0 -9 6.3 1.51
-5 0 8 -0.36 0.65
5 0 -8 0.38 0.59
5 0 -8 0.62 1.04
-5 0 8 -0.13 0.66
-5 0 8 0.31 0.57
-5 0 8 0.05 0.51
-5 0 8 -0.39 0.94
5 0 -7 108.54 4.17
-5 0 7 116.71 3.56
-5 0 7 115.91 3.49
5 0 -7 122.95 5.05
5 0 -7 110.08 3.42
-5 0 7 117.95 3.6
-5 0 7 110.94 3.5
-5 0 7 115.56 3.41
-5 0 7 118.04 4.85
5 0 -6 0.12 0.54
-5 0 6 -0.06 0.56
-5 0 6 0.45 0.52
5 0 -6 -0.1 0.5
5 0 -6 -0.92 1.15
-5 0 6 0.28 0.58
-5 0 6 -0.1 0.48
-5 0 6 -0.69 1.11
-5 0 6 0.28 0.5
5 0 -5 237.87 7.1
-5 0 5 233.36 6.37
-5 0 5 237.56 6.26
5 0 -5 241.83 6.29
-5 0 5 235.37 6.36
-5 0 5 234.1 6.3
-5 0 5 236.13 7.77
5 0 -4 0.42 0.55
5 0 -4 0.49 1.01
-5 0 4 -0.19 0.49
5 0 -4 0.17 0.46
-5 0 4 -0.28 0.51
-5 0 4 0.04 0.43
-5 0 4 -0.46 0.93
5 0 -3 39.25 2.43
5 0 -3 40.36 2.03
-5 0 3 39.65 1.55
5 0 -3 42.06 1.52
5 0 -3 40.48 1.4
-5 0 3 38.07 1.48
-5 0 3 43 2.5
5 0 -2 0.24 0.47
5 0 -2 0.1 0.58
5 0 -2 -0.15 0.91
5 0 -2 0.03 0.35
-5 0 2 0.12 0.45
-5 0 2 -0.58 0.9
5 0 -1 0.59 0.42
5 0 -1 0.72 0.59
5 0 -1 0.88 0.84
-5 0 1 0.15 0.42
-5 0 1 0.14 0.9
5 0 0 0.4 0.46
5 0 0 0.11 0.61
5 0 0 -0.15 0.88
5 0 0 -0.16 0.34
-5 0 0 -0.57 0.96
5 0 1 193.09 5.03
5 0 1 192.14 5.14
5 0 1 195.7 6.54
5 0 1 180.22 5.94
-5 0 -1 190.24 5.74
-5 0 -1 198.39 6.48
5 0 2 -0.17 0.35
5 0 2 0.16 0.93
5 0 2 0.5 0.47
-5 0 -2 0.5 0.66
-5 0 -2 0.3 0.93
5 0 2 -0.33 0.51
5 0 3 -0.15 0.38
5 0 3 -0.3 0.42
5 0 3 -0.17 0.89
5 0 3 0.15 0.49
5 0 3 0.4 0.46
-5 0 -3 0.23 0.66
-5 0 -3 0.79 0.95
5 0 3 0.09 0.5
5 0 3 0.24 0.52
5 0 4 0.2 0.52
-5 0 -4 -0.67 1.02
5 0 4 0.05 0.55
5 0 4 0.09 0.44
5 0 4 -0.09 0.46
5 0 4 0.18 0.95
5 0 4 -0.09 0.48
5 0 4 -0.05 0.47
-5 0 -4 0.53 0.78
5 0 4 0.57 0.45
5 0 5 275.69 7.19
5 0 5 271.04 7.11
5 0 5 281.53 8.94
5 0 5 273.91 7.23
-5 0 -5 273.66 8.42
5 0 5 266.54 7.24
-5 0 -5 282.01 8.87
5 0 5 268.81 7.22
5 0 6 -0.37 0.5
5 0 6 0.24 0.52
5 0 6 -0.81 1.07
5 0 6 0.11 0.55
-5 0 -6 -0.17 0.83
-5 0 -6 -0.39 1.1
5 0 6 0.42 0.52
5 0 7 7.54 0.81
5 0 7 8.44 0.81
5 0 7 9.04 1.56
5 0 7 8.54 0.82
-5 0 -7 8.9 1.39
-5 0 -7 7.77 1.55
5 0 7 7.46 0.76
5 0 8 0.7 0.59
5 0 8 -0.06 0.53
5 0 8 -0.23 1.08
5 0 8 0.43 0.61
-5 0 -8 -0.19 1.01
-5 0 -8 -1.28 1.12
5 0 8 0.3 0.63
5 0 8 0.05 0.49
5 0 9 5.15 0.76
-5 0 -9 4.71 0.62
-5 0 -9 4.3 1.36
5 0 9 6.15 0.81
5 0 9 5.22 0.66
5 0 9 5 0.78
-5 0 -9 5.44 1.29
5 0 9 4.77 0.73
5 0 10 -0.35 0.64
5 0 10 0.17 0.64
-5 0 -10 0.43 0.46
5 0 10 0.51 0.58
5 0 11 18.46 1.14
5 0 11 19.65 1.12
-5 0 -11 19.46 0.97
5 0 11 18.41 1.11
5 0 12 -0.05 0.54
5 0 12 -0.57 0.57
-5 0 -12 0.34 0.4
5 0 12 -0.04 0.5
-5 0 -13 44.03 1.43
5 0 13 47.02 1.65
5 0 13 46.96 1.65
5 0 14 -0.13 0.37
5 0 14 0.41 0.36
5 0 14 -0.06 0.38
5 0 15 103.32 2.67
5 1 -16 -0.19 0.28
5 -1 -16 -0.18 0.27
-5 -1 16 0.19 0.28
-5 1 16 0.09 0.2
-5 1 16 0.12 0.32
-5 1 16 -0.15 0.28
-5 -1 16 -0.27 0.28
5 1 -15 0.9 0.42
5 -1 -15 0.55 0.39
-5 1 15 0.41 0.34
-5 -1 15 1.29 0.5
-5 -1 15 0.04 0.45
-5 1 15 0.59 0.38
-5 -1 15 0.77 0.4
-5 1 14 24.46 1.09
-5 -1 14 22.89 1.07
5 1 -14 23.98 1.11
5 -1 -14 22.44 1.09
-5 1 14 22.77 1
-5 1 14 22.77 1.06
-5 -1 14 22.66 0.93
-5 -1 14 25.25 1.24
-5 1 14 21.76 1.2
-5 -1 14 23.67 1.21
-5 -1 14 24.01 1.21
-5 1 14 24.07 1.2
-5 -1 13 3.23 0.62
-5 -1 13 3.15 0.74
-5 1 13 3.07 0.59
-5 1 13 3.23 0.74
-5 -1 13 3.01 0.74
-5 -1 13 2.9 0.69
-5 1 13 2.95 0.71
-5 1 13 2.66 0.56
-5 -1 13 2.2 0.56
5 1 -13 3.21 0.62
5 -1 -13 3.28 0.63
-5 -1 12 0.57 0.6
-5 -1 12 -0.39 0.67
-5 1 12 -0.16 0.56
-5 1 12 0.83 0.67
-5 -1 12 0.61 0.69
-5 -1 12 -0.13 0.66
-5 1 12 0.13 0.66
-5 1 12 -0.55 0.57
-5 -1 12 -0.4 0.55
5 1 -12 -0.16 0.59
5 -1 -12 0.9 0.6
-5 1 11 42.22 1.75
-5 -1 11 39.51 1.74
-5 -1 11 39.23 1.79
-5 1 11 40.25 1.8
5 1 -11 39.24 1.7
5 -1 -11 39.74 1.69
-5 -1 11 37.94 1.85
-5 1 11 39.27 1.88
-5 -1 11 36.39 1.75
-5 1 11 36.93 1.83
-5 -1 11 39.88 1.64
-5 1 11 42.24 1.67
-5 -1 10 -0.06 0.66
-5 1 10 0.06 0.59
-5 -1 10 0.13 0.67
-5 1 10 0.07 0.68
-5 1 10 1.08 0.51
-5 1 10 -0.21 1.01
-5 -1 10 1.27 1.1
5 -1 -10 -0.53 0.88
5 1 -10 0.85 0.61
5 -1 -10 0.23 0.6
5 1 -10 -0.88 1.05
5 -1 -10 1.75 1.16
-5 -1 10 -0.22 0.72
-5 1 10 0.07 0.72
-5 -1 10 0.21 0.69
-5 1 10 -0.14 0.71
-5 1 10 -0.22 0.55
-5 -1 10 0.05 0.55
-5 -1 9 4.11 0.8
-5 1 9 4.52 0.8
-5 -1 9 4.3 0.8
-5 1 9 4.38 0.79
-5 1 9 3.78 0.59
5 1 -9 3.4 0.67
5 -1 -9 3.6 0.72
5 1 -9 2.15 1.16
5 -1 -9 4.5 1.36
5 -1 -9 4.37 1.12
-5 -1 9 4.24 0.8
-5 1 9 4.44 0.81
-5 -1 9 3.51 0.77
-5 1 9 3.4 0.76
-5 1 9 4.63 0.66
-5 -1 9 4.08 0.66
-5 1 9 2.62 1.1
-5 -1 9 3.21 1.2
-5 -1 8 -0.31 0.6
-5 1 8 0.49 0.63
5 1 -8 -0.11 0.57
5 -1 -8 -0.11 0.55
5 1 -8 1.03 1.01
5 -1 -8 0.2 1.01
5 -1 -8 0.17 0.86
-5 -1 8 0.65 0.65
-5 1 8 -0.07 0.65
-5 -1 8 -0.25 0.58
-5 1 8 0.19 0.64
-5 1 8 0.46 0.52
-5 -1 8 -0.2 0.54
-5 1 8 -1.35 1.18
-5 -1 8 -0.19 0.97
-5 -1 7 24.27 1.35
-5 1 7 27.67 1.35
-5 -1 7 22.97 1.26
-5 1 7 27.33 1.32
5 1 -7 27.3 2.24
5 -1 -7 22.11 2.16
5 1 -7 26.28 1.26
5 -1 -7 26.96 1.28
5 -1 -7 25.89 2.05
-5 -1 7 27.58 1.39
-5 1 7 27.25 1.42
-5 -1 7 23.35 1.26
-5 1 7 26.15 1.35
-5 -1 7 26.99 2.16
-5 1 7 25.59 1.23
-5 -1 7 26.14 1.23
-5 1 7 23.65 2.09
-5 -1 6 141.18 4.25
-5 1 6 147.1 4.24
-5 -1 6 148.81 4.17
-5 1 6 142.46 4.15
5 -1 -6 141.05 5.24
5 1 -6 145.1 5.63
5 -1 -6 144.4 5.65
5 1 -6 148.05 4.14
5 -1 -6 145.04 4.14
-5 -1 6 138.55 4.18
-5 1 6 143.82 4.28
-5 -1 6 146.17 4.16
-5 1 6 148.13 4.22
-5 -1 6 139.4 4.07
-5 1 6 145.44 4.1
-5 -1 6 141.05 5.46
-5 1 6 148.32 5.54
-5 -1 5 65.88 2.28
-5 1 5 66.85 2.26
-5 -1 5 62.29 2.12
-5 1 5 65.15 2.17
5 1 -5 63.32 2.07
5 1 -5 63.72 2.12
5 1 -5 61.56 2.13
5 -1 -5 65.73 2.16
-5 -1 5 60.19 2.09
-5 1 5 64.99 2.13
-5 -1 5 61.27 3.21
-5 1 5 64.74 3.29
-5 -1 5 63.73 2.18
-5 1 5 68.1 2.31
-5 -1 5 61.87 2.11
-5 1 5 64.98 2.22
5 1 -5 66.77 3.38
5 -1 -5 70.54 3.41
5 -1 -5 69.79 3.16
5 1 -4 74.97 3.46
5 -1 -4 69.91 3.34
5 -1 -4 64.71 3.04
-5 1 4 64.51 2.24
-5 1 4 65.66 2.14
-5 -1 4 62.75 2.24
5 1 -4 65.67 2.18
5 -1 -4 66.37 2.17
-5 1 4 69.55 2.3
-5 1 4 69.47 2.22
-5 -1 4 75.38 3.4
-5 1 4 68.03 3.3
5 1 -3 32.95 2.28
5 -1 -3 31.21 2.22
5 -1 -3 31.88 2.05
-5 1 3 34.96 1.42
-5 -1 3 33.18 1.42
5 1 -3 37.02 1.39
5 -1 -3 32.74 1.36
5 -1 -3 36.18 1.36
-5 1 3 33.86 1.34
-5 -1 3 38.76 2.35
-5 1 3 36.66 2.36
5 1 -2 63.65 3.15
5 -1 -2 69.52 3.21
5 -1 -2 62.32 2.92
-5 1 2 64.44 2.1
-5 -1 2 66.17 2.13
5 1 -2 62.33 2.08
5 -1 -2 65 2.08
5 -1 -2 64.19 2.05
-5 -1 2 66.41 3.21
-5 1 2 57.78 3.06
5 -1 -1 21.98 1.04
-5 1 1 25.14 1.07
-5 -1 1 21.87 1.04
5 1 -1 23.29 1.07
5 -1 -1 21.78 1.04
5 1 -1 22.03 1.81
5 -1 -1 24.07 1.86
5 -1 -1 24 1.75
-5 -1 1 29.13 1.96
-5 1 1 23.52 1.82
-5 1 1 24.4 1.58
5 -1 0 0.38 0.41
5 -1 0 0.4 0.81
5 1 0 0.3 0.77
5 -1 0 0.73 0.79
5 1 0 1.16 0.46
5 -1 0 0.99 0.45
-5 -1 0 2.17 0.87
-5 1 0 0.29 0.8
-5 1 0 1.33 0.73
5 -1 1 2.61 0.51
5 1 1 2.88 0.6
5 -1 1 4.86 1.01
5 1 1 1.82 0.94
5 -1 1 2.71 1.05
5 1 1 3.7 0.55
5 -1 1 3.54 0.53
-5 -1 -1 2.66 0.96
-5 1 -1 3.35 1
5 1 1 2.79 0.58
5 -1 1 2.18 0.59
-5 1 -1 4.13 0.97
5 -1 2 128.49 3.67
5 1 2 128.19 3.73
5 1 2 133.62 3.81
5 1 2 124.74 4.91
5 -1 2 139.42 5.05
5 -1 2 127.97 4.84
5 1 2 127.77 3.69
5 -1 2 132.52 3.7
-5 1 -2 136.99 4.74
-5 -1 -2 125.03 4.9
-5 1 -2 136.11 4.99
5 1 2 130.19 3.75
5 -1 2 130.04 3.8
5 -1 2 132.62 3.72
-5 1 -3 53.37 2.7
5 -1 3 50.53 1.81
-5 -1 -3 58.71 2.95
-5 1 -3 52.2 2.83
5 1 3 51.82 1.83
5 1 3 49.71 1.76
5 1 3 48.29 1.81
5 1 3 51.63 1.9
5 -1 3 47.18 2.75
5 1 3 56.21 2.94
5 1 3 48.68 1.78
5 -1 3 48.15 1.78
5 -1 3 50.62 1.67
5 -1 3 52.59 1.79
5 -1 4 122.88 3.53
5 1 4 123.07 3.54
-5 1 -4 117.29 4.63
-5 1 -4 121.5 4.54
5 -1 4 115.2 3.52
-5 -1 -4 122.57 4.83
-5 1 -4 114.1 4.7
5 1 4 117.67 3.48
5 -1 4 118.55 3.58
5 1 4 118.01 3.47
5 1 4 116.31 3.51
5 -1 4 118.25 3.4
5 -1 4 116.43 4.79
5 1 4 129.2 4.97
5 -1 4 117.52 3.35
5 -1 4 116.43 3.33
5 -1 4 119.7 3.47
-5 1 -5 3.08 0.94
5 -1 5 4.92 0.66
5 1 5 3.58 0.6
-5 1 -5 0.34 0.87
-5 -1 -5 3.98 0.92
-5 -1 -5 3.64 1.12
-5 1 -5 3.23 0.51
-5 1 -5 5 1.28
5 1 5 3.43 0.63
5 -1 5 4.65 0.68
5 1 5 3.71 0.62
5 -1 5 3.95 0.71
5 1 5 3.05 0.6
5 1 5 3.3 0.62
5 -1 5 3.2 0.57
5 -1 5 1.32 0.95
5 1 5 1.71 1.01
5 -1 5 2.88 0.49
5 -1 5 3.25 0.47
5 -1 5 4.88 0.64
5 -1 6 41.43 1.73
5 1 6 42.49 1.73
-5 1 -6 40.19 2.69
-5 -1 -6 41.31 2.45
-5 1 -6 44.43 1.6
5 1 6 40.68 1.72
5 -1 6 45.55 1.77
-5 -1 -6 40.3 2.82
-5 1 -6 38.6 2.69
5 1 6 42.41 1.63
5 -1 6 42.31 1.74
5 1 6 43.97 1.71
5 1 6 40.16 1.72
5 -1 6 43.72 1.67
5 1 6 44.99 1.8
5 -1 6 38.9 2.76
5 1 6 44.21 2.9
5 -1 6 40.29 1.5
5 -1 6 39.92 1.55
5 -1 6 43.45 1.73
5 -1 7 1.75 0.64
5 1 7 1.76 0.63
-5 1 -7 3.53 1.17
-5 -1 -7 3.18 1.11
-5 1 -7 1.94 0.55
-5 1 -7 1.21 1.1
5 1 7 2.81 0.68
5 -1 7 1.13 0.58
-5 -1 -7 3.25 1.32
5 1 7 1.68 0.54
5 -1 7 2.78 0.73
5 1 7 1.69 0.58
5 1 7 1.83 0.65
5 -1 7 1.75 0.61
5 -1 7 2.57 1.26
5 1 7 3.44 1.29
5 1 7 2.42 0.71
5 -1 7 1.49 0.48
5 -1 7 1.9 0.65
5 1 7 2.45 0.52
5 -1 7 1.56 0.48
5 -1 8 106.68 3.34
5 1 8 108.33 3.37
-5 1 -8 106.37 4.79
-5 -1 -8 109.04 4.58
-5 1 -8 106.34 3.21
5 1 8 109.51 3.34
5 1 8 106.24 3.36
5 -1 8 104.42 3.28
5 1 8 108.93 3.41
5 1 8 106.37 3.33
5 -1 8 104.23 3.34
-5 -1 -8 99.79 4.68
-5 1 -8 110.69 4.89
5 -1 8 106.35 3.3
5 -1 8 99.41 4.75
5 1 8 99.27 4.75
5 -1 8 102.82 3.16
5 -1 8 105.57 3.35
5 -1 8 102.17 3.14
-5 1 -9 29.27 2.45
-5 -1 -9 26.08 2.21
-5 1 -9 28.5 1.33
5 1 9 29.03 1.44
5 1 9 28.85 1.46
5 -1 9 31.54 1.46
5 1 9 32.47 1.52
5 1 9 29.06 1.41
-5 -1 -9 26.45 2.33
5 -1 9 28.79 1.38
-5 1 -9 29.97 2.49
5 -1 9 28.82 1.31
5 -1 9 33.49 1.54
5 1 10 1.93 0.7
-5 1 -10 2.91 0.61
5 1 10 3 0.66
5 -1 10 3.08 0.7
5 -1 10 3.01 0.6
5 1 10 2.22 0.63
5 -1 10 3.29 0.68
5 -1 10 3 0.7
5 1 11 -0.21 0.55
5 -1 11 0.92 0.56
-5 1 -11 1.2 0.53
5 -1 11 1 0.61
5 1 12 8.67 0.75
5 -1 12 8.21 0.74
5 -1 12 7.49 0.75
5 -1 12 9.19 0.79
5 1 12 8.2 0.74
-5 1 -12 8.51 0.69
5 -1 13 2.61 0.55
5 1 13 2.25 0.48
5 -1 13 2.25 0.53
5 -1 13 1.74 0.5
-5 1 -13 1.7 0.43
5 -1 13 2.03 0.5
5 1 14 9.58 0.6
5 -1 14 9.6 0.59
5 -1 14 10.76 0.64
-5 1 -14 9.44 0.51
5 1 14 10.34 0.58
5 -1 15 13.47 0.51
5 -1 15 12.17 0.51
-5 -2 15 1.29 0.32
-5 2 15 1.78 0.38
5 -2 -15 1.92 0.33
-5 -2 15 1.71 0.47
-5 -2 15 1.65 0.44
-5 -2 15 2.37 0.49
-5 2 14 2.9 0.45
-5 -2 14 2.02 0.44
-5 2 14 2.59 0.4
-5 2 14 2.67 0.52
5 -2 -14 2.86 0.45
-5 -2 14 2.83 0.62
-5 -2 14 2.66 0.57
-5 -2 14 2.95 0.57
-5 2 13 0.04 0.43
-5 -2 13 0.04 0.45
-5 2 13 0.83 0.43
5 2 -13 -0.04 0.47
5 -2 -13 0.35 0.48
-5 2 13 -0.05 0.52
-5 -2 13 0.44 0.63
-5 -2 13 0.27 0.6
-5 2 13 0.31 0.59
-5 -2 13 0.18 0.47
-5 -2 13 0.05 0.55
-5 2 12 101.54 3.07
-5 -2 12 100.08 3.07
5 2 -12 104.72 3.13
5 -2 -12 105.27 3.11
-5 2 12 104.68 3.09
-5 -2 12 104.46 3.32
-5 -2 12 99.28 3.28
-5 2 12 101.55 3.29
-5 -2 12 105.57 3.22
-5 2 12 103.64 3.16
-5 -2 12 100.48 3.29
-5 2 12 106.34 3.3
-5 2 11 27.14 1.28
-5 -2 11 27.19 1.27
-5 2 11 27.88 1.3
5 2 -11 27.93 1.31
5 -2 -11 28.22 1.31
-5 -2 11 28.48 1.48
-5 -2 11 26.94 1.28
-5 -2 11 26.76 1.45
-5 2 11 26.95 1.48
-5 2 11 28.69 1.4
-5 -2 11 29.08 1.43
-5 -2 11 26.04 1.45
-5 2 11 28.8 1.48
-5 -2 10 130.9 4.07
-5 2 10 140.86 4.07
-5 -2 10 129.07 4.07
-5 2 10 133.74 4.1
-5 2 10 136.78 3.94
-5 2 10 119.52 5.28
-5 -2 10 137.18 5.53
5 -2 -10 121.99 5.33
5 2 -10 123.59 5.41
5 -2 -10 128.43 5.48
5 2 -10 132.64 3.91
5 -2 -10 137.37 3.92
-5 -2 10 137.59 4.13
-5 -2 10 125.87 4.05
-5 2 10 133.34 4.14
-5 2 10 137.74 3.9
-5 -2 10 130.67 3.86
-5 -2 9 52.05 2.15
-5 2 9 56.12 2.15
-5 -2 9 58.68 2.2
-5 2 9 52.75 2.11
-5 2 9 49.72 3.11
-5 -2 9 56.44 3.28
5 -2 -9 53.46 3.19
5 2 -9 47.69 3.1
5 -2 -9 43.06 3
5 2 -9 52.62 1.96
5 -2 -9 55.1 2
-5 -2 9 55.18 2.18
-5 2 9 54.14 2.23
-5 -2 9 53.97 2.1
-5 2 9 53.18 2.18
-5 -2 9 53.48 1.94
-5 2 9 51.72 1.92
-5 2 8 70.65 3.59
-5 -2 8 63.68 3.51
-5 2 8 71.76 2.35
-5 -2 8 68.61 2.35
-5 -2 8 71.84 2.53
-5 2 8 72.56 2.55
5 2 -8 68.57 2.27
5 -2 -8 67.91 3.63
5 2 -8 70.91 3.76
5 -2 -8 73.06 3.77
5 2 -8 69.92 2.4
5 -2 -8 74.23 2.41
-5 -2 8 71.26 2.53
-5 2 8 73.39 2.68
-5 -2 8 68.86 2.49
-5 2 8 72.19 2.6
5 2 -8 73.03 2.26
-5 2 7 3.02 0.6
-5 -2 7 3.94 0.64
-5 2 7 3.54 1.11
-5 -2 7 1.96 1.03
-5 -2 7 3.49 0.76
-5 -2 7 4.19 0.72
-5 2 7 4.91 0.81
-5 2 7 4.23 0.71
5 2 -7 3.89 0.58
5 -2 -7 3.45 1.15
5 2 -7 3.79 1.19
5 -2 -7 5.49 1.28
5 2 -7 3.61 0.63
5 -2 -7 4.26 0.61
-5 -2 7 3.97 0.72
-5 -2 7 2.99 0.64
-5 2 7 3.37 0.73
5 2 -7 2.91 0.54
-5 2 6 157.56 4.39
-5 -2 6 158.28 4.4
-5 2 6 160.56 5.8
-5 -2 6 160.17 5.81
-5 -2 6 154.76 4.62
-5 2 6 154.42 4.57
-5 -2 6 157.78 4.51
-5 2 6 159.36 4.54
5 2 -6 154.78 4.42
5 2 -6 159.59 5.93
5 -2 -6 166.87 5.97
5 -2 -6 166.1 6.06
5 2 -6 161.06 4.44
5 -2 -6 162.34 4.43
-5 -2 6 149.77 4.47
-5 -2 6 157.1 4.47
-5 2 6 159.5 4.59
-5 2 6 155.09 4.35
5 2 -6 156.66 4.38
-5 2 5 5.5 1.17
-5 -2 5 6.35 1.32
-5 -2 5 6.07 0.66
-5 2 5 6.59 0.67
-5 2 5 6.74 0.72
-5 -2 5 5.09 0.66
-5 2 5 6.5 0.76
5 2 -5 6.96 0.72
5 2 -5 6.9 0.76
5 2 -5 6.24 0.68
5 -2 -5 6.18 1.25
5 2 -5 5.77 1.24
5 -2 -5 6.95 1.25
5 2 -5 6.61 0.69
5 -2 -5 5.61 0.63
-5 2 5 6.27 0.76
-5 2 5 7.1 0.63
5 2 -5 6.02 0.68
-5 2 4 182.39 5.1
-5 2 4 176.25 4.96
5 2 -4 186.71 5.06
5 2 -4 184.89 5.08
5 2 -4 190.05 6.4
5 -2 -4 180.15 6.31
5 -2 -4 186.29 6.43
5 2 -4 180.31 4.95
5 -2 -4 191.53 4.98
-5 2 4 169.05 4.88
5 2 -4 187.63 5
-5 -2 4 188.29 6.34
-5 2 4 185.94 6.32
5 -2 -3 183.1 5.06
-5 -2 3 195.19 6.44
-5 2 3 192.7 6.42
-5 2 3 188.81 5.22
5 2 -3 187.26 5.19
5 2 -3 184.18 5.19
5 2 -3 194.68 6.47
5 -2 -3 192.25 6.49
5 -2 -3 184.96 6.5
5 2 -3 191.15 5.1
5 -2 -3 189.17 5.09
5 -2 -3 193.92 5.19
5 2 -3 196.77 5.16
-5 2 3 187.18 5.06
5 -2 -2 33.01 1.34
-5 -2 2 37.47 2.31
-5 2 2 31.64 2.15
-5 2 2 34.68 1.42
5 2 -2 30.28 1.38
5 2 -2 32.83 1.43
5 2 -2 34.78 2.18
5 -2 -2 35.48 2.24
5 -2 -2 33.5 2.29
5 2 -2 32.22 1.3
5 -2 -2 32.04 1.31
5 -2 -2 32.41 1.37
5 2 -2 31.18 1.36
5 -2 -1 37.77 1.47
-5 -2 1 38.68 2.34
-5 2 1 36.96 2.25
5 2 -1 36 1.39
5 2 -1 36.15 1.51
5 2 -1 36.8 1.5
5 2 -1 36.46 1.55
5 2 -1 34.15 2.22
5 -2 -1 39.13 2.33
5 -2 -1 42.79 2.49
5 2 -1 38.93 1.42
5 -2 -1 33.01 1.36
5 2 -1 34.31 1.45
5 -2 -1 36.16 1.46
-5 2 1 38.82 1.46
-5 -2 0 3.82 1.07
-5 2 0 3.17 1.06
5 -2 0 0.1 0.53
5 2 0 0.08 0.41
5 2 0 0.55 0.52
5 2 0 1.48 0.57
5 -2 0 0.49 0.83
5 2 0 3.27 0.85
5 -2 0 3.28 0.9
5 2 0 -0.12 0.42
5 -2 0 0.16 0.41
5 -2 0 0.36 0.49
-5 2 0 0.04 0.4
-5 2 0 -0.15 0.84
-5 2 -1 21.43 1
-5 2 -1 20.26 1.74
-5 -2 -1 20.36 1.81
-5 2 -1 19.46 1.7
5 -2 1 21.43 1.14
5 2 1 22.23 1.05
5 2 1 20.13 1.12
5 2 1 17.87 1.64
5 -2 1 22.31 1.8
5 -2 1 19.81 1.83
5 2 1 20.05 1
5 -2 1 20.14 1.01
5 -2 1 19.92 0.98
5 -2 1 20.24 0.96
5 -2 1 20.27 1.06
-5 2 -2 21.39 1.03
-5 2 -2 21.06 1.87
-5 -2 -2 22.29 1.86
-5 2 -2 23.04 1.81
5 -2 2 22.43 1.06
5 -2 2 24.45 1.23
5 2 2 23.53 1.13
5 2 2 21.5 1.16
5 2 2 21.19 1.14
5 2 2 22.35 1.2
5 -2 2 22.35 1.62
5 2 2 21.16 1.82
5 -2 2 23.9 1.89
5 -2 2 22.22 1.96
5 2 2 22.18 1.06
5 -2 2 23.96 1.1
5 -2 2 22.01 1.07
5 -2 2 20.64 1.1
5 -2 2 25 1.04
-5 2 -3 4.02 1.13
5 -2 3 3.71 0.57
5 2 3 4.44 0.6
-5 2 -3 4.23 0.58
-5 2 -3 3.52 1.04
-5 -2 -3 2.75 1
-5 2 -3 4.24 1.05
5 -2 3 3.23 0.57
5 -2 3 4.76 0.68
5 2 3 4.54 0.6
5 2 3 3.56 0.57
5 2 3 4.21 0.64
5 2 3 4.73 0.67
5 2 3 3.99 0.69
5 -2 3 4.44 1.24
5 -2 3 3.02 1.01
5 2 3 5.68 1.2
5 2 3 3.65 0.58
5 -2 3 4.48 0.6
5 -2 3 4.58 0.61
5 -2 3 5.12 0.63
5 -2 3 3.58 0.52
-5 2 -4 1.74 0.93
5 -2 4 0.74 0.5
5 2 4 1.67 0.5
-5 2 -4 2.14 1.09
-5 2 -4 1.73 0.53
-5 -2 -4 -0.17 0.91
-5 2 -4 2.31 0.93
5 -2 4 1.7 0.57
5 -2 4 1.74 0.66
5 2 4 0.66 0.47
5 2 4 1.9 0.57
5 2 4 0.92 0.44
5 2 4 1.66 0.61
5 2 4 1.82 0.62
5 2 4 1.22 0.57
5 -2 4 1.42 0.87
5 2 4 2.47 0.99
5 -2 4 1.74 0.55
5 -2 4 1.29 0.5
5 -2 4 1.29 0.6
5 -2 4 1.06 0.45
-5 2 -5 2.23 0.9
5 -2 5 1.5 0.56
5 2 5 1.08 0.54
-5 2 -5 2.65 1.15
-5 2 -5 1.25 0.53
-5 -2 -5 1.44 1.02
-5 2 -5 2.09 0.95
5 -2 5 2.52 0.65
5 2 5 0.41 0.47
5 2 5 1.13 0.56
5 2 5 1.63 0.62
5 2 5 1.66 0.64
5 2 5 1.29 0.54
5 -2 5 1.5 1.01
5 2 5 3.17 1.12
5 -2 5 0.82 0.49
5 -2 5 0.83 0.49
5 -2 5 2 0.51
5 -2 5 1.76 0.64
5 2 6 26.19 1.25
5 -2 6 23.86 1.25
-5 2 -6 24.85 1.23
-5 2 -6 20.85 2.12
-5 2 -6 28.52 2.12
5 -2 6 26.21 1.32
-5 -2 -6 25.35 2.14
-5 2 -6 19.99 1.95
5 -2 6 25.91 1.36
5 2 6 25.8 1.32
5 2 6 24.16 1.16
5 2 6 27.52 1.36
5 -2 6 23.33 1.15
5 2 6 22.88 1.24
5 -2 6 24.84 1.14
5 -2 6 25.76 2.24
5 2 6 23.28 2.08
5 -2 6 23.81 1.18
5 -2 6 27.74 1.26
5 -2 6 23.27 1.27
5 -2 6 26.89 1.22
5 -2 7 -0.06 0.54
5 2 7 0.89 0.57
-5 2 -7 0.42 1.07
-5 2 -7 0.85 0.54
5 -2 7 0.65 0.59
-5 -2 -7 -0.58 0.99
-5 2 -7 -0.19 0.99
5 -2 7 -0.06 0.59
5 2 7 0.19 0.49
5 2 7 0.23 0.58
5 -2 7 0.58 0.51
5 2 7 0.1 0.53
5 -2 7 0.1 0.46
5 -2 7 0.41 0.91
5 2 7 -0.21 0.89
5 -2 7 0.15 0.49
5 2 7 0.24 0.59
5 -2 7 1.33 0.57
5 -2 7 0.61 0.49
5 -2 7 0.06 0.59
5 -2 8 278.01 7.72
-5 2 -8 284.55 9.63
-5 2 -8 287.27 7.71
5 -2 8 291.27 7.82
-5 -2 -8 293.7 9.44
-5 2 -8 296.84 9.46
5 -2 8 297.55 7.83
5 2 8 290.84 7.6
5 2 8 290.19 7.79
5 -2 8 298.63 7.69
5 2 8 298.27 7.67
5 -2 8 279.78 9.48
5 -2 8 287.04 7.64
5 -2 8 293.95 7.65
5 -2 8 299.78 7.76
5 -2 8 300.6 7.88
5 -2 8 289.41 7.7
-5 2 -9 187.8 5.13
5 2 9 185.3 5.18
5 2 9 182.28 5.21
5 -2 9 185.38 5.09
5 2 9 179.19 4.96
5 2 9 182.01 4.97
5 -2 9 180.12 5.19
5 -2 9 182.98 5.19
5 -2 9 187.49 5.15
5 -2 9 184.28 5.1
5 -2 9 179.92 5.23
-5 2 -10 300.92 7.72
5 2 10 292.02 7.73
5 2 10 310.03 7.83
5 -2 10 288.62 7.67
5 2 10 299.84 7.78
5 2 10 284.48 7.52
5 -2 10 289.28 7.8
5 -2 10 294.51 7.72
5 -2 10 289.57 7.72
5 -2 10 294.24 7.85
5 2 11 7.21 0.72
5 -2 11 7.92 0.7
5 2 11 7.9 0.72
5 2 11 7.02 0.78
5 -2 11 7.29 0.7
-5 2 -11 7.92 0.75
5 -2 11 6.3 0.81
5 2 12 0.12 0.47
5 2 12 0.57 0.52
5 -2 12 -0.18 0.44
-5 2 -12 0.34 0.45
5 2 13 30.69 1.16
5 -2 13 27.91 1.11
5 -2 13 32.23 1.2
5 2 13 30.37 1.13
5 -2 13 31.03 1.17
-5 2 -13 30.09 1.14
5 -2 14 1.5 0.29
5 -2 14 1.46 0.36
5 -2 14 1.62 0.32
-5 2 -14 0.84 0.29
5 -2 14 1.53 0.32
-5 3 15 0.31 0.26
-5 3 14 35.29 1.25
-5 3 14 40.45 1.34
-5 -3 14 39.91 1.41
-5 -3 14 38.78 1.4
-5 -3 14 36.75 1.38
-5 3 13 135.2 3.63
-5 -3 13 125.15 3.43
-5 -3 13 127.7 3.73
-5 -3 13 130.19 3.74
-5 -3 13 133.99 3.76
-5 3 13 133.54 3.74
-5 3 12 200.04 5.27
5 -3 -12 187.47 5.04
-5 -3 12 196.49 5.07
-5 -3 12 191.82 5.36
-5 -3 12 191.94 5.35
-5 -3 12 190.4 5.29
-5 3 12 197.46 5.22
-5 -3 12 192.31 5.39
-5 3 12 200.07 5.37
-5 3 11 217.91 5.75
-5 3 11 216.32 5.78
-5 -3 11 207.06 5.8
-5 3 11 211.28 5.73
-5 -3 11 212.96 5.86
-5 3 11 210.56 5.83
5 -3 -11 207.28 5.52
-5 -3 11 206.7 5.84
-5 -3 11 211.51 5.83
-5 -3 11 205.7 5.52
-5 3 10 127.2 3.79
-5 -3 10 127.6 3.89
-5 3 10 130.37 3.85
-5 -3 10 124.14 3.89
-5 3 10 133.01 3.92
5 -3 -10 128.49 3.58
-5 -3 10 122.57 3.85
-5 -3 10 125.71 3.86
-5 3 10 120.56 3.54
-5 -3 10 127 3.58
-5 3 9 1.53 0.47
-5 -3 9 1.53 0.51
-5 3 9 1.85 0.66
-5 3 9 2.76 0.7
-5 -3 9 1.73 0.66
5 3 -9 2.21 0.5
5 3 -9 1.75 0.5
5 -3 -9 1.45 0.49
-5 -3 9 1.99 0.71
-5 -3 9 1.54 0.67
5 3 -9 1.53 0.49
-5 3 8 20.46 1.01
-5 -3 8 20.69 1.02
-5 -3 8 18.49 1.18
-5 3 8 20.63 1.23
5 3 -8 19.55 1.03
5 -3 -8 19.21 2.04
5 3 -8 19.07 1.01
5 -3 -8 17.94 0.98
-5 -3 8 19.24 1.19
-5 -3 8 19.13 1.17
5 3 -8 17.81 1.01
-5 3 7 7.42 0.64
-5 -3 7 8.38 0.67
-5 3 7 7.93 0.88
-5 -3 7 6.61 0.84
5 3 -7 6.63 0.72
5 -3 -7 7.34 1.43
5 3 -7 6.69 1.2
5 3 -7 5.75 0.63
5 -3 -7 6.49 0.64
-5 -3 7 6.41 0.76
-5 -3 7 6 0.76
5 3 -7 7.17 0.71
-5 3 7 5.57 0.7
-5 3 6 0.69 0.44
-5 -3 6 1.05 0.47
-5 3 6 1.69 0.84
-5 3 6 0.89 0.61
-5 -3 6 0.81 0.58
-5 3 6 1.82 0.68
5 3 -6 0.81 0.54
5 -3 -6 1.69 0.99
5 3 -6 1.46 0.82
5 3 -6 0.81 0.44
5 -3 -6 0.71 0.45
-5 -3 6 1 0.51
-5 3 6 0.52 0.56
5 3 -6 0.97 0.55
-5 3 5 0.2 0.41
-5 3 5 -0.3 0.8
-5 -3 5 -0.15 0.82
-5 3 5 -0.1 0.48
5 3 -5 0.71 0.59
5 -3 -5 1.03 1.05
5 3 -5 -0.16 0.76
5 -3 -5 -0.16 0.74
5 3 -5 0.58 0.42
5 -3 -5 0.2 0.41
-5 3 5 0.05 0.53
5 3 -5 0.15 0.53
-5 3 5 0.39 0.56
-5 -3 5 0.43 0.54
-5 3 5 0.24 0.6
-5 3 4 0.43 0.72
-5 -3 4 -0.59 0.79
-5 3 4 0.42 0.4
5 3 -4 0.05 0.48
5 3 -4 0.27 0.54
5 3 -4 0.06 0.64
5 3 -4 0.34 0.55
5 -3 -4 -0.6 1.04
5 3 -4 0.15 0.76
5 -3 -4 -0.6 0.87
5 3 -4 -0.08 0.42
-5 3 4 -0.15 0.49
5 3 -4 0.51 0.55
-5 3 4 -0.16 0.48
-5 3 4 0.23 0.57
-5 3 3 102.12 2.95
-5 -3 3 107.82 4.17
-5 3 3 97.49 4.01
5 3 -3 102.5 3.09
5 3 -3 96.99 3.14
5 3 -3 102.65 3.21
5 3 -3 104.18 3.27
5 3 -3 95.99 4.03
5 -3 -3 104.29 4.13
5 -3 -3 114.27 4.72
5 3 -3 99.84 2.97
5 3 -3 103.29 3.14
-5 3 3 103.79 3.12
-5 3 3 102.07 3.18
-5 -3 2 439.9 12.45
-5 3 2 449.22 12.45
5 -3 -2 433.04 11.16
5 3 -2 437.21 11.23
5 3 -2 448.68 11.33
5 3 -2 438.01 11.36
5 3 -2 447.33 11.38
5 3 -2 431.31 12.44
5 -3 -2 444.46 12.5
5 -3 -2 450.45 13.19
5 3 -2 445.37 11.1
5 3 -2 454.1 11.3
-5 3 2 441.49 11.25
-5 3 2 451.06 11.31
5 -3 -1 113.32 3.36
-5 -3 1 124.77 4.48
-5 3 1 107.54 4.22
5 3 -1 114.53 3.4
5 3 -1 111.55 3.49
5 3 -1 110.2 4.31
5 -3 -1 109.12 4.31
5 -3 -1 119.26 4.92
5 3 -1 110.58 3.22
-5 3 1 116.5 3.4
-5 3 1 115.25 3.38
5 -3 0 243.51 6.54
-5 -3 0 242.5 7.63
-5 3 0 247.06 7.61
5 3 0 244.58 6.56
5 3 0 243.26 6.66
5 3 0 242.45 6.57
5 3 0 248.64 6.64
5 3 0 240.6 7.65
5 -3 0 253.09 7.75
5 3 0 245.61 6.38
-5 3 0 245.82 6.47
5 3 0 244.27 6.54
-5 3 0 243.78 6.53
-5 3 -1 138.85 5.43
-5 3 -1 120.72 5.33
-5 3 -1 133.65 3.93
5 -3 1 136.13 3.98
-5 -3 -1 144.04 5.03
-5 3 -1 136.44 4.92
5 3 1 138 3.96
5 3 1 140.79 3.99
5 3 1 136.8 3.96
5 3 1 136.23 4.02
5 3 1 135.52 4.05
5 -3 1 133.21 3.77
5 3 1 131.7 4.95
5 -3 1 134.05 4.98
5 3 1 131.81 3.77
5 -3 1 141.88 3.98
5 -3 1 137.23 3.9
-5 3 -2 287.59 7.73
5 -3 2 302.86 7.65
5 3 2 291.15 7.61
-5 3 -2 310.58 9.6
-5 3 -2 292.19 9.61
5 -3 2 300.82 7.84
-5 -3 -2 298.16 8.95
-5 3 -2 289.19 8.86
5 3 2 296.26 7.74
5 3 2 292.7 7.79
5 3 2 301.4 7.76
5 3 2 292.38 7.81
5 3 2 296.65 7.88
5 -3 2 297.96 7.62
5 -3 2 282 9.07
5 -3 2 296.94 9.05
5 3 2 287.07 8.96
5 -3 2 297.78 7.78
5 -3 2 289.44 7.77
5 -3 2 293.97 7.71
-5 3 -3 107.06 3.24
5 -3 3 102.02 3.1
5 3 3 106.59 3.11
-5 3 -3 106.2 4.7
-5 3 -3 111.48 4.8
-5 -3 -3 101.67 4.19
-5 3 -3 103.19 4.18
5 -3 3 101.96 3.11
5 -3 3 102.05 3.31
5 3 3 109.74 3.3
5 3 3 99.94 3.21
5 3 3 103.45 3.18
5 3 3 101.88 3.31
5 3 3 107.75 3.2
5 3 3 110.35 3.29
5 3 3 106.02 3.32
5 -3 3 111.72 3.14
5 -3 3 101.66 4.22
5 -3 3 109.95 4.38
5 3 3 105.55 4.3
5 -3 3 106.83 3.28
5 -3 3 104.24 3.23
5 -3 3 107.1 3.29
5 -3 3 103.99 3.19
-5 3 -4 8.32 1.41
5 3 4 7.91 0.67
5 -3 4 6.85 0.68
-5 3 -4 8.51 0.81
-5 3 -4 10.88 1.65
-5 3 -4 7.87 1.21
5 -3 4 8.28 0.75
5 -3 4 7.52 0.86
5 3 4 9.09 0.85
5 3 4 8.24 0.83
5 3 4 7.98 0.71
5 3 4 8.66 0.7
5 3 4 8.71 0.81
5 3 4 8.05 0.83
5 3 4 7.89 0.85
5 -3 4 8.83 0.72
5 -3 4 8.36 1.3
5 3 4 8.15 1.23
5 -3 4 8.92 0.82
5 -3 4 8.43 0.79
5 -3 4 8.59 0.81
5 -3 4 8.45 0.82
-5 3 -5 2.2 1.15
5 -3 5 2.62 0.55
5 3 5 1.25 0.49
-5 3 -5 2.54 1.3
-5 3 -5 3.02 0.67
-5 3 -5 2.19 0.89
5 -3 5 3.69 0.65
5 -3 5 1.97 0.69
5 3 5 2.3 0.63
5 3 5 2.44 0.67
5 3 5 2.38 0.52
5 3 5 2.18 0.47
5 3 5 1.97 0.58
5 3 5 2.33 0.66
5 3 5 1.99 0.7
5 -3 5 2.64 0.57
5 3 5 3.4 0.97
5 -3 5 2.96 0.62
5 -3 5 1.53 0.45
5 -3 5 3.56 0.64
5 -3 5 2.53 0.65
5 -3 5 2.85 0.61
5 -3 6 31.46 1.38
5 3 6 31.1 1.36
-5 3 -6 36.33 1.57
-5 3 -6 35.88 2.58
-5 3 -6 31.17 2.19
5 -3 6 31.94 1.49
5 3 6 33.11 1.51
5 3 6 36.1 1.61
5 3 6 34.81 1.45
5 3 6 32.43 1.52
5 -3 6 32.63 1.41
5 -3 6 33.89 1.51
5 -3 6 32.29 1.34
5 -3 6 34.17 1.51
5 -3 6 33.87 1.49
5 -3 6 35.4 1.6
-5 3 -7 0.55 0.98
-5 3 -7 0.65 1.19
-5 3 -7 0.67 0.56
5 -3 7 0.06 0.58
5 3 7 0.26 0.56
5 3 7 0.06 0.59
5 3 7 0.05 0.47
5 3 7 0.22 0.55
5 -3 7 0.05 0.48
5 -3 7 0.33 0.52
5 -3 7 -0.63 0.61
5 -3 7 -0.06 0.65
5 -3 7 -0.05 0.54
-5 3 -8 147.28 4.25
5 -3 8 146.86 4.26
5 -3 8 149.26 4.34
5 3 8 141.83 4.25
5 3 8 148.64 4.19
5 3 8 152.06 4.32
5 3 8 142.71 4.18
5 -3 8 142.57 4.16
5 -3 8 141.7 4.19
5 -3 8 142.81 4.25
5 -3 8 146.58 4.35
5 -3 8 144.05 4.21
5 3 9 3.72 0.62
5 3 9 2.72 0.62
5 3 9 2.89 0.69
5 -3 9 3.3 0.51
5 3 9 2.43 0.55
-5 3 -9 3.68 0.69
5 -3 9 3.5 0.68
5 -3 9 3.21 0.73
5 -3 9 2.97 0.62
5 -3 9 2.99 0.68
5 -3 9 2.84 0.6
5 -3 9 3.48 0.76
-5 3 -10 39.01 1.56
5 3 10 36.64 1.54
5 -3 10 39.15 1.41
5 3 10 40.34 1.59
5 3 10 39.07 1.47
5 -3 10 39.28 1.58
5 -3 10 40.04 1.6
5 -3 10 37.31 1.57
5 -3 10 39.2 1.56
5 -3 10 37.58 1.65
-5 3 -11 10.25 0.77
5 3 11 10.74 0.78
5 -3 11 11.47 0.67
5 3 11 11.35 0.79
5 3 11 12.14 0.71
5 -3 11 12.43 0.84
5 -3 11 10.62 0.78
5 -3 11 10.51 0.78
5 -3 11 10.83 0.83
5 -3 12 1.52 0.49
5 3 12 0.6 0.38
5 -3 12 0.14 0.31
5 3 12 0.57 0.44
-5 3 -12 1.07 0.43
5 -3 13 6.99 0.53
5 -3 13 6.96 0.48
-5 3 -13 7.64 0.51
5 -3 13 7.41 0.51
-5 4 14 0.43 0.24
-5 4 14 0.2 0.23
-5 4 13 6.78 0.51
-5 4 13 5.66 0.51
5 -4 -13 5.37 0.49
-5 -4 13 5.05 0.49
-5 -4 13 5.13 0.5
-5 -4 13 6.91 0.58
-5 4 12 12.97 0.78
-5 4 12 10.9 0.7
-5 4 12 9.14 0.67
-5 -4 12 11.46 0.75
-5 -4 12 9.66 0.74
5 -4 -12 10.39 0.72
-5 -4 12 10.75 0.73
-5 -4 12 11.05 0.78
-5 -4 12 11.55 0.68
-5 4 11 6.9 0.65
-5 4 11 7.5 0.72
-5 -4 11 6.48 0.69
-5 -4 11 7.4 0.74
-5 -4 11 7.78 0.74
-5 4 11 7.35 0.66
-5 -4 11 6.7 0.75
5 4 -10 1.04 0.43
-5 4 10 1.05 0.5
-5 -4 10 1.69 0.59
-5 -4 10 1.71 0.59
-5 4 10 2.03 0.6
-5 -4 10 2.25 0.66
-5 -4 10 2.23 0.66
-5 4 10 1.49 0.6
5 4 -9 23.93 1.12
-5 -4 9 24.57 1.2
-5 -4 9 24.27 1.24
-5 4 9 23.9 1.25
-5 -4 9 23.74 1.28
-5 4 9 22.84 1.16
5 4 -8 89.11 2.74
-5 4 8 86.76 2.71
5 4 -8 85.57 2.66
-5 -4 8 83.95 2.76
-5 -4 8 82.25 2.83
-5 4 7 140.95 4.02
5 4 -7 142.05 3.98
-5 4 7 125.17 3.84
5 4 -7 135.4 3.92
-5 -4 7 128.86 3.91
5 -4 -7 137.57 4.06
-5 -4 7 139.47 4.08
5 4 -7 135.32 3.97
-5 4 6 58.92 2.15
5 4 -6 55.67 2.09
5 4 -6 57.79 2.1
-5 4 6 55.93 2.11
-5 4 6 56.95 1.97
5 -4 -6 60.87 2.2
-5 4 6 57.88 2.2
-5 -4 6 58.08 2.15
5 4 -6 56.22 2.11
-5 4 5 163.25 4.6
5 4 -5 160.27 4.58
5 4 -5 157.61 4.6
5 4 -5 162.44 4.59
-5 4 5 152.06 4.35
-5 4 5 158.18 4.55
5 -4 -5 167.22 4.67
-5 4 5 158.24 4.64
-5 -4 5 152.21 4.52
-5 4 4 52.53 1.96
5 4 -4 48.95 1.92
5 4 -4 48.24 1.96
5 4 -4 48.41 1.95
-5 4 4 48.8 1.89
5 -4 -4 53.02 3.28
5 -4 -4 50.47 1.98
-5 4 4 50.52 1.98
5 4 -3 187.14 5.31
5 4 -3 185.13 5.24
-5 4 3 185.54 5.19
-5 4 3 186.8 5.23
5 -4 -3 190.96 7.08
5 4 -3 181.49 5.26
5 4 -3 187.38 5.26
-5 4 3 190.55 5.27
5 -4 -3 191.01 5.31
-5 4 3 185.83 5.29
5 4 -2 150.14 4.17
5 4 -2 155.81 4.17
-5 4 2 149.88 4.03
5 -4 -2 157.18 6
-5 4 2 153.77 4.17
-5 4 2 147.47 5.79
5 -4 -2 160.9 4.22
-5 4 2 159.11 4.16
5 4 -1 37.39 1.63
5 4 -1 37.83 1.64
5 4 -1 37.28 1.67
5 4 -1 38.04 1.74
-5 4 1 35.93 1.51
5 -4 -1 36.07 2.68
5 -4 -1 39.66 1.66
-5 4 1 36.27 1.56
5 4 -1 37.23 1.6
-5 4 1 37.73 1.63
-5 4 1 30.89 2.56
-5 4 0 0.66 1.03
-5 4 0 -0.12 0.6
-5 4 0 0.18 0.45
5 4 0 0.75 0.57
5 4 0 0.12 0.62
5 4 0 -0.12 0.6
5 4 0 0.06 0.59
5 4 0 0.36 0.61
5 4 0 0.57 0.71
5 -4 0 -0.05 0.53
5 -4 0 -0.22 1.01
5 -4 0 -0.09 0.48
5 -4 0 -0.21 0.91
5 -4 0 0.29 0.6
-5 4 0 0.3 0.5
5 -4 0 -0.17 0.61
-5 4 -1 196.02 5.51
5 4 1 193.58 5.54
5 4 1 198.91 5.52
5 4 1 199.87 5.48
5 4 1 198.48 5.53
5 4 1 203.2 5.63
5 -4 1 193.47 5.46
5 -4 1 197.32 5.39
5 -4 1 193.24 7.13
5 -4 1 188.53 7.13
5 -4 1 201.29 5.54
5 -4 1 195.96 5.51
5 -4 1 196.49 5.47
-5 4 -1 196.88 5.35
-5 4 -2 15.21 1.95
-5 4 -2 11.6 1.85
-5 4 -2 15.52 1.05
5 4 2 14.52 1.06
5 4 2 16.11 1.06
5 4 2 15.88 0.98
5 4 2 16.38 1.06
5 4 2 14.76 1.08
5 -4 2 12.93 1.01
5 -4 2 13.9 1.83
5 -4 2 13.35 0.93
5 -4 2 15.26 1.79
5 -4 2 15.41 1.06
5 -4 2 13.81 1.01
5 -4 2 15.28 1.02
-5 4 -3 14.32 1.86
-5 4 -3 9.54 1.74
-5 4 -3 10.83 0.92
5 -4 3 11.94 1
5 4 3 12.61 1
5 4 3 11.45 0.9
5 4 3 11.04 1
5 4 3 9.91 0.82
5 4 3 9.54 0.84
5 -4 3 10.25 1.59
5 -4 3 9.88 0.82
5 -4 3 9 1.36
5 -4 3 10.06 0.91
5 -4 3 11.96 0.96
5 -4 3 11.5 0.89
-5 4 -4 4.78 0.78
-5 4 -4 6.84 1.41
-5 4 -4 6.04 1.5
5 -4 4 5.09 0.81
5 4 4 5.94 0.83
5 4 4 6.55 0.73
5 4 4 5.4 0.62
5 4 4 6.19 0.73
5 4 4 6.77 0.81
5 -4 4 4.69 0.65
5 -4 4 5.35 1.13
5 -4 4 5.54 0.79
5 -4 4 6.61 0.8
5 -4 4 5.89 0.82
5 -4 4 7.44 0.79
-5 4 -5 152.42 4.43
-5 4 -5 138.09 6.01
5 -4 5 152.17 4.27
5 -4 5 147.5 4.48
5 4 5 154.46 4.29
5 4 5 148.88 4.4
5 4 5 153.05 4.46
5 4 5 144.52 4.25
5 -4 5 149.88 4.33
5 -4 5 153.33 4.47
5 -4 5 156.07 4.47
5 -4 5 155.12 4.33
5 -4 5 149.21 4.44
5 -4 5 157.49 4.43
-5 4 -6 44.02 1.84
5 -4 6 44.37 1.74
5 -4 6 48.27 1.97
5 4 6 47.54 1.68
5 4 6 48.1 1.88
5 4 6 46.94 1.87
5 -4 6 45.21 1.78
5 -4 6 47.43 1.9
5 -4 6 46.62 1.74
5 -4 6 49.42 1.91
5 -4 6 48.7 1.92
5 -4 6 48.35 1.88
-5 4 -7 9.9 0.9
5 -4 7 10.49 0.83
5 -4 7 12.28 1
5 4 7 12.67 0.97
5 4 7 13.62 0.98
5 4 7 10.88 0.9
5 -4 7 11.44 0.88
5 -4 7 12.11 0.94
5 -4 7 11.58 0.94
5 -4 7 10.15 0.97
5 -4 7 11.51 0.91
-5 4 -8 294.06 7.67
5 -4 8 298.33 7.62
5 4 8 300.95 7.68
5 4 8 287.5 7.62
5 4 8 285.64 7.61
5 -4 8 290.61 7.59
5 -4 8 287.06 7.65
5 -4 8 293.19 7.7
5 -4 8 292.5 7.73
5 -4 8 282.44 7.64
-5 4 -9 207.73 5.57
5 4 9 199.06 5.52
5 4 9 217.41 5.54
5 4 9 203.68 5.49
5 -4 9 205.21 5.55
5 -4 9 202.03 5.6
5 -4 9 203.7 5.55
5 -4 9 204.2 5.59
5 -4 9 210.62 5.52
5 -4 9 202.64 5.61
-5 4 -10 52.87 1.77
5 -4 10 50.19 1.72
5 -4 10 48.78 1.76
5 4 10 51.77 1.72
5 4 10 51.76 1.7
5 -4 10 48.8 1.71
5 -4 10 50.65 1.78
5 -4 10 48.03 1.77
5 -4 10 47.56 1.72
5 -4 11 99.09 2.72
5 -4 11 94.55 2.72
5 -4 11 91.07 2.73
-5 4 -11 96.76 2.74
5 -4 12 25.49 0.91
5 -4 12 27.49 0.94
-5 4 -12 32.62 1.04
5 -4 12 29.93 1.01
-5 5 12 175.52 4.2
-5 -5 12 150.92 4.12
-5 -5 11 65.49 1.91
-5 5 11 64.12 1.9
-5 5 11 63.19 1.94
5 -5 -11 58.93 1.84
-5 -5 11 56.91 1.81
-5 -5 11 62.22 1.93
-5 -5 11 62.55 1.93
5 5 -10 33.05 1.21
-5 5 10 39.44 1.43
-5 5 10 36.02 1.35
-5 -5 10 33.85 1.28
5 -5 -10 36.15 1.32
-5 -5 10 35.72 1.41
-5 -5 10 36.89 1.41
-5 5 10 35.96 1.32
-5 -5 9 14.03 0.9
-5 5 9 14.6 0.87
-5 -5 9 14.35 0.81
5 -5 -9 14.17 0.86
5 5 -9 14.51 0.81
-5 5 9 14.44 0.94
5 5 -8 2.6 0.45
-5 5 8 4.07 0.67
5 -5 -8 4.36 0.61
-5 -5 8 3.19 0.71
-5 -5 8 2.14 0.59
-5 5 8 3.91 0.65
5 5 -8 3.7 0.57
5 5 -7 16.61 0.98
-5 5 7 15.35 1.03
5 -5 -7 15.78 0.97
-5 -5 7 14.91 1
5 5 -7 15.18 0.87
5 5 -6 0.37 0.51
-5 5 6 0.69 0.61
-5 5 6 0.38 0.57
5 5 -6 0.41 0.56
-5 5 6 0.55 0.6
5 -5 -6 0.15 0.57
-5 -5 6 0.31 0.53
-5 5 5 61.73 2.18
5 5 -5 60.13 2.15
-5 5 5 59.12 2.17
5 5 -5 59.96 2.2
-5 5 5 63.35 2.22
5 5 -5 60.08 2.17
5 -5 -5 61.67 2.2
-5 -5 5 59.41 2.1
-5 5 5 59.44 2.2
-5 5 4 57.02 2.13
5 5 -4 56.92 2.14
-5 5 4 61.95 2.18
5 5 -4 61.71 2.2
-5 5 4 60.3 2.2
5 5 -4 59.49 2.17
5 -5 -4 58.76 2.15
-5 5 4 59.57 2.19
-5 5 3 23.47 1.23
5 5 -3 25.7 1.33
-5 5 3 23.01 1.21
-5 5 3 21.9 1.27
5 -5 -3 23.66 1.29
-5 5 3 23.8 1.27
-5 5 2 150.87 4.48
5 5 -2 156.7 4.58
-5 5 2 151.6 4.46
5 5 -2 162.12 4.59
5 5 -2 158.02 4.54
-5 5 2 160.52 4.6
5 -5 -2 165.14 4.59
-5 5 2 156.64 4.52
5 5 -1 344.51 8.93
5 5 -1 343.2 8.92
-5 5 1 340.69 8.82
5 5 -1 331.6 8.86
5 5 -1 342.79 8.95
-5 5 1 342.63 8.76
5 5 -1 336.8 8.82
-5 5 1 334.57 8.9
5 -5 -1 327.64 8.85
-5 5 0 284.62 7.74
5 5 0 295.55 7.88
5 5 0 293.54 7.8
5 5 0 293.88 7.89
5 -5 0 294.21 7.74
5 -5 0 307.82 7.94
-5 5 0 292.6 7.67
5 5 0 295.64 7.78
-5 5 0 302.02 7.9
5 -5 0 288.1 7.79
5 -5 0 301.33 7.87
5 -5 1 287.75 7.76
-5 5 -1 299.55 7.83
5 5 1 299.17 7.96
5 5 1 298.92 7.95
5 5 1 299.3 7.85
5 5 1 299.11 7.95
5 -5 1 295.61 7.84
5 -5 1 310.02 8.02
-5 5 -1 299.02 7.95
5 -5 1 291.51 7.89
5 -5 1 308.87 7.95
5 -5 2 36.93 1.55
5 5 2 39.47 1.69
-5 5 -2 37.94 1.52
5 5 2 39.01 1.65
5 5 2 38.01 1.52
5 5 2 37.3 1.63
5 -5 2 36.61 1.55
5 -5 2 36.03 1.66
-5 5 -2 35.74 1.65
5 -5 2 38.31 1.62
5 -5 2 36.07 1.63
5 -5 3 19.53 1.12
5 5 3 19.68 1.14
5 5 3 20.16 1.01
5 5 3 20.07 1.18
5 -5 3 21.46 1.11
5 -5 3 19.06 1.21
5 -5 3 19.04 1.13
5 -5 3 20.22 1.17
-5 5 -3 21.05 1.2
-5 5 -4 -0.06 0.64
5 -5 4 -0.27 0.61
5 5 4 0.39 0.52
5 5 4 -0.21 0.58
5 -5 4 0.2 0.5
5 -5 4 0.52 0.57
5 -5 4 0.05 0.53
5 -5 4 0.37 0.6
5 -5 4 -0.05 0.55
-5 5 -5 -0.53 0.59
5 5 5 0.1 0.59
5 5 5 0.35 0.51
5 5 5 0.66 0.57
5 -5 5 0.64 0.6
5 -5 5 0.05 0.5
5 -5 5 0.05 0.49
5 -5 5 0.57 0.56
5 -5 5 0.57 0.56
5 -5 6 1.13 0.65
5 5 6 1.26 0.61
5 5 6 0.04 0.49
5 -5 6 0.62 0.49
5 -5 6 0.83 0.56
5 -5 6 2.15 0.6
-5 5 -6 0.25 0.58
-5 5 -7 11.05 0.83
5 -5 7 10.78 0.69
5 -5 7 11.26 0.89
5 5 7 13 0.87
5 -5 7 12.58 0.9
5 -5 7 13.2 0.92
5 -5 7 10.87 0.84
5 -5 7 11.75 0.82
-5 5 -8 7.03 0.7
5 -5 8 6.97 0.54
5 -5 8 6.99 0.73
5 5 8 5.73 0.64
5 -5 8 7.62 0.71
5 -5 8 6.53 0.67
5 -5 8 7.11 0.69
5 -5 8 7.28 0.68
-5 5 -9 31.82 1.22
5 -5 9 30.2 1.06
5 -5 9 30.85 1.23
5 5 9 30.39 1.13
5 -5 9 31.2 1.22
5 -5 9 33.57 1.26
5 -5 9 30.24 1.19
5 -5 9 30.11 1.2
5 -5 10 40.61 1.25
5 -5 10 43.72 1.38
5 -5 10 44.21 1.39
5 -5 10 42.75 1.41
-5 5 -10 41.18 1.38
5 -5 11 10.22 0.48
-5 5 -11 9.78 0.48
-5 -6 10 5.98 0.42
-5 6 10 5.41 0.41
-5 -6 9 4.38 0.48
-5 6 9 6.31 0.5
-5 -6 8 10.31 0.74
5 -6 -8 9.41 0.56
-5 -6 8 9.37 0.6
-5 6 8 11.39 0.7
-5 6 8 10.87 0.66
5 6 -8 10.76 0.64
-5 6 7 12.17 0.76
5 6 -7 13.71 0.77
5 -6 -7 11.76 0.66
-5 -6 7 11.43 0.82
-5 -6 7 11.71 0.7
5 -6 -6 2.06 0.42
5 6 -6 1.87 0.42
-5 6 6 1.91 0.5
5 6 -6 1.82 0.51
5 -6 -6 2.07 0.44
-5 -6 6 1.56 0.44
5 -6 -5 9.77 0.68
-5 6 5 9.16 0.76
5 6 -5 10.25 0.72
5 -6 -5 10.61 0.69
-5 6 5 9.99 0.78
-5 6 5 9.85 0.81
5 6 -5 10.67 0.79
-5 6 4 0.95 0.58
-5 6 4 -0.04 0.47
5 -6 -4 0.36 0.44
5 6 -4 0.38 0.47
-5 6 4 0.17 0.49
5 -6 -4 0.14 0.53
5 -6 -4 0.57 0.44
-5 6 3 19.85 1.01
-5 6 3 20.62 1.1
5 6 -3 21.51 1.08
5 -6 -3 21.78 1.05
-5 6 3 19.41 1.05
5 6 -3 20.73 1.07
5 -6 -3 19.92 1.1
5 -6 -3 19.85 1.01
-5 6 2 2.19 0.53
-5 6 2 3.33 0.68
5 6 -2 2.61 0.59
5 -6 -2 3.17 0.56
5 6 -2 2.15 0.62
-5 6 2 2.24 0.57
5 -6 -2 2.88 0.64
5 -6 -2 3.8 0.67
5 -6 -2 2.86 0.55
-5 6 1 0.39 0.46
-5 6 1 0.29 0.54
5 6 -1 0.2 0.55
-5 6 1 0.49 0.51
5 -6 -1 0.09 0.5
5 -6 -1 0.45 0.54
5 -6 -1 0.34 0.52
5 -6 -1 0.58 0.47
-5 6 0 48.75 1.65
-5 6 0 46.2 1.83
5 -6 0 48.73 1.76
5 6 0 50.71 1.87
-5 6 0 48.74 1.76
5 -6 0 50.64 1.85
5 -6 0 48.44 1.86
5 -6 0 50.22 1.75
5 -6 0 52.55 1.87
-5 6 -1 10.91 0.89
5 -6 1 9.69 0.76
-5 6 -1 10.54 0.77
5 -6 1 9.39 0.8
5 -6 1 9 0.83
5 -6 1 10.45 0.76
5 -6 1 10.74 0.86
-5 6 -2 27.53 1.31
5 6 2 31.76 1.33
-5 6 -2 29.65 1.22
5 -6 2 30.22 1.25
5 -6 2 29.73 1.34
5 -6 2 28.77 1.32
5 -6 2 26.96 1.2
5 -6 2 30.36 1.33
5 -6 3 -0.17 0.42
5 6 3 0.17 0.54
5 6 3 -0.13 0.46
-5 6 -3 0.21 0.43
5 -6 3 0.09 0.54
5 -6 3 0.09 0.47
5 -6 3 -0.09 0.53
5 -6 3 0.38 0.45
5 -6 3 0.09 0.53
5 -6 4 18.74 0.9
5 6 4 18.18 0.99
5 6 4 17.5 0.92
5 -6 4 17.85 0.99
5 -6 4 16.97 0.96
5 -6 4 18.09 0.95
5 -6 4 16.73 0.87
5 -6 4 16.09 0.95
5 -6 5 31.59 1.23
5 6 5 32.11 1.27
5 -6 5 34.25 1.34
5 -6 5 31.97 1.32
5 -6 5 31.21 1.2
5 -6 5 32.08 1.29
5 -6 6 24.97 1.03
5 6 6 24.82 1.01
5 -6 6 23.58 1.06
5 -6 6 23.47 1.06
5 -6 6 22.81 0.94
5 -6 6 25.33 1.06
5 -6 7 47.29 1.5
5 -6 7 46.3 1.52
5 -6 7 46.14 1.54
5 -6 7 47.9 1.56
-5 6 -7 44.5 1.37
5 -6 8 29.83 1.07
5 -6 8 30.74 1.06
5 -6 8 30.68 1.04
5 -7 -5 0.72 0.32
-5 7 5 0.96 0.28
-5 -7 5 0.52 0.23
-5 7 4 16.89 0.69
5 7 -4 16.28 0.64
5 -7 -4 16.07 0.73
-5 -7 4 15.72 0.71
5 -7 -4 14.56 0.69
5 7 -3 0.28 0.33
5 -7 -3 1.11 0.37
-5 -7 3 0.2 0.3
5 -7 -3 0.61 0.34
5 -7 -2 0.06 0.34
5 7 -2 -0.11 0.37
-5 7 2 0.19 0.33
5 -7 -1 0.03 0.37
5 7 -1 -0.17 0.38
-5 7 1 0.19 0.33
5 7 0 16.17 0.79
-5 7 0 14.49 0.68
5 -7 0 18.13 0.79
5 -7 0 15.75 0.8
-5 7 0 17.12 0.8
5 -7 0 15.34 0.7
-5 7 -1 5.21 0.41
5 -7 1 6.5 0.52
5 -7 1 5.7 0.52
-5 7 -1 6.83 0.55
5 -7 1 5.7 0.46
5 -7 2 1.21 0.36
5 -7 2 0.48 0.34
-5 7 -2 1.12 0.37
5 -7 2 0.84 0.32
5 7 3 2.94 0.4
5 -7 3 2.56 0.38
5 -7 3 2.57 0.39
-5 7 -3 3.54 0.41
-5 7 -3 3.2 0.39
-5 7 -4 7.41 0.46
-5 7 -5 0.12 0.21
-6 0 15 -0.14 0.28
6 0 -15 0.15 0.3
-6 0 15 0.08 0.19
-6 0 15 -0.15 0.32
-6 0 15 0.24 0.32
-6 0 14 16.29 0.8
6 0 -14 16.27 0.81
-6 0 14 15.8 0.76
-6 0 14 16.48 0.87
-6 0 14 16.06 0.86
-6 0 13 -0.24 0.47
-6 0 13 0.4 0.5
-6 0 13 0.24 0.52
-6 0 13 -0.05 0.53
-6 0 13 0.11 0.45
6 0 -13 -0.08 0.48
-6 0 12 17.47 1.04
-6 0 12 17.6 1.07
-6 0 12 15.68 1.1
-6 0 12 16.56 1.07
-6 0 12 17.28 0.97
6 0 -12 17.02 0.99
-6 0 11 0.12 0.62
-6 0 11 0.52 0.61
-6 0 11 -0.06 0.68
-6 0 11 0.18 0.62
-6 0 11 0.35 0.58
6 0 -11 0.94 0.61
-6 0 10 200.86 5.73
6 0 -10 205.03 5.67
-6 0 10 203.61 5.83
-6 0 10 208.21 5.77
-6 0 10 204.9 5.64
-6 0 9 -0.06 0.63
6 0 -9 -0.63 0.67
6 0 -9 -0.22 1.02
-6 0 9 0.75 0.65
-6 0 9 -0.25 0.61
-6 0 9 -0.05 0.62
-6 0 9 -0.84 0.99
-6 0 8 190.28 5.43
-6 0 8 181.22 5.28
6 0 -8 188.1 5.31
6 0 -8 188.69 7.11
-6 0 8 193.18 5.45
-6 0 8 186.62 5.34
-6 0 8 183.19 6.94
-6 0 8 189.38 5.28
-6 0 7 -0.39 0.66
-6 0 7 -0.11 0.51
6 0 -7 -0.28 0.6
6 0 -7 -0.66 1.08
-6 0 7 0.77 0.69
-6 0 7 0.41 0.54
-6 0 7 -0.38 0.54
-6 0 7 0.21 0.97
-6 0 6 152.81 4.42
-6 0 6 142.27 4.2
6 0 -6 150.85 4.32
6 0 -6 149.96 5.98
-6 0 6 146.55 4.34
-6 0 6 149.77 4.26
6 0 -6 142.43 4.06
-6 0 6 149.14 4.26
-6 0 6 149.91 5.88
6 0 -5 0.44 0.37
-6 0 5 -0.54 0.6
6 0 -5 -0.83 1.03
6 0 -5 0.92 0.56
-6 0 5 -0.22 0.55
-6 0 5 -0.6 1.04
-6 0 5 0.47 0.58
-6 0 4 36.64 1.62
6 0 -4 34.44 1.43
6 0 -4 42.14 2.76
6 0 -4 39.62 1.6
6 0 -4 38.4 1.4
-6 0 4 41.11 2.68
6 0 -3 -0.42 0.47
6 0 -3 0.39 0.94
6 0 -3 0.31 0.54
-6 0 3 0.19 1.06
6 0 -3 -0.34 0.39
-6 0 3 0.58 0.56
6 0 -2 51.64 1.94
6 0 -2 54.21 1.94
6 0 -2 58.04 3.2
6 0 -2 52.3 1.94
6 0 -2 55.64 2.05
-6 0 2 51.23 3.07
6 0 -2 56.27 1.8
-6 0 2 52.43 1.93
6 0 -1 0.21 0.53
6 0 -1 1.52 0.96
6 0 -1 0.3 0.52
-6 0 1 1.29 0.99
6 0 -1 0.78 0.58
6 0 -1 0.59 0.34
6 0 0 142.64 4.16
6 0 0 152.39 4.32
6 0 0 150.25 5.82
6 0 0 157.43 4.32
6 0 0 150.85 4.38
-6 0 0 140.66 5.65
6 0 0 151.64 4.1
6 0 1 -0.33 0.53
6 0 1 0.18 0.48
6 0 1 -0.19 0.94
6 0 1 0.21 0.52
-6 0 -1 -0.75 1.05
6 0 1 0.23 0.36
6 0 2 22.42 1.21
6 0 2 23.53 1.11
6 0 2 18.72 2.05
6 0 2 22.87 1.2
-6 0 -2 22.65 2.11
6 0 2 20.76 1
6 0 3 0.04 0.43
6 0 3 -0.1 0.49
6 0 3 0.21 0.92
6 0 3 0.12 0.62
6 0 3 -0.38 0.53
6 0 3 -0.09 0.43
-6 0 -3 0.98 1.04
6 0 3 0.57 0.61
6 0 3 0.3 0.59
6 0 4 0.47 0.59
-6 0 -4 0.41 1.08
6 0 4 -0.12 0.63
6 0 4 0.19 0.45
6 0 4 1 0.57
6 0 4 -1.07 1
6 0 4 -0.25 0.61
6 0 4 0.59 0.62
6 0 4 -0.23 0.46
6 0 5 0.79 0.67
6 0 5 1.12 0.65
-6 0 -5 0.21 1.01
6 0 5 -0.67 0.55
6 0 5 0.77 0.59
6 0 5 -0.44 1.01
6 0 5 -0.19 0.62
6 0 5 0.9 0.65
6 0 5 -0.29 0.49
-6 0 -6 4.92 1.33
6 0 6 4.45 0.78
6 0 6 4.67 0.75
6 0 6 4.35 0.71
6 0 6 4.79 0.73
6 0 6 3.15 1.24
6 0 6 3.5 0.78
6 0 6 3.92 0.72
6 0 6 4.95 0.65
-6 0 -7 -0.21 1.02
6 0 7 -0.22 0.57
6 0 7 0.05 0.55
6 0 7 0.51 0.61
6 0 7 -1.59 1.19
6 0 7 0.06 0.69
6 0 7 0.18 0.62
6 0 7 -0.3 0.49
6 0 8 90.28 2.89
6 0 8 85.51 2.8
6 0 8 90.51 2.93
6 0 8 97.23 3.08
6 0 8 92.79 3
6 0 8 88.01 2.81
6 0 9 0.26 0.57
6 0 9 0.05 0.62
6 0 9 0.05 0.58
6 0 10 7.16 0.73
6 0 10 8.9 0.79
6 0 10 7.18 0.75
6 0 11 0.74 0.5
6 0 11 0.68 0.5
6 0 11 0.35 0.53
6 0 12 12.72 0.74
6 0 12 12.37 0.75
6 0 12 12.55 0.75
6 0 13 0.27 0.31
6 0 13 0.16 0.33
6 0 13 0.16 0.33
-6 1 15 47.9 1.35
-6 -1 15 47.45 1.35
-6 1 14 9.37 0.59
-6 -1 14 9.5 0.6
6 1 -14 9.33 0.61
6 -1 -14 8.88 0.6
-6 1 14 10.05 0.61
-6 -1 14 6.87 0.46
-6 -1 14 9.28 0.68
-6 -1 14 8.48 0.65
-6 -1 14 9.15 0.65
-6 1 14 10.01 0.67
-6 -1 13 28.84 1.23
-6 1 13 29.36 1.22
-6 -1 13 28.08 1.26
-6 1 13 30.9 1.3
-6 -1 13 32.28 1.36
-6 -1 13 30.36 1.3
-6 1 13 29.85 1.3
-6 1 13 31.15 1.23
-6 -1 13 30.62 1.22
6 1 -13 32.65 1.26
6 -1 -13 29.3 1.23
-6 -1 12 3.78 0.64
-6 -1 12 4.53 0.7
-6 1 12 5.19 0.65
-6 1 12 3.71 0.66
-6 -1 12 3.85 0.69
-6 -1 12 3.9 0.65
-6 1 12 5.37 0.75
-6 1 12 3.08 0.58
-6 -1 12 4.01 0.6
6 1 -12 3.75 0.6
6 -1 -12 4.55 0.64
-6 -1 11 2.97 0.74
-6 1 11 1.62 0.65
-6 -1 11 2.31 0.66
-6 1 11 2.21 0.67
-6 -1 11 2.24 0.69
-6 1 11 1.21 0.71
-6 -1 11 1.65 0.62
-6 1 11 2.73 0.67
-6 1 11 1.86 0.62
-6 -1 11 2.05 0.6
6 1 -11 1.36 0.56
6 -1 -11 1.79 0.59
-6 1 10 20.77 1.27
-6 -1 10 20.13 1.22
-6 1 10 22.84 1.27
-6 -1 10 18.48 1.24
-6 1 10 22.91 1.35
-6 -1 10 19.13 1.18
-6 1 10 18.73 1.21
-6 -1 10 20.4 1.14
-6 1 10 20.88 1.14
6 1 -10 20.04 1.17
6 -1 -10 22.8 1.24
-6 -1 9 0.36 0.62
-6 1 9 0.12 0.63
6 1 -9 -0.22 0.59
6 -1 -9 0.5 0.59
-6 -1 9 0.84 0.64
-6 1 9 0.21 0.72
-6 -1 9 0.61 0.58
-6 1 9 0.39 0.61
-6 1 9 0.43 0.59
-6 -1 9 -0.43 0.58
-6 -1 8 6.76 0.87
-6 1 8 5.97 0.81
-6 -1 8 6.81 0.77
-6 1 8 5.93 0.77
6 1 -8 8.55 1.51
6 -1 -8 5.03 1.35
6 1 -8 6.29 0.78
6 -1 -8 6.64 0.81
-6 -1 8 5.52 0.79
-6 1 8 6.62 0.87
-6 -1 8 5.03 0.74
-6 1 8 6.4 0.85
-6 1 8 7.07 0.79
-6 -1 8 6.19 0.79
-6 1 8 7.64 1.45
-6 -1 8 6.19 1.42
-6 -1 7 21.78 1.28
-6 1 7 19.84 1.25
-6 -1 7 19.66 1.13
-6 1 7 21.07 1.18
6 1 -7 21.51 1.06
6 1 -7 17.24 2.02
6 -1 -7 17.65 2.03
6 1 -7 18.94 1.16
6 -1 -7 20.86 1.19
-6 -1 7 21.08 1.2
-6 1 7 21.5 1.3
-6 -1 7 18.93 1.11
-6 1 7 22 1.22
-6 1 7 20.88 1.17
-6 -1 7 19.03 1.16
-6 -1 7 22.24 2.2
-6 1 7 16.54 1.92
-6 -1 6 62.84 2.3
-6 1 6 59.91 2.25
-6 -1 6 58.36 2.07
-6 1 6 58.98 2.1
6 1 -6 58.37 2.03
6 1 -6 62.22 3.49
6 -1 -6 64.84 3.55
6 -1 -6 55.83 3.04
6 1 -6 59.4 2.14
6 -1 -6 62.87 2.2
-6 -1 6 61.34 2.16
6 -1 -6 57.98 2.07
-6 1 6 60.02 2.18
-6 1 6 61.09 2.14
-6 -1 6 57.59 2.11
-6 1 6 53.38 3.26
-6 -1 6 55.4 3.3
6 -1 -5 4.33 0.64
-6 -1 5 5.47 0.77
-6 1 5 5.59 0.75
6 1 -5 4.68 0.62
6 -1 -5 5.58 1.08
6 1 -5 7.56 1.39
6 -1 -5 3.87 1.15
6 1 -5 6.83 0.76
6 -1 -5 5.99 0.73
-6 1 5 5.93 0.7
-6 -1 5 5.93 1.4
-6 1 5 4.14 1.21
-6 -1 5 4.25 0.69
-6 1 5 6.73 0.76
-6 -1 4 15.54 1.07
-6 1 4 16.92 1.07
6 1 -4 16.47 1.02
6 1 -4 17.45 1.03
6 1 -4 16.72 1.89
6 -1 -4 14.48 1.76
6 -1 -4 16.71 1.64
6 -1 -4 17.68 1.04
6 1 -4 16.75 1.03
6 -1 -4 16.48 0.98
-6 -1 4 19.05 1.9
-6 1 4 18.6 1.91
6 1 -3 129.97 3.85
6 1 -3 126.46 3.79
6 1 -3 134.43 5.4
6 -1 -3 143.32 5.49
6 -1 -3 131.49 5
6 1 -3 130.68 3.85
6 -1 -3 132.03 3.86
6 -1 -3 135.4 3.87
-6 -1 3 135.69 5.34
-6 1 3 133.82 5.33
-6 -1 3 123 3.84
6 -1 -3 133.44 3.79
-6 1 3 133.56 3.88
6 1 -2 411.71 10.88
6 1 -2 427.33 10.87
6 1 -2 421.27 10.8
6 1 -2 454.48 12.78
6 -1 -2 440.51 12.68
6 -1 -2 412.94 12.14
6 1 -2 436.63 10.84
6 -1 -2 432.32 10.84
6 -1 -2 418.85 10.85
-6 -1 2 429.56 12.61
-6 1 2 430.12 12.62
6 -1 -2 419.93 10.76
-6 -1 2 412.11 10.79
-6 1 2 425.24 10.8
6 1 -1 440.31 11.23
6 1 -1 445.93 11.31
6 1 -1 436.74 11.35
6 1 -1 442.07 13.07
6 -1 -1 433.96 13.01
6 -1 -1 424.86 12.57
6 -1 -1 446.69 11.23
6 1 -1 439.82 11.25
6 -1 -1 443.87 11.31
-6 -1 1 458.98 13.07
-6 1 1 443.91 12.98
6 -1 -1 444.99 11.18
-6 1 1 437.28 11.15
6 1 0 183.89 5.2
6 1 0 185.45 5.26
6 1 0 189.42 5.32
6 -1 0 188.37 5.15
6 1 0 203.93 6.92
6 -1 0 199.73 6.89
6 -1 0 185.82 6.46
6 1 0 193.32 5.22
6 -1 0 186.46 5.21
6 -1 0 193.46 5.31
-6 -1 0 178.58 6.65
-6 1 0 177.11 6.63
6 -1 0 186.13 5.14
6 1 1 0.52 0.45
6 -1 1 0.86 0.53
6 1 1 0.63 0.6
6 1 1 0.54 0.6
6 1 1 0.74 0.58
6 -1 1 0.82 0.82
6 1 1 1.17 0.99
6 -1 1 0.58 0.91
6 1 1 0.57 0.52
6 -1 1 0.26 0.53
-6 -1 -1 -0.94 1.08
-6 1 -1 -0.37 1.12
6 1 1 0.8 0.59
6 -1 1 0.29 0.6
6 -1 1 0.09 0.48
6 1 2 2.6 0.56
6 1 2 3.12 0.69
6 1 2 1.74 0.65
6 1 2 1.4 1.09
6 -1 2 2.18 1.06
6 1 2 1.85 0.64
6 -1 2 2.25 0.63
6 -1 2 0.32 0.53
-6 -1 -2 3.84 1.28
-6 1 -2 0.38 0.92
6 -1 2 1.81 0.57
6 1 2 1.42 0.63
6 -1 2 1.68 0.64
6 -1 2 1.54 0.54
6 1 3 4.55 0.62
6 1 3 2.81 0.68
6 1 3 4.44 0.75
6 -1 3 3.89 1.14
6 1 3 3.09 1.22
6 -1 3 4.29 0.68
6 1 3 3.69 0.68
6 -1 3 3.98 0.67
6 -1 3 3.35 0.52
6 -1 3 4.72 0.66
-6 -1 -3 5.53 1.28
-6 1 -3 2.32 1.14
6 -1 3 4.5 0.69
6 1 3 3.07 0.66
6 -1 4 29.14 1.42
-6 -1 -4 28.49 2.38
-6 1 -4 27.93 2.32
6 1 4 27.94 1.37
6 -1 4 29.51 1.5
6 1 4 32.18 1.53
6 1 4 27.69 1.42
6 -1 4 28.61 1.28
6 -1 4 29.31 1.44
6 1 4 28.79 1.33
6 -1 4 28.81 1.25
6 -1 4 22.56 2.24
6 1 4 32.5 2.54
6 -1 4 30.49 1.45
6 1 4 30.52 1.46
-6 1 -4 26.75 2.09
6 -1 4 30.73 1.37
6 -1 5 13.45 0.99
6 1 5 12.99 0.95
6 -1 5 13.76 1.04
-6 -1 -5 11.45 1.67
-6 1 -5 8.39 1.55
6 1 5 12.5 0.97
6 -1 5 13.13 0.86
6 -1 5 12.13 0.98
6 1 5 12.88 0.95
6 -1 5 13.19 0.87
6 -1 5 9.74 1.6
6 1 5 12.2 1.77
6 -1 5 12.09 0.98
6 1 5 12.46 0.98
-6 1 -5 11.59 1.58
6 -1 5 12.67 0.91
6 -1 6 25.7 1.36
-6 -1 -6 26.18 2.32
-6 1 -6 27.34 2.33
6 1 6 25.65 1.26
6 -1 6 23.87 1.36
6 1 6 24.56 1.31
6 -1 6 24.34 1.2
6 -1 6 24.27 1.34
6 1 6 25.29 1.28
6 -1 6 22.92 1.19
6 -1 6 27.85 2.39
6 1 6 24.93 2.35
6 -1 6 24.71 1.34
6 1 6 26.85 1.38
-6 1 -6 25.37 2.13
6 -1 6 25.06 1.28
6 1 7 106.67 3.27
6 -1 7 106.06 3.23
6 1 7 103.13 3.32
6 -1 7 102.36 3.19
6 -1 7 107.72 3.38
6 -1 7 106.3 3.35
6 1 7 104.44 3.16
6 -1 7 106.57 3.33
6 -1 7 100.05 3.27
6 1 7 106.08 3.34
6 -1 7 104.23 3.28
6 1 8 4.17 0.68
6 -1 8 3.59 0.62
6 1 8 4.65 0.76
6 -1 8 4.83 0.65
6 -1 8 3.98 0.76
6 -1 8 4.28 0.74
6 1 8 3.74 0.73
6 -1 8 3.83 0.76
-6 1 -8 3.66 0.56
6 -1 8 3.46 0.69
6 1 8 5.21 0.76
6 -1 8 4.96 0.75
6 1 9 5.12 0.69
6 -1 9 4.28 0.65
6 1 9 4.88 0.77
6 -1 9 4.66 0.67
6 1 9 3.76 0.63
6 -1 9 5.84 0.8
6 -1 9 4.38 0.64
6 -1 9 5.53 0.77
6 1 9 4.34 0.75
-6 1 -9 4.19 0.55
6 -1 9 3.38 0.66
6 1 10 2.09 0.61
6 -1 10 2.82 0.58
6 1 10 2.22 0.64
6 -1 10 3.01 0.7
6 1 10 2.83 0.62
6 -1 10 1.89 0.55
-6 1 -10 2.54 0.44
6 -1 11 0.22 0.54
6 1 11 0.35 0.49
6 -1 11 1.05 0.48
6 1 11 0.25 0.51
6 1 11 0.45 0.48
6 -1 11 -0.22 0.45
6 -1 11 0.69 0.5
6 -1 12 0.91 0.47
6 -1 12 1.19 0.41
6 1 12 0.81 0.44
6 -1 12 0.37 0.38
6 1 12 0.99 0.41
6 -1 13 36.56 1.15
6 -1 13 34.84 1.12
-6 -2 14 30.14 0.99
-6 2 14 31.4 1.09
-6 -2 14 29.45 1.1
-6 -2 14 28.23 1.08
-6 -2 14 29.4 1.1
-6 2 14 32.09 1.13
-6 -2 13 3.04 0.42
6 -2 -13 2.58 0.42
-6 2 13 2.27 0.48
-6 -2 13 1.86 0.51
-6 -2 13 2.26 0.49
-6 2 13 2.96 0.54
-6 -2 13 2.18 0.46
-6 -2 13 2.5 0.51
-6 -2 12 24.94 1.17
-6 2 12 24.43 1.13
-6 -2 12 23.17 1.14
-6 2 12 26.62 1.21
6 2 -12 23.95 1.07
6 -2 -12 22.64 1.04
-6 -2 12 25.47 1.21
-6 -2 12 22.49 1.14
-6 2 12 24.9 1.06
-6 -2 12 25.11 1.07
-6 2 11 1.45 0.6
-6 -2 11 2.23 0.67
-6 -2 11 3.1 0.65
-6 2 11 4.14 0.69
6 2 -11 2.83 0.56
6 -2 -11 2.72 0.56
-6 2 11 2.4 0.48
-6 -2 11 3.64 0.67
-6 -2 11 2.13 0.61
-6 2 11 2.46 0.53
-6 -2 11 2.95 0.53
-6 2 10 0.67 0.6
-6 -2 10 1.5 0.59
-6 2 10 1.26 0.66
6 2 -10 1.38 0.53
6 -2 -10 0.23 0.52
-6 2 10 0.21 0.47
-6 -2 10 0.57 0.58
-6 -2 10 0.71 0.55
-6 2 10 0.76 0.52
-6 -2 10 1.55 0.54
-6 -2 9 30.75 1.56
-6 -2 9 29.79 1.45
-6 2 9 33.91 1.52
6 2 -9 31.06 1.41
6 -2 -9 32.13 1.41
-6 -2 9 33.2 1.51
-6 -2 9 31.01 1.46
-6 2 9 32.72 1.58
-6 2 9 31.82 1.4
-6 -2 9 31.08 1.39
-6 -2 8 82.47 2.91
-6 2 8 88.5 2.93
-6 -2 8 82.37 2.79
-6 2 8 83.68 2.8
6 2 -8 83.13 2.61
6 2 -8 83.9 2.74
6 -2 -8 88.97 2.76
-6 -2 8 82.04 2.76
-6 -2 8 85.43 2.75
-6 2 8 85.31 2.72
-6 -2 8 86.19 2.73
-6 -2 7 133.26 4.13
-6 2 7 138 4.11
-6 -2 7 133.56 3.95
-6 2 7 132.02 3.97
6 2 -7 133.59 3.88
6 2 -7 140.97 5.6
6 -2 -7 122.19 5.34
6 -2 -7 130.3 5.35
6 2 -7 137.43 3.95
6 -2 -7 140.86 3.96
-6 -2 7 130.61 3.92
-6 2 7 129.5 5.35
-6 -2 7 127.92 5.35
-6 2 7 132.6 3.89
-6 -2 7 134.07 3.91
-6 -2 6 34.99 1.65
-6 2 6 36.21 1.66
-6 2 6 35.17 1.51
6 2 -6 36.01 1.51
6 2 -6 35.03 2.58
6 -2 -6 33.2 2.54
6 -2 -6 38.19 2.64
6 2 -6 36.07 1.52
6 -2 -6 36 1.52
6 -2 -6 34.34 1.53
-6 2 6 34.25 1.48
-6 -2 6 33.87 1.47
-6 2 6 34.79 2.51
-6 -2 6 34.06 2.53
-6 -2 5 36.21 1.7
-6 2 5 37.43 1.68
-6 2 5 38.24 1.54
6 2 -5 40.64 1.64
6 2 -5 38.38 1.63
6 2 -5 36.34 2.61
6 -2 -5 37.48 2.64
6 -2 -5 37.38 2.64
6 2 -5 36.65 1.58
6 -2 -5 41.13 1.63
6 -2 -5 36.15 1.61
-6 -2 5 38.18 1.58
-6 2 5 42.22 1.61
-6 2 5 38.13 2.67
-6 -2 5 37.3 2.67
-6 -2 4 42.31 1.76
-6 2 4 41.43 1.71
6 2 -4 37.36 1.63
6 2 -4 39.91 1.68
6 2 -4 41.19 1.72
6 2 -4 45.17 2.8
6 -2 -4 39.78 2.71
6 -2 -4 38.49 2.64
6 2 -4 39.27 1.62
6 -2 -4 40.41 1.61
6 -2 -4 41.43 1.69
-6 -2 4 38.43 1.58
-6 2 4 38.61 1.56
-6 -2 4 34.2 2.54
-6 2 4 39.65 2.65
6 2 -3 82.34 2.77
6 2 -3 84.17 2.78
6 2 -3 85.43 3.96
6 -2 -3 86.11 4.01
6 -2 -3 84.61 3.98
6 2 -3 86.13 2.68
6 -2 -3 80.14 2.64
-6 -2 3 79.07 3.87
-6 2 3 79.61 3.86
6 -2 -3 85.75 2.67
6 -2 -3 81.11 2.7
-6 -2 3 84.86 2.76
-6 2 3 80.38 2.73
6 2 -2 58.42 2.15
6 2 -2 58.65 2.18
6 2 -2 55.16 3.12
6 -2 -2 56.06 3.18
6 -2 -2 49.62 3.03
6 2 -2 58.84 2.05
6 -2 -2 57.37 2.03
6 -2 -2 56.72 2.05
-6 -2 2 57.96 3.16
-6 2 2 56.88 3.13
6 -2 -2 60.36 2.13
-6 -2 2 55.78 2.06
-6 2 2 59.03 2.07
6 2 -1 5.24 0.63
6 2 -1 6.2 0.81
6 2 -1 5.64 0.78
6 -2 -1 6.42 1.3
6 2 -1 5.01 1.13
6 -2 -1 5.75 1.23
6 2 -1 5.62 0.7
6 -2 -1 5.52 0.72
6 -2 -1 7.01 0.73
-6 -2 1 5.8 0.67
-6 2 1 6.71 0.68
-6 -2 1 7.3 1.29
-6 2 1 9.64 1.44
6 -2 -1 5.93 0.73
6 -2 0 68.52 2.35
-6 -2 0 69.97 3.49
-6 2 0 65.34 3.4
6 2 0 67.24 2.2
6 2 0 65.07 2.35
6 2 0 60.63 2.3
6 2 0 63.57 2.39
6 2 0 66.18 3.46
6 -2 0 58.14 3.33
6 -2 0 66.37 3.5
6 2 0 63.8 2.21
6 -2 0 63.69 2.2
6 -2 0 63.94 2.15
6 -2 0 65.71 2.26
-6 2 -1 209.78 7.22
6 -2 1 212.84 5.81
6 -2 1 223.34 6.06
-6 -2 -1 227.97 7.58
-6 2 -1 199.34 7.28
6 2 1 222.34 5.92
6 2 1 214.01 6.03
6 2 1 220.24 6.1
6 2 1 231.89 7.63
6 -2 1 219.11 7.55
6 -2 1 198.8 7.39
6 2 1 226.14 5.92
6 -2 1 213.94 5.88
6 -2 1 213.16 5.82
6 -2 1 223.63 5.97
-6 2 -2 0.53 0.87
-6 2 -2 0.61 0.46
-6 2 -2 0.18 0.96
6 -2 2 0.68 0.52
6 -2 2 0.8 0.62
-6 -2 -2 0.19 0.98
6 2 2 -0.1 0.52
6 2 2 0.91 0.63
6 -2 2 0.78 0.96
6 -2 2 0.97 0.94
6 2 2 0.19 0.89
6 -2 2 -0.05 0.5
6 2 2 0.46 0.54
6 -2 2 0.61 0.52
6 -2 2 0.94 0.45
6 -2 2 -0.49 0.58
-6 2 -3 32.71 1.38
6 -2 3 35.69 1.55
6 2 3 35.35 1.53
-6 2 -3 32.7 2.42
-6 2 -3 28.16 2.38
-6 -2 -3 30.54 2.44
-6 2 -3 31.23 2.41
6 -2 3 33.57 1.47
6 -2 3 37.5 1.65
6 2 3 33.72 1.4
6 2 3 37.17 1.54
6 2 3 35.39 1.63
6 -2 3 36.35 1.49
6 2 3 33.97 1.59
6 -2 3 31.03 2.43
6 2 3 32.97 2.51
6 -2 3 34.31 1.46
6 -2 3 35.4 1.41
6 -2 3 34.79 1.54
-6 2 -4 4.74 1.18
-6 2 -4 4.77 0.63
6 -2 4 4.67 0.73
6 2 4 4.32 0.68
-6 2 -4 4.37 1.17
-6 -2 -4 4.88 1.26
-6 2 -4 4.54 1.24
6 -2 4 5.61 0.73
6 -2 4 5.4 0.82
6 2 4 5.09 0.75
6 2 4 4.41 0.56
6 2 4 4.86 0.75
6 2 4 4.93 0.8
6 2 4 4.17 0.8
6 -2 4 2.43 1.13
6 2 4 4.65 1.24
6 -2 4 4.84 0.69
6 -2 4 4.63 0.64
6 -2 4 3.76 0.58
6 -2 4 4.38 0.69
-6 2 -5 211.08 5.79
6 -2 5 223.31 5.96
6 2 5 220.28 5.95
-6 2 -5 200.69 7.41
-6 2 -5 194.59 7.19
-6 -2 -5 207.58 7.47
-6 2 -5 215.31 7.5
6 -2 5 218.94 5.94
6 2 5 219.09 5.95
6 -2 5 215.61 5.75
6 2 5 218.76 6.06
6 2 5 216.51 5.97
6 -2 5 223.72 5.94
6 2 5 215.47 6.05
6 -2 5 209.44 7.61
6 2 5 212.15 7.61
6 -2 5 209.72 5.79
6 -2 5 216.81 5.81
6 -2 5 213.74 5.96
-6 2 -6 83.64 2.65
6 -2 6 81.94 2.74
6 2 6 82.16 2.75
6 2 6 83.02 2.77
6 2 6 82.79 2.84
6 2 6 82.17 2.76
6 -2 6 88.61 2.81
6 2 6 82.35 2.86
6 -2 6 85.62 2.81
6 -2 6 85.27 2.88
6 -2 6 83.08 2.61
6 -2 6 84.83 2.64
6 -2 6 84.75 2.82
6 2 7 37.13 1.63
6 -2 7 36.78 1.64
6 -2 7 41.37 1.73
6 2 7 37.27 1.66
6 2 7 37.57 1.7
6 -2 7 35.35 1.43
6 2 7 38.15 1.59
6 -2 7 38.63 1.64
-6 2 -7 38.18 1.52
6 -2 7 38.5 1.61
6 2 7 41.11 1.65
6 -2 7 35.63 1.64
6 2 8 31.12 1.43
6 -2 8 31.68 1.34
6 2 8 31.45 1.47
6 -2 8 30.77 1.27
6 2 8 29.82 1.32
6 -2 8 32.46 1.46
6 2 8 29.53 1.46
6 -2 8 32.06 1.47
6 -2 8 30.59 1.47
-6 2 -8 29.85 1.3
6 -2 8 32.05 1.48
6 2 9 5.3 0.73
6 -2 9 4.62 0.59
6 2 9 4.55 0.68
6 -2 9 4.86 0.57
6 -2 9 5.07 0.71
6 -2 9 4.17 0.68
6 -2 9 5.13 0.73
-6 2 -9 3.95 0.57
6 -2 9 4.31 0.69
6 -2 10 32.38 1.25
6 -2 10 29.93 1.31
6 -2 10 32.37 1.27
6 -2 10 28.41 1.15
6 -2 10 28.61 1.3
6 2 10 30.55 1.27
-6 2 -10 29.38 1.18
6 -2 10 28.78 1.3
6 -2 11 93.09 2.69
6 -2 11 104.25 2.89
6 -2 11 100.41 2.87
6 -2 11 100.98 2.8
-6 2 -11 94.48 2.7
6 -2 12 0.06 0.39
6 2 12 0.52 0.36
6 -2 12 0.19 0.31
-6 2 -12 0.02 0.25
6 -2 12 -0.04 0.27
6 2 12 0.54 0.37
6 2 13 3.93 0.3
6 -2 13 4.62 0.31
6 2 13 4.43 0.33
6 -2 13 4.94 0.36
-6 3 13 5.26 0.37
-6 3 13 6.48 0.5
-6 -3 13 6.66 0.48
6 -3 -13 7.36 0.52
-6 -3 13 6.31 0.52
-6 3 12 0.1 0.41
-6 3 12 0.55 0.34
-6 -3 12 0.3 0.4
-6 -3 12 0.07 0.4
-6 3 12 0.23 0.4
6 -3 -12 0.54 0.41
-6 -3 12 0.26 0.44
-6 -3 12 -0.11 0.42
-6 3 11 22.7 1.07
-6 3 11 23.09 1.02
-6 -3 11 20.77 0.89
-6 -3 11 21.01 1.05
-6 -3 11 20.77 1.04
6 -3 -11 24.18 1.1
-6 -3 11 24.43 1.17
-6 3 11 22.69 1.08
-6 -3 11 22.5 1.1
6 3 -10 6.48 0.57
-6 3 10 7.4 0.71
-6 3 10 6.3 0.66
-6 3 10 7.45 0.76
6 -3 -10 6.59 0.71
-6 -3 10 5.44 0.69
6 -3 -10 7.27 0.57
-6 -3 10 6.03 0.67
-6 -3 10 5.05 0.63
-6 -3 10 6.68 0.57
6 3 -9 0.84 0.42
-6 3 9 0.37 0.59
6 -3 -9 -0.21 0.58
-6 -3 9 0.12 0.6
-6 -3 9 0.26 0.55
6 -3 -9 0.62 0.4
-6 -3 9 0.09 0.51
-6 -3 9 -0.33 0.51
-6 -3 9 0.11 0.41
6 -3 -8 1.52 0.46
-6 3 8 3.13 0.71
-6 3 8 2.46 0.64
6 -3 -8 1.92 0.63
-6 -3 8 1.96 0.75
-6 -3 8 2.46 0.62
6 3 -8 2.59 0.57
-6 3 8 2.36 0.49
-6 -3 8 1.92 0.53
6 3 -7 0.3 0.44
6 -3 -7 0.71 0.47
-6 3 7 0.92 0.7
-6 3 7 0.22 0.56
6 -3 -7 0.86 0.62
-6 -3 7 0.26 0.7
-6 -3 7 0.36 0.53
-6 3 7 0.53 0.45
-6 -3 7 0.54 0.46
6 3 -7 0.76 0.55
-6 3 6 46.89 1.69
-6 -3 6 48.37 1.7
-6 -3 6 46.57 1.99
-6 3 6 48.7 1.95
6 3 -6 45.97 1.82
6 3 -6 46.75 1.72
6 -3 -6 47.75 1.71
6 -3 -6 51.97 1.97
-6 3 6 46.58 1.73
-6 3 5 85.62 2.7
-6 -3 5 87.59 2.73
-6 -3 5 89.49 3.03
-6 3 5 94.27 3
6 3 -5 92.52 2.93
6 -3 -5 87.68 4.31
6 3 -5 89.93 2.76
6 -3 -5 93.3 2.77
6 -3 -5 93.59 3
-6 3 5 88.63 2.8
-6 3 4 2.43 0.65
6 -3 -4 1.41 0.65
-6 -3 4 1.64 0.7
6 3 -4 1.98 0.67
6 3 -4 2.12 0.69
6 3 -4 1.16 0.63
6 -3 -4 3.18 1.22
6 3 -4 1.51 0.5
6 -3 -4 1.44 0.49
-6 3 4 2.03 0.58
-6 3 4 1.42 0.48
-6 -3 4 1.9 0.53
-6 3 3 3.03 1
-6 -3 3 2.92 0.52
-6 3 3 2.97 0.53
6 3 -3 3.94 0.62
6 3 -3 3.47 0.71
6 3 -3 4.97 0.82
6 3 -3 4.01 0.72
6 -3 -3 4.66 1.29
6 3 -3 1.67 0.87
6 3 -3 3.97 0.56
6 -3 -3 2.97 0.56
-6 3 3 3.81 0.64
-6 3 3 3.51 0.67
6 -3 -3 3.58 0.75
-6 -3 3 4.13 0.74
-6 3 2 301.23 9.63
6 -3 -2 321.89 8.34
6 3 -2 323.47 8.36
6 3 -2 315.22 8.46
6 3 -2 320.24 8.52
6 3 -2 322.24 8.56
6 3 -2 306.19 9.74
6 -3 -2 335.07 10.44
6 3 -2 323.74 8.28
6 -3 -2 319.4 8.26
-6 3 2 316.86 8.33
6 -3 -2 326.25 8.51
-6 -3 2 318.81 8.43
-6 3 2 330.14 8.42
-6 3 1 528.79 15.16
6 -3 -1 560.46 13.84
6 3 -1 550.15 13.82
6 3 -1 545.99 13.96
6 3 -1 547.82 13.99
6 3 -1 542.33 15.33
6 -3 -1 563.05 15.95
6 3 -1 542.36 13.68
6 -3 -1 551.38 13.69
6 -3 -1 571.54 13.93
-6 -3 1 547.73 13.78
6 -3 -1 539.31 13.67
-6 3 1 535.96 13.75
-6 3 1 557.09 13.78
-6 3 0 284.2 7.58
6 -3 0 288.82 7.68
-6 3 0 283.79 8.93
6 3 0 293.97 7.72
6 3 0 292.48 7.66
6 3 0 295.04 7.72
6 3 0 288.39 7.8
6 3 0 289.58 9.04
6 -3 0 298.54 9.61
6 3 0 280.22 7.5
6 -3 0 280.87 7.5
6 -3 0 300.19 7.67
6 -3 0 291.88 7.71
6 -3 0 291.33 7.51
-6 3 0 283.75 7.5
6 -3 1 32.76 1.36
6 3 1 29.21 1.31
-6 3 -1 33.58 1.42
-6 3 -1 28.51 2.52
6 3 1 29.78 1.43
6 3 1 31.36 1.45
6 3 1 33.06 1.61
6 3 1 32.93 1.5
6 3 1 31.14 1.5
6 -3 1 32.38 1.5
-6 3 -1 25.43 2.04
6 3 1 25.66 2.08
6 -3 1 34.2 2.65
6 -3 1 32.19 1.41
6 -3 1 27.27 1.43
6 -3 1 30.61 1.29
-6 3 -2 20.31 2.14
6 -3 2 17.57 0.99
6 3 2 17.06 0.98
-6 3 -2 18.59 1.98
-6 3 -2 17.52 1.04
6 -3 2 20.84 1.24
6 3 2 16.44 1.11
6 3 2 18.11 1.06
6 3 2 18.45 1.19
6 3 2 20.58 1.14
6 3 2 17.82 1.13
6 3 2 18.78 1.21
6 -3 2 15.54 1.88
6 -3 2 17.84 1.03
6 -3 2 19.01 0.97
-6 3 -3 2.8 1.14
6 -3 3 2.06 0.54
6 3 3 2.81 0.52
-6 3 -3 1.23 1.07
-6 3 -3 2.79 0.61
6 3 3 1.16 0.6
6 3 3 2.63 0.58
6 3 3 1.99 0.73
6 3 3 3.09 0.64
6 3 3 4.2 0.69
6 3 3 2.24 0.77
6 -3 3 2.7 0.54
6 -3 3 2.76 0.73
6 -3 3 2.64 0.68
6 -3 3 4.51 0.66
6 -3 3 2.72 0.52
6 -3 4 9.53 0.78
6 3 4 8.3 0.71
-6 3 -4 9.14 1.51
-6 3 -4 9.06 0.83
6 3 4 10.09 0.91
6 3 4 8.36 0.71
6 3 4 6.61 0.69
6 3 4 9.76 0.88
6 3 4 7.31 0.84
6 -3 4 8.38 0.77
6 -3 4 6.51 0.86
6 -3 4 9.06 0.83
6 -3 4 8.21 0.76
6 -3 4 7.84 0.69
6 -3 5 27.56 1.29
6 -3 5 25.95 1.45
6 3 5 29.08 1.21
6 3 5 27.86 1.35
6 -3 5 27.51 1.25
6 3 5 27.86 1.43
6 3 5 27.29 1.38
6 -3 5 30.33 1.37
6 -3 5 28 1.31
-6 3 -5 27.92 1.31
6 -3 5 29.8 1.27
6 -3 6 11.33 0.86
6 -3 6 9.08 0.95
6 3 6 10.71 0.83
6 -3 6 9.66 0.78
6 3 6 10.41 0.91
6 3 6 9.97 0.91
6 -3 6 8.84 0.79
6 -3 6 9.06 0.8
-6 3 -6 9.97 0.82
6 -3 6 9.42 0.76
6 -3 7 64.32 2.16
6 3 7 62.06 2.24
6 3 7 58.69 2.15
6 -3 7 61.66 2.1
6 3 7 62.31 2.2
6 -3 7 61.07 2.08
6 -3 7 62.65 2.11
-6 3 -7 59.38 2.1
6 3 8 4.07 0.7
6 -3 8 3.75 0.62
-6 3 -8 3.67 0.6
6 -3 8 4.04 0.64
6 -3 8 3.93 0.72
6 3 8 3.1 0.59
6 3 8 3.27 0.67
6 -3 9 15.2 0.79
-6 3 -9 15.84 0.88
6 -3 9 15.34 0.9
6 -3 9 13.06 0.91
6 3 9 16.37 0.95
6 -3 9 13.95 0.85
6 -3 10 10.13 0.61
6 3 10 10.3 0.73
6 -3 10 10.26 0.69
-6 3 -10 9.93 0.67
6 -3 10 10.28 0.72
6 -3 10 10.61 0.71
6 3 11 1.57 0.4
6 -3 11 1.86 0.32
6 -3 11 2.35 0.4
-6 3 -11 1.54 0.36
6 3 11 1.72 0.4
6 -3 11 1.8 0.41
6 3 12 9.88 0.46
-6 4 12 27.78 1
6 -4 -12 27.82 1
-6 -4 12 28.21 1
-6 4 12 26.82 0.94
-6 4 11 1.96 0.38
-6 4 11 1.37 0.42
6 -4 -11 2.91 0.45
-6 -4 11 2.43 0.5
-6 -4 11 2.39 0.43
-6 4 11 1.61 0.44
-6 4 10 46.34 1.58
6 -4 -10 43.16 1.57
-6 4 10 45.44 1.6
-6 4 10 42.78 1.56
-6 -4 10 41.89 1.52
6 4 -9 1.13 0.38
6 -4 -9 1.05 0.52
-6 -4 9 1.09 0.59
-6 -4 9 0.96 0.49
6 4 -8 6.27 0.63
-6 4 8 6.17 0.74
6 -4 -8 5.58 0.72
-6 -4 8 4.89 0.76
-6 -4 8 4.77 0.61
6 4 -7 5.93 0.69
-6 4 7 5.82 0.75
6 -4 -7 5.07 0.74
-6 -4 7 5.41 0.82
-6 -4 7 6.01 0.63
6 4 -7 6.6 0.73
6 4 -6 22.42 1.18
6 4 -6 21.41 1.17
-6 4 6 22.34 1.13
6 4 -6 21.1 1.16
6 -4 -6 24.15 1.25
-6 -4 6 20.52 1.24
-6 4 6 23.98 1.25
6 4 -5 23.18 1.29
-6 4 5 24.36 1.26
6 4 -5 26.69 1.32
-6 4 5 26.01 1.25
6 4 -5 26.05 1.29
6 -4 -5 24.84 1.32
-6 -4 5 26.37 1.39
-6 4 5 26.36 1.33
6 4 -4 68.83 2.4
-6 4 4 66.28 2.3
-6 4 4 69.86 2.33
6 4 -4 67.65 2.34
6 4 -4 65.2 2.35
6 -4 -4 71.04 2.44
-6 -4 4 65.87 2.42
-6 4 4 66.61 2.37
6 4 -3 -0.17 0.59
-6 4 3 0.25 0.52
-6 4 3 0.36 0.56
-6 4 3 0.76 0.62
6 -4 -3 0.35 0.59
-6 -4 3 0.23 0.61
6 4 -3 -0.06 0.64
6 4 -2 0.96 0.76
6 4 -2 0.96 0.61
6 4 -2 1.42 0.66
-6 4 2 2.03 0.59
6 -4 -2 1.17 0.62
-6 -4 2 0.86 0.56
-6 4 2 1.47 0.48
-6 4 2 1.43 0.61
-6 4 1 1.93 0.62
6 4 -1 2.01 0.63
6 4 -1 1.65 0.62
6 -4 -1 0.87 0.51
6 -4 -1 1.36 0.62
-6 4 1 0.83 0.49
6 -4 -1 1.17 0.54
6 -4 -1 1.17 0.65
-6 -4 1 1.02 0.52
-6 4 0 58.66 2.14
6 4 0 60.94 2.18
6 4 0 59.72 2.19
6 4 0 58.32 2.17
6 4 0 59.34 2.22
6 -4 0 61.74 2.12
6 -4 0 61.91 2.2
6 -4 0 56.53 2.18
6 -4 0 59.31 2.07
-6 4 0 57.93 1.99
-6 4 -1 28.72 1.34
6 4 1 28.78 1.41
6 4 1 27.06 1.35
6 4 1 29.97 1.35
6 4 1 29.65 1.42
6 -4 1 29.02 1.36
6 -4 1 27.93 1.42
6 -4 1 25.31 1.34
6 -4 1 26.43 1.39
6 -4 1 27.01 1.29
-6 4 -2 9.14 0.88
6 4 2 8.03 0.87
6 4 2 9.44 0.85
6 4 2 10.01 0.84
6 4 2 11.33 0.91
6 4 2 10.73 0.99
6 -4 2 10.38 0.9
6 -4 2 9.73 0.89
6 -4 2 9.28 0.84
6 -4 2 9.28 0.91
6 -4 2 9.96 0.8
-6 4 -3 8.16 0.82
6 4 3 9.28 0.91
6 4 3 9.01 0.77
6 4 3 8.66 0.73
6 4 3 9.49 0.83
6 4 3 8.79 0.94
6 -4 3 9.25 0.87
6 -4 3 9.5 0.89
6 -4 3 8.57 0.83
6 -4 3 8.6 0.91
6 -4 3 8.45 0.75
-6 4 -4 15.94 1.01
6 4 4 13.54 1.01
6 4 4 13.52 0.87
6 4 4 13.27 0.91
6 4 4 15.23 1.08
6 -4 4 14.62 1.04
6 -4 4 13.36 0.99
6 -4 4 14.58 0.98
6 -4 4 16.34 1.03
6 -4 4 14.83 0.93
-6 4 -5 11.89 0.89
6 4 5 12.02 0.95
6 4 5 12.38 0.82
6 4 5 12.3 0.97
6 -4 5 13.7 0.79
6 -4 5 12.3 0.97
6 -4 5 11.24 0.9
6 -4 5 14.12 0.9
6 -4 5 11.86 0.95
-6 4 -6 39.19 1.55
6 4 6 36.62 1.54
6 4 6 38.19 1.58
6 -4 6 37.17 1.39
6 -4 6 38.65 1.61
6 -4 6 38.45 1.55
6 -4 6 38.03 1.54
6 -4 6 36.21 1.57
6 -4 7 101.72 3.12
6 4 7 103.91 3.07
6 -4 7 98.85 2.92
6 -4 7 103.37 3.12
6 -4 7 103.29 3.03
6 -4 7 100.15 3.03
-6 4 -7 106.85 3.06
6 -4 8 45.36 1.54
6 4 8 45.58 1.63
-6 4 -8 48.72 1.64
6 -4 8 46.31 1.69
6 4 9 145.59 3.81
6 -4 9 137.8 3.71
6 -4 9 145.93 3.84
6 4 9 132.97 3.74
-6 4 -9 143.55 3.78
6 -4 9 135.51 3.83
6 -4 10 114.88 3.05
6 -4 10 117.7 3.14
-6 4 -10 121.54 3.11
6 4 10 111.82 3.1
-6 5 11 104.6 2.72
-6 -5 10 9.69 0.55
-6 5 10 9.68 0.55
6 -5 -10 8.6 0.52
-6 5 10 9.5 0.56
-6 5 9 4.96 0.5
-6 5 9 4.6 0.52
6 -5 -9 3.36 0.46
-6 -5 9 3.43 0.53
-6 5 8 -0.49 0.43
6 -5 -8 0.14 0.4
-6 -5 8 0.04 0.48
6 5 -8 -0.14 0.32
-6 5 7 0.96 0.48
-6 5 7 0.96 0.47
6 -5 -7 0.58 0.45
-6 -5 7 0.82 0.51
6 5 -7 0.35 0.39
-6 5 6 0.73 0.48
-6 5 6 1.08 0.51
6 -5 -6 0.81 0.52
-6 -5 6 0.92 0.57
6 5 -6 0.92 0.46
6 5 -5 1.23 0.55
-6 5 5 1.37 0.54
-6 5 5 1.05 0.49
-6 5 5 0.86 0.51
6 -5 -5 1.23 0.57
-6 -5 5 1.75 0.6
6 5 -5 0.91 0.52
6 5 -4 0.72 0.56
6 5 -4 0.09 0.56
-6 5 4 0.55 0.53
6 -5 -4 0.85 0.53
-6 -5 4 0.05 0.54
-6 5 4 0.34 0.46
-6 5 4 0.41 0.53
-6 5 3 9.74 0.81
6 5 -3 9.43 0.84
-6 5 3 10.28 0.74
6 -5 -3 10.27 0.85
-6 -5 3 9.91 0.81
6 -5 -3 9.38 0.82
-6 5 3 10.53 0.79
-6 5 2 22.46 1.04
-6 5 2 24.72 1.19
6 5 -2 24.19 1.22
6 5 -2 23.28 1.24
6 -5 -2 23.1 1.21
-6 -5 2 23.11 1.12
6 -5 -2 23.25 1.19
6 -5 -2 23.51 1.15
6 5 -1 16.11 1
6 -5 -1 17.47 1.02
6 -5 -1 16.14 0.96
6 -5 -1 16.88 1.05
6 -5 -1 16.41 1.02
-6 5 1 16.59 1.03
-6 5 0 7.67 0.79
6 5 0 8.11 0.83
6 5 0 7.09 0.81
6 5 0 9.96 0.8
6 5 0 9.5 0.89
6 -5 0 8.44 0.83
6 -5 0 7.31 0.77
6 -5 0 9.34 0.81
6 -5 0 7.99 0.73
-6 5 -1 53.44 1.95
6 5 1 53.21 1.97
6 5 1 56.15 1.97
6 5 1 52.04 1.86
6 5 1 49.16 1.95
6 -5 1 50.27 1.77
6 -5 1 55.31 2.02
6 -5 1 54.87 1.97
6 -5 1 56.69 1.98
6 -5 1 51.62 1.86
-6 5 -2 48.93 1.82
6 5 2 49.18 1.72
6 5 2 50.64 1.88
6 5 2 48.23 1.85
6 5 2 50.69 1.83
6 -5 2 49.75 1.75
6 -5 2 50.39 1.86
6 -5 2 49.35 1.84
6 -5 2 48.62 1.76
-6 5 -3 40.94 1.62
6 5 3 43.77 1.68
6 5 3 41.22 1.57
6 5 3 45.04 1.68
6 -5 3 40.61 1.57
6 -5 3 42.78 1.65
6 -5 3 43.85 1.66
6 -5 3 42.14 1.57
-6 5 -4 6.22 0.7
6 5 4 7.9 0.75
6 5 4 5.98 0.59
6 5 4 6.94 0.72
6 -5 4 6.83 0.7
6 -5 4 7.87 0.74
6 -5 4 6.26 0.68
6 -5 4 7.2 0.71
6 -5 4 7.75 0.66
6 -5 5 9.66 0.75
6 5 5 9.17 0.72
6 -5 5 9.32 0.76
-6 5 -5 10.47 0.78
6 -5 5 9.65 0.72
6 -5 5 8.92 0.73
6 -5 6 13.16 0.82
6 -5 6 12.75 0.8
6 -5 6 13.19 0.8
6 -5 6 14.53 0.81
-6 5 -6 14.69 0.82
-6 5 -7 41.39 1.42
6 -5 7 42.87 1.46
6 5 7 43.73 1.45
6 -5 7 40.27 1.43
6 -5 7 41.16 1.43
6 -5 7 41.59 1.44
-6 5 -8 10.57 0.6
6 5 8 11.33 0.6
6 -5 8 10.15 0.58
6 -5 8 11.97 0.64
6 -5 8 10.38 0.61
-6 5 -9 3.44 0.32
6 -5 9 3.27 0.33
-6 -6 8 0.34 0.25
-6 -6 7 33.68 1.18
-6 6 7 36.37 1.13
6 6 -6 18.55 0.72
-6 6 6 19.72 0.8
6 -6 -6 19.34 0.77
-6 -6 6 20.71 0.87
6 6 -5 91.02 2.49
-6 6 5 89.87 2.48
-6 -6 5 90.79 2.56
6 -6 -5 85.52 2.47
6 -6 -5 87.38 2.47
6 6 -4 42.44 1.43
-6 6 4 42.08 1.35
-6 6 4 42.09 1.44
-6 -6 4 40.39 1.4
6 -6 -4 40.92 1.38
6 -6 -4 41.51 1.4
6 6 -3 0.07 0.41
-6 6 3 -0.07 0.43
-6 6 3 0.17 0.33
6 -6 -3 0.27 0.38
-6 -6 3 0.31 0.36
6 -6 -3 0.16 0.4
6 6 -2 5.49 0.6
-6 6 2 5.69 0.59
6 -6 -2 5.97 0.54
6 -6 -2 3.86 0.49
6 -6 -2 5.07 0.56
6 6 -1 7.83 0.66
-6 6 1 6.5 0.61
6 -6 -1 6.03 0.58
6 -6 -1 6.97 0.58
6 -6 -1 6.5 0.6
-6 6 0 32.92 1.27
6 -6 0 31.56 1.21
6 -6 0 32.76 1.22
6 -6 0 33.07 1.28
6 6 1 8.11 0.64
-6 6 -1 7.62 0.65
6 -6 1 7.81 0.59
6 -6 1 8.05 0.59
6 -6 1 9.56 0.69
6 6 2 1.06 0.41
-6 6 -2 1.46 0.45
6 -6 2 0.98 0.41
6 -6 2 1.77 0.45
6 6 3 0.5 0.36
6 -6 3 0.94 0.43
6 -6 3 0.52 0.38
-6 6 -3 0.45 0.41
6 -6 4 1.52 0.29
6 -6 4 2.41 0.43
6 -6 4 2.64 0.44
-6 6 -4 2.12 0.43
6 -6 4 1.77 0.34
-6 6 -5 30.59 1
6 -6 5 28.42 1
-6 6 -6 17.06 0.66
-7 0 14 -0.16 0.21
-7 0 13 3.02 0.38
-7 0 13 2.97 0.41
-7 0 13 3.8 0.42
7 0 -13 4.22 0.43
-7 0 12 -0.19 0.37
-7 0 12 0.07 0.43
-7 0 12 -0.1 0.38
-7 0 12 0.79 0.42
7 0 -12 0.37 0.42
-7 0 11 39.55 1.44
-7 0 11 38.97 1.46
-7 0 11 39.69 1.47
7 0 -11 37.78 1.48
-7 0 10 0.41 0.57
-7 0 10 0.25 0.45
-7 0 10 0.4 0.48
-7 0 10 0.44 0.52
7 0 -10 0.09 0.52
-7 0 9 224.08 6.03
-7 0 9 208.63 5.79
-7 0 9 211.15 5.83
-7 0 9 225.52 5.91
7 0 -9 222.93 5.94
-7 0 8 0.18 0.62
-7 0 8 0.24 0.51
-7 0 8 -0.05 0.55
7 0 -8 0.75 0.6
-7 0 7 84.78 2.86
-7 0 7 84.68 2.75
7 0 -7 81.05 2.74
-7 0 6 0.99 0.6
-7 0 6 0.55 0.59
7 0 -6 -0.74 0.57
7 0 -5 22.54 2.21
7 0 -5 26.39 1.33
-7 0 5 25.42 1.33
-7 0 5 25.42 1.3
-7 0 5 27.91 2.36
7 0 -4 -0.05 0.45
7 0 -4 -0.66 0.99
7 0 -4 -0.17 0.58
-7 0 4 0.75 0.61
-7 0 4 0.21 1.07
7 0 -3 326.85 8.75
7 0 -3 333.56 10.79
7 0 -3 349.77 8.9
-7 0 3 337.22 8.82
-7 0 3 354.99 10.87
7 0 -2 0.05 0.54
7 0 -2 1.97 1.18
7 0 -2 -0.12 0.67
-7 0 2 0.39 0.5
7 0 -1 81.08 2.74
7 0 -1 80.93 4.14
7 0 -1 79.11 2.71
7 0 -1 88.92 2.8
-7 0 1 80.25 4.12
7 0 0 -0.12 0.64
7 0 0 0.44 0.95
7 0 0 0.29 0.59
7 0 0 0.12 0.6
-7 0 0 0.42 1.09
7 0 1 210.64 5.75
7 0 1 209.59 7.59
7 0 1 203.92 5.58
7 0 1 203.08 5.76
7 0 1 205.38 5.81
-7 0 -1 210.28 7.52
7 0 2 0.12 0.61
7 0 2 -0.67 0.98
7 0 2 -0.06 0.64
7 0 2 -0.69 0.53
-7 0 -2 -0.63 1.04
7 0 3 125.07 5.43
7 0 3 126.4 3.88
7 0 3 120.35 3.68
7 0 3 125.48 3.85
7 0 3 131.92 3.91
-7 0 -3 128.55 5.39
7 0 4 -0.56 0.63
7 0 4 0.05 0.52
7 0 4 0.6 0.63
7 0 4 0.48 0.47
7 0 4 0.36 0.63
7 0 5 397.52 10.22
7 0 5 397.92 10.06
7 0 5 389.79 10.17
7 0 5 378.74 9.94
7 0 5 395.81 10.14
7 0 6 0.1 0.56
7 0 6 0.89 0.67
7 0 6 0.91 0.64
7 0 6 0.23 0.47
7 0 6 0.05 0.58
7 0 7 175.49 4.88
7 0 7 169.21 4.73
7 0 7 164.26 4.8
7 0 7 173.17 4.69
7 0 7 170.74 4.72
7 0 8 0.16 0.45
7 0 8 -0.13 0.48
7 0 8 0.45 0.59
7 0 9 58.31 1.85
7 0 9 54.48 1.93
7 0 9 51.79 1.82
7 0 9 58.22 1.87
7 0 10 0.17 0.39
7 0 10 0.27 0.39
7 0 11 148.85 3.84
7 0 11 147.09 3.84
7 1 -13 1.52 0.34
7 -1 -13 0.89 0.32
-7 1 13 0.82 0.34
-7 1 13 1.3 0.32
-7 -1 13 0.77 0.31
-7 1 13 0.97 0.31
-7 -1 13 1.39 0.32
-7 -1 12 12.26 0.73
-7 1 12 12.79 0.74
-7 -1 12 11.77 0.68
-7 1 12 11.25 0.67
-7 -1 12 9.62 0.63
-7 1 12 11.63 0.67
-7 -1 12 12.36 0.71
7 1 -12 12.76 0.72
7 -1 -12 12.27 0.7
-7 1 11 0.18 0.41
-7 -1 11 -0.07 0.41
-7 -1 11 -0.28 0.41
-7 1 11 -0.18 0.44
-7 -1 11 0.65 0.44
7 1 -11 0.19 0.45
7 -1 -11 -0.04 0.46
-7 -1 10 19.81 1.11
-7 1 10 20.02 1.11
-7 -1 10 18.49 0.96
-7 1 10 20.35 0.99
-7 -1 10 19.96 1.03
-7 -1 10 18.49 0.95
-7 1 10 22.08 1.05
-7 -1 10 19.26 1.02
7 1 -10 19.87 1.04
7 -1 -10 19.31 1.03
-7 1 9 1.78 0.51
-7 -1 9 1.91 0.67
-7 1 9 2.98 0.67
-7 -1 9 1.73 0.5
-7 -1 9 1.85 0.57
-7 -1 9 1.58 0.48
-7 1 9 2.35 0.59
-7 -1 9 2.08 0.58
7 1 -9 1.35 0.53
7 -1 -9 2.11 0.61
-7 1 8 4.54 0.66
-7 -1 8 4.17 0.7
-7 1 8 4.76 0.6
-7 -1 8 4.61 0.78
-7 1 8 4.87 0.76
7 1 -8 5.38 0.71
7 -1 -8 4.83 0.73
7 1 -7 0.39 0.47
-7 1 7 0.36 0.58
-7 -1 7 0.47 0.61
-7 -1 7 0.18 0.6
-7 1 7 0.24 0.65
7 1 -7 -0.32 0.59
7 -1 -7 0.54 0.55
7 1 -6 70.1 2.31
-7 1 6 66.65 2.37
-7 -1 6 69.69 2.38
7 -1 -6 68.51 2.26
-7 -1 6 70.11 2.47
-7 1 6 69.7 2.47
7 1 -6 69.36 2.42
7 -1 -6 65.8 2.36
7 1 -5 29.24 1.35
7 1 -5 30.62 1.49
7 -1 -5 31.8 1.48
-7 -1 5 32.3 1.47
-7 1 5 32.74 1.48
-7 -1 5 33.53 2.56
7 -1 -5 34.03 1.39
-7 -1 5 31.86 1.53
-7 1 5 33.12 1.52
7 1 -4 7.61 0.78
7 1 -4 7.5 1.42
7 -1 -4 9.19 1.5
7 1 -4 7.57 0.86
7 -1 -4 6.79 0.8
-7 -1 4 4.61 1.28
-7 1 4 7.26 1.47
-7 -1 4 8.58 0.83
-7 1 4 6.83 0.81
7 -1 -4 7.23 0.7
-7 -1 4 7.59 0.81
-7 1 4 8.65 0.84
7 1 -3 68.49 2.39
7 1 -3 69.9 2.35
7 1 -3 61.67 3.65
7 -1 -3 66.2 3.71
7 1 -3 72.45 2.47
7 -1 -3 68.82 2.41
-7 -1 3 73.13 3.83
-7 1 3 75.35 3.83
7 -1 -3 67.33 2.28
-7 -1 3 69.6 2.38
-7 1 3 71.96 2.39
7 1 -2 1302.56 31.5
7 -1 -2 1264.29 31.33
7 1 -2 1283.07 31.39
7 1 -2 1298.1 33.72
7 -1 -2 1291.17 33.71
7 1 -2 1338.19 31.51
7 -1 -2 1311.75 31.48
-7 -1 2 1294.23 33.63
-7 1 2 1298.57 33.58
7 -1 -2 1300.32 31.33
-7 -1 2 1254.34 31.32
-7 1 2 1268.95 31.33
7 1 -1 2.18 0.64
7 1 -1 2.95 0.73
7 -1 -1 2.42 0.62
7 -1 -1 3.52 0.64
7 1 -1 3.02 1.05
7 -1 -1 5.37 1.18
7 1 -1 2.5 0.71
7 -1 -1 1.69 0.7
-7 -1 1 3.76 1.2
7 -1 -1 2.43 0.74
7 -1 -1 1.92 0.53
7 1 0 499.21 12.47
7 1 0 497.57 12.51
7 -1 0 471.95 12.28
7 1 0 471.77 12.33
7 1 0 495.35 14.46
7 -1 0 487.74 14.4
7 1 0 485.15 12.38
7 -1 0 491.6 12.39
7 -1 0 494.57 12.48
-7 -1 0 500.39 14.41
-7 1 0 490.19 14.32
7 -1 0 474.48 12.21
7 1 1 11.06 0.92
7 1 1 12.35 1.02
7 1 1 11.83 1.04
7 -1 1 11.85 0.9
7 1 1 8.97 1.6
7 -1 1 11.31 1.71
7 1 1 14.02 1.03
7 -1 1 10.1 0.91
7 -1 1 11.46 1.04
-7 -1 -1 11.15 1.71
-7 1 -1 7.01 1.6
7 -1 1 11.48 0.85
7 1 2 6.25 0.66
7 -1 2 7.44 0.79
7 1 2 5.69 0.84
7 1 2 6.95 0.88
7 1 2 5.53 0.76
7 -1 2 4.37 1.27
7 1 2 5.5 1.32
7 1 2 5.38 0.79
7 -1 2 6.07 0.75
-7 -1 -2 5.25 1.32
-7 1 -2 7.61 1.4
7 -1 2 6.63 0.86
7 -1 2 6.73 0.69
7 1 3 -0.28 0.5
7 -1 3 -0.06 0.6
7 1 3 -0.06 0.62
7 -1 3 0.78 0.5
7 -1 3 -0.06 0.56
7 1 3 0.52 0.67
7 1 3 0.31 0.66
7 1 3 -0.34 0.61
7 1 4 4.18 0.66
7 -1 4 5.24 0.74
7 1 4 5.16 0.82
7 1 4 3.68 0.72
7 -1 4 4.8 0.73
7 1 4 4.71 0.75
7 -1 4 4.04 0.63
7 1 5 8.5 0.77
7 -1 5 9.5 0.68
7 -1 5 10.64 0.98
7 -1 5 7.64 0.85
7 1 5 8.82 0.86
7 1 5 7.66 0.85
7 1 5 9.89 1
7 -1 5 7.54 0.69
7 -1 5 9.95 0.88
7 1 5 8.69 0.84
7 -1 5 8.26 0.76
7 1 6 54.89 2.06
7 -1 6 59.6 1.92
7 -1 6 56.11 2.08
7 1 6 56.07 2.06
7 1 6 54.5 2.13
7 -1 6 54.47 2.07
7 1 6 57.58 2.08
7 1 6 55.71 1.99
7 -1 6 55.53 1.86
7 -1 6 54.02 2.06
7 -1 7 3.95 0.58
7 -1 7 3.66 0.7
7 1 7 3.48 0.65
7 1 7 5.29 0.74
7 -1 7 4.24 0.68
7 1 7 3.75 0.67
7 1 7 2.45 0.58
7 -1 7 3.9 0.55
7 -1 7 4.1 0.66
7 1 8 14.78 0.89
7 -1 8 15.3 0.84
7 1 8 17 0.98
7 -1 8 15.68 0.84
7 -1 8 17.17 1.01
7 1 8 17.5 0.95
7 -1 8 15.35 0.92
7 1 9 1.08 0.46
7 -1 9 0.34 0.38
7 -1 9 1.37 0.53
7 1 9 1.01 0.52
7 1 9 1.28 0.54
7 -1 9 1.19 0.41
7 1 10 7.94 0.6
7 -1 10 7.55 0.52
7 -1 10 8.58 0.64
7 1 10 7.46 0.61
7 -1 10 8.4 0.53
7 1 10 7.94 0.63
7 1 11 1.62 0.34
7 -1 11 1.46 0.29
7 -1 11 1.75 0.38
7 1 11 1.56 0.34
7 1 11 2.23 0.35
-7 -2 12 4.35 0.41
7 -2 -12 4.46 0.39
-7 2 12 4.87 0.47
-7 -2 12 5.05 0.5
7 -2 -11 -0.03 0.35
7 2 -11 0.13 0.29
-7 2 11 -0.22 0.44
-7 -2 11 0.09 0.37
-7 -2 11 -0.31 0.37
-7 -2 10 91.25 2.84
-7 -2 10 86.41 2.63
-7 2 10 91.19 2.7
-7 2 10 92.12 2.67
-7 -2 10 94.06 2.69
7 2 -10 96.53 2.72
7 -2 -10 91.32 2.69
-7 -2 9 75.01 2.53
-7 2 9 76.23 2.5
-7 2 9 73.98 2.33
7 2 -9 75.02 2.38
7 -2 -9 74.17 2.35
7 -2 -9 73.78 2.35
-7 2 9 77.07 2.35
-7 -2 9 77.9 2.36
7 2 -8 6.91 0.6
-7 2 8 5.79 0.65
-7 -2 8 5.65 0.67
-7 2 8 6.33 0.64
7 -2 -8 6.59 0.69
-7 -2 8 8.03 0.85
-7 2 8 7.56 0.8
7 2 -8 7.57 0.69
7 -2 -8 6.48 0.68
7 2 -7 0.88 0.51
-7 2 7 1.31 0.53
-7 -2 7 1.06 0.53
7 -2 -7 0.62 0.52
-7 -2 7 1.94 0.7
-7 2 7 2.03 0.63
7 2 -7 1.05 0.53
7 -2 -7 1.13 0.55
7 2 -6 13.99 0.91
-7 2 6 13.75 0.9
-7 -2 6 14.12 0.91
7 -2 -6 14.35 0.95
-7 -2 6 13.39 1
-7 2 6 12.49 1
7 2 -6 12.64 0.91
7 -2 -6 13.43 0.93
7 2 -5 -0.27 0.56
7 2 -5 -0.63 0.6
-7 2 5 -0.05 0.5
-7 -2 5 -0.2 0.54
7 -2 -5 -0.05 0.54
-7 -2 5 0.24 0.62
-7 2 5 -0.17 0.57
7 2 -5 -0.25 0.54
7 -2 -5 0.2 0.55
7 2 -4 10.4 0.92
7 2 -4 8.67 0.86
-7 -2 4 10.6 0.84
-7 2 4 9.88 0.81
7 -2 -4 8.59 0.84
-7 -2 4 11.17 0.91
-7 2 4 10.3 0.87
7 2 -4 8.71 0.83
7 -2 -4 12.61 0.91
7 2 -3 71.19 2.51
7 2 -3 70.74 2.5
7 2 -3 72.59 2.51
-7 -2 3 74.35 2.43
-7 2 3 71.24 2.39
7 -2 -3 74.26 2.47
-7 -2 3 71.69 2.44
-7 2 3 74.69 2.44
7 2 -3 70.82 2.43
7 -2 -3 71.6 2.42
7 2 -2 1.39 0.64
7 2 -2 1.39 0.65
7 2 -2 1.67 0.59
7 -2 -2 3 0.65
-7 2 2 2.2 0.54
7 -2 -2 1.69 0.57
7 2 -1 78.76 2.68
7 2 -1 79.14 2.64
7 2 -1 72.91 3.8
7 -2 -1 74.78 3.83
7 2 -1 72.62 2.5
7 -2 -1 77.85 2.53
7 -2 -1 71.32 2.56
-7 -2 1 69.71 3.77
-7 2 1 73.2 3.78
7 -2 -1 77.5 2.55
7 2 0 -0.06 0.6
7 2 0 0.48 0.69
7 2 0 0.04 0.47
7 2 0 -0.16 0.54
7 -2 0 0.26 0.57
7 -2 0 1.13 0.64
7 -2 0 -0.16 0.55
7 2 1 36.75 1.67
7 2 1 36.91 1.74
7 2 1 36.66 1.65
7 2 1 35.19 1.46
7 2 1 35.85 1.54
7 -2 1 35.42 1.53
7 -2 1 35.21 1.54
7 -2 1 36.6 1.66
7 -2 2 2.15 0.7
7 2 2 2.84 0.72
7 2 2 3.49 0.82
7 2 2 2.76 0.58
7 2 2 1.72 0.54
7 -2 2 2.46 0.56
7 -2 2 2.74 0.59
7 2 2 2.4 0.6
7 -2 2 1.86 0.6
7 -2 3 21.97 1.31
7 2 3 22.77 1.17
7 2 3 21.44 1.04
7 -2 3 22.19 1.19
7 2 3 24.08 1.24
7 -2 3 23.99 1.22
7 2 3 22.2 1.28
7 2 3 23.64 1.3
7 -2 3 23.54 1.14
7 -2 4 2.52 0.72
7 2 4 1.97 0.59
7 -2 4 2.42 0.58
7 2 4 1.99 0.6
7 -2 4 2.59 0.64
7 2 4 3.83 0.75
7 2 4 2.93 0.74
7 -2 4 1.53 0.54
7 2 5 23.86 1.2
7 -2 5 25.27 1.23
7 2 5 23.41 1.19
7 -2 5 25.2 1.24
7 2 5 25.92 1.33
7 -2 5 22.18 1.15
7 2 5 23.73 1.1
7 2 5 23.08 1.25
7 2 5 23.56 1.31
7 -2 6 3.2 0.65
7 -2 6 2.49 0.67
7 2 6 1.7 0.57
7 -2 6 2.4 0.59
7 2 6 1.59 0.52
7 2 6 2.42 0.67
7 -2 6 2.34 0.58
7 2 6 2.51 0.61
7 2 6 2.23 0.69
7 -2 6 2.01 0.57
7 2 7 69.82 2.33
7 -2 7 69.33 2.23
7 2 7 70.89 2.23
7 2 7 72.57 2.35
7 -2 7 66.22 2.23
7 -2 7 69.1 2.3
7 -2 7 65.08 2.23
7 2 7 71.74 2.26
7 -2 7 63.89 2.01
7 2 8 0.89 0.54
7 -2 8 1.34 0.49
7 2 8 1.19 0.58
7 -2 8 0.24 0.5
7 -2 8 1.59 0.53
7 2 8 1.01 0.5
7 -2 8 1.2 0.36
7 -2 9 0.12 0.41
7 2 9 0.44 0.43
7 2 9 0.57 0.49
7 -2 9 0.61 0.43
7 2 9 0.43 0.43
7 -2 9 0.02 0.3
7 -2 10 9.72 0.57
7 2 10 10.45 0.6
7 -2 10 8.6 0.45
7 2 11 8.32 0.44
-7 3 12 0.28 0.25
-7 3 11 4.64 0.46
7 -3 -11 4.66 0.45
-7 3 11 4.85 0.43
-7 3 10 0.09 0.29
7 -3 -10 -0.22 0.39
-7 -3 10 0.3 0.45
7 3 -10 -0.27 0.31
-7 3 10 -0.4 0.37
-7 3 9 4.63 0.51
-7 -3 9 4.76 0.44
-7 3 9 6.4 0.65
7 -3 -9 6.24 0.61
-7 -3 9 6.51 0.7
7 3 -9 6.81 0.56
-7 3 9 5.49 0.55
7 3 -8 -0.37 0.39
7 3 -8 0.55 0.47
-7 -3 8 -0.44 0.37
-7 3 8 0.09 0.51
7 -3 -8 0.38 0.48
-7 -3 8 0.59 0.56
7 -3 -7 2.79 0.46
-7 3 7 2.8 0.59
7 -3 -7 3.07 0.61
-7 -3 7 2.04 0.61
-7 -3 7 2.28 0.46
7 3 -7 2.46 0.53
7 -3 -6 34.59 1.31
7 -3 -6 36.07 1.53
-7 -3 6 33.85 1.54
-7 3 6 34.38 1.51
-7 -3 6 35.14 1.32
7 3 -6 37.01 1.47
7 -3 -5 0.34 0.42
-7 3 5 0.97 0.55
7 -3 -5 0.41 0.57
-7 -3 5 1.19 0.61
-7 -3 5 0.15 0.44
7 3 -5 0.2 0.55
7 -3 -4 2.82 0.52
-7 3 4 1.86 0.59
7 -3 -4 1.53 0.61
-7 -3 4 2.1 0.58
-7 -3 4 1.49 0.48
7 3 -4 1.71 0.61
7 -3 -3 37.02 1.41
7 -3 -3 33.97 1.54
-7 -3 3 34.64 1.47
-7 3 3 38.07 1.5
-7 -3 3 36.21 1.39
-7 3 3 34.05 1.35
7 3 -3 35.88 1.57
7 3 -3 37.43 1.63
7 3 -3 36.65 1.66
7 3 -2 0.78 0.58
7 3 -2 0.42 0.69
7 3 -2 0.94 0.64
7 3 -2 0.83 0.48
7 3 -2 0.34 0.64
7 -3 -2 0.42 0.47
-7 -3 2 0.4 0.46
-7 3 2 -0.16 0.43
7 -3 -2 0.78 0.51
-7 3 2 0.18 0.46
7 -3 -2 0.65 0.55
7 3 -1 8.63 0.88
7 3 -1 8.59 0.96
7 3 -1 10.15 0.88
7 3 -1 7.18 0.71
7 -3 -1 7.34 0.66
7 -3 -1 8.05 0.82
7 -3 -1 6.35 0.73
7 -3 0 0.94 0.62
7 3 0 0.99 0.58
7 3 0 0.48 0.7
7 3 0 1.6 0.57
7 3 0 0.9 0.59
7 -3 0 1.52 0.49
-7 3 0 0.97 0.47
7 -3 0 1.07 0.6
7 -3 1 2.28 0.62
7 3 1 1.54 0.55
7 3 1 2.89 0.8
7 3 1 1.46 0.59
7 3 1 1.35 0.58
7 -3 1 1.72 0.58
7 -3 1 1.33 0.49
-7 3 -1 1.09 0.47
7 -3 1 2.64 0.66
7 -3 2 5.7 0.76
7 3 2 4.86 0.68
7 3 2 6.31 0.77
7 3 2 5.27 0.87
7 3 2 4.3 0.72
7 3 2 5.99 0.66
7 -3 2 5.18 0.69
7 -3 2 4.49 0.6
-7 3 -2 4.36 0.58
7 -3 2 5.75 0.74
7 -3 3 8.21 0.84
7 3 3 7.88 0.74
7 3 3 8.66 0.82
7 3 3 8.11 0.91
7 3 3 7.4 0.76
7 3 3 6.53 0.63
7 -3 3 7.07 0.7
7 -3 3 6.93 0.66
-7 3 -3 6.61 0.64
7 -3 3 7.56 0.79
7 3 4 32.94 1.45
7 -3 4 35.51 1.56
7 3 4 35.3 1.55
7 3 4 35.01 1.36
7 3 4 35.53 1.48
7 -3 4 34.01 1.33
-7 3 -4 32.26 1.3
7 -3 4 34.83 1.5
7 3 5 8.22 0.77
7 -3 5 8.42 0.83
7 3 5 9.07 0.76
7 3 5 7.61 0.85
7 -3 5 7.95 0.63
-7 3 -5 7.63 0.64
7 -3 5 8.68 0.79
7 3 6 1.58 0.56
7 -3 6 1.34 0.61
-7 3 -6 1.24 0.42
7 -3 6 1.35 0.54
7 3 6 1.8 0.49
7 3 6 2.01 0.64
7 3 7 1.37 0.52
7 -3 7 1.15 0.37
-7 3 -7 1.35 0.37
7 -3 7 1.13 0.5
7 3 8 3.76 0.53
7 -3 8 3.61 0.53
7 -3 8 3.51 0.39
-7 3 -8 2.74 0.37
7 -3 8 4.36 0.54
7 -3 9 2.83 0.41
7 -3 9 1.85 0.28
7 3 9 2.41 0.44
7 -3 9 2 0.41
7 3 9 2.46 0.4
7 3 10 3.32 0.33
7 3 10 3.94 0.34
-7 4 10 0.07 0.28
-7 4 10 0.17 0.22
7 -4 -10 0.09 0.29
-7 -4 10 0.08 0.32
-7 4 9 4.17 0.42
-7 4 9 4.76 0.46
-7 4 9 4.77 0.49
-7 -4 9 5.23 0.54
7 4 -9 3.58 0.34
-7 4 8 -0.03 0.39
7 4 -8 0.22 0.35
-7 4 8 0.19 0.38
-7 4 8 0.41 0.41
-7 -4 8 0.37 0.45
-7 4 7 49.63 1.69
7 4 -7 51.83 1.7
-7 -4 7 51.48 1.8
-7 4 7 51.61 1.75
7 4 -7 51.7 1.72
7 4 -6 -0.04 0.44
7 4 -6 -0.24 0.46
-7 4 6 0.57 0.46
-7 -4 6 0.22 0.48
-7 4 6 0.11 0.42
7 4 -5 14.02 0.88
7 4 -5 13.75 0.89
-7 4 5 14.55 0.8
7 -4 -5 14.11 0.85
-7 -4 5 14.1 0.88
-7 4 5 13.26 0.84
-7 4 4 1.34 0.44
-7 4 4 0.94 0.42
7 4 -4 1.4 0.57
7 -4 -4 0.79 0.47
-7 4 4 1.2 0.49
-7 -4 4 0.56 0.48
7 4 -4 0.87 0.54
-7 4 3 3.93 0.53
7 4 -3 3.29 0.6
7 -4 -3 4.31 0.61
7 4 -3 4.91 0.69
-7 4 3 4.12 0.55
-7 -4 3 3.76 0.55
-7 4 2 -0.22 0.41
7 -4 -2 0.6 0.49
-7 4 2 0.08 0.43
7 4 -1 4.62 0.68
7 4 -1 3.69 0.64
7 4 -1 4.57 0.77
7 -4 -1 3.05 0.51
7 -4 -1 3.44 0.56
-7 4 1 4.71 0.6
7 4 0 2.31 0.56
7 4 0 3.2 0.63
7 4 0 2.37 0.56
7 4 0 2.73 0.72
7 -4 0 2.18 0.51
7 -4 0 2.49 0.66
7 -4 0 2.68 0.53
-7 4 0 2.16 0.5
7 4 1 25.33 1.16
7 4 1 22.37 1.18
7 4 1 23.81 1.3
7 -4 1 25.04 1.15
7 -4 1 24.1 1.19
-7 4 -1 23.88 1.09
7 4 1 24.55 1.17
7 4 1 23.8 1.15
7 4 2 3.96 0.57
7 4 2 3.59 0.63
7 -4 2 3.95 0.62
7 -4 2 4.44 0.65
-7 4 -2 2.9 0.52
7 4 2 4.03 0.63
7 4 2 3.17 0.55
7 4 3 1.2 0.53
7 -4 3 1.25 0.55
7 -4 3 0.77 0.46
-7 4 -3 0.84 0.46
7 4 3 1.7 0.58
7 4 4 0.04 0.45
7 -4 4 0.58 0.51
7 -4 4 0.39 0.43
-7 4 -4 0.48 0.42
7 4 4 0.48 0.53
7 -4 5 54.11 1.84
7 4 5 54.31 1.83
-7 4 -5 53.77 1.73
7 4 5 53.97 1.86
7 -4 6 29.4 1.19
7 4 6 30.51 1.19
-7 4 -6 29.79 1.07
7 4 6 27.48 1.16
7 -4 7 0.47 0.4
-7 4 -7 0.14 0.3
7 4 7 -0.06 0.39
7 4 7 0.47 0.41
7 4 8 6.65 0.46
7 4 8 6.76 0.45
-7 5 8 0.14 0.24
7 -5 -7 3.23 0.39
-7 -5 7 3.89 0.41
-7 5 7 4.1 0.41
-7 5 6 2.82 0.33
7 5 -6 3.44 0.4
7 -5 -6 2.11 0.39
7 -5 -6 4.02 0.46
-7 -5 6 3.95 0.45
-7 5 5 23.74 0.88
7 -5 -5 25.21 1.02
7 5 -5 26.86 1.03
7 -5 -5 24.09 0.99
7 -5 -5 24.08 1.02
-7 -5 5 23.46 0.95
7 -5 -4 8.34 0.64
7 5 -4 8.39 0.64
7 -5 -4 7.45 0.6
7 -5 -4 7.28 0.61
-7 -5 4 6.89 0.51
-7 5 3 1.84 0.41
7 5 -3 2.55 0.52
7 -5 -3 2.35 0.51
7 -5 -3 2.35 0.46
7 -5 -3 2.71 0.51
7 5 -2 15.43 0.84
7 -5 -2 16.51 0.88
7 -5 -2 16.75 0.9
7 -5 -2 17.67 0.87
-7 5 2 14.89 0.78
7 -5 -1 15.93 0.89
7 -5 -1 16.16 0.85
-7 5 1 18.22 0.84
7 5 -1 17.19 0.86
-7 5 0 4.33 0.5
7 5 0 4.34 0.57
7 -5 0 5.03 0.54
7 -5 0 4.79 0.57
7 5 0 5.07 0.54
-7 5 -1 1.29 0.41
7 5 1 0.82 0.42
7 5 1 0.29 0.38
7 -5 1 1 0.42
7 -5 1 1.08 0.44
7 -5 2 11.7 0.61
7 5 2 12.39 0.69
7 -5 2 13.78 0.77
-7 5 -2 11.1 0.68
7 -5 2 13.19 0.76
7 -5 3 3.29 0.42
7 5 3 4.2 0.54
7 5 3 4.16 0.5
7 -5 3 4.07 0.49
-7 5 -3 3.87 0.45
7 -5 3 3.9 0.5
7 -5 4 9.04 0.56
7 5 4 8.82 0.6
7 5 4 9.77 0.62
7 -5 4 10.86 0.63
-7 5 -4 9.34 0.55
7 -5 4 10.32 0.63
7 -5 5 0.23 0.31
7 5 5 -0.34 0.29
7 -5 5 0.02 0.29
-7 5 -5 0.28 0.28
7 -5 5 0.35 0.33
7 5 5 0.65 0.35
7 -5 6 1.12 0.27
7 5 6 1.75 0.31
7 6 -3 17.59 0.65
7 6 -2 8.62 0.47
7 6 0 9.55 0.46
-7 6 0 7.38 0.4
7 6 1 15.96 0.59
-8 0 12 2.92 0.27
-8 0 12 1.55 0.25
8 0 -11 -0.07 0.31
-8 0 11 -0.06 0.31
-8 0 11 0.03 0.33
8 0 -10 8.83 0.62
-8 0 10 8.5 0.6
-8 0 10 8.34 0.63
8 0 -9 0.49 0.44
-8 0 9 0.27 0.42
-8 0 9 0.38 0.47
8 0 -8 5.88 0.66
-8 0 8 6.62 0.66
-8 0 8 6.75 0.68
8 0 -7 0.22 0.51
-8 0 7 -0.59 0.5
-8 0 7 0.46 0.52
8 0 -6 1.08 0.54
-8 0 6 0.75 0.52
8 0 -6 0.43 0.4
-8 0 6 1.12 0.57
8 0 -5 0.05 0.56
-8 0 5 -0.42 0.52
-8 0 5 -0.18 0.5
8 0 -4 7 0.74
-8 0 4 6.65 0.67
-8 0 4 6.99 0.78
8 0 -3 -0.21 0.56
-8 0 3 0.1 0.58
8 0 -3 0.63 0.47
8 0 -2 9.14 0.78
8 0 -2 8.84 0.85
8 0 -1 -0.6 0.56
8 0 -1 -0.8 0.63
8 0 0 62.58 2.17
8 0 0 59.56 2.18
8 0 1 0.16 0.59
8 0 1 0.05 0.58
8 0 2 5.07 0.76
8 0 2 3.08 0.66
8 0 2 4.55 0.73
8 0 3 0.1 0.57
8 0 3 0.36 0.6
8 0 3 0.04 0.44
8 0 3 -0.05 0.57
8 0 4 10.74 0.89
8 0 4 10.38 0.71
8 0 4 8.76 0.81
8 0 5 0.36 0.56
8 0 5 0.23 0.52
8 0 5 0.16 0.43
8 0 5 0.41 0.52
8 0 6 26.78 1.06
8 0 6 27.63 1.23
8 0 6 28.73 1.21
8 0 7 0.12 0.28
8 0 7 -0.32 0.45
8 0 7 0.68 0.46
8 0 7 -0.05 0.33
8 0 8 3.09 0.3
8 0 8 3.38 0.48
8 0 8 4.4 0.47
8 0 8 3.3 0.36
8 0 9 -0.06 0.29
8 1 -11 7.07 0.46
-8 1 11 7.85 0.46
-8 -1 11 8.54 0.47
-8 -1 11 6.36 0.49
-8 1 11 8.53 0.5
8 1 -10 1.24 0.38
8 -1 -10 0.53 0.36
-8 1 10 1.25 0.37
-8 -1 10 1.1 0.36
-8 1 10 0.99 0.4
-8 -1 10 1.76 0.42
8 1 -9 8.45 0.64
8 -1 -9 8.81 0.65
-8 1 9 9.11 0.63
-8 -1 9 8.66 0.63
-8 -1 9 9.43 0.68
-8 1 9 9.01 0.68
8 1 -8 0.75 0.47
8 -1 -8 0.82 0.46
-8 -1 8 0.7 0.5
-8 1 8 0.08 0.47
-8 1 8 0.6 0.45
-8 -1 8 0.32 0.46
8 1 -7 -0.21 0.48
8 -1 -7 0.08 0.46
-8 -1 7 -0.4 0.5
-8 1 7 -0.22 0.5
8 1 -7 0.36 0.36
-8 1 7 0.35 0.5
-8 -1 7 0.16 0.49
8 1 -6 68.28 2.22
8 -1 -6 65.25 2.19
-8 -1 6 67.24 2.21
-8 1 6 66.73 2.19
8 1 -6 63.58 2.08
-8 1 6 68.01 2.19
-8 -1 6 63.91 2.16
8 1 -5 9.84 0.8
8 -1 -5 9.23 0.78
-8 -1 5 8.03 0.74
-8 1 5 9.4 0.75
8 1 -5 8.96 0.72
-8 1 5 8.72 0.76
-8 -1 5 8.73 0.76
8 1 -4 3.8 0.64
8 -1 -4 4.7 0.69
-8 -1 4 3.92 0.58
-8 1 4 3.88 0.58
-8 -1 4 3.96 0.67
-8 1 4 3.67 0.65
8 1 -4 4.15 0.64
8 1 -4 3.62 0.57
8 1 -3 3.4 0.66
8 -1 -3 3.42 0.66
-8 -1 3 4.06 0.66
-8 1 3 4.22 0.7
8 1 -3 3.3 0.61
8 1 -2 280.45 7.3
8 -1 -2 265.13 7.11
8 1 -2 293.18 7.35
8 -1 -2 271.66 7.29
8 1 -1 105.4 3.21
8 -1 -1 102.89 3.07
8 1 -1 99.29 3.03
8 1 -1 105.88 3.19
8 -1 -1 105.49 3.2
8 1 0 96.84 3.03
8 -1 0 95.22 2.92
8 1 0 93.02 2.87
8 1 0 95.99 2.98
8 -1 0 95.67 2.99
8 -1 1 4.14 0.69
8 1 1 4.1 0.73
8 1 1 3.64 0.62
8 1 1 5.25 0.74
8 -1 1 4.01 0.62
8 -1 2 1.43 0.57
8 1 2 1.74 0.63
8 1 2 1.44 0.53
8 1 2 1.21 0.63
8 -1 2 1.72 0.6
8 -1 2 1.77 0.51
8 -1 3 3.61 0.65
8 1 3 3.23 0.63
8 -1 3 3.01 0.58
8 1 3 5.33 0.75
8 1 3 3.43 0.61
8 -1 3 5.47 0.69
8 1 3 4.18 0.76
8 -1 4 0.64 0.5
8 1 4 0.37 0.53
8 1 4 1.13 0.38
8 1 4 1.2 0.63
8 -1 4 0.5 0.5
8 1 4 1.31 0.54
8 -1 4 1.07 0.55
8 1 5 13.81 0.74
8 -1 5 15.36 0.9
8 1 5 15.21 0.89
8 -1 5 15.31 0.95
8 1 5 14.34 0.86
8 -1 5 15.28 0.91
8 1 5 14.5 0.96
8 -1 5 15.53 0.89
8 -1 6 3.23 0.52
8 1 6 3.12 0.52
8 1 6 3.59 0.6
8 -1 6 3.07 0.53
8 1 6 2.36 0.53
8 -1 6 3.41 0.57
8 1 6 3.34 0.54
8 1 6 2.38 0.42
8 1 7 15.93 0.78
8 1 7 14.3 0.77
8 1 7 16.14 0.87
8 -1 7 15.09 0.78
8 1 7 15.68 0.69
8 -1 8 0.02 0.32
8 1 8 0.11 0.32
8 1 8 0.11 0.27
8 -1 9 0.65 0.25
8 -1 9 0.84 0.25
-8 2 11 2.84 0.26
-8 2 10 14.26 0.67
8 2 -10 15.11 0.62
-8 -2 10 17.67 0.64
-8 -2 10 18.12 0.76
-8 2 10 18.29 0.75
8 2 -9 31.38 1.13
8 -2 -9 31.52 1.09
-8 -2 9 33.45 1.11
-8 -2 9 33.55 1.22
-8 2 9 31.23 1.18
8 -2 -8 10.66 0.63
-8 -2 8 11.16 0.73
-8 2 8 10.37 0.7
-8 -2 8 10.5 0.64
8 2 -7 47.78 1.63
8 -2 -7 50.18 1.64
-8 -2 7 48.27 1.7
-8 2 7 47.29 1.68
8 2 -7 48.43 1.57
-8 2 7 51.37 1.63
-8 -2 7 49.6 1.63
8 2 -6 9.92 0.69
8 -2 -6 10.3 0.71
-8 -2 6 8.74 0.72
-8 2 6 8.75 0.71
8 2 -6 8.44 0.67
-8 2 6 9.56 0.67
-8 -2 6 9.16 0.68
8 2 -5 11.94 0.78
8 -2 -5 10.54 0.74
-8 -2 5 9.63 0.74
-8 2 5 12.13 0.78
8 2 -5 9.92 0.76
-8 2 5 10.51 0.72
-8 -2 5 11.54 0.75
8 2 -4 69.63 2.19
8 -2 -4 69.82 2.18
-8 -2 4 63.92 2.09
-8 2 4 65.46 2.1
-8 2 4 65.55 2.13
-8 -2 4 69.81 2.17
8 2 -4 65.88 2.21
8 2 -3 22.56 1.09
8 -2 -3 19.92 1.04
-8 -2 3 22.98 1.08
-8 2 3 21.32 1.04
8 2 -3 21.4 1.12
8 2 -3 20.41 1.11
8 2 -2 3.26 0.59
8 -2 -2 4.27 0.61
-8 -2 2 3.22 0.58
-8 2 2 3.48 0.56
8 2 -2 3.61 0.62
8 2 -2 3.1 0.61
8 2 -1 12.45 0.85
8 -2 -1 13.13 0.87
8 2 -1 12.16 0.9
8 2 -1 13.1 0.95
8 2 -1 12.6 0.89
8 -2 0 28.25 1.28
8 2 0 29.27 1.29
8 2 0 29.01 1.24
8 2 0 26.13 1.34
8 -2 0 28.01 1.17
8 2 0 29.87 1.33
8 -2 1 55.92 1.97
8 2 1 57.11 1.97
8 -2 1 56.35 2.03
8 2 1 59.45 2.03
8 2 1 58.96 2.07
8 -2 1 56.25 1.9
8 2 1 56.33 2.01
8 2 2 19.22 0.9
8 -2 2 20.26 1.04
8 2 2 21.55 1.05
8 -2 2 19.97 1.12
8 2 2 20.48 1.04
8 2 2 20.06 1.1
8 -2 2 20.94 1.04
8 2 2 22.54 1.13
8 2 3 39.06 1.39
8 -2 3 38.98 1.51
8 2 3 41.82 1.51
8 -2 3 39.81 1.6
8 2 3 40.7 1.5
8 2 3 41.74 1.58
8 2 4 10.44 0.68
8 -2 4 9.86 0.71
8 2 4 10.04 0.71
8 -2 4 9.87 0.82
8 2 4 10.22 0.79
8 2 4 9.91 0.78
8 -2 5 197.12 5.22
8 2 5 199.57 5.17
8 2 5 205.68 5.3
8 -2 5 191.19 5.12
8 2 5 209.7 5.33
8 -2 6 6.75 0.62
8 2 6 6.58 0.57
8 -2 6 6.78 0.48
8 2 6 6.53 0.61
8 2 6 6.05 0.51
8 -2 7 35.75 1.21
8 2 7 34.53 1.2
8 2 7 33.44 1.1
8 2 8 0.61 0.33
8 -2 8 1.12 0.32
8 2 8 0.94 0.26
8 3 -9 0.26 0.23
-8 3 9 -0.08 0.28
8 3 -8 0.71 0.32
-8 3 8 0.82 0.34
-8 -3 8 0.24 0.34
-8 3 7 8.1 0.5
8 3 -7 9.57 0.54
-8 -3 7 9.04 0.61
-8 3 7 8.36 0.6
8 3 -7 9.75 0.63
8 3 -6 17.72 0.85
8 -3 -6 18.37 0.85
-8 -3 6 18.31 0.85
-8 3 6 16.66 0.82
8 3 -6 19.02 0.91
8 3 -5 5.94 0.59
-8 -3 5 5 0.44
8 -3 -5 5.58 0.57
-8 3 5 5.94 0.54
-8 -3 5 4.58 0.5
8 3 -5 5.81 0.61
-8 -3 4 53.04 1.62
8 3 -4 54.69 1.83
8 -3 -4 54.41 1.78
-8 3 4 50.85 1.66
8 3 -3 125.37 3.56
-8 -3 3 122.67 3.35
8 -3 -3 125.04 3.51
8 3 -3 126.56 3.57
8 3 -2 363.95 9.36
8 3 -2 374.17 9.36
-8 -3 2 364.15 9.14
8 -3 -2 371.47 9.32
8 3 -1 99.1 2.95
8 3 -1 97.06 2.94
8 3 -1 94.82 2.86
8 -3 -1 98.01 2.86
-8 -3 1 95.86 2.69
8 -3 -1 96.05 2.86
8 3 0 39.14 1.52
8 3 0 41.57 1.58
8 3 0 42.54 1.61
-8 -3 0 40.57 1.35
8 -3 0 41.19 1.51
8 3 0 39.57 1.47
8 3 1 3.13 0.54
8 3 1 2.01 0.61
-8 -3 -1 1.98 0.39
8 -3 1 2.53 0.54
8 -3 1 1.95 0.49
8 3 1 2.12 0.44
8 3 2 1.79 0.46
8 3 2 1.4 0.57
8 3 2 1.05 0.52
8 -3 2 0.68 0.36
-8 -3 -2 1 0.35
8 -3 2 1.03 0.48
8 -3 2 0.59 0.44
8 3 2 0.73 0.4
8 3 3 0.19 0.5
8 3 3 0.04 0.45
8 -3 3 0.58 0.37
8 -3 3 0.26 0.47
8 -3 3 -0.42 0.43
8 3 3 0.52 0.4
8 3 4 0.58 0.42
8 3 4 0.6 0.47
8 -3 4 0.1 0.45
8 -3 4 -0.32 0.41
8 3 4 0.14 0.37
8 -3 5 0.67 0.43
8 3 5 0.13 0.36
8 3 5 0.41 0.43
8 3 5 -0.05 0.34
8 -3 6 29.06 1.03
8 3 6 28.67 1.05
8 3 7 5.78 0.36
8 -3 7 6.09 0.39
8 3 7 6.23 0.43
8 4 -7 8.74 0.46
8 4 -6 25.84 0.9
8 -4 -6 24.55 0.89
8 4 -5 12.04 0.67
8 4 -5 11.76 0.65
8 -4 -5 12.79 0.66
8 -4 -4 54.45 1.75
8 4 -4 54.42 1.74
8 4 -4 56.32 1.73
8 -4 -4 56.68 1.73
8 4 -3 0.37 0.39
8 -4 -3 0.53 0.38
8 -4 -3 -0.18 0.37
8 4 -2 8.51 0.62
8 -4 -2 9.64 0.63
8 -4 -1 36.19 1.33
8 4 -1 40.49 1.37
8 4 -1 37.78 1.34
8 -4 -1 39.11 1.37
8 -4 0 0.44 0.37
8 4 0 0.55 0.37
8 -4 0 0.94 0.41
8 4 0 0.7 0.39
8 4 1 50.62 1.59
8 -4 1 52 1.66
8 4 2 44.99 1.51
8 -4 2 44.77 1.48
8 4 3 -0.06 0.39
8 -4 3 0.4 0.36
8 4 4 2.66 0.34
8 -4 4 2.5 0.36
8 -4 4 2.2 0.34
8 5 -3 0.87 0.24
8 5 -2 13.02 0.55
8 5 -1 26.12 0.85
-9 0 9 1.13 0.21
-9 0 8 -0.04 0.26
-9 0 7 67.53 1.94
9 0 -7 66.44 1.95
-9 0 6 0.26 0.36
9 0 -6 -0.03 0.35
-9 0 5 1.34 0.42
9 0 -5 1.77 0.44
9 0 -5 1.13 0.33
-9 0 4 -0.19 0.41
9 0 -4 0.43 0.42
9 0 -4 0.23 0.35
-9 0 3 11.01 0.7
9 0 -3 10.44 0.71
9 0 -3 10.36 0.68
9 0 -2 -0.14 0.42
-9 0 2 0.23 0.43
9 0 -2 0.6 0.45
9 0 -2 -0.15 0.33
-9 0 1 0.74 0.43
9 0 -1 -0.15 0.46
9 0 -1 1.2 0.38
-9 0 0 0.86 0.46
9 0 0 0.22 0.45
9 0 0 0.21 0.38
9 0 1 51.58 1.74
9 0 1 53.58 1.71
9 0 2 -0.07 0.4
9 0 2 0.46 0.42
9 0 3 11.24 0.68
9 0 3 11.83 0.68
9 0 4 -0.03 0.33
9 0 4 -0.13 0.36
9 0 5 91 2.48
9 1 -8 1.75 0.3
-9 1 8 1.49 0.25
-9 -1 8 1.24 0.25
-9 -1 7 14.02 0.62
9 1 -7 13.11 0.63
9 -1 -7 12.82 0.61
-9 1 6 12.51 0.63
-9 -1 6 12.49 0.64
9 1 -6 10.51 0.61
9 -1 -6 11.97 0.62
-9 1 5 0.71 0.38
-9 -1 5 0.11 0.37
9 1 -5 0.57 0.36
9 -1 -5 0.23 0.36
9 1 -5 0.09 0.31
9 -1 -5 0.22 0.25
-9 1 4 19.89 0.86
-9 -1 4 20.47 0.88
9 1 -4 19.76 0.89
9 -1 -4 18.57 0.87
9 1 -4 19.1 0.84
9 -1 -4 17.17 0.77
-9 1 3 3.25 0.46
-9 -1 3 2.83 0.48
9 1 -3 2.6 0.47
9 -1 -3 2.83 0.48
9 1 -3 3.17 0.47
-9 -1 2 33.59 1.25
-9 1 2 34.72 1.25
9 -1 -2 35.19 1.31
9 1 -2 35.24 1.31
9 1 -2 34.09 1.28
9 1 -2 33.02 1.21
-9 -1 1 6.49 0.57
-9 1 1 5.34 0.55
9 -1 -1 5.83 0.59
9 1 -1 6.12 0.58
9 1 -1 6.48 0.6
9 1 -1 7.78 0.59
-9 -1 0 7.74 0.61
-9 1 0 7.35 0.59
9 -1 0 7.49 0.6
9 1 0 7.23 0.61
9 1 0 7.62 0.61
9 -1 0 7.01 0.49
9 -1 1 3.18 0.49
9 1 1 4.69 0.52
9 1 1 4.04 0.5
9 1 1 4.03 0.52
9 -1 1 2.88 0.41
9 -1 2 4.38 0.49
9 1 2 4.79 0.5
9 1 2 4.98 0.49
9 1 2 6.34 0.57
9 -1 2 5.4 0.48
9 -1 3 3.64 0.43
9 1 3 3.4 0.43
9 1 3 4 0.42
9 1 3 3.53 0.47
9 -1 3 4.2 0.45
9 -1 4 8.37 0.51
9 1 4 7.81 0.5
9 1 4 7.95 0.53
9 -1 4 7.97 0.5
9 -1 5 0.17 0.26
9 2 -7 15.22 0.62
-9 -2 6 6.16 0.37
9 2 -6 6.93 0.47
-9 -2 5 0.22 0.27
9 2 -5 0.02 0.27
9 2 -4 6.97 0.53
-9 -2 4 7.15 0.47
9 -2 -4 6.82 0.46
9 2 -4 7.88 0.51
9 2 -3 10.29 0.62
-9 -2 3 9.76 0.56
9 -2 -3 10.22 0.56
9 2 -3 11.58 0.64
9 2 -2 18.71 0.79
-9 -2 2 17.53 0.75
9 -2 -2 17.73 0.76
9 2 -2 18.43 0.84
-9 -2 1 0.05 0.31
9 -2 -1 0.38 0.32
9 2 -1 0.62 0.4
-9 -2 0 33.35 1.12
9 -2 0 33.01 1.14
9 2 0 34.39 1.23
-9 -2 -1 27.75 1
9 -2 1 28.81 1.01
9 2 1 29.71 1.08
9 2 2 11.48 0.59
9 2 2 12.91 0.67
-9 -2 -2 10.06 0.51
9 -2 3 4.13 0.32
-9 -2 -3 3.5 0.3
9 2 4 0.77 0.28
9 3 -4 28.09 0.92
9 3 -4 28.27 0.94
9 3 -3 69.88 1.98
9 3 -3 71.4 1.96
9 3 -2 79.22 2.15
9 3 -2 75.39 2.09
9 3 0 90.38 2.43
9 3 1 20.81 0.72
loop_
_geom_angle_atom_site_label_1
_geom_angle_atom_site_label_2
_geom_angle_atom_site_label_3
_geom_angle
_geom_angle_site_symmetry_1
_geom_angle_site_symmetry_3
_geom_angle_publ_flag
C7 C8 C8 119.95(13) . 3_656 ?
C3 C8 C8 120.19(13) . 3_656 ?
C3 C8 C7 119.86(11) . . ?
F1 C10 C9 115.63(10) . . ?
C11 C10 F1 122.20(11) . . ?
C11 C10 C9 122.17(11) . . ?
C8 C7 C1 118.35(11) . 3_656 ?
C6 C7 C8 119.04(11) . . ?
C6 C7 C1 122.60(11) . 3_656 ?
F2 C11 C9 115.54(10) . 3_666 ?
C10 C11 F2 122.20(11) . . ?
C10 C11 C9 122.25(11) . 3_666 ?
C8 C3 C2 118.56(11) . . ?
C4 C3 C8 118.93(11) . . ?
C4 C3 C2 122.51(11) . . ?
O1 C9 C10 122.26(11) . . ?
O1 C9 C11 122.16(11) . 3_666 ?
C10 C9 C11 115.58(10) . 3_666 ?
C7 C1 H1 119.1 3_656 . ?
C2 C1 C7 121.72(11) . 3_656 ?
C2 C1 H1 119.1 . . ?
C3 C2 H2 119.4 . . ?
C1 C2 C3 121.22(11) . . ?
C1 C2 H2 119.4 . . ?
C7 C6 H6 119.6 . . ?
C5 C6 C7 120.77(12) . . ?
C5 C6 H6 119.6 . . ?
C6 C5 H5 119.7 . . ?
C6 C5 C4 120.69(12) . . ?
C4 C5 H5 119.7 . . ?
C3 C4 H4 119.6 . . ?
C5 C4 C3 120.71(11) . . ?
C5 C4 H4 119.6 . . ?
loop_
_geom_bond_atom_site_label_1
_geom_bond_atom_site_label_2
_geom_bond_distance
_geom_bond_site_symmetry_2
_geom_bond_publ_flag
F1 C10 1.3281(13) . ?
F2 C11 1.3306(14) . ?
O1 C9 1.2091(15) . ?
C8 C8 1.428(2) 3_656 ?
C8 C7 1.4247(17) . ?
C8 C3 1.4214(17) . ?
C10 C11 1.3278(17) . ?
C10 C9 1.4825(17) . ?
C7 C1 1.4395(17) 3_656 ?
C7 C6 1.3967(18) . ?
C11 C9 1.4825(17) 3_666 ?
C3 C2 1.4402(18) . ?
C3 C4 1.3998(18) . ?
C1 H1 0.9500 . ?
C1 C2 1.3507(19) . ?
C2 H2 0.9500 . ?
C6 H6 0.9500 . ?
C6 C5 1.3842(19) . ?
C5 H5 0.9500 . ?
C5 C4 1.389(2) . ?
C4 H4 0.9500 . ?
loop_
_geom_torsion_atom_site_label_1
_geom_torsion_atom_site_label_2
_geom_torsion_atom_site_label_3
_geom_torsion_atom_site_label_4
_geom_torsion
_geom_torsion_site_symmetry_1
_geom_torsion_site_symmetry_2
_geom_torsion_site_symmetry_3
_geom_torsion_site_symmetry_4
_geom_torsion_publ_flag
F1 C10 C11 F2 0.32(18) . . . . ?
F1 C10 C11 C9 -179.57(10) . . . 3_666 ?
F1 C10 C9 O1 -0.90(17) . . . . ?
F1 C10 C9 C11 179.60(9) . . . 3_666 ?
C8 C8 C7 C1 0.59(19) 3_656 . . 3_656 ?
C8 C8 C7 C6 -178.86(12) 3_656 . . . ?
C8 C8 C3 C2 -0.12(19) 3_656 . . . ?
C8 C8 C3 C4 179.58(13) 3_656 . . . ?
C8 C7 C6 C5 -0.84(18) . . . . ?
C8 C3 C2 C1 -0.03(18) . . . . ?
C8 C3 C4 C5 -0.63(18) . . . . ?
C7 C8 C3 C2 -179.68(10) . . . . ?
C7 C8 C3 C4 0.02(17) . . . . ?
C7 C1 C2 C3 -0.14(18) 3_656 . . . ?
C7 C6 C5 C4 0.24(19) . . . . ?
C11 C10 C9 O1 178.65(11) . . . . ?
C11 C10 C9 C11 -0.86(19) . . . 3_666 ?
C3 C8 C7 C1 -179.84(10) . . . 3_656 ?
C3 C8 C7 C6 0.71(17) . . . . ?
C9 C10 C11 F2 -179.20(10) . . . . ?
C9 C10 C11 C9 0.9(2) . . . 3_666 ?
C1 C7 C6 C5 179.73(11) 3_656 . . . ?
C2 C3 C4 C5 179.06(12) . . . . ?
C6 C5 C4 C3 0.51(19) . . . . ?
C4 C3 C2 C1 -179.72(11) . . . . ?
