#------------------------------------------------------------------------------
#$Date: 2022-08-17 01:29:32 +0300 (Wed, 17 Aug 2022) $
#$Revision: 277263 $
#$URL: file:///home/coder/svn-repositories/cod/cif/7/24/53/7245326.cif $
#------------------------------------------------------------------------------
#
# This file is available in the Crystallography Open Database (COD),
# http://www.crystallography.net/
#
# All data on this site have been placed in the public domain by the
# contributors.
#
data_7245326
loop_
_publ_author_name
'Wang, Xinmei'
'Qi, Lu'
'Wu, Lei'
'Zhang, Ruixin'
'Abudoureheman, Maierhaba'
'Lv, Jiarong'
'Wang, Peng'
'Dong, Xiaoyu'
'Jing, Qun'
'Chen, Zhaohui'
_publ_section_title
;
 Synergistic effect of 2[V2P2O14]\\infty layers and hydrogen bonds
 inducing large birefringence in M(VO)2(PO4)2&#x00B7;4H2O (M = Ca, Sr, Ba)
 system
;
_journal_name_full               CrystEngComm
_journal_paper_doi               10.1039/D2CE00728B
_journal_year                    2022
_chemical_absolute_configuration ad
_chemical_formula_moiety         'Ca H8 O14 P2 V2'
_chemical_formula_sum            'Ca H8 O14 P2 V2'
_chemical_formula_weight         435.96
_space_group_crystal_system      triclinic
_space_group_IT_number           1
_space_group_name_Hall           'P 1'
_space_group_name_H-M_alt        'P 1'
_atom_sites_solution_hydrogens   difmap
_atom_sites_solution_primary     dual
_audit_creation_date             2021-08-04
_audit_creation_method
;
Olex2 1.5
(compiled 2021.07.19 svn.r715e62df for OlexSys, GUI svn.r6383)
;
_audit_update_record
;
2022-02-23 deposited with the CCDC.	2022-08-16 downloaded from the CCDC.
;
_cell_angle_alpha                85.841(7)
_cell_angle_beta                 73.143(7)
_cell_angle_gamma                89.946(6)
_cell_formula_units_Z            1
_cell_length_a                   6.3369(5)
_cell_length_b                   6.3410(5)
_cell_length_c                   6.5675(6)
_cell_measurement_reflns_used    6504
_cell_measurement_temperature    100.00(10)
_cell_measurement_theta_max      28.9720
_cell_measurement_theta_min      3.1920
_cell_volume                     251.84(4)
_computing_cell_refinement       'CrysAlisPro 1.171.38.43f (Rigaku OD, 2015)'
_computing_data_collection       'CrysAlisPro 1.171.38.43f (Rigaku OD, 2015)'
_computing_data_reduction        'CrysAlisPro 1.171.38.43f (Rigaku OD, 2015)'
_computing_molecular_graphics    'Olex2 1.5 (Dolomanov et al., 2009)'
_computing_publication_material  'Olex2 1.5 (Dolomanov et al., 2009)'
_computing_structure_refinement  'SHELXL 2018/3 (Sheldrick, 2015)'
_computing_structure_solution    'SHELXT  (Sheldrick, 2015)'
_diffrn_ambient_environment      N~2~
_diffrn_ambient_temperature      100.00(10)
_diffrn_detector                 'CCD plate'
_diffrn_detector_area_resol_mean 5.2684
_diffrn_detector_type            AtlasS2
_diffrn_measured_fraction_theta_full 0.998
_diffrn_measured_fraction_theta_max 0.917
_diffrn_measurement_details
;
List of Runs (angles in degrees, time in seconds):

  # Type    Start    End  Width  t~exp~   \w     \q     \k     \f   Frames
#--------------------------------------------------------------------------
  1  \w    -40.00  62.00   1.00    1.00    --  -11.59  57.00  30.00  102
  2  \w    -85.00  17.00   1.00    1.00    --  -11.59 -57.00-120.00  102
  3  \w    -20.00  29.00   1.00    1.00    --  -11.59 -99.00  30.00   49
  4  \w     34.00  99.00   1.00    1.00    --   11.74-178.00-120.00   65
  5  \w    -21.00  80.00   1.00    1.00    --   11.74  77.00  90.00  101
  6  \w     35.00 101.00   1.00    1.00    --   11.74 178.00   0.00   66
  7  \w     10.00  43.00   1.00    1.00    --   11.74 -77.00 -60.00   33
  8  \w     -3.00  72.00   1.00    1.00    --   11.74  37.00  60.00   75
  9  \w     17.00  52.00   1.00    1.00    --   11.74 -99.00 120.00   35
 10  \w     20.00  74.00   1.00    1.00    --   11.74  37.00-150.00   54
 11  \w    -35.00  -8.00   1.00    1.00    --   11.74 -77.00 -60.00   27
 12  \w    -66.00 -41.00   1.00    1.00    --  -11.59 122.00 136.46   25
 13  \w    -87.00 -38.00   1.00    1.00    --  -11.59 153.00-105.69   49
 14  \w   -100.00  77.00   1.00    1.00    --  -11.59   0.00-180.00  177
 15  \w   -100.00  77.00   1.00    1.00    --  -11.59   0.00-150.00  177
 16  \w   -100.00  77.00   1.00    1.00    --  -11.59   0.00-120.00  177
 17  \w   -100.00  77.00   1.00    1.00    --  -11.59   0.00 -90.00  177
 18  \w    -60.00  15.00   1.00    1.00    --   11.74 -57.00 -90.00   75
;
_diffrn_measurement_device       'four-circle diffractometer'
_diffrn_measurement_device_type  'SuperNova, Dual, Cu at zero, AtlasS2'
_diffrn_measurement_method       '\w scans'
_diffrn_orient_matrix_type
'CrysAlisPro convention (1999,Acta A55,543-557)'
_diffrn_orient_matrix_UB_11      0.0000370000
_diffrn_orient_matrix_UB_12      -0.0350138000
_diffrn_orient_matrix_UB_13      0.1050440000
_diffrn_orient_matrix_UB_21      -0.0089584000
_diffrn_orient_matrix_UB_22      0.1060536000
_diffrn_orient_matrix_UB_23      0.0287024000
_diffrn_orient_matrix_UB_31      -0.1166387000
_diffrn_orient_matrix_UB_32      -0.0105231000
_diffrn_orient_matrix_UB_33      0.0308228000
_diffrn_radiation_monochromator  mirror
_diffrn_radiation_probe          x-ray
_diffrn_radiation_type           'Mo K\a'
_diffrn_radiation_wavelength     0.71073
_diffrn_reflns_av_R_equivalents  0.0436
_diffrn_reflns_av_unetI/netI     0.0399
_diffrn_reflns_Laue_measured_fraction_full 0.998
_diffrn_reflns_Laue_measured_fraction_max 0.917
_diffrn_reflns_limit_h_max       8
_diffrn_reflns_limit_h_min       -8
_diffrn_reflns_limit_k_max       8
_diffrn_reflns_limit_k_min       -8
_diffrn_reflns_limit_l_max       8
_diffrn_reflns_limit_l_min       -8
_diffrn_reflns_number            10713
_diffrn_reflns_point_group_measured_fraction_full 0.991
_diffrn_reflns_point_group_measured_fraction_max 0.864
_diffrn_reflns_theta_full        25.242
_diffrn_reflns_theta_max         29.561
_diffrn_reflns_theta_min         3.222
_diffrn_source                   'micro-focus sealed X-ray tube'
_diffrn_source_type              'SuperNova (Mo) X-ray Source'
_exptl_absorpt_coefficient_mu    2.768
_exptl_absorpt_correction_T_max  1.00000
_exptl_absorpt_correction_T_min  0.75898
_exptl_absorpt_correction_type   multi-scan
_exptl_absorpt_process_details
;
CrysAlisPro 1.171.38.43f (Rigaku Oxford Diffraction, 2015)
Empirical absorption correction using spherical harmonics,
 implemented in SCALE3 ABSPACK scaling algorithm.
;
_exptl_crystal_colour            colourless
_exptl_crystal_colour_primary    colourless
_exptl_crystal_density_diffrn    2.875
_exptl_crystal_description       block
_exptl_crystal_F_000             216
_exptl_crystal_size_max          0.15
_exptl_crystal_size_mid          0.14
_exptl_crystal_size_min          0.1
_refine_diff_density_max         1.434
_refine_diff_density_min         -0.798
_refine_diff_density_rms         0.181
_refine_ls_abs_structure_details
;
 Flack x determined using 1057 quotients [(I+)-(I-)]/[(I+)+(I-)]
 (Parsons, Flack and Wagner, Acta Cryst. B69 (2013) 249-259).
;
_refine_ls_abs_structure_Flack   0.038(17)
_refine_ls_extinction_method     none
_refine_ls_goodness_of_fit_ref   1.075
_refine_ls_hydrogen_treatment    constr
_refine_ls_matrix_type           full
_refine_ls_number_parameters     172
_refine_ls_number_reflns         2444
_refine_ls_number_restraints     9
_refine_ls_restrained_S_all      1.076
_refine_ls_R_factor_all          0.0406
_refine_ls_R_factor_gt           0.0393
_refine_ls_shift/su_max          0.000
_refine_ls_shift/su_mean         0.000
_refine_ls_structure_factor_coef Fsqd
_refine_ls_weighting_details
'w=1/[\s^2^(Fo^2^)+(0.0548P)^2^+0.9695P] where P=(Fo^2^+2Fc^2^)/3'
_refine_ls_weighting_scheme      calc
_refine_ls_wR_factor_gt          0.1027
_refine_ls_wR_factor_ref         0.1040
_reflns_Friedel_coverage         0.884
_reflns_Friedel_fraction_full    0.984
_reflns_Friedel_fraction_max     0.811
_reflns_number_gt                2379
_reflns_number_total             2444
_reflns_threshold_expression     'I > 2\s(I)'
_cod_data_source_file            d2ce00728b2.cif
_cod_data_source_block           1
_cod_database_code               7245326
_shelx_shelxl_version_number     2018/3
_shelx_space_group_comment
;
The symmetry employed for this shelxl refinement is uniquely defined
by the following loop, which should always be used as a source of
symmetry information in preference to the above space-group names.
They are only intended as comments.
;
_shelx_estimated_absorpt_t_max   0.769
_shelx_estimated_absorpt_t_min   0.682
_olex2_refinement_description
;
1. Fixed Uiso
 At 1.5 times of:
  All O(H,H) groups
2. Uiso/Uaniso restraints and constraints
Uanis(O9) \\sim Ueq: with sigma of 0.001 and sigma for terminal atoms of 0.002
3.a Riding coordinates:
 O9(H9B,H9A), O12(H12B,H12A), O13(H13A,H13B), O14(H14A,H14B)
;
_shelx_res_file
;
TITL 1 in P1
    1.res
    created by SHELXL-2018/3 at 22:08:24 on 04-Aug-2021
CELL 0.71073 6.3369 6.341 6.5675 85.841 73.143 89.946
ZERR 1 0.0005 0.0005 0.0006 0.007 0.007 0.006
LATT -1
SFAC Ca H O P V
UNIT 1 8 14 2 2
EQIV $1 -1+X,+Y,1+Z
EQIV $2 1+X,+Y,+Z
EQIV $3 -1+X,1+Y,1+Z
EQIV $4 +X,1+Y,+Z
EQIV $5 -1+X,+Y,+Z
EQIV $6 +X,+Y,-1+Z
ISOR 0.001 0.002 O9

L.S. 5
PLAN  6
SIZE 0.1 0.14 0.15
CONF
HTAB O9 O2_$1
HTAB O9 O12_$2
HTAB O12 O8_$3
HTAB O12 O10_$4
HTAB O13 O1_$5
HTAB O13 O11_$1
HTAB O14 O7_$6
HTAB O14 O13_$6
BOND $H
HTAB
MORE -1
fmap 2
acta
OMIT -4 -3 -2
OMIT 4 3 2
OMIT 6 -1 -1
OMIT -1 -2 -7
OMIT -4 -3 1
OMIT 2 -1 -3
OMIT 0 0 4
OMIT -6 1 -4
OMIT -1 -2 -2
OMIT 4 3 -1
OMIT -1 6 -3
REM <olex2.extras>
REM <HklSrc "%.\\1.hkl">
REM </olex2.extras>

WGHT    0.054800    0.969500
FVAR       0.39853
V1    5    0.289168    1.101359    0.436503    11.00000    0.00450    0.00405 =
         0.00411   -0.00080   -0.00110    0.00048
V2    5   -0.143199    0.610071    0.253589    11.00000    0.00496    0.00337 =
         0.00373   -0.00041   -0.00155    0.00027
CA1   1   -0.181417    1.304090    0.811512    11.00000    0.01045    0.00674 =
         0.00821   -0.00213   -0.00457    0.00146
P1    4    0.321509    0.610073    0.349855    11.00000    0.00399    0.00329 =
         0.00360    0.00049   -0.00099   -0.00005
P2    4    0.820420    1.109110    0.336398    11.00000    0.00434    0.00273 =
         0.00431   -0.00050   -0.00143   -0.00035
O1    3    0.584424    1.078563    0.485446    11.00000    0.00566    0.00770 =
         0.00575    0.00042   -0.00329    0.00077
O2    3    0.893905    0.922191    0.199352    11.00000    0.00950    0.00252 =
         0.00460    0.00127    0.00067   -0.00035
O3    3    0.286701    0.407855    0.499998    11.00000    0.00585    0.00421 =
         0.00648   -0.00084   -0.00424    0.00286
O4    3    0.560583    0.642052    0.211202    11.00000    0.00269    0.00820 =
         0.00840    0.00123   -0.00132   -0.00142
O5    3    0.841449    1.305731    0.177692    11.00000    0.01037    0.00379 =
         0.00421    0.00163   -0.00027    0.00163
O6    3    0.963145    1.134243    0.488414    11.00000    0.00435    0.00734 =
         0.00665   -0.00368    0.00031    0.00299
O7    3    0.248218    0.788268    0.500367    11.00000    0.01054    0.00301 =
         0.00422   -0.00165   -0.00029    0.00060
O8    3    0.185479    0.599117    0.189982    11.00000    0.00442    0.00762 =
         0.00508    0.00034   -0.00166   -0.00026
O9    3    0.161895    1.102602    0.814564    11.00000    0.00711    0.00607 =
         0.00538    0.00019   -0.00052   -0.00312
AFIX   3
H9B   2    0.213795    1.211152    0.845764    11.00000   -1.50000
H9A   2    0.147235    0.985952    0.893624    11.00000   -1.50000
AFIX   0
O10   3   -0.204265    0.567210    0.508256    11.00000    0.00621    0.00645 =
         0.00648   -0.00011   -0.00168    0.00125
O11   3    0.361382    1.113380    0.183951    11.00000    0.01018    0.00593 =
         0.00775   -0.00090   -0.00573    0.00287
O12   3   -0.551847    1.414956    0.848290    11.00000    0.00926    0.00484 =
         0.00375   -0.00038   -0.00106   -0.00123
AFIX   3
H12B  2   -0.480357    1.457506    0.718240    11.00000   -1.50000
H12A  2   -0.631597    1.515336    0.921590    11.00000   -1.50000
AFIX   0
O13   3   -0.340720    0.945797    0.852115    11.00000    0.01227    0.00724 =
         0.00816    0.00105    0.00133    0.00403
AFIX   3
H13A  2   -0.399250    0.932177    0.747605    11.00000   -1.50000
H13B  2   -0.448530    0.931547    0.965495    11.00000   -1.50000
AFIX   0
O14   3   -0.053023    0.645015   -0.125682    11.00000    0.00728    0.00762 =
         0.00856   -0.00194   -0.00244    0.00519
AFIX   3
H14A  2   -0.114953    0.748465   -0.173182    11.00000   -1.50000
H14B  2    0.083967    0.667015   -0.185862    11.00000   -1.50000
AFIX   0
HKLF 4




REM  1 in P1
REM wR2 = 0.1040, GooF = S = 1.075, Restrained GooF = 1.076 for all data
REM R1 = 0.0393 for 2379 Fo > 4sig(Fo) and 0.0406 for all 2444 data
REM 172 parameters refined using 9 restraints

END

WGHT      0.0548      0.9695

REM Instructions for potential hydrogen bonds
HTAB O9 O2_$1
EQIV $13 x, y, z+1
HTAB O9 O14_$13
HTAB O12 O8_$3
HTAB O13 O1_$5
HTAB O13 O4_$1
HTAB O13 O11_$1
HTAB O14 O13_$6
HTAB O14 O7_$6

REM Highest difference peak  1.434,  deepest hole -0.798,  1-sigma level  0.181
Q1    1   1.0732  0.9756  0.2565  11.00000  0.05    1.43
Q2    1   0.6195  1.2255  0.2591  11.00000  0.05    1.34
Q3    1   0.0708  0.7358  0.4414  11.00000  0.05    1.28
Q4    1   0.5213  0.4781  0.4377  11.00000  0.05    1.26
Q5    1   0.2345  1.0519  0.8357  11.00000  0.05    1.02
Q6    1   0.6088  0.7398  0.3474  11.00000  0.05    1.00
;
_shelx_res_checksum              69911
_shelx_hkl_file
;
  -8  -1  -5    3.76    1.50
  -8   0  -5   19.74    3.37
  -8   0  -4   65.04    6.14
  -8   1  -3   13.43    2.72
  -7  -5  -3   33.56    4.38
  -7  -5  -2    5.81    1.98
  -7  -5  -2   -0.53    0.95
  -7  -4  -5   56.75    6.16
  -7  -4  -4   20.28    3.52
  -7  -4  -3    5.15    1.94
  -7  -4  -3    1.41    1.14
  -7  -4  -2    2.81    1.42
  -7  -4  -1   32.09    4.48
  -7  -4  -1   28.31    4.22
  -7  -3  -5   75.57    7.73
  -7  -3  -5   80.63    7.45
  -7  -3  -4   10.84    2.67
  -7  -3  -4   19.14    3.81
  -7  -3  -3    9.99    2.65
  -7  -3  -3   14.70    3.02
  -7  -3  -3    7.08    1.67
  -7  -3  -2  111.17    7.97
  -7  -3  -2  126.77   10.05
  -7  -3  -1   11.94    2.90
  -7  -3  -1   10.45    2.58
  -7  -3  -1   10.42    2.43
  -7  -3   0   13.18    2.84
  -7  -3   0   14.03    3.07
  -7  -2  -6   20.53    3.69
  -7  -2  -5  129.87   10.04
  -7  -2  -4   17.19    3.21
  -7  -2  -4   10.26    2.65
  -7  -2  -3   25.77    4.13
  -7  -2  -3   26.15    4.01
  -7  -2  -3   25.21    2.99
  -7  -2  -2   37.15    4.09
  -7  -2  -2   44.77    5.30
  -7  -2   0   68.29    6.81
  -7  -2   1   11.65    2.85
  -7  -1  -6   68.93    5.83
  -7  -1  -5   12.72    2.47
  -7  -1  -4    5.98    2.02
  -7  -1  -4    3.10    1.20
  -7  -1  -3   12.13    2.72
  -7  -1  -2    7.43    2.13
  -7  -1   3  122.34    8.72
  -7   0  -7    2.82    1.54
  -7   0  -6   77.28    6.49
  -7   0  -5   59.48    5.49
  -7   0  -4   90.38    6.78
  -7   0  -4   78.06    7.52
  -7   0  -3    8.79    2.43
  -7   0  -3   14.60    2.53
  -7   0  -2    6.80    2.07
  -7   0  -2   10.37    2.09
  -7   0   2    2.79    1.19
  -7   1  -7   69.31    6.60
  -7   1  -6   39.21    4.70
  -7   1  -5   59.16    5.69
  -7   1  -4   -0.10    0.84
  -7   1  -3    9.01    2.50
  -7   1  -3    7.68    1.96
  -7   1  -2   34.49    4.11
  -7   1  -2   39.17    5.08
  -7   1  -1    4.45    1.77
  -7   1   0   37.69    5.47
  -7   1   1   50.32    6.54
  -7   1   2  147.95   11.74
  -7   2  -5   79.46    6.93
  -7   2  -4    8.48    2.21
  -7   2  -3    2.07    0.99
  -7   2  -3    5.31    2.08
  -7   2  -2   11.05    2.64
  -7   2  -2    9.78    2.81
  -7   2  -2   10.87    2.39
  -7   2  -1   18.74    3.55
  -7   2  -1   14.95    3.53
  -7   2  -1   18.12    3.07
  -7   2   0   11.17    3.24
  -7   2   1   44.91    6.30
  -7   2   2    8.57    2.88
  -7   3  -4   11.68    3.13
  -7   3  -4   12.73    2.71
  -7   3  -3   20.13    4.24
  -7   3  -3   24.89    3.67
  -7   3  -3   21.00    3.77
  -7   3  -2   33.46    4.73
  -7   3  -2   36.66    4.44
  -7   3  -2   40.02    5.78
  -7   3  -1   26.68    4.28
  -7   3  -1   20.88    3.35
  -7   3  -1   22.74    4.37
  -7   3   0    7.03    2.55
  -7   3   0    5.93    1.84
  -7   4  -3   34.91    4.98
  -7   4  -2   19.37    3.81
  -7   5  -2    5.49    2.14
  -6  -6  -1   36.23    4.80
  -6  -5  -5   36.09    4.53
  -6  -5  -4    0.15    0.70
  -6  -5  -3    3.88    1.77
  -6  -5  -3    3.83    1.59
  -6  -5  -2    4.82    1.61
  -6  -5  -2   10.13    2.81
  -6  -5  -2    5.26    1.71
  -6  -5  -2    5.50    1.79
  -6  -5  -1   13.30    2.72
  -6  -5  -1   17.25    3.59
  -6  -5  -1   14.00    2.88
  -6  -5  -1   15.38    3.01
  -6  -5   0   14.84    3.04
  -6  -5   0   13.18    2.93
  -6  -5   0   13.97    3.19
  -6  -5   1   43.60    5.56
  -6  -4  -7    0.83    1.24
  -6  -4  -7    1.46    1.24
  -6  -4  -7    2.95    1.45
  -6  -4  -6    1.83    1.32
  -6  -4  -6    3.42    1.37
  -6  -4  -6    4.09    1.60
  -6  -4  -6    2.91    1.32
  -6  -4  -5   28.76    4.09
  -6  -4  -5   37.26    4.08
  -6  -4  -5   35.07    3.96
  -6  -4  -5   33.45    4.00
  -6  -4  -4   53.85    4.60
  -6  -4  -4   54.88    5.64
  -6  -4  -4   56.52    4.68
  -6  -4  -4   55.15    6.34
  -6  -4  -4   62.96    5.41
  -6  -4  -3   91.33    7.42
  -6  -4  -3   97.39    7.07
  -6  -4  -3  102.44    7.10
  -6  -4  -3  119.88    9.37
  -6  -4  -2  106.00    7.87
  -6  -4  -2  127.57    8.35
  -6  -4  -2  134.52    9.98
  -6  -4  -2  125.97    8.23
  -6  -4  -1   73.04    6.26
  -6  -4  -1   61.18    5.94
  -6  -4  -1   59.03    6.41
  -6  -4   0   60.40    6.01
  -6  -4   0   60.10    6.38
  -6  -4   0   57.55    6.08
  -6  -4   1    2.67    1.44
  -6  -4   1    5.51    2.02
  -6  -4   1    2.92    1.43
  -6  -3  -7    2.28    1.17
  -6  -3  -7    0.43    0.85
  -6  -3  -7    3.09    1.45
  -6  -3  -7    2.04    1.40
  -6  -3  -6   21.88    3.23
  -6  -3  -6   26.88    3.47
  -6  -3  -6   27.19    4.17
  -6  -3  -6   28.95    3.65
  -6  -3  -5   48.28    4.37
  -6  -3  -5   44.84    4.15
  -6  -3  -5   50.44    5.72
  -6  -3  -5   38.96    4.02
  -6  -3  -5   45.08    4.25
  -6  -3  -4   45.69    3.89
  -6  -3  -4   37.30    4.51
  -6  -3  -4   38.46    5.01
  -6  -3  -4   43.29    3.79
  -6  -3  -4   45.56    3.83
  -6  -3  -4   40.56    3.66
  -6  -3  -4   45.21    4.05
  -6  -3  -3   22.18    3.34
  -6  -3  -3   25.52    2.95
  -6  -3  -3   24.87    2.92
  -6  -3  -3   17.38    3.37
  -6  -3  -2   26.97    3.09
  -6  -3  -2   24.54    3.51
  -6  -3  -2   19.97    3.06
  -6  -3  -2   27.38    3.28
  -6  -3  -2   22.69    3.72
  -6  -3  -1   56.32    5.83
  -6  -3  -1   49.94    5.11
  -6  -3  -1   45.84    4.65
  -6  -3   0   94.41    7.89
  -6  -3   0  101.25    7.88
  -6  -3   0   94.72    7.35
  -6  -3   1   25.64    4.01
  -6  -3   1   21.90    3.57
  -6  -3   2   11.11    2.62
  -6  -3   2   12.23    3.08
  -6  -2  -7    4.69    1.62
  -6  -2  -7    8.43    2.35
  -6  -2  -7    7.18    2.04
  -6  -2  -7    8.64    2.24
  -6  -2  -6    8.31    1.86
  -6  -2  -6    7.38    1.90
  -6  -2  -6    9.08    2.05
  -6  -2  -6    8.86    2.26
  -6  -2  -5    5.18    1.39
  -6  -2  -5    4.46    1.30
  -6  -2  -5    6.41    1.41
  -6  -2  -5    3.00    1.45
  -6  -2  -5    4.85    1.32
  -6  -2  -4   63.97    4.48
  -6  -2  -4   69.61    6.49
  -6  -2  -4   77.19    4.50
  -6  -2  -4   64.75    4.48
  -6  -2  -4   67.59    4.57
  -6  -2  -4   67.25    4.60
  -6  -2  -3  152.36    6.96
  -6  -2  -3  154.45    7.84
  -6  -2  -3  168.05   10.32
  -6  -2  -3  167.33    7.11
  -6  -2  -3  154.32    7.01
  -6  -2  -3  162.57    8.26
  -6  -2  -3  164.63   10.56
  -6  -2  -2  209.64   12.57
  -6  -2  -2  218.61   10.89
  -6  -2  -1  164.46   10.72
  -6  -2  -1  162.73   10.12
  -6  -2   0   21.51    3.39
  -6  -2   0   27.73    3.61
  -6  -2   1    7.31    2.09
  -6  -2   1    4.88    1.79
  -6  -2   2   19.08    3.60
  -6  -2   3   -0.08    0.55
  -6  -1  -7   28.51    3.83
  -6  -1  -7   23.25    3.51
  -6  -1  -7   23.63    3.47
  -6  -1  -6   46.33    4.51
  -6  -1  -6   50.21    4.71
  -6  -1  -6   49.15    4.65
  -6  -1  -6   42.99    4.11
  -6  -1  -5   57.86    4.64
  -6  -1  -5   63.08    4.83
  -6  -1  -5   61.25    4.77
  -6  -1  -5   65.44    5.00
  -6  -1  -5   58.65    5.80
  -6  -1  -4   25.31    2.01
  -6  -1  -4   21.07    3.37
  -6  -1  -4   26.56    2.58
  -6  -1  -4   25.02    2.95
  -6  -1  -4   32.57    2.83
  -6  -1  -4   29.23    2.67
  -6  -1  -4   27.50    2.61
  -6  -1  -3   18.60    2.30
  -6  -1  -3   29.59    3.92
  -6  -1  -3   19.31    2.57
  -6  -1  -3   22.64    1.86
  -6  -1  -3   26.07    3.57
  -6  -1  -3   23.70    1.90
  -6  -1  -3   22.72    1.87
  -6  -1  -3   21.83    1.84
  -6  -1  -2   19.32    3.12
  -6  -1  -1   51.97    5.36
  -6  -1   0   14.61    2.71
  -6  -1   1   84.91    7.17
  -6  -1   2    2.55    0.96
  -6  -1   2    5.07    1.87
  -6  -1   3   25.09    4.19
  -6  -1   3   23.66    3.35
  -6  -1   4   22.04    3.51
  -6   0  -7    6.98    1.87
  -6   0  -7    4.35    1.64
  -6   0  -7    7.05    2.05
  -6   0  -7    7.53    1.95
  -6   0  -7    7.46    2.03
  -6   0  -6   23.36    3.17
  -6   0  -6   22.47    3.09
  -6   0  -6   22.71    3.14
  -6   0  -6   19.63    2.92
  -6   0  -6   19.33    2.92
  -6   0  -5   13.20    2.09
  -6   0  -5   19.26    2.52
  -6   0  -5   16.79    2.56
  -6   0  -5   19.03    2.51
  -6   0  -5   19.31    2.50
  -6   0  -4  112.69    6.04
  -6   0  -4  100.21    5.81
  -6   0  -4  105.99    6.93
  -6   0  -4  107.32    5.97
  -6   0  -4  115.19    6.10
  -6   0  -3  109.82    6.86
  -6   0  -3   95.64    5.19
  -6   0  -3  102.94    4.96
  -6   0  -3   88.91    5.08
  -6   0  -3  102.93    7.87
  -6   0  -3  110.63    5.07
  -6   0  -3  100.42    4.95
  -6   0  -3   89.24    5.17
  -6   0  -3  121.10    5.27
  -6   0  -2  533.17   23.05
  -6   0  -2  540.11   21.51
  -6   0  -1  128.88    8.88
  -6   0   1   33.00    3.19
  -6   0   2    3.86    1.76
  -6   0   2    1.55    0.89
  -6   0   3   18.19    2.85
  -6   0   3   20.98    3.69
  -6   0   4   14.09    2.69
  -6   1  -7    8.10    2.28
  -6   1  -7    5.91    1.83
  -6   1  -7    5.72    1.86
  -6   1  -7    5.49    1.87
  -6   1  -7    5.36    1.70
  -6   1  -6   23.48    3.38
  -6   1  -6   23.84    3.29
  -6   1  -6   24.92    3.36
  -6   1  -6   24.80    3.35
  -6   1  -6   21.44    3.16
  -6   1  -5   72.47    5.48
  -6   1  -5   77.59    5.66
  -6   1  -5   77.35    6.14
  -6   1  -5   73.89    5.52
  -6   1  -5   77.38    5.64
  -6   1  -4   84.40    5.48
  -6   1  -4  102.22    5.83
  -6   1  -4   84.82    5.44
  -6   1  -4   85.62    6.41
  -6   1  -4   93.32    5.65
  -6   1  -3   43.24    3.19
  -6   1  -3   40.77    3.12
  -6   1  -3   49.33    3.31
  -6   1  -3   49.55    3.35
  -6   1  -3   45.14    4.36
  -6   1  -2   20.01    1.59
  -6   1  -2   21.42    3.31
  -6   1  -2   20.41    1.60
  -6   1  -2   22.20    3.70
  -6   1  -2   21.65    1.57
  -6   1  -2   23.05    3.05
  -6   1  -2   21.93    1.60
  -6   1  -1   63.25    6.49
  -6   1  -1   59.96    5.11
  -6   1  -1   65.64    6.04
  -6   1   0  106.39    8.76
  -6   1   1   74.95    4.87
  -6   1   1   95.44    8.25
  -6   1   2   12.96    2.03
  -6   1   2   16.52    3.53
  -6   1   3   13.08    3.15
  -6   1   3   11.59    2.18
  -6   1   4   21.31    3.21
  -6   2  -7    0.62    0.51
  -6   2  -7    6.26    2.00
  -6   2  -7    6.14    2.00
  -6   2  -7    3.37    1.46
  -6   2  -7    2.91    1.21
  -6   2  -6    1.77    0.94
  -6   2  -6    3.19    1.32
  -6   2  -6    0.52    0.84
  -6   2  -6    2.90    1.32
  -6   2  -6    1.55    0.95
  -6   2  -5   29.89    3.54
  -6   2  -5   33.48    3.75
  -6   2  -5   29.88    3.49
  -6   2  -5   39.18    4.39
  -6   2  -5   31.16    3.57
  -6   2  -4   28.16    3.07
  -6   2  -4   30.33    3.22
  -6   2  -4   29.67    3.17
  -6   2  -4   26.34    3.49
  -6   2  -4   27.89    3.05
  -6   2  -3  175.36    8.56
  -6   2  -3  152.12   11.05
  -6   2  -3  177.72    8.41
  -6   2  -3  177.07    8.53
  -6   2  -3  172.02    9.90
  -6   2  -3  180.82    8.53
  -6   2  -2  111.48    5.66
  -6   2  -2  110.12    8.88
  -6   2  -2  113.02    8.28
  -6   2  -2  110.61    5.59
  -6   2  -2   95.03    6.95
  -6   2  -2  111.20    5.51
  -6   2  -2  112.89    5.69
  -6   2  -1  197.39    7.72
  -6   2  -1  191.18    7.70
  -6   2  -1  184.05   12.38
  -6   2  -1  218.70   11.01
  -6   2  -1  194.01    7.57
  -6   2  -1  186.99   11.40
  -6   2   0   40.62    4.21
  -6   2   0   35.05    5.02
  -6   2   1   20.11    3.85
  -6   2   1   21.77    2.15
  -6   2   2   12.62    1.92
  -6   2   2   13.58    3.33
  -6   2   3    4.67    1.40
  -6   2   3    2.54    1.69
  -6   2   4    2.85    1.66
  -6   3  -6   21.43    3.49
  -6   3  -6   20.25    3.51
  -6   3  -6   24.35    3.64
  -6   3  -6   23.16    3.52
  -6   3  -6   18.51    3.26
  -6   3  -5   33.03    3.99
  -6   3  -5   28.49    3.70
  -6   3  -5   35.72    4.12
  -6   3  -5   32.92    4.01
  -6   3  -5   35.33    4.42
  -6   3  -4   99.77    6.95
  -6   3  -4  100.09    6.79
  -6   3  -4  107.04    7.09
  -6   3  -4   98.58    7.56
  -6   3  -4  103.35    8.76
  -6   3  -4  103.38    6.93
  -6   3  -3    5.40    1.66
  -6   3  -3    5.37    1.39
  -6   3  -3    6.96    2.37
  -6   3  -3    5.36    1.38
  -6   3  -3    8.62    1.68
  -6   3  -3    3.01    1.10
  -6   3  -2    1.28    0.97
  -6   3  -2    2.02    1.01
  -6   3  -2    2.19    1.22
  -6   3  -2    1.56    0.83
  -6   3  -2    1.41    0.70
  -6   3  -2    2.57    0.86
  -6   3  -2    1.60    0.70
  -6   3  -1   94.51    6.96
  -6   3  -1   96.41    7.69
  -6   3  -1   95.96    8.67
  -6   3   0   59.91    6.75
  -6   3   0   53.03    5.10
  -6   3   1   71.82    7.70
  -6   3   2    5.99    2.23
  -6   3   3    8.30    2.67
  -6   4  -6    0.52    0.73
  -6   4  -6    3.63    1.56
  -6   4  -6    2.49    1.39
  -6   4  -6    1.62    1.25
  -6   4  -5   14.43    3.88
  -6   4  -5   10.18    2.32
  -6   4  -5   12.43    2.67
  -6   4  -5   12.91    2.71
  -6   4  -5   10.47    2.41
  -6   4  -4   33.09    4.03
  -6   4  -4   26.64    3.71
  -6   4  -4   29.89    3.80
  -6   4  -4   42.94    4.94
  -6   4  -4   39.05    4.24
  -6   4  -4   38.69    5.38
  -6   4  -3   86.79    6.29
  -6   4  -3   81.25    6.86
  -6   4  -3   73.45    6.12
  -6   4  -3   98.90    8.00
  -6   4  -3   85.40    6.45
  -6   4  -3   90.70    8.49
  -6   4  -3   90.79    6.53
  -6   4  -2  313.42   14.21
  -6   4  -2  304.96   15.24
  -6   4  -2  288.32   17.23
  -6   4  -2  297.67   13.65
  -6   4  -2  307.36   16.34
  -6   4  -2  294.23   13.96
  -6   4  -2  314.11   14.05
  -6   4  -1  179.63   12.82
  -6   4  -1  192.73    9.70
  -6   4  -1  174.91    9.20
  -6   4  -1  164.53   10.34
  -6   4  -1  179.61    9.59
  -6   4  -1  192.12   11.53
  -6   4   0   64.27    7.38
  -6   4   0   56.84    5.46
  -6   4   1    1.41    0.94
  -6   4   1    3.45    1.99
  -6   4   2   47.62    6.62
  -6   5  -5   61.83    7.07
  -6   5  -5   55.99    6.00
  -6   5  -5   59.83    6.32
  -6   5  -5   60.78    6.33
  -6   5  -5   58.99    6.04
  -6   5  -4   25.04    3.77
  -6   5  -4   19.93    3.45
  -6   5  -4   23.73    3.59
  -6   5  -4   21.02    3.35
  -6   5  -4   24.97    4.56
  -6   5  -3   15.76    2.95
  -6   5  -3   24.10    4.41
  -6   5  -3   27.00    3.58
  -6   5  -3   16.05    3.18
  -6   5  -3   12.90    2.65
  -6   5  -3   14.66    2.88
  -6   5  -3   17.94    3.22
  -6   5  -2   23.94    4.46
  -6   5  -2   22.06    3.27
  -6   5  -2   16.70    2.83
  -6   5  -2   17.51    3.31
  -6   5  -2   18.46    3.00
  -6   5  -2   16.23    2.74
  -6   5  -2   22.71    3.50
  -6   5  -1   30.61    4.00
  -6   5  -1   32.23    4.34
  -6   5  -1   36.62    5.53
  -6   5   0   40.85    4.69
  -6   5   1   51.84    5.33
  -6   6  -3   63.44    6.67
  -6   6  -3   70.39    6.64
  -6   6  -3   75.95    7.03
  -6   6  -3   73.77    7.06
  -5  -7  -3    0.67    0.84
  -5  -7  -1    4.18    1.76
  -5  -6  -5   47.80    5.23
  -5  -6  -5   45.14    5.04
  -5  -6  -5   50.34    5.43
  -5  -6  -5   52.88    5.88
  -5  -6  -4   31.57    4.36
  -5  -6  -4   27.03    3.75
  -5  -6  -4   24.47    3.53
  -5  -6  -3   33.58    4.44
  -5  -6  -3   27.19    3.54
  -5  -6  -3   31.70    4.93
  -5  -6  -2    8.10    1.85
  -5  -6  -2    6.98    2.16
  -5  -6  -2    7.14    1.78
  -5  -6  -2    6.07    1.89
  -5  -6  -1    6.88    2.25
  -5  -6  -1    6.95    2.05
  -5  -6  -1    5.84    1.90
  -5  -6   0   41.23    5.11
  -5  -6   0   47.79    5.77
  -5  -6   0   47.10    5.48
  -5  -6   0   47.58    5.53
  -5  -6   1   17.92    3.46
  -5  -6   2   27.59    4.35
  -5  -5  -6   34.91    4.41
  -5  -5  -6   32.15    4.79
  -5  -5  -6   36.87    4.67
  -5  -5  -6   33.71    4.43
  -5  -5  -5   29.10    4.59
  -5  -5  -5   28.64    4.01
  -5  -5  -5   33.98    4.05
  -5  -5  -5   27.00    3.47
  -5  -5  -5   32.10    4.00
  -5  -5  -4    5.99    2.07
  -5  -5  -4    4.96    1.47
  -5  -5  -4    6.82    1.76
  -5  -5  -4    4.79    1.63
  -5  -5  -4    3.67    1.24
  -5  -5  -3   12.21    2.14
  -5  -5  -3   15.98    2.38
  -5  -5  -3   16.20    3.32
  -5  -5  -3   15.85    2.77
  -5  -5  -3   13.00    2.19
  -5  -5  -2    2.17    1.01
  -5  -5  -2    0.05    1.05
  -5  -5  -2    1.94    0.84
  -5  -5  -2    1.02    0.84
  -5  -5  -1   11.27    2.66
  -5  -5  -1   11.19    2.42
  -5  -5  -1   13.65    2.57
  -5  -5  -1   10.36    1.77
  -5  -5   0    6.53    1.96
  -5  -5   0    6.26    1.94
  -5  -5   0    8.76    2.26
  -5  -5   0    5.90    2.15
  -5  -5   1    5.34    1.74
  -5  -5   1    7.28    2.18
  -5  -5   1    5.41    1.87
  -5  -5   2   47.33    5.49
  -5  -5   2   53.44    6.43
  -5  -4  -7   50.56    5.55
  -5  -4  -7   48.86    5.37
  -5  -4  -7   42.57    5.15
  -5  -4  -7   52.19    5.58
  -5  -4  -7   44.31    5.34
  -5  -4  -6  140.86    9.09
  -5  -4  -6  110.63    8.24
  -5  -4  -6  131.03    9.61
  -5  -4  -6  122.57    8.52
  -5  -4  -5   38.28    4.90
  -5  -4  -5   40.40    4.31
  -5  -4  -5   36.76    4.04
  -5  -4  -5   42.97    4.37
  -5  -4  -4   35.63    4.67
  -5  -4  -4   34.57    3.54
  -5  -4  -4   30.08    3.35
  -5  -4  -4   32.00    3.69
  -5  -4  -4   32.90    3.70
  -5  -4  -3   26.71    2.87
  -5  -4  -3   26.02    3.90
  -5  -4  -3   26.02    2.79
  -5  -4  -3   24.37    3.16
  -5  -4  -3   22.38    3.01
  -5  -4  -2   12.14    1.77
  -5  -4  -2   12.56    2.22
  -5  -4  -2   11.81    2.60
  -5  -4  -2   12.50    2.15
  -5  -4  -2   11.57    1.69
  -5  -4  -1   16.96    2.66
  -5  -4  -1   10.70    2.16
  -5  -4  -1   12.50    2.27
  -5  -4  -1   15.99    2.94
  -5  -4   0   14.28    2.58
  -5  -4   0   11.88    2.43
  -5  -4   0   14.16    2.76
  -5  -4   1   61.37    5.91
  -5  -4   1   61.01    5.82
  -5  -4   1   56.42    5.89
  -5  -4   2   19.15    3.28
  -5  -4   2   22.07    3.82
  -5  -4   2   19.05    3.33
  -5  -3  -7   82.60    6.73
  -5  -3  -7  102.21    7.84
  -5  -3  -7   90.13    7.37
  -5  -3  -7   93.85    7.57
  -5  -3  -7   94.48    7.49
  -5  -3  -6   31.07    3.85
  -5  -3  -6   34.54    4.30
  -5  -3  -6   29.76    3.72
  -5  -3  -6   29.16    3.71
  -5  -3  -6   32.17    3.70
  -5  -3  -5  117.84    8.39
  -5  -3  -5  112.54    7.18
  -5  -3  -5  110.67    7.08
  -5  -3  -5   92.61    6.53
  -5  -3  -4   -0.22    0.35
  -5  -3  -4    0.34    0.33
  -5  -3  -4    1.37    1.08
  -5  -3  -4    0.62    0.50
  -5  -3  -3    7.18    1.31
  -5  -3  -3    6.56    1.39
  -5  -3  -3    5.97    1.35
  -5  -3  -3    7.79    1.34
  -5  -3  -3    4.92    1.63
  -5  -3  -3    8.98    1.46
  -5  -3  -3    7.46    1.43
  -5  -3  -3    8.18    1.62
  -5  -3  -3    7.91    1.43
  -5  -3  -3    4.90    1.46
  -5  -3  -2   43.96    3.33
  -5  -3  -2   50.53    4.57
  -5  -3  -2   49.49    3.46
  -5  -3  -2   47.32    4.26
  -5  -3  -2   51.42    5.12
  -5  -3  -2   48.48    3.34
  -5  -3  -2   52.94    4.25
  -5  -3  -2   52.02    3.36
  -5  -3  -2   51.07    4.22
  -5  -3  -2   53.87    3.44
  -5  -3  -2   44.59    3.28
  -5  -3  -1    4.54    0.84
  -5  -3  -1    4.63    1.28
  -5  -3  -1    5.89    0.94
  -5  -3  -1    3.48    1.11
  -5  -3  -1    5.51    0.87
  -5  -3  -1    4.29    1.35
  -5  -3  -1    5.08    1.33
  -5  -3  -1    3.65    0.73
  -5  -3  -1    5.19    0.87
  -5  -3  -1    3.75    0.80
  -5  -3   0    2.35    1.02
  -5  -3   0    2.89    0.61
  -5  -3   0    2.35    0.55
  -5  -3   0    1.62    0.46
  -5  -3   0    1.67    0.46
  -5  -3   0    1.09    0.73
  -5  -3   0    1.86    0.50
  -5  -3   0    1.74    0.90
  -5  -3   1   85.43    6.64
  -5  -3   1   81.53    6.87
  -5  -3   1   77.05    6.49
  -5  -3   2   92.83    7.53
  -5  -3   2   96.98    7.99
  -5  -3   3   99.69    7.67
  -5  -3   3  114.06    9.40
  -5  -3   3  118.72    9.09
  -5  -2  -7   43.18    4.79
  -5  -2  -7   40.60    4.45
  -5  -2  -7   41.37    4.74
  -5  -2  -7   45.85    4.94
  -5  -2  -6   66.78    4.98
  -5  -2  -6   70.10    6.00
  -5  -2  -6   65.25    4.42
  -5  -2  -6   65.94    5.61
  -5  -2  -6   66.89    5.63
  -5  -2  -6   74.87    5.93
  -5  -2  -5   94.53    6.32
  -5  -2  -5   89.41    5.34
  -5  -2  -5   91.36    6.96
  -5  -2  -5   90.21    4.34
  -5  -2  -5   97.90    5.83
  -5  -2  -5   89.15    6.20
  -5  -2  -5   91.24    6.21
  -5  -2  -4   12.36    2.39
  -5  -2  -4   10.22    1.85
  -5  -2  -4   13.29    1.84
  -5  -2  -4   10.75    1.75
  -5  -2  -4   13.15    1.81
  -5  -2  -4   14.86    2.05
  -5  -2  -4   12.94    1.97
  -5  -2  -4   13.74    1.55
  -5  -2  -4   10.46    1.81
  -5  -2  -4   12.53    1.90
  -5  -2  -3    0.44    0.49
  -5  -2  -3   -0.04    0.33
  -5  -2  -3    0.87    0.63
  -5  -2  -3   -0.13    0.40
  -5  -2  -3    0.47    0.43
  -5  -2  -3    0.51    0.38
  -5  -2  -2    0.81    0.71
  -5  -2  -2    0.95    0.40
  -5  -2  -2    0.88    0.54
  -5  -2  -2    1.06    0.43
  -5  -2  -2    1.93    0.55
  -5  -2  -2    2.91    1.10
  -5  -2  -2    1.22    0.44
  -5  -2  -2    2.18    1.03
  -5  -2  -2    2.04    0.55
  -5  -2  -2    2.18    0.71
  -5  -2  -2    1.43    0.46
  -5  -2  -2    1.15    0.40
  -5  -2  -1    9.23    0.76
  -5  -2  -1    9.42    0.75
  -5  -2  -1    7.96    0.71
  -5  -2  -1    8.13    0.73
  -5  -2  -1    8.37    0.72
  -5  -2  -1   10.07    1.90
  -5  -2  -1    7.76    1.81
  -5  -2  -1    6.94    0.67
  -5  -2  -1    8.07    1.87
  -5  -2  -1    8.50    1.60
  -5  -2  -1    8.95    0.75
  -5  -2   0    4.23    1.37
  -5  -2   0    4.89    1.48
  -5  -2   0    5.37    1.41
  -5  -2   1   52.48    4.88
  -5  -2   1   44.44    4.76
  -5  -2   2   36.84    4.40
  -5  -2   2   46.69    4.30
  -5  -2   2   36.89    4.58
  -5  -2   3   85.12    7.72
  -5  -2   3   87.63    6.68
  -5  -2   4    4.56    1.59
  -5  -2   4    8.21    2.47
  -5  -1  -8  157.55   10.75
  -5  -1  -8  149.69   10.60
  -5  -1  -8  166.52   10.97
  -5  -1  -7   73.80    6.43
  -5  -1  -7   74.94    6.46
  -5  -1  -7   68.38    5.17
  -5  -1  -7   81.01    6.70
  -5  -1  -6   50.46    4.76
  -5  -1  -6   56.43    5.00
  -5  -1  -6   49.54    4.72
  -5  -1  -6   50.51    3.73
  -5  -1  -6   41.90    4.36
  -5  -1  -6   46.01    3.96
  -5  -1  -5    1.06    0.82
  -5  -1  -5    1.49    0.72
  -5  -1  -5    0.95    0.58
  -5  -1  -5    2.02    0.68
  -5  -1  -5    3.53    1.15
  -5  -1  -5    2.11    0.85
  -5  -1  -4   10.22    1.63
  -5  -1  -4    8.26    1.42
  -5  -1  -4    7.36    1.52
  -5  -1  -4    8.51    1.48
  -5  -1  -4    9.23    1.22
  -5  -1  -4    9.37    1.76
  -5  -1  -4    6.43    1.32
  -5  -1  -4    6.58    1.66
  -5  -1  -4    8.68    1.66
  -5  -1  -4    7.28    1.40
  -5  -1  -3    8.87    1.40
  -5  -1  -3    9.73    1.32
  -5  -1  -3    9.18    1.27
  -5  -1  -3   11.51    2.16
  -5  -1  -3    9.26    1.20
  -5  -1  -3    9.81    1.60
  -5  -1  -3    7.83    1.25
  -5  -1  -3    7.81    1.33
  -5  -1  -3    8.05    1.40
  -5  -1  -3    9.17    1.28
  -5  -1  -3   10.81    1.37
  -5  -1  -2   26.59    2.65
  -5  -1  -2   31.89    2.07
  -5  -1  -2   33.57    3.12
  -5  -1  -2   35.57    3.89
  -5  -1  -2   36.69    2.03
  -5  -1  -2   34.42    2.00
  -5  -1  -2   35.91    2.02
  -5  -1  -2   30.40    3.59
  -5  -1  -2   35.91    2.08
  -5  -1  -2   36.68    2.16
  -5  -1  -2   35.86    2.01
  -5  -1  -2   38.93    3.11
  -5  -1  -2   35.34    2.16
  -5  -1  -1   11.49    2.14
  -5  -1  -1   15.51    2.49
  -5  -1  -1   16.40    2.17
  -5  -1   0   21.07    2.70
  -5  -1   0   14.33    2.38
  -5  -1   1    6.30    1.32
  -5  -1   1    5.45    1.63
  -5  -1   2   53.53    5.32
  -5  -1   2   49.95    4.25
  -5  -1   3   98.39    7.91
  -5  -1   3   90.23    6.55
  -5  -1   4  142.19   10.36
  -5  -1   4  141.87    9.20
  -5   0  -8    5.98    2.16
  -5   0  -8    1.95    1.34
  -5   0  -8    3.70    1.46
  -5   0  -8    5.43    1.85
  -5   0  -7    5.69    1.80
  -5   0  -7    1.87    1.19
  -5   0  -7    7.60    2.11
  -5   0  -7    6.82    1.99
  -5   0  -7    5.00    1.63
  -5   0  -6  101.45    7.22
  -5   0  -6  102.53    7.17
  -5   0  -6  103.47    6.76
  -5   0  -6   93.34    6.92
  -5   0  -6   92.50    6.86
  -5   0  -5   40.79    3.80
  -5   0  -5   35.74    3.34
  -5   0  -5   43.66    3.96
  -5   0  -5   41.78    3.88
  -5   0  -5   43.48    3.97
  -5   0  -5   39.58    3.77
  -5   0  -5   44.28    2.38
  -5   0  -4   88.16    5.30
  -5   0  -4   77.60    3.12
  -5   0  -4   88.10    5.24
  -5   0  -4   94.82    5.41
  -5   0  -4   80.63    5.78
  -5   0  -4   94.61    5.89
  -5   0  -4   80.98    6.00
  -5   0  -4   76.96    4.75
  -5   0  -4   88.70    5.29
  -5   0  -3   10.10    1.36
  -5   0  -3   16.13    1.66
  -5   0  -3   12.17    1.48
  -5   0  -3   12.36    1.47
  -5   0  -3   12.68    1.93
  -5   0  -3   10.68    1.60
  -5   0  -3   15.32    1.63
  -5   0  -3    8.51    1.54
  -5   0  -2    6.29    0.78
  -5   0  -2    4.52    0.66
  -5   0  -2    6.38    0.78
  -5   0  -2    7.26    1.62
  -5   0  -2    3.09    1.21
  -5   0  -2    5.46    0.76
  -5   0  -2    4.31    0.71
  -5   0  -2    4.20    0.64
  -5   0  -1   30.17    3.53
  -5   0  -1   25.79    2.83
  -5   0   0   43.62    4.71
  -5   0   1   41.62    4.27
  -5   0   1   36.71    4.38
  -5   0   1   32.37    2.97
  -5   0   2   59.41    4.48
  -5   0   2   59.46    5.50
  -5   0   2   49.90    5.27
  -5   0   3   20.91    3.34
  -5   0   3   18.44    2.63
  -5   0   3   16.64    2.91
  -5   0   4   12.66    2.73
  -5   0   4   15.61    2.66
  -5   0   5   18.37    3.51
  -5   0   5   24.21    3.68
  -5   1  -8   20.12    3.33
  -5   1  -7  125.64    8.57
  -5   1  -7  123.32    9.02
  -5   1  -7  139.85    9.55
  -5   1  -7  134.47    9.39
  -5   1  -7  135.15    9.36
  -5   1  -6   20.98    3.16
  -5   1  -6   23.72    3.31
  -5   1  -6   17.47    2.87
  -5   1  -6   18.86    2.01
  -5   1  -6   21.02    3.08
  -5   1  -6   16.71    2.72
  -5   1  -5   76.86    3.85
  -5   1  -5   80.52    5.74
  -5   1  -5   69.48    4.63
  -5   1  -5   77.64    5.77
  -5   1  -5   76.84    5.63
  -5   1  -5   81.30    5.74
  -5   1  -5   85.89    5.87
  -5   1  -4    7.63    1.57
  -5   1  -4    6.19    1.29
  -5   1  -4    4.29    1.33
  -5   1  -4    7.14    1.10
  -5   1  -4    6.27    0.91
  -5   1  -4    5.16    1.21
  -5   1  -4    4.01    1.35
  -5   1  -4    5.25    1.21
  -5   1  -4    6.13    1.33
  -5   1  -3   21.21    1.65
  -5   1  -3   25.65    2.16
  -5   1  -3   21.80    2.66
  -5   1  -3   21.85    2.66
  -5   1  -2   18.24    2.90
  -5   1  -2   22.05    1.83
  -5   1  -2   21.81    1.85
  -5   1  -2   19.64    2.06
  -5   1  -2   21.90    1.80
  -5   1  -2   14.58    2.18
  -5   1  -2   24.73    1.94
  -5   1  -2   15.68    2.61
  -5   1  -1   12.33    0.98
  -5   1  -1   14.82    2.50
  -5   1  -1   12.79    0.95
  -5   1  -1   12.26    1.10
  -5   1  -1   11.06    2.36
  -5   1  -1    9.84    1.76
  -5   1  -1   12.65    0.98
  -5   1   0   21.06    3.29
  -5   1   0   27.43    3.02
  -5   1   0   25.54    2.04
  -5   1   0   26.57    3.38
  -5   1   1   16.24    1.87
  -5   1   1   20.04    3.25
  -5   1   2  136.57    9.60
  -5   1   2  144.18    7.44
  -5   1   3   68.40    6.25
  -5   1   3   74.32    5.37
  -5   1   3   71.19    6.63
  -5   1   4  173.60    9.93
  -5   1   4  173.75   11.19
  -5   1   4  168.16   10.97
  -5   1   5   28.50    3.85
  -5   1   5   23.08    3.84
  -5   2  -7   44.22    5.07
  -5   2  -7   45.54    5.36
  -5   2  -7   55.29    5.82
  -5   2  -7   56.94    5.90
  -5   2  -7   56.17    5.87
  -5   2  -6  115.33    8.07
  -5   2  -6  100.37    7.66
  -5   2  -6  117.76    8.17
  -5   2  -6   99.48    7.68
  -5   2  -6  116.64    8.09
  -5   2  -5  121.77    5.36
  -5   2  -5  111.64    7.42
  -5   2  -5  116.67    7.83
  -5   2  -5  112.25    7.44
  -5   2  -5  119.11    7.61
  -5   2  -5  114.08    7.53
  -5   2  -4   45.39    3.91
  -5   2  -4   46.18    2.54
  -5   2  -4   50.39    4.07
  -5   2  -4   37.92    1.90
  -5   2  -4   40.87    3.78
  -5   2  -4   49.41    4.03
  -5   2  -4   44.30    4.24
  -5   2  -3   42.94    3.56
  -5   2  -3   44.70    4.24
  -5   2  -3   39.70    3.19
  -5   2  -3   57.65    5.45
  -5   2  -3   54.98    3.91
  -5   2  -3   46.61    3.66
  -5   2  -3   44.61    4.13
  -5   2  -3   48.68    3.78
  -5   2  -2   53.15    3.80
  -5   2  -2   54.63    4.45
  -5   2  -2   45.62    3.82
  -5   2  -2   43.30    4.89
  -5   2  -1   33.01    4.23
  -5   2  -1   37.82    3.64
  -5   2  -1   35.70    2.65
  -5   2  -1   36.69    2.68
  -5   2  -1   37.12    2.58
  -5   2  -1   38.62    2.68
  -5   2  -1   44.16    4.36
  -5   2   0   52.09    5.45
  -5   2   0   57.68    5.09
  -5   2   0   46.07    2.82
  -5   2   0   46.95    4.21
  -5   2   0   50.22    2.69
  -5   2   0   46.91    2.93
  -5   2   0   48.34    2.97
  -5   2   1   54.57    3.36
  -5   2   1   58.28    5.95
  -5   2   1   53.66    3.44
  -5   2   2   29.64    4.26
  -5   2   2   28.13    2.69
  -5   2   2   32.36    2.86
  -5   2   2   24.50    2.66
  -5   2   3  134.24    7.57
  -5   2   3  125.39    9.63
  -5   2   4    8.37    2.34
  -5   2   4    8.88    1.95
  -5   2   5    2.88    1.40
  -5   3  -7   75.91    7.27
  -5   3  -7   82.72    7.55
  -5   3  -7   80.17    7.38
  -5   3  -7   80.43    7.56
  -5   3  -7   78.33    7.39
  -5   3  -6   77.53    6.90
  -5   3  -6   88.50    7.34
  -5   3  -6   93.01    7.44
  -5   3  -6   91.01    7.49
  -5   3  -6   81.43    7.08
  -5   3  -5   42.98    4.51
  -5   3  -5   42.43    4.48
  -5   3  -5   40.73    4.39
  -5   3  -5   32.90    4.04
  -5   3  -5   44.42    4.75
  -5   3  -4   22.48    2.94
  -5   3  -4   25.68    1.82
  -5   3  -4   23.35    3.00
  -5   3  -4   26.25    3.43
  -5   3  -4   23.40    2.99
  -5   3  -4   25.59    3.73
  -5   3  -4   25.92    3.20
  -5   3  -3   16.92    3.04
  -5   3  -3   16.23    1.09
  -5   3  -3   17.44    2.66
  -5   3  -3   26.24    2.93
  -5   3  -3   20.91    1.23
  -5   3  -3   22.70    2.67
  -5   3  -3   20.33    2.55
  -5   3  -3   21.92    2.71
  -5   3  -2    7.85    1.91
  -5   3  -2    7.15    0.58
  -5   3  -2    7.70    1.52
  -5   3  -2    7.33    1.49
  -5   3  -2   10.49    2.44
  -5   3  -2    7.33    1.64
  -5   3  -2   10.46    1.67
  -5   3  -2   10.25    1.65
  -5   3  -1   25.20    3.82
  -5   3  -1   18.72    2.61
  -5   3  -1   18.80    1.37
  -5   3  -1   18.09    2.81
  -5   3   0    6.53    2.02
  -5   3   0    9.76    2.08
  -5   3   0    6.95    0.71
  -5   3   0    6.56    0.99
  -5   3   0    6.16    1.46
  -5   3   1   41.20    5.19
  -5   3   1   41.93    2.77
  -5   3   1   36.40    3.02
  -5   3   1   45.60    4.25
  -5   3   2   67.31    6.99
  -5   3   2   68.20    5.04
  -5   3   2   73.31    5.00
  -5   3   2   66.28    4.39
  -5   3   3  176.61   12.20
  -5   3   3  167.62    8.79
  -5   3   4   91.90    6.66
  -5   3   4  110.25    9.37
  -5   3   5   76.88    6.42
  -5   4  -6   44.36    5.30
  -5   4  -6   44.04    5.20
  -5   4  -6   40.85    5.10
  -5   4  -6   36.65    4.93
  -5   4  -5   34.97    4.56
  -5   4  -5   32.54    4.16
  -5   4  -5   37.66    4.57
  -5   4  -5   40.01    4.60
  -5   4  -5   41.40    4.72
  -5   4  -5   33.38    4.40
  -5   4  -4   71.02    6.86
  -5   4  -4   74.23    6.12
  -5   4  -4   87.49    6.72
  -5   4  -4   82.39    6.44
  -5   4  -4   75.96    6.48
  -5   4  -4   83.02    6.51
  -5   4  -3   31.51    3.61
  -5   4  -3   33.16    3.79
  -5   4  -3   32.25    3.60
  -5   4  -3   31.97    3.90
  -5   4  -3   31.92    4.51
  -5   4  -3   36.29    3.91
  -5   4  -2    0.97    0.88
  -5   4  -2    2.03    0.85
  -5   4  -2    0.54    0.74
  -5   4  -2    2.22    0.88
  -5   4  -2    3.33    1.37
  -5   4  -2    2.90    1.18
  -5   4  -2    1.72    0.89
  -5   4  -1   13.76    2.10
  -5   4  -1   11.77    2.34
  -5   4  -1   12.09    2.22
  -5   4  -1   15.52    2.34
  -5   4  -1   13.88    2.97
  -5   4  -1    9.81    1.87
  -5   4  -1   13.16    2.14
  -5   4   0   48.20    4.06
  -5   4   0   51.01    4.33
  -5   4   0   48.56    4.30
  -5   4   0   46.55    4.47
  -5   4   0   44.24    5.59
  -5   4   1   25.13    4.32
  -5   4   1   24.79    3.23
  -5   4   1   28.53    3.08
  -5   4   1   24.62    3.03
  -5   4   1   26.57    3.15
  -5   4   2   40.19    4.12
  -5   4   2   34.66    5.23
  -5   4   2   43.93    4.13
  -5   4   3    5.70    2.04
  -5   4   4    5.70    2.30
  -5   5  -5    7.85    2.24
  -5   5  -5    5.07    2.08
  -5   5  -5    3.81    1.50
  -5   5  -5    8.00    2.22
  -5   5  -5    5.17    1.80
  -5   5  -4    9.25    2.18
  -5   5  -4   13.07    2.76
  -5   5  -4   11.15    2.48
  -5   5  -4   11.88    2.62
  -5   5  -4   13.77    2.73
  -5   5  -4    6.25    2.16
  -5   5  -3   11.68    2.39
  -5   5  -3    9.03    2.15
  -5   5  -3    7.33    1.95
  -5   5  -3    7.93    2.11
  -5   5  -3    8.16    2.11
  -5   5  -3    7.14    2.37
  -5   5  -2   24.61    3.51
  -5   5  -2   32.13    3.94
  -5   5  -2   25.33    3.52
  -5   5  -2   27.74    3.54
  -5   5  -2   23.00    4.16
  -5   5  -2   24.27    3.39
  -5   5  -2   25.32    3.53
  -5   5  -1    5.18    1.57
  -5   5  -1    6.76    1.84
  -5   5  -1    6.17    2.29
  -5   5  -1    6.79    1.72
  -5   5  -1    6.19    1.72
  -5   5  -1    4.71    1.53
  -5   5  -1    6.07    1.73
  -5   5   0   21.34    3.11
  -5   5   0   25.45    3.40
  -5   5   0   22.12    3.01
  -5   5   0   23.58    3.21
  -5   5   1    6.00    1.70
  -5   5   1    3.40    1.35
  -5   5   1    3.04    1.22
  -5   5   1    2.47    1.16
  -5   5   2   52.73    5.05
  -5   5   2   52.41    5.31
  -5   5   2   58.62    5.27
  -5   6  -4   48.08    5.74
  -5   6  -4   51.75    5.72
  -5   6  -4   42.17    5.48
  -5   6  -4   47.28    6.10
  -5   6  -4   47.59    5.63
  -5   6  -3    7.34    2.21
  -5   6  -3    4.72    1.70
  -5   6  -3    3.28    1.41
  -5   6  -3    2.03    1.59
  -5   6  -3    5.40    1.78
  -5   6  -3    5.50    1.73
  -5   6  -3    7.48    2.11
  -5   6  -2   12.09    2.61
  -5   6  -2   17.69    3.80
  -5   6  -2   10.62    2.52
  -5   6  -2   10.20    2.38
  -5   6  -2   10.78    2.62
  -5   6  -2   16.66    3.20
  -5   6  -1   15.28    2.95
  -5   6  -1   17.00    3.69
  -5   6  -1   14.43    2.80
  -5   6  -1   17.50    3.24
  -5   6  -1   17.09    3.18
  -5   6  -1   10.48    2.35
  -5   6   0    3.14    1.48
  -5   6   0    4.03    1.61
  -5   6   0    5.55    1.96
  -5   6   0    5.15    1.74
  -5   6   1   38.18    4.80
  -5   6   1   31.50    4.46
  -5   6   1   33.64    4.38
  -5   6   1   36.59    4.28
  -5   6   2   22.70    3.42
  -5   7  -1    4.83    1.95
  -5   7  -1    3.49    1.69
  -5   7  -1    1.26    0.93
  -5   7  -1    5.18    1.93
  -5   7   0   15.98    3.56
  -5   7   0   11.70    2.59
  -5   7   0   14.69    3.09
  -5   7   0   11.39    2.89
  -4  -7  -4   69.03    6.65
  -4  -7  -4   69.93    6.60
  -4  -7  -4   68.68    6.61
  -4  -7  -3    1.93    1.22
  -4  -7  -3    0.48    0.58
  -4  -7  -2   12.65    2.55
  -4  -7  -1   51.19    6.13
  -4  -7  -1   43.76    4.86
  -4  -7  -1   42.23    4.82
  -4  -7   0   13.55    2.67
  -4  -7   0   11.35    2.87
  -4  -7   0   10.26    2.59
  -4  -7   1   77.98    7.43
  -4  -6  -5   24.48    3.77
  -4  -6  -5   33.52    4.37
  -4  -6  -5   32.02    4.08
  -4  -6  -5   28.40    4.58
  -4  -6  -5   31.74    4.42
  -4  -6  -4   28.93    4.08
  -4  -6  -4   26.19    3.65
  -4  -6  -4   20.15    3.79
  -4  -6  -4   23.87    3.49
  -4  -6  -4   22.51    3.42
  -4  -6  -3   79.97    7.12
  -4  -6  -3   86.83    6.68
  -4  -6  -3   87.20    6.95
  -4  -6  -3   74.97    7.40
  -4  -6  -2  310.70   17.15
  -4  -6  -2  299.88   14.42
  -4  -6  -2  353.69   16.91
  -4  -6  -2  348.36   15.62
  -4  -6  -1  242.62   13.55
  -4  -6  -1  251.20   12.67
  -4  -6  -1  251.01   12.90
  -4  -6  -1  244.61   14.26
  -4  -6   0   73.41    6.84
  -4  -6   0   74.05    6.59
  -4  -6   0   71.69    6.77
  -4  -6   1    6.62    2.02
  -4  -6   1    3.37    1.52
  -4  -6   2   41.02    5.53
  -4  -6   2   32.62    4.41
  -4  -5  -7    2.29    1.22
  -4  -5  -7   -0.82    0.91
  -4  -5  -6    6.07    1.94
  -4  -5  -6    6.47    1.72
  -4  -5  -6    9.42    2.52
  -4  -5  -6    5.14    1.78
  -4  -5  -6    8.08    2.21
  -4  -5  -5   48.94    4.73
  -4  -5  -5   52.17    5.23
  -4  -5  -5   56.69    5.47
  -4  -5  -5   54.68    5.54
  -4  -5  -4   24.89    3.19
  -4  -5  -4   31.36    3.93
  -4  -5  -4   24.71    3.23
  -4  -5  -4   20.57    3.60
  -4  -5  -4   23.06    3.12
  -4  -5  -4   24.39    2.76
  -4  -5  -3   26.46    3.46
  -4  -5  -3   22.73    3.03
  -4  -5  -3   23.95    3.75
  -4  -5  -3   17.74    2.61
  -4  -5  -3   20.68    2.37
  -4  -5  -3   18.35    2.30
  -4  -5  -2    2.85    1.36
  -4  -5  -2    5.08    1.34
  -4  -5  -2    2.25    1.04
  -4  -5  -2    2.67    1.14
  -4  -5  -1   14.49    2.60
  -4  -5  -1   17.23    2.60
  -4  -5  -1   13.82    2.77
  -4  -5  -1   14.90    2.21
  -4  -5   0   26.72    3.75
  -4  -5   0   30.70    3.86
  -4  -5   0   35.52    4.10
  -4  -5   1   63.22    5.84
  -4  -5   1   52.49    5.35
  -4  -5   1   60.95    6.02
  -4  -5   2   19.81    3.15
  -4  -5   2   25.68    4.09
  -4  -5   2   26.12    3.86
  -4  -5   3   34.99    5.23
  -4  -5   3   44.00    5.35
  -4  -5   3   35.97    4.30
  -4  -4  -8    4.07    1.77
  -4  -4  -7    2.08    1.42
  -4  -4  -7    1.90    1.13
  -4  -4  -7    2.28    1.28
  -4  -4  -7    1.16    1.12
  -4  -4  -6   24.60    3.55
  -4  -4  -6   23.49    3.47
  -4  -4  -6   21.26    2.74
  -4  -4  -6   25.75    3.74
  -4  -4  -6   23.67    3.49
  -4  -4  -5   15.18    2.53
  -4  -4  -5   10.78    1.87
  -4  -4  -5   10.30    2.05
  -4  -4  -5   11.02    2.23
  -4  -4  -5    8.68    2.20
  -4  -4  -4   31.37    3.33
  -4  -4  -4   27.68    3.03
  -4  -4  -4   32.73    4.12
  -4  -4  -4   25.05    3.04
  -4  -4  -4   27.17    3.33
  -4  -4  -3  196.86    8.93
  -4  -4  -3  202.22    9.88
  -4  -4  -3  180.77    9.27
  -4  -4  -3  201.26   11.45
  -4  -4  -3  209.44    9.72
  -4  -4  -3  173.97    8.86
  -4  -4  -3  187.21   10.10
  -4  -4  -3  202.98    9.67
  -4  -4  -2  203.30    9.55
  -4  -4  -2  207.80    9.85
  -4  -4  -2  185.95    9.77
  -4  -4  -2  190.82    9.73
  -4  -4  -2  210.26    8.84
  -4  -4  -2  209.51   11.65
  -4  -4  -2  221.18   10.88
  -4  -4  -2  221.88   10.06
  -4  -4  -2  203.99    9.98
  -4  -4  -2  219.94   10.08
  -4  -4  -1  248.08   11.25
  -4  -4  -1  263.77   12.36
  -4  -4  -1  272.78   13.57
  -4  -4  -1  247.96   11.31
  -4  -4  -1  245.11   11.38
  -4  -4  -1  272.97    9.65
  -4  -4  -1  286.91   11.49
  -4  -4  -1  278.26   12.83
  -4  -4  -1  242.28   11.29
  -4  -4   0  105.69    6.11
  -4  -4   0  115.71    6.36
  -4  -4   0  111.47    6.21
  -4  -4   0  118.55    7.69
  -4  -4   0  126.65    8.11
  -4  -4   0  106.35    6.13
  -4  -4   0  125.75    7.73
  -4  -4   1   40.45    4.47
  -4  -4   1   32.51    2.99
  -4  -4   1   28.48    3.59
  -4  -4   1   30.29    2.91
  -4  -4   1   32.81    2.99
  -4  -4   1   33.57    3.05
  -4  -4   1   35.63    4.02
  -4  -4   2   11.11    2.38
  -4  -4   2   14.69    2.54
  -4  -4   2   11.50    2.63
  -4  -4   3   25.55    4.14
  -4  -4   3   21.13    2.96
  -4  -4   3   22.76    3.32
  -4  -4   3   19.08    3.35
  -4  -4   4    3.12    1.51
  -4  -4   4    2.27    1.32
  -4  -4   4    2.27    1.48
  -4  -3  -8    5.68    1.93
  -4  -3  -7   67.25    6.17
  -4  -3  -7   55.39    5.49
  -4  -3  -7   59.25    5.85
  -4  -3  -7   62.53    6.04
  -4  -3  -7   53.55    5.17
  -4  -3  -6   16.18    2.76
  -4  -3  -6   17.32    2.07
  -4  -3  -6   14.39    2.48
  -4  -3  -6   16.27    2.75
  -4  -3  -6   14.66    2.56
  -4  -3  -6   14.99    2.62
  -4  -3  -5   12.32    2.33
  -4  -3  -5    9.92    1.93
  -4  -3  -5   12.42    1.75
  -4  -3  -5   12.80    2.24
  -4  -3  -5   17.21    2.48
  -4  -3  -4  222.16   10.49
  -4  -3  -4  228.43   10.52
  -4  -3  -4  195.91   10.20
  -4  -3  -4  229.55    9.82
  -4  -3  -4  201.37   11.33
  -4  -3  -3   61.33    4.67
  -4  -3  -3   66.04    4.33
  -4  -3  -3   70.79    4.53
  -4  -3  -3   68.23    4.81
  -4  -3  -3   70.97    4.76
  -4  -3  -3   63.93    4.39
  -4  -3  -3   64.55    4.79
  -4  -3  -3   68.81    5.62
  -4  -3  -3   71.59    4.95
  -4  -3  -2   73.96    4.82
  -4  -3  -2   71.20    4.40
  -4  -3  -2   66.42    4.40
  -4  -3  -2   57.81    4.23
  -4  -3  -2   60.86    4.32
  -4  -3  -2   68.10    4.93
  -4  -3  -2   70.08    4.87
  -4  -3  -2   68.60    5.53
  -4  -3  -2   74.37    3.95
  -4  -3  -1   60.05    5.07
  -4  -3  -1   57.39    2.81
  -4  -3  -1   60.58    3.72
  -4  -3  -1   63.44    4.65
  -4  -3  -1   56.34    3.71
  -4  -3  -1   59.78    4.55
  -4  -3  -1   62.14    3.81
  -4  -3  -1   65.11    3.69
  -4  -3  -1   57.91    3.69
  -4  -3   0  136.59    8.25
  -4  -3   0  151.01    6.74
  -4  -3   0  171.11    8.66
  -4  -3   0  143.63    6.66
  -4  -3   0  148.14    6.75
  -4  -3   0  143.29    8.55
  -4  -3   0  147.33    6.71
  -4  -3   0  163.73    8.44
  -4  -3   1  140.85    8.38
  -4  -3   1  142.41    6.55
  -4  -3   1  146.48    6.65
  -4  -3   1  135.29    8.25
  -4  -3   1  162.56    9.29
  -4  -3   1  138.13    6.50
  -4  -3   1  137.16    6.52
  -4  -3   2   68.91    5.45
  -4  -3   2   79.23    6.27
  -4  -3   2   76.98    4.59
  -4  -3   2   72.57    4.52
  -4  -3   2   73.03    4.49
  -4  -3   2   75.40    5.78
  -4  -3   3   12.74    2.72
  -4  -3   3    9.39    2.00
  -4  -3   3    7.59    2.07
  -4  -3   4    3.94    1.66
  -4  -3   4    5.14    1.89
  -4  -3   4    4.40    1.47
  -4  -2  -8   18.67    3.39
  -4  -2  -8   20.24    3.56
  -4  -2  -8   27.15    4.09
  -4  -2  -8   23.47    3.59
  -4  -2  -7   18.39    3.16
  -4  -2  -7   17.09    2.55
  -4  -2  -7   17.47    3.02
  -4  -2  -7   19.57    3.22
  -4  -2  -7   15.78    2.62
  -4  -2  -6   25.60    3.31
  -4  -2  -6   18.22    2.82
  -4  -2  -6   20.35    2.02
  -4  -2  -6   22.10    3.08
  -4  -2  -6   21.73    2.78
  -4  -2  -6   19.48    2.73
  -4  -2  -6   18.78    1.71
  -4  -2  -5   26.99    2.81
  -4  -2  -5   27.84    3.16
  -4  -2  -5   26.67    2.07
  -4  -2  -5   23.53    2.13
  -4  -2  -5   28.24    3.30
  -4  -2  -5   24.30    3.00
  -4  -2  -5   25.16    3.01
  -4  -2  -4   43.85    4.05
  -4  -2  -4   44.60    3.93
  -4  -2  -4   50.97    3.94
  -4  -2  -4   41.36    3.61
  -4  -2  -4   40.17    3.33
  -4  -2  -4   51.72    4.46
  -4  -2  -4   47.13    3.10
  -4  -2  -4   49.87    3.91
  -4  -2  -4   47.63    4.21
  -4  -2  -3  158.25    7.81
  -4  -2  -3  182.76    8.04
  -4  -2  -3  156.04    7.97
  -4  -2  -3  159.21    8.09
  -4  -2  -3  171.15    7.48
  -4  -2  -3  165.25    7.72
  -4  -2  -3  161.21    8.17
  -4  -2  -3  181.43    9.33
  -4  -2  -2  324.54   12.20
  -4  -2  -2  338.30   14.61
  -4  -2  -2  336.54   13.05
  -4  -2  -2  323.54   12.27
  -4  -2  -2  326.09   12.51
  -4  -2  -2  332.28   12.16
  -4  -2  -2  321.80   13.35
  -4  -2  -2  312.07   13.81
  -4  -2  -2  323.26   12.41
  -4  -2  -2  308.24   13.15
  -4  -2  -2  327.71   12.52
  -4  -2  -2  330.02   12.19
  -4  -2  -1  397.22   16.43
  -4  -2  -1  408.06   17.20
  -4  -2  -1  413.16   14.38
  -4  -2  -1  402.30   15.98
  -4  -2  -1  430.59   14.35
  -4  -2  -1  431.46   16.25
  -4  -2  -1  441.26   16.14
  -4  -2  -1  427.15   17.02
  -4  -2  -1  412.77   14.41
  -4  -2  -1  407.19   14.43
  -4  -2  -1  408.45   14.25
  -4  -2  -1  404.05   14.48
  -4  -2   0  136.44    5.23
  -4  -2   0  132.71    5.18
  -4  -2   0  128.64    5.13
  -4  -2   0  129.84    7.52
  -4  -2   0  124.85    5.15
  -4  -2   0  127.03    5.14
  -4  -2   0  142.33    7.42
  -4  -2   0  140.64    7.88
  -4  -2   1   85.33    3.92
  -4  -2   1   88.07    6.03
  -4  -2   1   85.89    3.93
  -4  -2   1   85.88    6.15
  -4  -2   1   78.92    5.72
  -4  -2   1   85.57    5.39
  -4  -2   1   86.26    3.95
  -4  -2   2   13.59    2.45
  -4  -2   2   11.02    1.90
  -4  -2   2   13.90    1.52
  -4  -2   2   14.00    1.54
  -4  -2   2   17.15    2.65
  -4  -2   3    2.54    1.06
  -4  -2   3    1.67    1.19
  -4  -2   3    0.64    0.63
  -4  -2   4   25.50    3.94
  -4  -2   4   22.65    3.23
  -4  -2   5    9.09    2.21
  -4  -2   5    1.79    1.12
  -4  -1  -8   56.27    5.96
  -4  -1  -8   46.74    5.47
  -4  -1  -8   52.32    4.95
  -4  -1  -8   63.79    6.34
  -4  -1  -7   10.18    2.30
  -4  -1  -7   12.16    2.53
  -4  -1  -7   11.63    1.88
  -4  -1  -7    7.41    1.55
  -4  -1  -7    9.16    2.20
  -4  -1  -7    7.57    1.62
  -4  -1  -6   75.23    5.84
  -4  -1  -6   62.13    4.43
  -4  -1  -6   60.60    5.34
  -4  -1  -6   67.91    4.80
  -4  -1  -6   71.29    5.14
  -4  -1  -6   72.34    5.75
  -4  -1  -5   71.37    5.18
  -4  -1  -5   65.61    5.04
  -4  -1  -5   62.36    4.12
  -4  -1  -5   64.90    4.93
  -4  -1  -5   62.59    4.93
  -4  -1  -5   63.08    4.20
  -4  -1  -4  121.59    7.06
  -4  -1  -4  104.76    6.92
  -4  -1  -4  110.42    4.38
  -4  -1  -4  124.86    6.60
  -4  -1  -4  108.80    6.78
  -4  -1  -4  116.22    6.42
  -4  -1  -4  115.87    5.58
  -4  -1  -4   99.96    6.24
  -4  -1  -4  116.48    5.87
  -4  -1  -4  116.58    6.35
  -4  -1  -4  115.00    6.42
  -4  -1  -3   35.72    2.51
  -4  -1  -3   40.71    2.95
  -4  -1  -3   42.50    3.05
  -4  -1  -3   38.89    2.93
  -4  -1  -3   40.39    3.68
  -4  -1  -3   36.16    3.00
  -4  -1  -3   34.45    2.88
  -4  -1  -3   37.53    2.32
  -4  -1  -3   31.75    2.93
  -4  -1  -3   41.52    3.00
  -4  -1  -3   37.95    3.01
  -4  -1  -3   37.74    3.17
  -4  -1  -2   27.62    2.00
  -4  -1  -2   30.09    2.16
  -4  -1  -2   29.78    2.56
  -4  -1  -2   27.46    2.37
  -4  -1  -2   30.13    2.32
  -4  -1  -2   24.62    2.86
  -4  -1  -2   28.14    1.99
  -4  -1  -2   28.21    1.99
  -4  -1  -2   31.16    2.23
  -4  -1  -2   27.16    1.95
  -4  -1  -2   27.01    2.08
  -4  -1  -1   63.90    2.58
  -4  -1  -1   75.44    5.14
  -4  -1  -1   64.47    2.57
  -4  -1  -1   62.83    2.59
  -4  -1  -1   64.88    2.55
  -4  -1  -1   75.56    4.82
  -4  -1  -1   71.89    4.32
  -4  -1  -1   64.59    2.61
  -4  -1  -1   64.32    4.84
  -4  -1  -1   71.38    2.60
  -4  -1  -1   64.02    2.54
  -4  -1   0   16.91    2.14
  -4  -1   0   17.49    2.37
  -4  -1   0   16.06    2.23
  -4  -1   1   74.10    5.52
  -4  -1   1   86.72    5.77
  -4  -1   1   79.91    4.83
  -4  -1   2   14.97    1.35
  -4  -1   2   11.05    2.08
  -4  -1   2   13.17    1.29
  -4  -1   2   14.31    2.40
  -4  -1   2   13.45    1.95
  -4  -1   3   79.75    4.55
  -4  -1   3   74.35    4.48
  -4  -1   3   92.88    6.01
  -4  -1   3   91.32    6.85
  -4  -1   4    1.10    0.86
  -4  -1   4    0.11    0.84
  -4  -1   5   14.13    2.94
  -4  -1   5    8.64    2.09
  -4  -1   6   65.48    6.91
  -4   0  -8    7.11    2.14
  -4   0  -8    6.40    2.07
  -4   0  -8    8.85    2.40
  -4   0  -8    6.05    1.63
  -4   0  -8    5.34    1.65
  -4   0  -8    8.41    2.39
  -4   0  -7    8.82    1.83
  -4   0  -7   11.73    2.52
  -4   0  -7   10.01    2.40
  -4   0  -7    5.66    1.81
  -4   0  -7    8.99    1.73
  -4   0  -6   12.44    2.29
  -4   0  -6   13.71    2.42
  -4   0  -6   15.68    1.99
  -4   0  -6   15.53    2.59
  -4   0  -6   13.47    2.11
  -4   0  -5    7.55    1.59
  -4   0  -5    5.44    1.41
  -4   0  -5    9.97    1.39
  -4   0  -5    8.58    1.58
  -4   0  -5    6.84    1.09
  -4   0  -5    7.87    1.68
  -4   0  -5    5.52    1.41
  -4   0  -4    6.84    1.55
  -4   0  -4    7.68    0.90
  -4   0  -4   11.43    2.13
  -4   0  -4   10.76    1.64
  -4   0  -4    7.33    1.41
  -4   0  -4    9.22    1.42
  -4   0  -4    5.07    1.16
  -4   0  -4    8.13    1.46
  -4   0  -3  121.75    4.63
  -4   0  -3  131.49    6.15
  -4   0  -3  135.25    6.19
  -4   0  -3  117.66    5.94
  -4   0  -3  129.94    6.87
  -4   0  -3  114.70    6.75
  -4   0  -3  110.89    5.62
  -4   0  -3  125.39    6.56
  -4   0  -2  437.00   15.69
  -4   0  -2  449.94   15.17
  -4   0  -2  426.25   15.08
  -4   0  -2  446.16   15.17
  -4   0  -2  427.18   15.37
  -4   0  -2  441.26   16.59
  -4   0  -2  401.45   15.71
  -4   0  -2  455.88   15.16
  -4   0  -1  625.71   21.94
  -4   0  -1  642.13   23.98
  -4   0   0  283.82   10.73
  -4   0   0  268.33   12.24
  -4   0   0  300.65   13.43
  -4   0   0  261.15   12.48
  -4   0   1   34.09    3.82
  -4   0   1   39.73    3.77
  -4   0   2   20.12    1.56
  -4   0   2   24.09    2.51
  -4   0   2   24.73    3.08
  -4   0   2   24.07    3.16
  -4   0   3   22.88    2.69
  -4   0   3   19.03    1.93
  -4   0   3   22.73    3.14
  -4   0   3   19.96    2.85
  -4   0   4   19.05    3.14
  -4   0   4   22.34    3.02
  -4   0   4   18.17    2.72
  -4   0   5   18.61    3.26
  -4   0   5   17.44    2.99
  -4   0   6    9.30    2.47
  -4   1  -8   26.37    3.35
  -4   1  -8   36.40    4.89
  -4   1  -8   33.42    4.81
  -4   1  -8   26.96    4.32
  -4   1  -8   34.02    4.79
  -4   1  -8   23.33    3.46
  -4   1  -7   15.90    2.27
  -4   1  -7   12.23    2.40
  -4   1  -7   17.57    3.13
  -4   1  -7   14.53    2.83
  -4   1  -7   18.19    3.17
  -4   1  -7   21.26    3.40
  -4   1  -6    5.43    1.59
  -4   1  -6   12.44    1.75
  -4   1  -6   16.02    2.70
  -4   1  -6   10.72    2.22
  -4   1  -6    8.18    1.93
  -4   1  -6    9.85    2.01
  -4   1  -5   55.16    4.66
  -4   1  -5   50.66    3.90
  -4   1  -5   56.98    4.76
  -4   1  -5   57.64    3.00
  -4   1  -5   54.44    2.80
  -4   1  -5   51.71    4.57
  -4   1  -5   49.68    4.48
  -4   1  -5   56.70    4.56
  -4   1  -5   61.61    3.66
  -4   1  -4   57.47    4.40
  -4   1  -4   66.91    4.62
  -4   1  -4   60.06    4.44
  -4   1  -4   63.13    3.81
  -4   1  -4   60.48    5.33
  -4   1  -4   69.72    3.28
  -4   1  -4   60.61    4.47
  -4   1  -4   65.80    3.31
  -4   1  -4   70.17    4.80
  -4   1  -3   53.00    3.00
  -4   1  -3   60.38    3.09
  -4   1  -3   49.88    4.27
  -4   1  -3   58.97    4.18
  -4   1  -2    1.90    0.57
  -4   1  -2    1.13    0.45
  -4   1  -2    2.60    1.04
  -4   1  -2    1.43    0.62
  -4   1  -2    1.51    0.49
  -4   1  -2    1.74    0.53
  -4   1  -2    0.83    0.40
  -4   1  -2    1.19    0.30
  -4   1  -2    0.91    0.42
  -4   1  -1    4.37    0.77
  -4   1  -1    2.77    0.79
  -4   1  -1    4.62    0.66
  -4   1  -1    4.82    0.69
  -4   1  -1    6.14    0.74
  -4   1  -1    2.59    0.93
  -4   1  -1    4.65    1.31
  -4   1  -1    4.61    0.67
  -4   1   0   59.29    2.75
  -4   1   0   64.79    2.75
  -4   1   0   73.12    5.57
  -4   1   0   69.01    3.31
  -4   1   0   65.44    4.40
  -4   1   0   55.26    4.58
  -4   1   0   57.40    2.71
  -4   1   1   23.78    1.76
  -4   1   1   20.99    1.90
  -4   1   1   20.14    2.89
  -4   1   2   64.45    4.28
  -4   1   2   68.57    5.32
  -4   1   2   70.31    4.21
  -4   1   2   62.85    4.18
  -4   1   2   68.05    5.68
  -4   1   3   12.25    1.89
  -4   1   3    9.85    2.16
  -4   1   3   12.12    2.27
  -4   1   4    9.89    2.18
  -4   1   4    7.85    1.82
  -4   1   4    8.87    1.85
  -4   1   4    7.42    1.82
  -4   1   5   11.52    2.31
  -4   1   5   16.07    2.94
  -4   1   5   18.24    3.03
  -4   1   6   40.40    4.92
  -4   2  -8    7.53    2.17
  -4   2  -7    4.53    1.70
  -4   2  -7    4.14    1.20
  -4   2  -7    4.85    1.98
  -4   2  -7    4.64    1.71
  -4   2  -7    3.91    1.57
  -4   2  -7    2.51    1.29
  -4   2  -6    4.73    1.59
  -4   2  -6    7.01    1.37
  -4   2  -6    8.12    2.00
  -4   2  -6    5.55    1.77
  -4   2  -6    5.91    1.64
  -4   2  -6    5.84    1.77
  -4   2  -5   48.88    4.54
  -4   2  -5   51.49    4.64
  -4   2  -5   50.41    3.41
  -4   2  -5   46.29    4.43
  -4   2  -5   46.58    2.47
  -4   2  -5   41.67    4.18
  -4   2  -5   40.04    3.33
  -4   2  -5   48.25    4.54
  -4   2  -4   29.22    2.11
  -4   2  -4   23.60    2.78
  -4   2  -4   24.75    2.83
  -4   2  -4   26.83    2.12
  -4   2  -4   23.48    2.78
  -4   2  -4   25.70    3.22
  -4   2  -4   23.14    2.84
  -4   2  -4   26.88    2.98
  -4   2  -3  215.20   11.32
  -4   2  -3  222.99    9.98
  -4   2  -3  222.44   10.07
  -4   2  -3  222.66    9.96
  -4   2  -3  220.27    9.97
  -4   2  -3  225.70   10.55
  -4   2  -3  226.59    7.99
  -4   2  -3  220.39    7.88
  -4   2  -3  195.10   10.76
  -4   2  -2   32.08    1.38
  -4   2  -2   38.21    3.96
  -4   2  -2   35.26    3.17
  -4   2  -2   28.09    1.30
  -4   2  -1  292.84    9.88
  -4   2  -1  298.80   11.47
  -4   2  -1  305.08   13.37
  -4   2  -1  291.80   11.28
  -4   2  -1  279.70   11.79
  -4   2  -1  308.41   11.47
  -4   2  -1  289.53   11.43
  -4   2  -1  292.98   14.05
  -4   2  -1  289.81   12.46
  -4   2   0   54.96    3.40
  -4   2   0   57.67    5.19
  -4   2   0   58.35    3.00
  -4   2   0   55.55    3.38
  -4   2   0   57.90    3.35
  -4   2   0   54.06    2.66
  -4   2   0   49.71    3.95
  -4   2   0   54.61    4.48
  -4   2   0   58.55    4.09
  -4   2   1  211.90    9.11
  -4   2   1  230.99   10.38
  -4   2   1  226.70    8.75
  -4   2   1  236.64   12.21
  -4   2   1  196.60    8.88
  -4   2   1  224.48    9.05
  -4   2   2   26.57    2.46
  -4   2   2   25.40    2.61
  -4   2   2   28.06    3.73
  -4   2   2   27.77    2.66
  -4   2   2   27.42    2.73
  -4   2   3   13.51    2.64
  -4   2   3   13.55    2.18
  -4   2   3   11.54    1.83
  -4   2   4   25.25    3.39
  -4   2   4   26.57    3.81
  -4   2   4   25.90    3.13
  -4   2   5   14.72    2.96
  -4   2   5   20.25    3.05
  -4   2   5   19.10    3.26
  -4   3  -7   25.97    4.16
  -4   3  -7   21.01    2.81
  -4   3  -7   17.29    3.45
  -4   3  -7   18.45    3.45
  -4   3  -7   17.88    3.38
  -4   3  -7   25.11    3.86
  -4   3  -6   21.91    3.48
  -4   3  -6   18.78    3.19
  -4   3  -6   22.61    2.59
  -4   3  -6   23.54    3.61
  -4   3  -6   20.54    3.38
  -4   3  -6   21.43    3.48
  -4   3  -5   13.41    2.49
  -4   3  -5   14.22    1.85
  -4   3  -5   17.31    2.77
  -4   3  -5   13.97    1.99
  -4   3  -5   16.17    2.66
  -4   3  -5   15.96    2.66
  -4   3  -5   17.11    2.76
  -4   3  -4  112.54    7.25
  -4   3  -4   97.17    4.80
  -4   3  -4   95.97    5.77
  -4   3  -4  110.99    7.06
  -4   3  -4  105.81    6.86
  -4   3  -4  113.40    5.43
  -4   3  -4  105.68    6.90
  -4   3  -4  100.73    6.84
  -4   3  -4  116.50    7.62
  -4   3  -3    4.84    1.32
  -4   3  -3    7.32    1.49
  -4   3  -3    7.58    1.56
  -4   3  -3    6.54    1.50
  -4   3  -3    8.80    1.65
  -4   3  -3    7.62    1.81
  -4   3  -3    9.19    1.10
  -4   3  -3    7.11    1.31
  -4   3  -2   15.23    2.63
  -4   3  -2   14.27    2.12
  -4   3  -2   17.03    2.13
  -4   3  -2   15.95    2.14
  -4   3  -2   14.93    2.02
  -4   3  -2   13.62    1.85
  -4   3  -2   15.67    2.11
  -4   3  -1   37.20    3.63
  -4   3  -1   30.95    3.11
  -4   3  -1   29.59    2.87
  -4   3  -1   30.43    3.78
  -4   3  -1   33.29    2.06
  -4   3   0   31.09    3.37
  -4   3   0   36.12    3.34
  -4   3   0   35.90    1.89
  -4   3   0   36.68    2.45
  -4   3   1   49.87    4.05
  -4   3   1   49.72    3.01
  -4   3   2   58.95    3.89
  -4   3   2   52.00    3.95
  -4   3   2   59.14    4.38
  -4   3   2   56.04    4.45
  -4   3   3   20.83    2.79
  -4   3   3   14.96    2.45
  -4   3   3   21.78    2.52
  -4   3   4   12.62    2.53
  -4   3   4   19.81    3.12
  -4   3   4   17.08    2.52
  -4   3   5   31.11    4.38
  -4   3   5   32.92    4.77
  -4   3   5   36.23    4.09
  -4   4  -6    6.08    2.00
  -4   4  -6    6.28    2.06
  -4   4  -6   10.45    2.57
  -4   4  -6    6.72    2.08
  -4   4  -6   10.14    2.53
  -4   4  -6   12.12    1.99
  -4   4  -5    8.48    2.11
  -4   4  -5    8.12    2.10
  -4   4  -5   10.05    1.67
  -4   4  -5    7.86    1.90
  -4   4  -5    8.32    2.05
  -4   4  -5    7.45    2.00
  -4   4  -5   12.96    2.66
  -4   4  -4   26.77    2.57
  -4   4  -4   26.62    3.46
  -4   4  -4   28.54    3.66
  -4   4  -4   26.58    3.43
  -4   4  -4   24.02    3.39
  -4   4  -4   26.50    3.49
  -4   4  -4   25.89    3.59
  -4   4  -4   29.06    2.04
  -4   4  -3   53.47    4.75
  -4   4  -3   66.43    5.29
  -4   4  -3   62.38    5.26
  -4   4  -3   60.35    5.70
  -4   4  -3   65.56    5.32
  -4   4  -3   66.72    5.39
  -4   4  -2  200.96   10.47
  -4   4  -2  211.78   10.58
  -4   4  -2  187.97   10.36
  -4   4  -2  212.37   10.50
  -4   4  -2  215.73   12.09
  -4   4  -2  213.23   10.69
  -4   4  -1  203.17   10.39
  -4   4  -1  212.81   10.30
  -4   4  -1  202.61   10.47
  -4   4  -1  210.90   10.60
  -4   4  -1  216.85   10.68
  -4   4  -1  227.83   10.70
  -4   4   0  234.98   10.81
  -4   4   0  220.41   10.85
  -4   4   0  229.74    8.22
  -4   4   0  223.90   10.93
  -4   4   0  214.33   10.86
  -4   4   0  226.08   10.91
  -4   4   0  224.69   11.01
  -4   4   1   77.27    5.48
  -4   4   1   80.89    5.81
  -4   4   1   83.61    4.31
  -4   4   1   75.20    4.73
  -4   4   1   81.15    5.61
  -4   4   1   87.20    5.95
  -4   4   2   14.67    2.23
  -4   4   2   16.87    1.95
  -4   4   2   16.11    2.44
  -4   4   2   11.54    2.17
  -4   4   2   16.90    2.57
  -4   4   3   29.36    3.01
  -4   4   3   32.50    3.81
  -4   4   3   31.62    3.94
  -4   4   4   17.73    3.17
  -4   4   4   18.64    3.22
  -4   4   4   14.46    2.37
  -4   4   5    5.66    2.21
  -4   4   5    1.95    1.20
  -4   4   5    4.53    1.97
  -4   5  -5  100.65    6.57
  -4   5  -5  106.16    8.49
  -4   5  -5   91.06    8.06
  -4   5  -5  108.15    8.49
  -4   5  -5  107.41    8.52
  -4   5  -5  104.97    7.91
  -4   5  -5   99.00    8.26
  -4   5  -4   30.85    4.06
  -4   5  -4   30.79    4.10
  -4   5  -4   41.04    4.71
  -4   5  -4   36.09    4.51
  -4   5  -4   37.57    4.56
  -4   5  -4   27.99    3.96
  -4   5  -3   21.55    3.25
  -4   5  -3   28.64    3.65
  -4   5  -3   27.04    3.99
  -4   5  -3   22.82    3.36
  -4   5  -3   25.00    3.58
  -4   5  -3   22.13    3.34
  -4   5  -2   26.17    3.56
  -4   5  -2   31.29    3.81
  -4   5  -2   22.64    3.19
  -4   5  -2   30.26    3.61
  -4   5  -2   29.24    3.68
  -4   5  -1   19.34    2.94
  -4   5  -1   15.59    2.48
  -4   5  -1   14.56    1.89
  -4   5  -1   15.71    2.63
  -4   5  -1   19.20    2.63
  -4   5  -1   18.96    2.87
  -4   5  -1   19.75    2.84
  -4   5   0   17.31    2.55
  -4   5   0   17.18    1.48
  -4   5   0   15.43    2.59
  -4   5   0   22.76    3.17
  -4   5   0   18.04    2.80
  -4   5   0   19.77    2.82
  -4   5   1   15.90    2.56
  -4   5   1   17.44    2.84
  -4   5   1   18.89    2.89
  -4   5   1   18.53    2.63
  -4   5   2   26.85    3.17
  -4   5   2   29.67    2.81
  -4   5   2   25.93    3.46
  -4   5   2   27.68    3.69
  -4   5   2   31.59    3.90
  -4   5   3   65.85    4.91
  -4   5   3   71.98    6.62
  -4   5   3   75.22    6.47
  -4   5   4   30.43    4.54
  -4   5   4   27.33    3.34
  -4   5   4   28.49    4.23
  -4   5   5    1.21    1.00
  -4   6  -4   11.64    2.71
  -4   6  -4   16.30    3.11
  -4   6  -4   13.34    2.91
  -4   6  -4   10.62    2.64
  -4   6  -4   11.80    2.78
  -4   6  -4   13.22    2.84
  -4   6  -3   70.02    6.75
  -4   6  -3   69.23    7.04
  -4   6  -3   70.72    6.51
  -4   6  -3   84.04    7.16
  -4   6  -3   74.64    6.58
  -4   6  -3   64.97    6.46
  -4   6  -2   53.64    5.22
  -4   6  -2   47.16    4.43
  -4   6  -2   56.77    5.82
  -4   6  -2   50.45    5.29
  -4   6  -2   47.05    5.24
  -4   6  -2   52.19    5.57
  -4   6  -1  121.66    8.64
  -4   6  -1  114.14    8.54
  -4   6  -1  109.54    7.66
  -4   6  -1  107.31    6.86
  -4   6  -1  117.85    8.68
  -4   6  -1  117.11    8.31
  -4   6   0   80.28    7.04
  -4   6   0   86.63    7.18
  -4   6   0   83.04    6.31
  -4   6   0   85.40    6.91
  -4   6   1   58.91    5.84
  -4   6   1   53.28    5.33
  -4   6   1   41.43    5.03
  -4   6   1   55.04    4.87
  -4   6   2   28.95    4.01
  -4   6   2   24.62    3.94
  -4   6   2   24.14    3.88
  -4   6   2   23.61    3.08
  -4   6   3    0.95    0.93
  -4   6   3    0.87    1.37
  -4   6   4    3.26    1.67
  -4   6   4    2.47    1.46
  -4   7  -3   21.35    4.03
  -4   7  -2   10.94    2.80
  -4   7  -2   21.56    3.39
  -4   7  -2   17.01    3.29
  -4   7  -2   18.83    3.63
  -4   7  -2   20.04    3.63
  -4   7  -1   16.37    2.86
  -4   7  -1   14.82    3.28
  -4   7  -1   14.49    3.04
  -4   7  -1   13.93    2.98
  -4   7  -1   15.94    3.26
  -4   7   0   29.56    3.84
  -4   7   0   30.15    4.52
  -4   7   0   34.89    4.67
  -4   7   0   36.04    4.99
  -4   7   1   20.49    3.83
  -4   7   1   16.70    2.76
  -4   7   1   19.65    3.80
  -4   7   1   24.05    3.88
  -4   7   2   39.39    5.43
  -4   7   2   36.81    5.17
  -4   7   2   45.07    5.47
  -3  -8   0    2.72    1.63
  -3  -7  -5   40.66    5.09
  -3  -7  -4   25.37    3.94
  -3  -7  -4   25.73    3.95
  -3  -7  -3    5.74    2.09
  -3  -7  -3    7.42    2.09
  -3  -7  -3   10.13    2.44
  -3  -7  -3    8.33    2.23
  -3  -7  -2   30.39    4.12
  -3  -7  -2   22.20    3.68
  -3  -7  -2   26.80    4.27
  -3  -7  -2   23.55    3.58
  -3  -7  -1    8.52    2.14
  -3  -7  -1   12.44    2.60
  -3  -7  -1    7.14    2.22
  -3  -7  -1   10.19    2.22
  -3  -7  -1    7.24    2.09
  -3  -7   0    6.42    2.12
  -3  -7   0    8.04    2.27
  -3  -7   0    9.68    2.30
  -3  -7   1   30.27    4.37
  -3  -7   1   34.69    4.86
  -3  -7   2   40.84    4.93
  -3  -6  -6   21.71    3.52
  -3  -6  -6   34.67    4.83
  -3  -6  -5   24.40    3.73
  -3  -6  -5   26.18    4.00
  -3  -6  -5   18.98    3.68
  -3  -6  -5   20.51    3.48
  -3  -6  -5   16.97    3.01
  -3  -6  -4  117.95    8.25
  -3  -6  -4   88.98    7.30
  -3  -6  -4  103.78    8.10
  -3  -6  -4  101.85    8.60
  -3  -6  -3   57.49    6.12
  -3  -6  -3   60.97    5.55
  -3  -6  -3   59.82    5.90
  -3  -6  -3   68.76    5.82
  -3  -6  -3   51.86    3.76
  -3  -6  -2   35.40    4.70
  -3  -6  -2   33.13    3.33
  -3  -6  -2   38.74    4.55
  -3  -6  -2   35.08    4.37
  -3  -6  -2   29.99    3.93
  -3  -6  -1    1.42    1.02
  -3  -6  -1    3.12    1.10
  -3  -6  -1    2.96    1.29
  -3  -6  -1    6.36    1.84
  -3  -6  -1    4.29    1.36
  -3  -6   0   59.48    5.82
  -3  -6   0   69.36    6.11
  -3  -6   0   55.27    5.42
  -3  -6   1   55.05    5.86
  -3  -6   1   60.65    5.74
  -3  -6   1   51.08    5.66
  -3  -6   2   57.76    5.51
  -3  -6   2   63.70    6.67
  -3  -6   3    3.47    2.25
  -3  -5  -7   98.77    8.11
  -3  -5  -7  104.06    8.82
  -3  -5  -6  117.11    8.90
  -3  -5  -6  113.89    8.60
  -3  -5  -6  112.02    8.64
  -3  -5  -6  114.95    8.84
  -3  -5  -5   55.26    5.40
  -3  -5  -5   56.56    5.66
  -3  -5  -5   58.30    5.13
  -3  -5  -5   58.83    5.99
  -3  -5  -5   61.20    5.59
  -3  -5  -4   44.11    4.67
  -3  -5  -4   42.62    4.98
  -3  -5  -4   46.11    4.54
  -3  -5  -4   49.26    4.64
  -3  -5  -4   52.14    4.64
  -3  -5  -3   15.17    2.81
  -3  -5  -3   14.20    2.29
  -3  -5  -3   11.91    1.51
  -3  -5  -3   12.16    2.17
  -3  -5  -3   13.74    1.62
  -3  -5  -3   12.85    2.34
  -3  -5  -2    1.20    0.72
  -3  -5  -2    1.18    0.86
  -3  -5  -2    2.82    1.23
  -3  -5  -2    0.93    0.49
  -3  -5  -2    1.10    0.57
  -3  -5  -2    2.35    0.94
  -3  -5  -1   35.61    3.59
  -3  -5  -1   40.75    4.19
  -3  -5  -1   42.16    4.50
  -3  -5  -1   34.09    3.51
  -3  -5  -1   40.68    4.03
  -3  -5   0   10.42    2.10
  -3  -5   0   13.16    2.41
  -3  -5   0   16.33    2.65
  -3  -5   1    0.81    0.82
  -3  -5   1    1.21    0.69
  -3  -5   1    0.39    0.71
  -3  -5   1    1.24    0.38
  -3  -5   1    2.12    1.03
  -3  -5   2  134.89    9.57
  -3  -5   2  125.08    8.02
  -3  -5   2  123.83    8.58
  -3  -5   3   45.70    4.49
  -3  -5   3   58.21    6.34
  -3  -5   3   57.14    5.76
  -3  -5   4  143.11   10.38
  -3  -5   4  155.68   11.54
  -3  -4  -7    0.74    0.75
  -3  -4  -7    2.07    1.38
  -3  -4  -7    2.31    1.29
  -3  -4  -7   -0.34    0.67
  -3  -4  -6   75.95    6.62
  -3  -4  -6   79.83    6.55
  -3  -4  -6   75.66    6.51
  -3  -4  -6   85.21    6.94
  -3  -4  -5   40.31    4.32
  -3  -4  -5   44.98    4.47
  -3  -4  -5   37.34    4.07
  -3  -4  -5   36.17    4.24
  -3  -4  -4  164.31    8.54
  -3  -4  -4  163.59    8.97
  -3  -4  -4  156.72    9.07
  -3  -4  -4  163.68    8.90
  -3  -4  -4  151.15    9.53
  -3  -4  -3    4.44    1.16
  -3  -4  -3    4.83    1.32
  -3  -4  -3    5.41    1.25
  -3  -4  -3    5.15    1.53
  -3  -4  -3    4.69    1.14
  -3  -4  -3    3.41    0.74
  -3  -4  -2   50.95    4.05
  -3  -4  -2   49.59    4.68
  -3  -4  -2   46.48    3.43
  -3  -4  -2   54.19    3.57
  -3  -4  -2   51.23    4.33
  -3  -4  -2   49.65    4.19
  -3  -4  -2   55.80    4.10
  -3  -4  -2   49.54    4.07
  -3  -4  -2   45.64    4.03
  -3  -4  -2   45.76    3.99
  -3  -4  -1   30.77    3.55
  -3  -4  -1   34.12    3.16
  -3  -4  -1   27.93    2.86
  -3  -4  -1   28.99    2.94
  -3  -4  -1   30.30    3.13
  -3  -4  -1   30.71    2.94
  -3  -4  -1   33.02    2.40
  -3  -4  -1   29.14    2.99
  -3  -4  -1   29.23    3.23
  -3  -4  -1   28.73    2.82
  -3  -4   0    2.56    0.78
  -3  -4   0    1.86    0.71
  -3  -4   0    1.90    0.75
  -3  -4   0    2.93    0.91
  -3  -4   0    3.02    0.99
  -3  -4   0    2.10    0.89
  -3  -4   0    2.69    0.98
  -3  -4   1  101.76    6.07
  -3  -4   1  100.37    3.85
  -3  -4   1  105.14    6.17
  -3  -4   1  116.56    7.08
  -3  -4   1  125.42    7.87
  -3  -4   1  111.26    6.37
  -3  -4   1  123.16    7.40
  -3  -4   1  108.17    6.27
  -3  -4   1  114.54    6.34
  -3  -4   2   45.13    4.48
  -3  -4   2   38.24    3.55
  -3  -4   2   40.65    3.62
  -3  -4   2   45.12    4.06
  -3  -4   2   46.17    4.33
  -3  -4   2   42.69    4.75
  -3  -4   2   39.82    3.63
  -3  -4   3   51.07    5.62
  -3  -4   3   52.23    5.21
  -3  -4   3   58.64    4.66
  -3  -4   3   52.70    4.84
  -3  -4   4   17.17    3.14
  -3  -4   4   17.58    2.97
  -3  -4   4   12.36    2.94
  -3  -4   5   12.20    2.79
  -3  -4   5   14.31    3.23
  -3  -3  -7   51.11    5.44
  -3  -3  -7   47.14    4.45
  -3  -3  -7   49.77    5.38
  -3  -3  -7   43.28    4.96
  -3  -3  -6  131.00    7.85
  -3  -3  -6  113.45    7.97
  -3  -3  -6  108.62    7.78
  -3  -3  -6  117.88    7.96
  -3  -3  -5  228.92   11.83
  -3  -3  -5  242.76   11.94
  -3  -3  -5  245.44   12.09
  -3  -3  -5  257.93   12.17
  -3  -3  -4  171.66    8.13
  -3  -3  -4  177.11    9.52
  -3  -3  -4  167.98    8.77
  -3  -3  -4  158.31    8.71
  -3  -3  -4  191.95    9.20
  -3  -3  -3   11.88    1.70
  -3  -3  -3   10.92    1.81
  -3  -3  -3   15.24    2.32
  -3  -3  -3   11.59    1.68
  -3  -3  -3   13.80    1.86
  -3  -3  -3   12.89    2.01
  -3  -3  -3   11.37    1.78
  -3  -3  -3   11.71    1.85
  -3  -3  -3   11.87    1.64
  -3  -3  -3   11.99    1.83
  -3  -3  -2  107.64    5.34
  -3  -3  -2  102.55    5.96
  -3  -3  -2   99.93    5.59
  -3  -3  -2   92.81    5.72
  -3  -3  -2   92.96    6.31
  -3  -3  -2  100.34    5.72
  -3  -3  -2  105.27    5.19
  -3  -3  -2  100.56    5.81
  -3  -3  -2  101.20    5.62
  -3  -3  -2   96.30    5.71
  -3  -3  -2  103.34    5.57
  -3  -3  -1  259.40   10.59
  -3  -3  -1  240.26   10.68
  -3  -3  -1  249.73   11.75
  -3  -3  -1  256.59   10.47
  -3  -3  -1  266.10   10.94
  -3  -3  -1  262.10   10.68
  -3  -3  -1  249.02   10.29
  -3  -3  -1  254.18   11.27
  -3  -3  -1  256.88   10.67
  -3  -3  -1  260.02   11.27
  -3  -3  -1  257.23    9.48
  -3  -3   0   42.01    3.57
  -3  -3   0   47.88    3.89
  -3  -3   0   38.51    1.74
  -3  -3   0   42.22    2.97
  -3  -3   0   36.56    2.78
  -3  -3   0   40.36    3.55
  -3  -3   0   39.07    2.93
  -3  -3   0   38.91    2.89
  -3  -3   1   56.14    4.41
  -3  -3   1   63.69    3.97
  -3  -3   1   76.27    5.12
  -3  -3   1   58.30    4.32
  -3  -3   1   61.50    3.92
  -3  -3   1   55.49    4.79
  -3  -3   1   65.36    3.99
  -3  -3   1   60.12    3.85
  -3  -3   2  338.75   13.56
  -3  -3   2  343.75   15.16
  -3  -3   2  308.10   14.70
  -3  -3   2  358.82   16.09
  -3  -3   2  374.25   14.70
  -3  -3   2  338.02   13.52
  -3  -3   2  344.29   13.61
  -3  -3   2  318.79   14.35
  -3  -3   3  246.68   12.11
  -3  -3   3  207.07   10.22
  -3  -3   3  206.19   10.05
  -3  -3   3  210.22   10.08
  -3  -3   3  208.48   10.04
  -3  -3   3  245.44   12.79
  -3  -3   3  210.35   10.79
  -3  -3   4  145.38    9.56
  -3  -3   4  133.23    8.64
  -3  -3   4  160.67   10.47
  -3  -3   5   29.76    4.46
  -3  -3   5   22.21    3.44
  -3  -3   5   21.23    3.62
  -3  -2  -8   20.83    3.26
  -3  -2  -8   22.75    3.75
  -3  -2  -8   26.21    4.00
  -3  -2  -8   28.57    4.18
  -3  -2  -7    0.83    0.62
  -3  -2  -7    0.82    0.54
  -3  -2  -7    0.09    0.69
  -3  -2  -7    1.12    0.90
  -3  -2  -7    2.02    1.15
  -3  -2  -6    4.93    1.51
  -3  -2  -6    4.28    0.82
  -3  -2  -6    4.27    1.40
  -3  -2  -6    6.50    1.68
  -3  -2  -6    6.93    1.45
  -3  -2  -5  150.16    8.64
  -3  -2  -5  154.98    8.33
  -3  -2  -5  162.98    8.40
  -3  -2  -5  166.71    8.91
  -3  -2  -5  155.85    6.52
  -3  -2  -4   68.30    4.84
  -3  -2  -4   70.36    3.50
  -3  -2  -4   73.25    5.45
  -3  -2  -4   68.88    3.87
  -3  -2  -4   76.11    4.76
  -3  -2  -4   61.27    4.49
  -3  -2  -4   76.61    5.13
  -3  -2  -4   70.89    5.16
  -3  -2  -4   71.16    4.83
  -3  -2  -4   70.49    4.86
  -3  -2  -4   72.82    5.47
  -3  -2  -3  199.28    9.44
  -3  -2  -3  198.49    9.64
  -3  -2  -3  201.41    7.85
  -3  -2  -3  208.35    9.31
  -3  -2  -3  202.29    9.19
  -3  -2  -3  189.51    9.35
  -3  -2  -3  221.47    8.46
  -3  -2  -3  197.55    8.87
  -3  -2  -2    5.61    0.96
  -3  -2  -2    4.19    0.93
  -3  -2  -2    4.19    0.88
  -3  -2  -2    3.83    0.77
  -3  -2  -2    4.02    1.04
  -3  -2  -2    5.48    0.98
  -3  -2  -2    4.31    0.92
  -3  -2  -2    5.31    0.90
  -3  -2  -2    5.43    0.89
  -3  -2  -2    3.52    0.79
  -3  -2  -1   29.97    2.17
  -3  -2  -1   34.84    2.74
  -3  -2  -1   35.46    3.11
  -3  -2  -1   31.77    1.84
  -3  -2  -1   29.92    2.70
  -3  -2  -1   30.17    2.13
  -3  -2  -1   29.81    2.21
  -3  -2  -1   33.48    2.70
  -3  -2  -1   31.87    2.63
  -3  -2  -1   29.74    2.05
  -3  -2  -1   37.24    2.40
  -3  -2   0  168.06    7.61
  -3  -2   0  159.68    7.75
  -3  -2   0  148.66    6.25
  -3  -2   0  155.61    6.28
  -3  -2   0  155.99    7.41
  -3  -2   0  149.54    7.71
  -3  -2   0  159.80    6.32
  -3  -2   0  151.43    6.24
  -3  -2   1   39.72    3.53
  -3  -2   1   38.75    3.32
  -3  -2   1   36.61    2.37
  -3  -2   1   34.74    2.33
  -3  -2   1   32.00    2.99
  -3  -2   1   32.55    2.24
  -3  -2   1   34.39    2.30
  -3  -2   1   34.95    2.93
  -3  -2   1   36.98    3.27
  -3  -2   2  202.11    8.40
  -3  -2   2  189.68    9.29
  -3  -2   2  203.17    9.39
  -3  -2   2  214.97   10.20
  -3  -2   2  203.90   10.42
  -3  -2   2  187.36    9.95
  -3  -2   2  198.67    8.35
  -3  -2   2  191.97    8.33
  -3  -2   3   31.27    2.88
  -3  -2   3   33.75    2.95
  -3  -2   3   34.89    3.77
  -3  -2   3   30.96    2.84
  -3  -2   3   35.47    3.43
  -3  -2   3   36.22    4.02
  -3  -2   4   26.49    3.54
  -3  -2   4   20.68    2.62
  -3  -2   4   18.41    3.10
  -3  -2   4   26.64    3.23
  -3  -2   4   19.85    2.55
  -3  -2   5   20.41    3.14
  -3  -2   5   21.26    3.49
  -3  -2   6   30.14    4.45
  -3  -1  -8  125.41    9.24
  -3  -1  -8  116.17    8.97
  -3  -1  -8  122.62    9.11
  -3  -1  -8  106.05    7.73
  -3  -1  -7   63.51    5.86
  -3  -1  -7   69.73    6.13
  -3  -1  -7   58.46    5.66
  -3  -1  -7   57.43    4.33
  -3  -1  -7   62.72    5.09
  -3  -1  -6  281.43   12.64
  -3  -1  -6  299.83   14.10
  -3  -1  -6  290.01   12.17
  -3  -1  -6  299.32   14.06
  -3  -1  -6  278.63   10.64
  -3  -1  -6  302.12   14.15
  -3  -1  -6  277.03   11.86
  -3  -1  -5   66.35    4.08
  -3  -1  -5   62.19    4.36
  -3  -1  -5   65.13    5.03
  -3  -1  -5   64.97    3.26
  -3  -1  -5   72.50    5.26
  -3  -1  -5   71.18    5.27
  -3  -1  -5   70.92    4.44
  -3  -1  -4  272.08   11.37
  -3  -1  -4  268.39   10.31
  -3  -1  -4  272.15   12.93
  -3  -1  -4  290.00   11.82
  -3  -1  -4  250.74   11.11
  -3  -1  -4  259.32   12.34
  -3  -1  -4  234.66    9.15
  -3  -1  -4  256.49   11.25
  -3  -1  -4  266.88   11.54
  -3  -1  -4  275.90   11.65
  -3  -1  -4  267.83   10.40
  -3  -1  -4  266.44   10.66
  -3  -1  -3   36.98    2.94
  -3  -1  -3   41.39    2.70
  -3  -1  -3   41.19    3.47
  -3  -1  -3   43.09    3.39
  -3  -1  -3   42.65    3.07
  -3  -1  -3   44.75    3.19
  -3  -1  -3   38.56    2.98
  -3  -1  -3   46.70    3.50
  -3  -1  -3   41.34    2.67
  -3  -1  -2   28.75    2.28
  -3  -1  -2   25.49    2.18
  -3  -1  -2   29.88    2.11
  -3  -1  -2   22.21    1.84
  -3  -1  -2   29.50    2.10
  -3  -1  -2   26.69    2.12
  -3  -1  -2   27.56    2.13
  -3  -1  -2   29.87    2.70
  -3  -1  -2   25.91    2.05
  -3  -1  -1  293.34   10.92
  -3  -1  -1  291.45   10.92
  -3  -1  -1  325.20   11.95
  -3  -1  -1  277.09   11.69
  -3  -1  -1  304.95   10.92
  -3  -1  -1  309.13   12.63
  -3  -1  -1  358.29   13.27
  -3  -1  -1  297.30   10.84
  -3  -1  -1  362.72   11.01
  -3  -1  -1  327.37   11.93
  -3  -1  -1  384.41   13.38
  -3  -1  -1  350.81   10.95
  -3  -1   0   35.01    1.55
  -3  -1   0   37.10    1.57
  -3  -1   0   35.78    1.56
  -3  -1   0   38.49    1.59
  -3  -1   0   35.47    1.54
  -3  -1   1   41.25    3.55
  -3  -1   1   37.97    3.33
  -3  -1   1   42.66    2.21
  -3  -1   1   43.54    3.49
  -3  -1   1   44.23    2.22
  -3  -1   2  244.43    9.65
  -3  -1   2  237.76   11.66
  -3  -1   2  250.59   10.68
  -3  -1   2  244.02    9.62
  -3  -1   2  270.64   11.89
  -3  -1   2  256.82   11.69
  -3  -1   3  251.46   10.51
  -3  -1   3  268.36   12.52
  -3  -1   3  254.85   11.36
  -3  -1   3  235.30   10.32
  -3  -1   4  207.38   10.90
  -3  -1   4  189.87    9.78
  -3  -1   4  157.18    8.57
  -3  -1   4  174.87    8.80
  -3  -1   5  147.82    8.92
  -3  -1   5  122.43    8.79
  -3  -1   6   27.73    3.86
  -3  -1   6   23.77    3.67
  -3  -1   7   28.58    4.32
  -3   0  -8    4.69    1.69
  -3   0  -8    4.19    1.48
  -3   0  -8    4.18    1.43
  -3   0  -8    6.53    2.06
  -3   0  -8    6.72    2.00
  -3   0  -7   59.24    4.83
  -3   0  -7   56.26    5.53
  -3   0  -7   56.56    5.59
  -3   0  -7   68.81    6.11
  -3   0  -7   53.53    4.55
  -3   0  -6   22.33    3.09
  -3   0  -6   23.47    3.15
  -3   0  -6   21.28    1.43
  -3   0  -6   19.39    2.38
  -3   0  -6   20.92    1.45
  -3   0  -6   24.39    3.26
  -3   0  -6   20.14    1.23
  -3   0  -6   19.10    2.43
  -3   0  -5    2.88    1.05
  -3   0  -5    1.09    0.61
  -3   0  -5    2.77    0.83
  -3   0  -5    1.29    0.59
  -3   0  -5    1.87    0.30
  -3   0  -5    3.00    0.82
  -3   0  -5    1.66    0.87
  -3   0  -5    2.99    0.84
  -3   0  -5    1.61    0.28
  -3   0  -4  390.68   15.08
  -3   0  -4  391.96   15.73
  -3   0  -4  402.69   17.28
  -3   0  -4  406.42   15.09
  -3   0  -4  391.20   16.88
  -3   0  -4  400.17   15.22
  -3   0  -4  393.23   15.69
  -3   0  -4  385.46   14.24
  -3   0  -4  376.61   15.50
  -3   0  -4  392.53   15.72
  -3   0  -3  225.55   10.56
  -3   0  -3  219.45   10.69
  -3   0  -3  231.73    9.72
  -3   0  -3  241.63    8.43
  -3   0  -3  253.70   10.34
  -3   0  -3  226.78    7.73
  -3   0  -3  240.45    9.76
  -3   0  -3  233.26    9.53
  -3   0  -3  231.63    9.22
  -3   0  -3  241.09    9.77
  -3   0  -3  227.76    8.44
  -3   0  -2  290.70   10.75
  -3   0  -2  306.30   10.87
  -3   0  -2  294.45   10.78
  -3   0  -2  274.86   11.51
  -3   0  -2  282.47   10.60
  -3   0  -2  310.37   12.24
  -3   0  -2  300.95   11.32
  -3   0  -2  291.99   11.51
  -3   0  -2  297.18    9.93
  -3   0  -1   44.14    2.29
  -3   0  -1   44.75    2.05
  -3   0  -1   45.42    2.05
  -3   0  -1   47.32    2.27
  -3   0  -1   45.80    2.48
  -3   0  -1   45.46    2.05
  -3   0  -1   45.72    2.06
  -3   0  -1   48.55    3.78
  -3   0  -1   46.96    3.03
  -3   0   0  288.62   10.71
  -3   0   0  324.15   12.97
  -3   0   0  296.00   11.65
  -3   0   1  338.99   13.88
  -3   0   1  357.92   12.40
  -3   0   1  317.79   10.91
  -3   0   2  240.13   10.85
  -3   0   2  218.15   10.53
  -3   0   2  223.94    8.81
  -3   0   2  234.90    9.57
  -3   0   2  251.16   11.22
  -3   0   2  234.94    9.83
  -3   0   3   12.92    1.62
  -3   0   3   12.03    2.04
  -3   0   3   10.73    1.69
  -3   0   3   12.21    1.85
  -3   0   3    9.89    1.70
  -3   0   4    4.82    1.13
  -3   0   4    6.05    1.42
  -3   0   4    6.20    1.38
  -3   0   4    6.72    1.64
  -3   0   5   60.24    5.25
  -3   0   5   54.64    5.23
  -3   0   5   62.04    4.43
  -3   0   6    0.99    0.85
  -3   0   6    2.46    1.31
  -3   0   7   16.62    3.13
  -3   1  -8   13.36    3.00
  -3   1  -8   13.14    3.09
  -3   1  -8    6.22    1.70
  -3   1  -8    7.05    2.20
  -3   1  -8    5.39    1.84
  -3   1  -7   94.94    6.45
  -3   1  -7  109.68    8.12
  -3   1  -7   85.79    7.46
  -3   1  -7  103.34    7.98
  -3   1  -7  101.13    7.86
  -3   1  -6  103.18    7.39
  -3   1  -6  108.84    7.58
  -3   1  -6  107.16    7.46
  -3   1  -6  116.40    7.75
  -3   1  -6   94.41    4.95
  -3   1  -6  105.70    6.22
  -3   1  -5  242.66   11.68
  -3   1  -5  291.31   13.13
  -3   1  -5  247.06   11.12
  -3   1  -5  290.81   13.12
  -3   1  -5  285.31   10.36
  -3   1  -5  291.06   13.20
  -3   1  -5  286.71   13.12
  -3   1  -5  282.17   12.41
  -3   1  -4  211.10    9.88
  -3   1  -4  215.05    9.93
  -3   1  -4  216.76   10.00
  -3   1  -4  186.94   10.72
  -3   1  -4  210.80    7.96
  -3   1  -4  218.11    8.62
  -3   1  -4  208.27    9.57
  -3   1  -4  205.22    9.83
  -3   1  -4  203.06    8.96
  -3   1  -3  111.20    4.60
  -3   1  -3  106.39    4.86
  -3   1  -3  105.28    4.58
  -3   1  -3  113.02    6.58
  -3   1  -3  106.38    3.87
  -3   1  -3  115.35    5.88
  -3   1  -2  122.97    5.95
  -3   1  -2  125.10    6.76
  -3   1  -2  121.22    5.49
  -3   1  -2  120.81    5.46
  -3   1  -2  116.01    6.08
  -3   1  -2  118.74    4.56
  -3   1  -2  116.89    5.01
  -3   1  -2  115.58    4.12
  -3   1  -2  111.40    5.34
  -3   1  -2  122.20    5.48
  -3   1  -1  339.61   11.81
  -3   1  -1  327.64   12.79
  -3   1  -1  341.00   11.78
  -3   1  -1  335.65   11.82
  -3   1  -1  340.83   11.87
  -3   1  -1  317.73   13.85
  -3   1  -1  326.65   12.15
  -3   1   0  181.61    7.84
  -3   1   0  179.15    6.50
  -3   1   0  179.06    7.60
  -3   1   0  181.20    6.53
  -3   1   0  157.34    8.56
  -3   1   0  171.23    6.47
  -3   1   0  178.25    6.59
  -3   1   0  165.94    8.19
  -3   1   0  174.86    6.59
  -3   1   1   52.46    4.16
  -3   1   1   43.83    2.67
  -3   1   1   45.16    2.73
  -3   1   1   47.75    2.66
  -3   1   1   44.07    2.77
  -3   1   2  296.16   11.32
  -3   1   2  311.92   13.08
  -3   1   2  301.70   12.24
  -3   1   2  308.70   12.20
  -3   1   2  309.70   13.63
  -3   1   3  266.07   12.36
  -3   1   3  278.09   11.41
  -3   1   3  272.78   12.07
  -3   1   3  247.50   10.59
  -3   1   4  258.31   12.11
  -3   1   4  259.83   11.68
  -3   1   4  249.29   12.43
  -3   1   4  214.25   10.68
  -3   1   4  243.99   11.95
  -3   1   5   43.86    4.87
  -3   1   5   52.22    4.82
  -3   1   5   50.98    4.69
  -3   1   5   50.40    4.50
  -3   1   6   30.59    3.89
  -3   1   6   26.89    3.63
  -3   1   6   30.33    4.39
  -3   2  -8   46.98    4.76
  -3   2  -7    6.70    2.11
  -3   2  -7    4.72    1.44
  -3   2  -7    6.00    2.18
  -3   2  -7    4.16    1.86
  -3   2  -7    7.22    2.20
  -3   2  -6   10.66    1.84
  -3   2  -6   16.17    2.88
  -3   2  -6   12.25    2.59
  -3   2  -6    9.34    1.61
  -3   2  -6   12.58    2.57
  -3   2  -6   11.36    2.47
  -3   2  -5  156.31    8.93
  -3   2  -5  130.77    7.47
  -3   2  -5  157.18    8.99
  -3   2  -5  161.02    9.04
  -3   2  -5  144.90    6.82
  -3   2  -5  143.44    6.91
  -3   2  -5  166.93    7.67
  -3   2  -5  151.90    8.86
  -3   2  -4  144.85    6.66
  -3   2  -4  138.17    7.78
  -3   2  -4  151.91    8.07
  -3   2  -4  138.62    5.93
  -3   2  -4  141.64    6.15
  -3   2  -4  140.76    6.62
  -3   2  -4  158.14    8.18
  -3   2  -4  155.75    8.18
  -3   2  -4  136.44    6.69
  -3   2  -4  141.58    7.70
  -3   2  -4  151.32    8.05
  -3   2  -3  114.69    6.85
  -3   2  -3  122.24    6.69
  -3   2  -3  126.42    5.38
  -3   2  -3  116.10    6.42
  -3   2  -3  116.07    6.45
  -3   2  -3  117.73    6.44
  -3   2  -3  122.81    7.43
  -3   2  -3  122.45    4.57
  -3   2  -3  138.63    6.87
  -3   2  -3  118.04    5.20
  -3   2  -3  119.47    5.73
  -3   2  -2   26.36    2.54
  -3   2  -2   23.08    1.14
  -3   2  -2   24.90    2.13
  -3   2  -1    8.70    1.23
  -3   2  -1    7.77    1.14
  -3   2  -1    9.89    1.34
  -3   2  -1    9.16    1.73
  -3   2  -1    8.63    1.32
  -3   2  -1    9.42    1.30
  -3   2  -1    8.41    0.78
  -3   2   0   29.05    1.88
  -3   2   0   26.32    2.13
  -3   2   0   24.31    2.01
  -3   2   0   28.51    1.54
  -3   2   0   29.08    2.73
  -3   2   0   27.64    2.21
  -3   2   0   23.96    2.09
  -3   2   1   77.94    4.00
  -3   2   1   88.17    4.56
  -3   2   1   84.78    4.65
  -3   2   1   86.30    4.99
  -3   2   1   86.29    4.33
  -3   2   1   92.02    5.03
  -3   2   1   79.43    4.56
  -3   2   2   70.83    4.93
  -3   2   2   74.19    4.97
  -3   2   2   77.54    4.90
  -3   2   2   75.24    4.52
  -3   2   3   89.66    5.44
  -3   2   3   80.51    5.41
  -3   2   3  102.36    6.27
  -3   2   3   97.34    6.30
  -3   2   4   12.24    2.05
  -3   2   4   12.83    2.49
  -3   2   5    4.14    1.37
  -3   2   5    5.51    1.54
  -3   2   5    3.55    1.58
  -3   2   6   45.89    4.86
  -3   2   6   43.36    5.52
  -3   2   7   35.74    5.38
  -3   3  -8   58.07    5.50
  -3   3  -7    8.10    2.30
  -3   3  -7   12.24    2.89
  -3   3  -7    8.51    2.39
  -3   3  -7   11.75    2.83
  -3   3  -7   10.45    2.11
  -3   3  -6  183.72    9.51
  -3   3  -6  180.98   11.24
  -3   3  -6  189.05   11.41
  -3   3  -6  180.44   11.27
  -3   3  -6  175.22   11.07
  -3   3  -5   92.30    5.83
  -3   3  -5  111.74    6.25
  -3   3  -5   93.89    5.93
  -3   3  -5   95.70    5.31
  -3   3  -5  102.74    7.33
  -3   3  -5  105.15    7.36
  -3   3  -5  111.31    7.63
  -3   3  -5  119.95    7.79
  -3   3  -4  299.06   11.82
  -3   3  -4  285.71   10.94
  -3   3  -4  283.20   13.21
  -3   3  -4  290.85   13.44
  -3   3  -4  270.01   11.96
  -3   3  -4  274.49   10.66
  -3   3  -4  299.45   13.43
  -3   3  -4  302.52   13.51
  -3   3  -4  273.81   12.70
  -3   3  -3   26.56    2.88
  -3   3  -3   23.18    2.70
  -3   3  -3   22.46    2.63
  -3   3  -3   23.06    2.72
  -3   3  -3   21.67    2.32
  -3   3  -3   24.94    1.81
  -3   3  -3   25.96    1.62
  -3   3  -3   21.18    2.64
  -3   3  -3   22.10    2.77
  -3   3  -2   13.57    1.90
  -3   3  -2   12.77    1.85
  -3   3  -2    9.59    1.59
  -3   3  -2    9.51    0.74
  -3   3  -2   13.91    1.87
  -3   3  -2   10.94    0.76
  -3   3  -2   10.61    0.66
  -3   3  -2   11.57    1.59
  -3   3  -2    9.36    1.61
  -3   3  -2   12.02    2.06
  -3   3  -1  255.27   10.62
  -3   3  -1  240.19   10.68
  -3   3   0  107.39    5.86
  -3   3   0   98.59    4.06
  -3   3   0   89.35    5.35
  -3   3   0   97.63    5.52
  -3   3   0   98.42    4.68
  -3   3   1    7.44    1.38
  -3   3   1    8.19    1.07
  -3   3   1    8.59    1.42
  -3   3   2  187.95    8.78
  -3   3   2  198.40    9.71
  -3   3   2  196.77    9.43
  -3   3   2  208.58    9.19
  -3   3   2  184.75    9.45
  -3   3   3  345.25   15.92
  -3   3   3  379.52   15.94
  -3   3   3  362.69   14.67
  -3   3   4  150.52    8.20
  -3   3   4  139.30    9.28
  -3   3   4  141.94    9.11
  -3   3   5   72.20    5.67
  -3   3   5   57.99    6.06
  -3   3   6    3.23    1.32
  -3   3   6    5.79    2.35
  -3   4  -7   19.59    3.09
  -3   4  -6   11.11    2.62
  -3   4  -6   10.76    2.58
  -3   4  -6   12.57    2.78
  -3   4  -6   12.03    2.74
  -3   4  -6   11.34    2.18
  -3   4  -5   24.93    3.63
  -3   4  -5   22.12    2.73
  -3   4  -5   26.55    3.72
  -3   4  -5   26.63    3.66
  -3   4  -5   22.11    3.48
  -3   4  -5   23.49    2.87
  -3   4  -4   88.63    5.41
  -3   4  -4   83.19    4.44
  -3   4  -4   92.01    6.63
  -3   4  -4   87.94    6.58
  -3   4  -4   85.12    6.58
  -3   4  -4   83.33    6.06
  -3   4  -4   85.17    6.47
  -3   4  -3  278.17   13.01
  -3   4  -3  256.22   10.74
  -3   4  -3  277.51   13.24
  -3   4  -3  263.25   12.69
  -3   4  -3  281.52   10.28
  -3   4  -3  275.65   12.90
  -3   4  -3  264.73   12.99
  -3   4  -3  275.22   13.06
  -3   4  -3  269.09    9.95
  -3   4  -2   50.33    4.11
  -3   4  -2   42.69    3.92
  -3   4  -2   40.94    2.18
  -3   4  -2   45.70    2.32
  -3   4  -2   36.79    3.78
  -3   4  -2   34.17    3.50
  -3   4  -2   42.45    3.96
  -3   4  -1   33.78    1.76
  -3   4  -1   37.73    3.37
  -3   4  -1   40.80    3.75
  -3   4  -1   37.34    3.44
  -3   4  -1   35.08    3.44
  -3   4  -1   37.12    2.04
  -3   4  -1   36.67    3.57
  -3   4   0  207.69    7.72
  -3   4   0  204.22   10.11
  -3   4   0  202.36    9.96
  -3   4   0  203.51   10.06
  -3   4   0  204.70    9.78
  -3   4   0  201.21    9.24
  -3   4   0  190.82    8.58
  -3   4   0  194.10    9.36
  -3   4   1   57.38    4.60
  -3   4   1   57.24    4.10
  -3   4   1   48.35    3.56
  -3   4   1   52.93    4.50
  -3   4   1   55.45    4.35
  -3   4   2  210.43   10.89
  -3   4   2  214.02   10.64
  -3   4   2  209.37    9.19
  -3   4   2  215.66    9.78
  -3   4   2  205.39   10.80
  -3   4   3    2.47    0.85
  -3   4   3    1.91    1.01
  -3   4   3    1.97    0.97
  -3   4   4   16.37    2.38
  -3   4   4   14.76    2.91
  -3   4   4   13.91    2.73
  -3   4   5   24.80    3.26
  -3   4   5   22.01    3.80
  -3   4   5   17.28    3.50
  -3   4   6    4.59    2.02
  -3   4   6    3.81    1.39
  -3   5  -6  115.75    7.94
  -3   5  -5   50.65    5.62
  -3   5  -5   54.15    4.81
  -3   5  -5   60.59    6.15
  -3   5  -5   53.24    4.21
  -3   5  -5   65.93    6.41
  -3   5  -5   62.72    6.39
  -3   5  -4   65.85    5.78
  -3   5  -4   69.14    4.45
  -3   5  -4   73.56    6.38
  -3   5  -4   74.18    6.39
  -3   5  -4   82.91    6.79
  -3   5  -4   80.77    6.87
  -3   5  -4   81.19    6.78
  -3   5  -3    4.17    0.84
  -3   5  -3    4.73    1.48
  -3   5  -3    3.79    1.33
  -3   5  -3    3.27    1.29
  -3   5  -3    2.28    0.99
  -3   5  -3    4.83    1.51
  -3   5  -2    6.51    1.68
  -3   5  -2    5.28    1.42
  -3   5  -2    4.85    1.40
  -3   5  -2    4.81    0.77
  -3   5  -2    4.20    0.74
  -3   5  -2    4.08    1.31
  -3   5  -2    2.71    1.14
  -3   5  -1   40.79    2.37
  -3   5  -1   39.65    3.97
  -3   5  -1   33.41    2.37
  -3   5  -1   37.96    3.68
  -3   5  -1   36.42    4.03
  -3   5  -1   40.30    3.37
  -3   5  -1   33.38    3.78
  -3   5  -1   39.35    4.15
  -3   5   0    0.09    0.22
  -3   5   0   -0.16    0.48
  -3   5   0    0.01    0.39
  -3   5   0    0.08    0.19
  -3   5   0    0.32    0.45
  -3   5   0    0.59    0.44
  -3   5   0    0.18    0.44
  -3   5   0    0.44    0.40
  -3   5   1   14.97    1.65
  -3   5   1   13.05    2.24
  -3   5   1   11.05    1.82
  -3   5   1   10.54    2.14
  -3   5   1   13.30    2.38
  -3   5   2   63.45    4.55
  -3   5   2   69.39    5.63
  -3   5   2   58.92    4.09
  -3   5   2   56.04    5.33
  -3   5   2   60.99    5.57
  -3   5   3   63.41    6.23
  -3   5   3   77.99    6.49
  -3   5   3   84.31    5.40
  -3   5   3   75.48    6.60
  -3   5   4  185.46   11.42
  -3   5   4  162.56    9.11
  -3   5   4  154.85   11.04
  -3   5   5  103.85    9.01
  -3   5   5  100.46    9.18
  -3   5   5   92.68    6.90
  -3   6  -5    9.88    2.24
  -3   6  -4   96.50    8.03
  -3   6  -4   95.33    8.11
  -3   6  -4  103.76    8.14
  -3   6  -4   92.91    7.48
  -3   6  -4   93.52    7.99
  -3   6  -4   97.21    8.27
  -3   6  -3   59.20    5.64
  -3   6  -3   58.15    5.83
  -3   6  -3   50.20    5.37
  -3   6  -3   62.67    6.19
  -3   6  -3   49.57    5.49
  -3   6  -2   77.57    6.66
  -3   6  -2   75.13    6.70
  -3   6  -2   73.56    6.40
  -3   6  -2   71.73    5.99
  -3   6  -2   71.35    6.51
  -3   6  -1    8.53    2.10
  -3   6  -1    6.94    1.72
  -3   6  -1    6.26    1.87
  -3   6  -1    8.20    1.47
  -3   6  -1   11.55    2.37
  -3   6  -1    9.07    2.22
  -3   6   0   21.43    2.80
  -3   6   0   20.55    3.32
  -3   6   0   21.93    3.32
  -3   6   0   18.18    3.10
  -3   6   0   22.00    3.53
  -3   6   1   95.19    7.64
  -3   6   1   97.65    6.41
  -3   6   1  108.77    7.81
  -3   6   1  103.91    5.59
  -3   6   1  104.84    8.07
  -3   6   2   59.85    5.85
  -3   6   2   65.28    6.36
  -3   6   2   67.17    4.90
  -3   6   2   67.51    4.59
  -3   6   2   64.82    6.37
  -3   6   3   34.81    4.76
  -3   6   3   30.86    4.45
  -3   6   3   38.02    4.69
  -3   6   3   31.39    3.34
  -3   6   4    2.57    1.13
  -3   6   4    3.36    1.67
  -3   6   5   16.77    2.83
  -3   7  -3   77.59    6.97
  -3   7  -3   70.30    7.24
  -3   7  -3   67.46    7.01
  -3   7  -3   76.43    7.63
  -3   7  -3   72.24    7.40
  -3   7  -2   15.84    3.24
  -3   7  -2   14.71    3.00
  -3   7  -2   14.04    3.12
  -3   7  -2   15.51    2.85
  -3   7  -2   18.08    3.43
  -3   7  -1   21.05    3.76
  -3   7  -1   17.05    2.88
  -3   7  -1   18.66    3.52
  -3   7  -1   18.60    3.40
  -3   7  -1   22.36    3.92
  -3   7   0   93.60    6.83
  -3   7   0  101.12    8.64
  -3   7   0  108.59    8.76
  -3   7   0   98.37    8.18
  -3   7   0   95.03    8.31
  -3   7   1   10.50    2.02
  -3   7   1   12.25    2.81
  -3   7   1   10.70    2.58
  -3   7   1    6.04    2.09
  -3   7   2   36.98    5.27
  -3   7   2   46.02    5.68
  -3   7   2   46.21    5.55
  -3   7   3  197.69   12.92
  -3   7   3  202.06   13.54
  -3   7   3  178.87   12.98
  -3   8  -1   -0.12    0.84
  -2  -8   0   13.46    3.16
  -2  -8   1   88.01    7.95
  -2  -7  -4   44.29    5.70
  -2  -7  -4   53.49    5.96
  -2  -7  -4   58.15    6.16
  -2  -7  -4   48.52    5.46
  -2  -7  -3    6.57    1.98
  -2  -7  -3    1.05    1.13
  -2  -7  -3    3.96    1.77
  -2  -7  -3    3.26    1.43
  -2  -7  -2   11.44    2.62
  -2  -7  -2   14.19    2.83
  -2  -7  -2   14.05    2.24
  -2  -7  -2   15.30    3.16
  -2  -7  -2   14.94    2.89
  -2  -7  -1   13.27    2.98
  -2  -7  -1   14.51    2.92
  -2  -7  -1   15.03    2.86
  -2  -7  -1   15.02    2.89
  -2  -7   0    4.78    1.66
  -2  -7   0    6.66    1.98
  -2  -7   1   19.78    3.33
  -2  -7   1   15.97    3.10
  -2  -7   2   40.23    4.75
  -2  -7   2   47.90    5.74
  -2  -6  -6    2.15    1.39
  -2  -6  -5    9.10    2.45
  -2  -6  -5   12.44    2.68
  -2  -6  -5   10.24    2.53
  -2  -6  -5   10.65    1.84
  -2  -6  -5   13.25    2.74
  -2  -6  -4   18.21    3.23
  -2  -6  -4   16.86    2.98
  -2  -6  -4   23.84    3.82
  -2  -6  -3   29.03    3.87
  -2  -6  -3   29.94    3.76
  -2  -6  -3   17.58    3.30
  -2  -6  -3   25.80    2.22
  -2  -6  -3   25.75    3.47
  -2  -6  -2  165.09    9.84
  -2  -6  -2  164.08   10.68
  -2  -6  -2  173.72   10.04
  -2  -6  -2  168.58   10.25
  -2  -6  -1  181.56   10.30
  -2  -6  -1  177.53   10.87
  -2  -6  -1  171.50   10.39
  -2  -6   0  148.52    9.34
  -2  -6   0  122.77    8.41
  -2  -6   0  143.43    9.11
  -2  -6   1   51.28    5.09
  -2  -6   1   40.12    4.43
  -2  -6   2   18.70    2.90
  -2  -6   2   22.72    3.42
  -2  -6   3    0.92    0.54
  -2  -6   4    8.61    2.38
  -2  -5  -7    7.15    2.04
  -2  -5  -7    2.37    1.26
  -2  -5  -6    7.84    2.19
  -2  -5  -6    8.78    2.43
  -2  -5  -6   10.20    2.52
  -2  -5  -6    8.64    2.24
  -2  -5  -5  139.70    9.41
  -2  -5  -5  134.53    8.95
  -2  -5  -5  127.15    6.97
  -2  -5  -5  146.45    9.57
  -2  -5  -5  145.12    9.28
  -2  -5  -4   14.73    2.78
  -2  -5  -4   12.57    1.78
  -2  -5  -4    9.39    2.08
  -2  -5  -4   14.92    2.54
  -2  -5  -3   15.97    2.58
  -2  -5  -3   10.78    2.06
  -2  -5  -3   15.20    2.70
  -2  -5  -3   14.64    1.27
  -2  -5  -3   15.54    1.45
  -2  -5  -2   61.09    5.16
  -2  -5  -2   59.82    5.48
  -2  -5  -2   70.75    5.26
  -2  -5  -2   60.67    4.08
  -2  -5  -2   67.67    5.20
  -2  -5  -1   24.29    3.27
  -2  -5  -1   24.96    3.14
  -2  -5  -1   28.38    3.21
  -2  -5   0   17.57    1.63
  -2  -5   0   18.79    2.75
  -2  -5   0   20.69    2.75
  -2  -5   0   18.66    2.69
  -2  -5   1   33.20    3.08
  -2  -5   1   31.84    3.55
  -2  -5   1   38.41    3.99
  -2  -5   2   52.72    4.99
  -2  -5   2   49.30    4.49
  -2  -5   2   50.97    4.44
  -2  -5   2   55.60    3.40
  -2  -5   3   69.35    6.08
  -2  -5   3   72.38    4.13
  -2  -5   3   71.65    5.24
  -2  -5   4   71.19    6.12
  -2  -5   4   69.87    6.47
  -2  -5   5    1.10    0.89
  -2  -5   5    1.43    1.10
  -2  -4  -7    1.77    1.15
  -2  -4  -7    4.88    1.82
  -2  -4  -7    1.92    1.23
  -2  -4  -6   37.26    4.27
  -2  -4  -6   40.81    3.09
  -2  -4  -6   34.43    4.46
  -2  -4  -6   38.52    4.61
  -2  -4  -6   42.85    4.80
  -2  -4  -5   45.67    4.71
  -2  -4  -5   50.34    3.44
  -2  -4  -5   56.05    5.19
  -2  -4  -5   48.20    4.71
  -2  -4  -5   52.25    4.91
  -2  -4  -4   19.14    2.62
  -2  -4  -4   14.76    2.28
  -2  -4  -4   11.24    1.52
  -2  -4  -4    8.33    1.90
  -2  -4  -4   13.45    2.27
  -2  -4  -3  234.11   12.00
  -2  -4  -3  256.35   11.76
  -2  -4  -3  226.49    8.50
  -2  -4  -3  271.63   11.60
  -2  -4  -2   92.27    6.23
  -2  -4  -2   95.40    4.92
  -2  -4  -2   98.54    5.99
  -2  -4  -2   98.17    6.23
  -2  -4  -2   96.38    6.66
  -2  -4  -2   96.35    6.45
  -2  -4  -2  101.77    6.38
  -2  -4  -2  109.77    4.73
  -2  -4  -2  116.49    6.40
  -2  -4  -2   94.76    6.43
  -2  -4  -1  257.92   11.60
  -2  -4  -1  294.38   12.10
  -2  -4  -1  275.52   11.76
  -2  -4  -1  247.76   11.61
  -2  -4  -1  252.80   11.85
  -2  -4  -1  261.11   11.90
  -2  -4  -1  247.53   12.22
  -2  -4  -1  271.81   11.92
  -2  -4   0  135.88    7.26
  -2  -4   0  130.06    5.87
  -2  -4   0  134.12    7.19
  -2  -4   0  144.69    7.83
  -2  -4   0  125.86    7.29
  -2  -4   0  124.10    7.19
  -2  -4   0  135.97    7.32
  -2  -4   0  150.65    7.90
  -2  -4   0  130.35    7.19
  -2  -4   1  142.67    7.52
  -2  -4   1  146.51    7.52
  -2  -4   1  121.72    6.85
  -2  -4   1  129.55    7.45
  -2  -4   1  134.78    7.33
  -2  -4   1  118.17    7.45
  -2  -4   1  144.46    7.51
  -2  -4   2   64.24    3.29
  -2  -4   2   59.88    4.59
  -2  -4   2   57.80    4.54
  -2  -4   2   58.05    4.51
  -2  -4   2   57.51    4.78
  -2  -4   2   55.27    4.31
  -2  -4   2   63.91    4.73
  -2  -4   3   14.60    2.54
  -2  -4   3   21.84    2.84
  -2  -4   3   12.61    1.98
  -2  -4   3   19.09    1.77
  -2  -4   4    6.33    1.69
  -2  -4   4    3.87    1.41
  -2  -4   4    4.76    1.09
  -2  -4   4    5.07    0.98
  -2  -4   5   25.76    3.87
  -2  -4   5   21.77    3.35
  -2  -4   6    1.97    1.16
  -2  -3  -7   42.74    4.02
  -2  -3  -7   37.19    4.62
  -2  -3  -7   49.21    5.32
  -2  -3  -7   35.62    4.56
  -2  -3  -6   32.91    3.98
  -2  -3  -6   36.97    2.65
  -2  -3  -6   36.81    3.73
  -2  -3  -6   38.43    4.30
  -2  -3  -5   14.09    2.31
  -2  -3  -5   14.26    2.19
  -2  -3  -5   11.37    1.33
  -2  -3  -5   10.96    2.08
  -2  -3  -4   98.19    6.18
  -2  -3  -4   98.74    6.28
  -2  -3  -4  103.64    6.36
  -2  -3  -4  100.25    4.61
  -2  -3  -4   94.59    6.29
  -2  -3  -3   34.67    3.14
  -2  -3  -3   37.56    3.52
  -2  -3  -3   34.31    3.26
  -2  -3  -3   33.73    2.26
  -2  -3  -3   36.30    3.26
  -2  -3  -3   33.82    3.08
  -2  -3  -3   30.48    2.78
  -2  -3  -3   38.43    3.54
  -2  -3  -3   33.46    3.41
  -2  -3  -2   25.04    2.53
  -2  -3  -2   25.80    1.88
  -2  -3  -2   28.16    2.65
  -2  -3  -2   26.76    2.88
  -2  -3  -2   27.61    2.74
  -2  -3  -2   25.43    2.51
  -2  -3  -2   27.62    2.46
  -2  -3  -2   26.96    2.73
  -2  -3  -2   27.87    2.69
  -2  -3  -1    4.22    0.99
  -2  -3  -1    5.84    1.17
  -2  -3  -1    7.86    1.46
  -2  -3  -1    8.23    1.29
  -2  -3  -1    6.86    0.97
  -2  -3  -1    8.78    1.44
  -2  -3  -1    7.93    1.19
  -2  -3  -1    8.85    1.32
  -2  -3  -1    9.94    1.46
  -2  -3  -1    7.12    1.26
  -2  -3  -1    6.24    1.16
  -2  -3   0   36.57    2.80
  -2  -3   0   35.74    2.40
  -2  -3   0   38.30    3.08
  -2  -3   0   35.35    2.82
  -2  -3   0   34.86    3.12
  -2  -3   0   35.15    3.07
  -2  -3   0   35.75    3.01
  -2  -3   0   36.13    2.81
  -2  -3   0   35.68    2.74
  -2  -3   1   19.81    2.04
  -2  -3   1   17.28    1.99
  -2  -3   1   15.35    1.84
  -2  -3   1   18.21    2.09
  -2  -3   1   17.91    2.20
  -2  -3   1   17.22    1.94
  -2  -3   1   16.68    1.90
  -2  -3   2  126.96    6.60
  -2  -3   2  125.96    7.31
  -2  -3   2  120.01    6.35
  -2  -3   2  122.32    6.48
  -2  -3   2  114.22    6.87
  -2  -3   2  126.98    4.98
  -2  -3   2  127.78    6.57
  -2  -3   2  119.09    6.64
  -2  -3   2  122.74    6.46
  -2  -3   3   10.95    1.79
  -2  -3   3    8.68    1.66
  -2  -3   3    7.70    1.31
  -2  -3   3    9.27    1.82
  -2  -3   3    8.67    1.61
  -2  -3   3    9.97    1.15
  -2  -3   3    8.46    1.59
  -2  -3   4   38.29    4.10
  -2  -3   4   31.87    3.56
  -2  -3   5   18.45    3.05
  -2  -3   5   21.68    3.18
  -2  -3   5   20.08    3.52
  -2  -3   6   10.00    2.73
  -2  -3   6    9.62    2.32
  -2  -2  -8    1.32    0.97
  -2  -2  -8    2.18    1.13
  -2  -2  -8    3.02    1.42
  -2  -2  -8    2.77    1.25
  -2  -2  -7   19.20    2.87
  -2  -2  -7   18.25    2.19
  -2  -2  -7   23.68    3.52
  -2  -2  -7   25.93    3.65
  -2  -2  -7   24.40    3.55
  -2  -2  -6   14.41    2.29
  -2  -2  -6   13.81    1.49
  -2  -2  -6   18.58    2.21
  -2  -2  -6   16.36    1.56
  -2  -2  -6   14.06    2.50
  -2  -2  -6   20.67    2.97
  -2  -2  -6   17.42    2.70
  -2  -2  -5   23.97    2.94
  -2  -2  -5   23.60    2.52
  -2  -2  -5   22.12    1.66
  -2  -2  -5   23.48    2.87
  -2  -2  -5   22.54    1.63
  -2  -2  -5   17.79    2.30
  -2  -2  -4   48.85    2.45
  -2  -2  -4   61.49    4.33
  -2  -2  -4   52.60    3.89
  -2  -2  -4   57.83    4.63
  -2  -2  -4   53.31    2.54
  -2  -2  -4   57.44    4.06
  -2  -2  -4   52.91    4.08
  -2  -2  -4   49.20    4.48
  -2  -2  -4   46.38    4.41
  -2  -2  -4   60.82    4.30
  -2  -2  -3  283.55   12.16
  -2  -2  -3  267.65   11.30
  -2  -2  -3  277.48   11.75
  -2  -2  -3  276.90   11.84
  -2  -2  -3  285.03    9.58
  -2  -2  -3  275.61   11.50
  -2  -2  -3  276.73    9.44
  -2  -2  -3  281.45   12.17
  -2  -2  -2   77.72    4.20
  -2  -2  -2   73.52    4.47
  -2  -2  -2   72.34    4.63
  -2  -2  -2   94.15    4.31
  -2  -2  -2   74.55    4.38
  -2  -2  -2   87.38    4.53
  -2  -2  -2   82.56    4.46
  -2  -2  -2   74.21    4.06
  -2  -2  -2   82.20    3.65
  -2  -2  -2   70.43    4.35
  -2  -2  -1  356.57   13.40
  -2  -2  -1  399.80   13.48
  -2  -2  -1  397.65   14.33
  -2  -2  -1  376.39   13.31
  -2  -2  -1  334.03   13.07
  -2  -2  -1  363.81   13.61
  -2  -2  -1  378.03   13.45
  -2  -2  -1  387.29   13.78
  -2  -2  -1  365.14   13.11
  -2  -2  -1  322.09   12.53
  -2  -2  -1  383.93   13.30
  -2  -2  -1  372.73   13.42
  -2  -2   0   65.58    3.34
  -2  -2   0   61.28    3.79
  -2  -2   0   61.95    3.83
  -2  -2   0   59.55    3.35
  -2  -2   0   66.02    3.84
  -2  -2   0   69.02    3.43
  -2  -2   0   65.52    3.96
  -2  -2   0   60.66    3.30
  -2  -2   0   65.05    3.42
  -2  -2   1  330.18   11.96
  -2  -2   1  322.24   11.95
  -2  -2   1  319.99   12.49
  -2  -2   1  322.09   11.95
  -2  -2   1  320.43   11.91
  -2  -2   1  325.32   12.74
  -2  -2   2   50.55    3.77
  -2  -2   2   44.32    3.09
  -2  -2   2   40.92    3.74
  -2  -2   2   46.67    3.11
  -2  -2   2   43.12    3.30
  -2  -2   2   40.38    2.95
  -2  -2   2   42.35    2.99
  -2  -2   3   60.45    4.38
  -2  -2   3   65.46    4.32
  -2  -2   3   69.70    4.99
  -2  -2   3   61.11    5.28
  -2  -2   3   61.76    4.23
  -2  -2   3   61.86    4.22
  -2  -2   4   11.38    1.96
  -2  -2   4    6.53    1.62
  -2  -2   4   13.72    2.47
  -2  -2   4   10.54    1.81
  -2  -2   4   10.17    1.81
  -2  -2   4   10.32    1.78
  -2  -2   5    3.09    1.24
  -2  -2   5    2.11    1.06
  -2  -2   6   19.35    3.34
  -2  -2   6   18.23    3.05
  -2  -2   7    5.24    1.76
  -2  -1  -8  135.28    8.95
  -2  -1  -8  125.02    9.45
  -2  -1  -8  137.33    9.83
  -2  -1  -8  139.96    9.83
  -2  -1  -7    1.10    0.93
  -2  -1  -7    2.97    0.75
  -2  -1  -7    3.13    1.38
  -2  -1  -7    2.02    0.93
  -2  -1  -7    4.82    1.61
  -2  -1  -6   29.24    3.14
  -2  -1  -6   32.46    3.73
  -2  -1  -6   34.73    2.63
  -2  -1  -6   28.94    2.13
  -2  -1  -6   28.85    3.54
  -2  -1  -6   30.30    3.61
  -2  -1  -5  199.85    9.87
  -2  -1  -5  199.67    8.07
  -2  -1  -5  192.83    8.16
  -2  -1  -5  187.92    8.81
  -2  -1  -5  168.94    6.93
  -2  -1  -5  190.66    9.79
  -2  -1  -5  201.82    9.94
  -2  -1  -4   52.63    3.56
  -2  -1  -4   59.70    4.30
  -2  -1  -4   56.93    3.21
  -2  -1  -4   58.08    2.44
  -2  -1  -4   54.34    4.77
  -2  -1  -4   63.18    4.41
  -2  -1  -4   62.05    4.22
  -2  -1  -4   54.12    3.50
  -2  -1  -4   61.33    4.81
  -2  -1  -4   63.18    4.17
  -2  -1  -4   55.02    4.13
  -2  -1  -3    1.00    0.38
  -2  -1  -3    1.37    0.51
  -2  -1  -3    1.13    0.60
  -2  -1  -3    0.76    0.41
  -2  -1  -3    0.49    0.45
  -2  -1  -3    1.07    0.34
  -2  -1  -3    2.24    0.69
  -2  -1  -2  108.11    5.36
  -2  -1  -2  114.02    5.06
  -2  -1  -2  114.20    4.46
  -2  -1  -2  102.34    5.23
  -2  -1  -2  116.01    4.90
  -2  -1  -2  110.09    5.24
  -2  -1  -2  106.34    4.99
  -2  -1  -2  105.14    5.01
  -2  -1  -2   98.96    4.81
  -2  -1  -2  112.62    4.50
  -2  -1  -1   25.07    1.49
  -2  -1  -1   24.61    1.50
  -2  -1  -1   22.54    1.68
  -2  -1  -1   19.04    1.84
  -2  -1  -1   23.16    1.74
  -2  -1  -1   22.98    1.61
  -2  -1  -1   24.00    1.79
  -2  -1  -1   26.59    1.53
  -2  -1  -1   24.59    1.62
  -2  -1  -1   25.35    1.58
  -2  -1  -1   21.18    1.55
  -2  -1   0   35.96    1.73
  -2  -1   0   36.26    2.56
  -2  -1   0   33.92    2.33
  -2  -1   0   34.53    2.23
  -2  -1   0   37.54    1.75
  -2  -1   0   40.45    2.62
  -2  -1   0   36.59    2.60
  -2  -1   0   36.15    1.75
  -2  -1   0   33.39    1.70
  -2  -1   0   37.21    2.35
  -2  -1   1   35.98    1.99
  -2  -1   1   36.91    2.00
  -2  -1   1   35.74    2.70
  -2  -1   1   34.34    2.71
  -2  -1   1   39.77    2.71
  -2  -1   1   34.97    1.98
  -2  -1   1   34.04    2.41
  -2  -1   2   25.22    2.04
  -2  -1   2   26.76    2.09
  -2  -1   2   27.47    2.81
  -2  -1   2   29.12    2.15
  -2  -1   2   27.56    2.63
  -2  -1   3  146.14    7.84
  -2  -1   3  160.49    8.72
  -2  -1   3  140.65    6.97
  -2  -1   3  144.54    7.27
  -2  -1   3  130.75    6.83
  -2  -1   3  142.61    7.82
  -2  -1   4   88.25    5.66
  -2  -1   4   77.03    5.75
  -2  -1   4   72.97    5.14
  -2  -1   4   77.62    5.21
  -2  -1   5   16.57    2.54
  -2  -1   5   12.14    2.33
  -2  -1   6   57.30    5.44
  -2  -1   6   62.77    5.76
  -2  -1   7   87.50    7.35
  -2   0  -8   10.91    2.26
  -2   0  -8    6.01    1.97
  -2   0  -8    8.82    2.28
  -2   0  -8   10.43    2.49
  -2   0  -7    6.84    1.91
  -2   0  -7    8.04    2.07
  -2   0  -7    7.82    1.73
  -2   0  -7    6.29    1.86
  -2   0  -7    6.52    1.12
  -2   0  -6   16.55    2.61
  -2   0  -6   13.32    2.00
  -2   0  -6   14.17    2.46
  -2   0  -6   12.81    1.45
  -2   0  -6   18.29    2.76
  -2   0  -5    6.53    1.46
  -2   0  -5    3.20    0.86
  -2   0  -5    3.49    1.06
  -2   0  -5    4.48    0.77
  -2   0  -5    5.51    0.83
  -2   0  -5    6.07    1.35
  -2   0  -5    3.87    1.16
  -2   0  -4   10.79    1.39
  -2   0  -4    9.42    1.63
  -2   0  -4   11.89    0.99
  -2   0  -4    9.22    1.94
  -2   0  -4    9.79    1.20
  -2   0  -4    9.28    1.50
  -2   0  -4    9.18    1.87
  -2   0  -4   12.54    1.82
  -2   0  -4    9.62    1.51
  -2   0  -4   11.14    1.72
  -2   0  -3   27.08    2.11
  -2   0  -3   26.95    2.80
  -2   0  -3   25.43    1.89
  -2   0  -3   29.91    1.37
  -2   0  -3   27.75    2.97
  -2   0  -3   28.57    2.49
  -2   0  -3   28.71    2.47
  -2   0  -3   28.58    2.48
  -2   0  -3   25.05    2.02
  -2   0  -3   29.15    2.27
  -2   0  -2  357.91   11.88
  -2   0  -2  363.02   12.62
  -2   0  -2  346.25   12.77
  -2   0  -2  351.55   12.41
  -2   0  -2  336.99   13.50
  -2   0  -2  379.35   13.14
  -2   0  -2  353.56   13.50
  -2   0  -2  348.84   12.78
  -2   0  -2  345.41   12.77
  -2   0  -2  354.11   12.79
  -2   0  -2  355.64   11.43
  -2   0  -1  616.93   22.52
  -2   0  -1  610.75   21.15
  -2   0  -1  648.73   22.28
  -2   0  -1  595.19   21.38
  -2   0  -1  670.15   21.04
  -2   0  -1  655.24   21.13
  -2   0  -1  659.20   21.04
  -2   0  -1  677.90   21.05
  -2   0  -1  670.19   20.79
  -2   0  -1  638.00   21.66
  -2   0   0  893.00   31.30
  -2   0   0  979.42   31.28
  -2   0   0  950.38   30.60
  -2   0   0 1000.00   32.20
  -2   0   1  120.52    5.75
  -2   0   1  123.73    5.96
  -2   0   1  117.71    5.13
  -2   0   1  132.31    5.06
  -2   0   1  118.71    4.57
  -2   0   1  116.84    4.54
  -2   0   1  116.61    5.79
  -2   0   2   42.06    2.90
  -2   0   2   40.27    2.58
  -2   0   2   36.36    2.91
  -2   0   2   42.61    3.41
  -2   0   2   39.72    2.96
  -2   0   2   41.54    2.59
  -2   0   3   56.01    4.61
  -2   0   3   59.95    4.08
  -2   0   3   53.21    3.78
  -2   0   3   55.34    4.28
  -2   0   3   53.49    3.64
  -2   0   3   50.72    3.93
  -2   0   3   55.56    3.66
  -2   0   3   56.35    3.74
  -2   0   4    6.34    1.37
  -2   0   4    4.83    1.17
  -2   0   4    5.27    1.28
  -2   0   4    5.77    1.28
  -2   0   4    3.54    1.17
  -2   0   4    3.72    0.89
  -2   0   5    8.65    1.78
  -2   0   5    7.76    2.02
  -2   0   5    6.64    1.17
  -2   0   5    9.01    1.84
  -2   0   6   15.81    2.63
  -2   0   6   19.55    2.98
  -2   0   7    6.92    1.96
  -2   0   7    4.73    1.60
  -2   1  -8   87.90    7.94
  -2   1  -8   84.92    7.73
  -2   1  -8   89.84    6.99
  -2   1  -8   95.02    8.18
  -2   1  -8   93.68    8.13
  -2   1  -7   10.69    2.46
  -2   1  -7    7.68    1.74
  -2   1  -7    9.54    2.32
  -2   1  -7    5.32    1.80
  -2   1  -7    8.52    2.25
  -2   1  -6    3.86    1.33
  -2   1  -6    3.50    0.77
  -2   1  -6    4.72    1.21
  -2   1  -6    6.21    1.67
  -2   1  -6    4.77    1.48
  -2   1  -6    6.64    1.75
  -2   1  -5  175.65    9.28
  -2   1  -5  197.26   10.22
  -2   1  -5  202.47   10.23
  -2   1  -5  184.06    7.54
  -2   1  -5  212.66   10.54
  -2   1  -5  195.04    8.27
  -2   1  -5  182.47    8.69
  -2   1  -5  199.82    9.12
  -2   1  -5  214.09   10.46
  -2   1  -4   17.77    2.30
  -2   1  -4   16.32    1.78
  -2   1  -4   13.25    1.81
  -2   1  -4   13.74    2.08
  -2   1  -4   12.86    1.09
  -2   1  -4   12.63    1.38
  -2   1  -4   13.95    2.52
  -2   1  -4   14.05    1.62
  -2   1  -4   13.90    2.06
  -2   1  -4   14.28    2.10
  -2   1  -3  231.66    8.73
  -2   1  -3  233.02   10.82
  -2   1  -3  199.04    8.13
  -2   1  -3  235.80    8.51
  -2   1  -3  218.15    8.93
  -2   1  -2  198.06    7.14
  -2   1  -2  185.38    7.82
  -2   1  -2  191.67    6.98
  -2   1  -2  197.86    7.97
  -2   1  -2  196.69    7.91
  -2   1  -2  194.31    6.49
  -2   1  -2  187.93    7.83
  -2   1  -2  176.49    8.47
  -2   1  -2  189.71    8.25
  -2   1  -2  184.39    7.10
  -2   1  -2  194.84    7.90
  -2   1  -1  121.41    4.98
  -2   1  -1  115.89    4.89
  -2   1  -1  118.51    4.93
  -2   1  -1  107.68    4.75
  -2   1  -1  118.20    5.27
  -2   1  -1  118.37    4.93
  -2   1   0  212.66    7.51
  -2   1   0  217.76    7.86
  -2   1   0  226.89    7.92
  -2   1   0  215.69    7.40
  -2   1   0  224.51    7.83
  -2   1   0  212.15    8.24
  -2   1   0  211.61    8.78
  -2   1   0  226.53    7.92
  -2   1   0  215.34    8.45
  -2   1   1  165.27    6.60
  -2   1   1  163.30    6.60
  -2   1   1  154.93    6.41
  -2   1   1  165.20    7.17
  -2   1   1  170.50    6.55
  -2   1   1  157.59    6.82
  -2   1   2  231.07    9.27
  -2   1   2  242.75    9.27
  -2   1   2  227.44    9.75
  -2   1   2  229.93    9.62
  -2   1   2  213.91    8.84
  -2   1   2  243.86    9.73
  -2   1   3   45.59    3.56
  -2   1   3   46.94    3.43
  -2   1   3   33.99    2.96
  -2   1   3   37.48    3.71
  -2   1   4  183.65    9.04
  -2   1   4  198.37   10.46
  -2   1   4  190.19    9.16
  -2   1   5   14.69    2.41
  -2   1   5   16.10    2.34
  -2   1   5   17.25    3.07
  -2   1   6   23.02    3.04
  -2   1   6   24.10    3.33
  -2   1   6   26.46    4.22
  -2   1   7  102.35    7.86
  -2   1   7  103.04    9.38
  -2   2  -8   21.29    3.29
  -2   2  -7    9.55    2.41
  -2   2  -7   10.31    2.50
  -2   2  -7    9.22    2.46
  -2   2  -7   11.09    2.64
  -2   2  -7   10.30    2.13
  -2   2  -6   45.94    4.04
  -2   2  -6   47.61    4.90
  -2   2  -6   44.91    4.80
  -2   2  -6   35.40    3.32
  -2   2  -6   48.09    4.93
  -2   2  -6   40.37    4.55
  -2   2  -5   41.14    4.17
  -2   2  -5   40.93    4.20
  -2   2  -5   40.88    3.29
  -2   2  -5   40.75    3.26
  -2   2  -5   50.61    4.60
  -2   2  -5   43.58    3.58
  -2   2  -5   43.13    3.48
  -2   2  -5   46.32    4.40
  -2   2  -4   18.02    1.96
  -2   2  -4   11.60    1.95
  -2   2  -4   17.92    2.36
  -2   2  -4   17.94    1.83
  -2   2  -4   14.59    2.58
  -2   2  -4   16.55    1.70
  -2   2  -4   14.05    2.12
  -2   2  -4   18.06    2.38
  -2   2  -3  302.86   10.91
  -2   2  -3  283.52   12.32
  -2   2  -3  300.41   12.49
  -2   2  -3  293.48   11.32
  -2   2  -3  284.75   12.33
  -2   2  -3  290.58   12.37
  -2   2  -3  315.19   13.63
  -2   2  -3  318.70   11.64
  -2   2  -3  301.68   10.99
  -2   2  -3  301.36   11.96
  -2   2  -2   55.70    3.58
  -2   2  -2   57.92    2.71
  -2   2  -2   52.73    3.49
  -2   2  -2   53.64    2.45
  -2   2  -2   53.71    3.19
  -2   2  -2   49.78    3.46
  -2   2  -2   53.14    3.68
  -2   2  -2   52.11    3.50
  -2   2  -1  274.79   10.70
  -2   2  -1  268.60    9.01
  -2   2  -1  271.22   10.50
  -2   2  -1  286.24   10.88
  -2   2  -1  275.54   10.83
  -2   2  -1  281.67    9.01
  -2   2  -1  298.47   10.81
  -2   2  -1  281.26   10.80
  -2   2   0  108.47    5.26
  -2   2   0  119.53    5.49
  -2   2   0  112.34    5.34
  -2   2   0  114.27    5.22
  -2   2   0  117.42    5.36
  -2   2   0  123.00    4.32
  -2   2   0  106.06    5.24
  -2   2   0  107.81    4.65
  -2   2   0  107.19    5.28
  -2   2   1  324.48   12.52
  -2   2   1  349.81   12.47
  -2   2   1  344.17   11.73
  -2   2   1  331.66   12.29
  -2   2   1  297.25   11.75
  -2   2   1  327.07   12.60
  -2   2   2  165.46    7.93
  -2   2   2  166.01    7.72
  -2   2   2  159.77    7.55
  -2   2   3   41.48    3.30
  -2   2   3   35.94    3.60
  -2   2   3   39.73    3.65
  -2   2   3   43.75    3.77
  -2   2   3   40.38    3.27
  -2   2   3   40.43    3.17
  -2   2   4   33.88    3.20
  -2   2   4   31.12    3.71
  -2   2   4   27.28    3.41
  -2   2   4   31.52    3.21
  -2   2   5   49.59    4.39
  -2   2   5   45.30    5.05
  -2   2   5   52.36    4.21
  -2   2   6   10.37    2.67
  -2   2   6    8.71    1.72
  -2   2   6    8.64    1.96
  -2   2   7   17.00    3.92
  -2   2   7   17.02    2.99
  -2   3  -7   51.75    5.88
  -2   3  -7   46.92    5.64
  -2   3  -7   51.91    6.02
  -2   3  -7   50.38    5.92
  -2   3  -7   54.08    5.12
  -2   3  -6    4.82    1.61
  -2   3  -6    9.54    1.95
  -2   3  -6    8.02    2.17
  -2   3  -6    7.43    2.07
  -2   3  -6    9.38    2.28
  -2   3  -5    0.15    0.57
  -2   3  -5    1.58    0.72
  -2   3  -5    0.96    0.50
  -2   3  -5    0.92    0.58
  -2   3  -5    0.97    0.77
  -2   3  -5    1.31    0.82
  -2   3  -5    0.73    0.51
  -2   3  -4  149.25    6.90
  -2   3  -4  150.57    7.48
  -2   3  -4  153.47    8.63
  -2   3  -4  141.97    7.50
  -2   3  -4  146.18    8.49
  -2   3  -4  155.11    8.62
  -2   3  -4  150.44    8.54
  -2   3  -4  147.18    7.21
  -2   3  -3   28.73    2.11
  -2   3  -3   30.12    3.03
  -2   3  -3   24.70    2.76
  -2   3  -3   30.13    2.72
  -2   3  -3   27.65    2.95
  -2   3  -3   29.92    2.38
  -2   3  -3   33.79    3.27
  -2   3  -3   28.07    2.71
  -2   3  -2  115.48    5.40
  -2   3  -2  114.53    6.38
  -2   3  -2  119.48    4.85
  -2   3  -2  115.93    6.37
  -2   3  -2  118.18    4.99
  -2   3  -2  120.37    6.06
  -2   3  -2  114.11    6.47
  -2   3  -2  111.60    6.37
  -2   3  -1   41.36    3.12
  -2   3  -1   46.45    2.26
  -2   3  -1   41.47    2.21
  -2   3   0   24.94    2.14
  -2   3   0   25.78    2.06
  -2   3   0   21.42    1.40
  -2   3   1  134.86    5.22
  -2   3   1  139.62    5.18
  -2   3   1  129.25    5.64
  -2   3   2   89.53    5.05
  -2   3   2   96.90    5.75
  -2   3   2   96.53    5.93
  -2   3   2   94.96    4.93
  -2   3   2   92.94    5.42
  -2   3   2  101.88    6.06
  -2   3   3   60.17    4.33
  -2   3   3   64.86    4.98
  -2   3   3   67.93    4.32
  -2   3   3   66.59    5.21
  -2   3   4   13.59    2.00
  -2   3   4   13.38    2.44
  -2   3   4   11.66    2.42
  -2   3   5   15.83    3.07
  -2   3   5   14.00    2.97
  -2   3   5   13.92    2.25
  -2   3   6   16.85    3.54
  -2   3   6   23.71    3.25
  -2   3   7   37.76    5.76
  -2   4  -7    6.52    1.89
  -2   4  -6    7.24    1.77
  -2   4  -6    4.78    1.79
  -2   4  -6   11.17    2.58
  -2   4  -6    6.51    2.05
  -2   4  -6    7.00    2.18
  -2   4  -5   12.01    2.46
  -2   4  -5   18.06    2.54
  -2   4  -5    8.53    2.09
  -2   4  -5   16.78    2.91
  -2   4  -5   12.24    1.68
  -2   4  -5   12.35    2.55
  -2   4  -4   21.51    3.03
  -2   4  -4   22.03    3.05
  -2   4  -4   20.50    2.50
  -2   4  -4   16.81    2.69
  -2   4  -4   14.85    2.08
  -2   4  -4   22.73    3.16
  -2   4  -4   17.10    1.97
  -2   4  -3   33.01    3.61
  -2   4  -3   36.95    2.69
  -2   4  -3   29.70    3.37
  -2   4  -3   35.64    3.77
  -2   4  -3   43.43    4.08
  -2   4  -2  223.66   10.81
  -2   4  -2  226.92   10.75
  -2   4  -2  219.22   10.96
  -2   4  -2  222.58    8.76
  -2   4  -2  210.50   10.15
  -2   4  -2  218.33    8.85
  -2   4  -2  230.10   11.01
  -2   4  -1  277.42   11.96
  -2   4  -1  260.18   11.78
  -2   4  -1  286.25   12.34
  -2   4  -1  261.39   12.38
  -2   4  -1  286.62   10.33
  -2   4  -1  257.69   10.28
  -2   4  -1  285.37   12.58
  -2   4  -1  285.97   12.48
  -2   4   0  557.55   19.90
  -2   4   0  539.60   20.83
  -2   4   0  578.16   20.84
  -2   4   0  481.30   20.02
  -2   4   0  535.07   19.12
  -2   4   0  565.25   21.17
  -2   4   0  558.45   21.11
  -2   4   0  535.46   18.61
  -2   4   1  177.90    7.46
  -2   4   1  153.95    8.96
  -2   4   1  181.13    9.09
  -2   4   1  175.99    9.42
  -2   4   1  170.57    7.85
  -2   4   1  173.87    8.08
  -2   4   2   64.72    4.43
  -2   4   2   72.72    5.53
  -2   4   2   71.11    5.29
  -2   4   2   69.52    4.17
  -2   4   2   62.94    4.02
  -2   4   2   74.21    5.57
  -2   4   3   19.87    3.00
  -2   4   3   24.41    3.14
  -2   4   3   19.76    2.94
  -2   4   3   25.62    2.55
  -2   4   4    9.22    2.25
  -2   4   4   14.44    2.70
  -2   4   4   12.67    1.97
  -2   4   5    7.54    2.38
  -2   4   5    8.01    2.37
  -2   4   5   12.28    2.20
  -2   4   6    7.42    2.62
  -2   4   6    3.06    1.12
  -2   4   6    3.60    1.78
  -2   5  -6    6.27    2.33
  -2   5  -6    9.38    2.19
  -2   5  -6    5.72    2.15
  -2   5  -6    5.25    2.02
  -2   5  -6    5.28    2.11
  -2   5  -5  110.71    8.69
  -2   5  -5  115.65    8.97
  -2   5  -5  113.12    7.07
  -2   5  -5  100.85    8.27
  -2   5  -5  119.49    9.01
  -2   5  -5  116.24    7.67
  -2   5  -4   14.72    2.78
  -2   5  -4   22.01    3.40
  -2   5  -4   18.98    3.09
  -2   5  -4   21.77    2.52
  -2   5  -4   19.89    3.26
  -2   5  -4   21.73    2.81
  -2   5  -3   80.77    6.46
  -2   5  -3   79.66    4.79
  -2   5  -3   82.86    6.43
  -2   5  -3   83.65    6.35
  -2   5  -3   73.41    4.53
  -2   5  -3   65.69    5.00
  -2   5  -3   87.75    6.62
  -2   5  -2   12.26    2.26
  -2   5  -2    8.83    1.88
  -2   5  -2    8.83    1.87
  -2   5  -2    8.15    1.51
  -2   5  -2    9.98    1.39
  -2   5  -2   11.09    2.17
  -2   5  -1    1.57    0.88
  -2   5  -1    0.50    0.39
  -2   5  -1    0.69    0.58
  -2   5  -1    0.26    0.47
  -2   5  -1    0.71    0.49
  -2   5  -1    1.00    0.57
  -2   5   0   14.13    2.38
  -2   5   0   15.22    2.00
  -2   5   0   13.37    2.27
  -2   5   0   15.00    2.35
  -2   5   0   10.69    2.08
  -2   5   1    2.28    1.03
  -2   5   1    1.15    0.51
  -2   5   1    1.92    0.94
  -2   5   1    2.90    1.07
  -2   5   2   11.31    2.28
  -2   5   2   10.18    2.17
  -2   5   2   11.85    1.64
  -2   5   2   10.64    1.66
  -2   5   2   13.16    2.31
  -2   5   2   13.24    1.70
  -2   5   3   47.20    5.09
  -2   5   3   51.01    5.06
  -2   5   3   48.53    3.88
  -2   5   3   51.83    5.25
  -2   5   4   22.36    3.76
  -2   5   4   22.22    3.58
  -2   5   4   25.97    3.00
  -2   5   5   13.69    3.24
  -2   5   5   12.26    2.23
  -2   5   5   13.97    3.10
  -2   5   6   33.22    5.44
  -2   5   6   33.19    5.27
  -2   5   6   30.20    3.89
  -2   6  -5    4.27    1.30
  -2   6  -5    6.90    1.87
  -2   6  -4   14.44    2.20
  -2   6  -4   14.01    2.97
  -2   6  -4   16.53    3.18
  -2   6  -4   15.87    3.17
  -2   6  -4   16.35    3.20
  -2   6  -3   37.32    4.54
  -2   6  -3   35.57    4.41
  -2   6  -3   33.87    3.19
  -2   6  -3   25.24    3.92
  -2   6  -3   37.89    4.64
  -2   6  -2   59.33    5.77
  -2   6  -2   61.44    5.95
  -2   6  -2   61.49    5.77
  -2   6  -2   63.42    6.08
  -2   6  -2   76.18    5.84
  -2   6  -2   67.45    4.48
  -2   6  -1  177.23    9.63
  -2   6  -1  186.88   10.92
  -2   6  -1  181.22   10.63
  -2   6  -1  157.98    8.25
  -2   6  -1  195.02    8.69
  -2   6  -1  190.05    7.82
  -2   6  -1  183.18   11.00
  -2   6  -1  199.71   11.34
  -2   6   0  248.77   13.00
  -2   6   0  248.65   12.76
  -2   6   0  259.43   13.33
  -2   6   0  239.95   11.21
  -2   6   0  250.68   10.40
  -2   6   0  239.29   13.00
  -2   6   1  111.17    8.09
  -2   6   1  108.24    7.77
  -2   6   1  110.30    6.16
  -2   6   1  104.56    8.01
  -2   6   1  101.48    6.16
  -2   6   2   53.13    5.50
  -2   6   2   48.92    3.76
  -2   6   2   52.56    5.30
  -2   6   2   52.68    3.98
  -2   6   2   54.71    4.24
  -2   6   2   53.38    5.58
  -2   6   3   14.80    3.06
  -2   6   3   10.06    2.60
  -2   6   3   11.78    2.62
  -2   6   3   10.73    1.85
  -2   6   4   12.74    3.01
  -2   6   4    8.60    1.83
  -2   6   4    9.28    2.47
  -2   6   5    6.40    2.34
  -2   6   5   12.11    3.14
  -2   6   5   10.59    2.16
  -2   7  -3   66.67    6.97
  -2   7  -3   59.29    6.57
  -2   7  -3   69.88    6.47
  -2   7  -3   71.61    7.24
  -2   7  -3   77.38    7.50
  -2   7  -2   31.76    4.56
  -2   7  -2   34.24    4.65
  -2   7  -2   29.95    4.26
  -2   7  -2   32.31    4.62
  -2   7  -2   37.69    4.31
  -2   7  -1   36.88    4.03
  -2   7  -1   44.01    5.22
  -2   7  -1   35.63    3.40
  -2   7  -1   34.83    4.77
  -2   7  -1   33.37    4.68
  -2   7  -1   38.64    4.76
  -2   7   0   31.87    4.59
  -2   7   0   30.97    4.41
  -2   7   0   29.78    4.20
  -2   7   0   37.80    4.91
  -2   7   0   33.62    3.60
  -2   7   0   28.84    3.05
  -2   7   1   20.13    3.60
  -2   7   1   12.77    2.87
  -2   7   1   14.82    2.22
  -2   7   1   15.68    3.05
  -2   7   1   19.87    2.56
  -2   7   2  108.77    8.58
  -2   7   2   96.57    6.53
  -2   7   2  101.42    6.38
  -2   7   2  106.77    8.95
  -2   7   2  109.27    8.92
  -2   7   3    3.43    1.64
  -2   7   3    2.57    1.35
  -2   7   3    3.56    1.39
  -2   7   3    2.99    1.58
  -2   7   3    4.10    1.29
  -2   7   4    9.44    1.98
  -2   8  -2   36.33    4.54
  -2   8  -1   64.27    5.85
  -1  -8  -1   11.12    2.87
  -1  -8  -1    6.35    2.22
  -1  -8   0   12.71    2.90
  -1  -8   1   15.97    3.19
  -1  -8   2   30.26    4.35
  -1  -7  -5   64.00    5.67
  -1  -7  -4   97.18    7.23
  -1  -7  -4  124.30    9.37
  -1  -7  -4  116.80    8.92
  -1  -7  -3   19.53    3.39
  -1  -7  -3   24.16    3.80
  -1  -7  -2   12.90    2.73
  -1  -7  -2   10.86    2.41
  -1  -7  -2   12.60    2.61
  -1  -7  -1   22.07    3.44
  -1  -7  -1   19.58    3.51
  -1  -7  -1   20.49    3.37
  -1  -7  -1   25.24    3.65
  -1  -7   0   40.27    4.88
  -1  -7   0   41.98    4.75
  -1  -7   0   38.54    4.65
  -1  -7   1   11.47    2.52
  -1  -7   1   13.91    2.77
  -1  -7   1   12.83    2.59
  -1  -7   2   17.34    2.98
  -1  -7   2   31.92    4.25
  -1  -6  -6    4.52    1.80
  -1  -6  -5   15.37    3.08
  -1  -6  -5   18.06    2.64
  -1  -6  -5   17.41    3.20
  -1  -6  -5   15.99    3.02
  -1  -6  -4   32.41    4.27
  -1  -6  -4   36.65    3.68
  -1  -6  -4   36.71    4.39
  -1  -6  -3  131.59    8.98
  -1  -6  -3  135.50    7.93
  -1  -6  -3  142.78    9.05
  -1  -6  -2   50.77    4.95
  -1  -6  -2   37.77    4.27
  -1  -6  -1   51.71    4.82
  -1  -6  -1   44.91    4.65
  -1  -6   0   52.50    4.96
  -1  -6   0   51.00    4.82
  -1  -6   0   48.40    4.90
  -1  -6   1   20.75    3.05
  -1  -6   1   27.82    3.50
  -1  -6   1   24.30    3.34
  -1  -6   2  169.11    9.66
  -1  -6   2  171.73   10.24
  -1  -6   3   18.49    2.64
  -1  -6   3   20.70    2.49
  -1  -6   4   29.51    4.13
  -1  -6   5   13.73    2.96
  -1  -5  -7   45.89    5.31
  -1  -5  -6  208.69   12.55
  -1  -5  -6  207.64   12.07
  -1  -5  -6  201.91   10.29
  -1  -5  -6  196.52   12.64
  -1  -5  -6  204.58   12.44
  -1  -5  -5   73.00    5.28
  -1  -5  -5   78.97    6.60
  -1  -5  -5   70.20    6.25
  -1  -5  -5   83.34    7.01
  -1  -5  -4  157.09    8.15
  -1  -5  -4  161.90    9.44
  -1  -5  -4  138.55    9.40
  -1  -5  -3    7.15    1.78
  -1  -5  -3    5.42    1.40
  -1  -5  -3    4.56    1.57
  -1  -5  -2   16.29    2.14
  -1  -5  -2   21.57    2.87
  -1  -5  -2   17.16    2.48
  -1  -5  -1   67.79    5.28
  -1  -5  -1   67.63    5.11
  -1  -5   0   18.54    2.58
  -1  -5   0   16.53    1.62
  -1  -5   0   20.28    2.63
  -1  -5   1   17.60    2.64
  -1  -5   1   19.20    2.60
  -1  -5   1   12.19    1.87
  -1  -5   1   18.62    2.61
  -1  -5   2   65.30    4.85
  -1  -5   2   53.21    4.84
  -1  -5   2   66.16    5.29
  -1  -5   3   24.69    2.72
  -1  -5   3   19.80    2.56
  -1  -5   4  154.69    9.62
  -1  -5   4  153.55    9.19
  -1  -5   4  157.05    7.69
  -1  -5   4  146.45    7.72
  -1  -5   5  115.08    8.23
  -1  -5   5  107.16    8.28
  -1  -5   6  111.96    8.85
  -1  -4  -7   10.36    2.22
  -1  -4  -7   14.58    2.98
  -1  -4  -7   17.65    3.23
  -1  -4  -6   11.87    2.35
  -1  -4  -6   15.61    2.12
  -1  -4  -6   14.49    2.78
  -1  -4  -6   15.63    2.85
  -1  -4  -5   30.01    2.88
  -1  -4  -5   34.13    3.88
  -1  -4  -5   35.57    3.98
  -1  -4  -4  116.68    7.55
  -1  -4  -4  117.57    7.32
  -1  -4  -4  121.12    7.44
  -1  -4  -4  116.16    6.22
  -1  -4  -3   65.22    4.81
  -1  -4  -3   71.76    4.20
  -1  -4  -3   57.87    2.39
  -1  -4  -3   71.55    5.16
  -1  -4  -2   57.40    4.32
  -1  -4  -2   57.88    4.47
  -1  -4  -2   61.49    3.87
  -1  -4  -2   51.21    4.24
  -1  -4  -2   63.45    4.39
  -1  -4  -2   61.79    4.80
  -1  -4  -2   59.46    4.63
  -1  -4  -2   57.12    4.61
  -1  -4  -1    3.57    1.03
  -1  -4  -1    2.81    0.91
  -1  -4  -1    2.46    0.85
  -1  -4  -1    1.81    0.80
  -1  -4  -1    3.36    0.95
  -1  -4  -1    1.86    0.68
  -1  -4   0   -0.03    0.27
  -1  -4   0    0.11    0.28
  -1  -4   0    0.74    0.33
  -1  -4   0    0.13    0.26
  -1  -4   0    0.21    0.33
  -1  -4   0   -0.15    0.28
  -1  -4   0    1.23    0.57
  -1  -4   0    0.08    0.35
  -1  -4   1   61.76    4.53
  -1  -4   1   67.99    4.69
  -1  -4   1   73.22    4.91
  -1  -4   1   72.10    4.78
  -1  -4   1   57.07    4.16
  -1  -4   1   64.19    4.64
  -1  -4   1   66.53    4.74
  -1  -4   1   67.08    4.71
  -1  -4   2   70.70    5.11
  -1  -4   2   85.85    5.63
  -1  -4   2   78.56    5.34
  -1  -4   2   75.55    4.86
  -1  -4   2   77.27    5.62
  -1  -4   2   79.76    5.40
  -1  -4   2   76.53    5.30
  -1  -4   3   98.35    6.22
  -1  -4   3  109.41    5.72
  -1  -4   3   99.58    5.34
  -1  -4   4   39.53    3.22
  -1  -4   4   42.45    4.26
  -1  -4   4   44.52    4.15
  -1  -4   4   39.61    2.89
  -1  -4   5    5.81    1.73
  -1  -4   5    6.68    1.38
  -1  -4   5    7.53    1.84
  -1  -4   6   13.69    2.72
  -1  -4   6   14.29    2.84
  -1  -3  -7   49.85    4.40
  -1  -3  -7   49.69    3.98
  -1  -3  -7   49.86    5.13
  -1  -3  -7   46.64    5.25
  -1  -3  -7   57.53    5.80
  -1  -3  -7   50.96    5.44
  -1  -3  -6   45.01    3.92
  -1  -3  -6   45.53    3.42
  -1  -3  -6   38.83    4.29
  -1  -3  -6   32.68    3.77
  -1  -3  -6   42.20    4.48
  -1  -3  -5  316.31   12.77
  -1  -3  -5  316.68   14.76
  -1  -3  -5  344.08   15.03
  -1  -3  -4  170.18    7.43
  -1  -3  -4  157.80    8.59
  -1  -3  -4  176.20    8.93
  -1  -3  -3  320.36   13.90
  -1  -3  -3  322.84   13.16
  -1  -3  -3  320.20   13.66
  -1  -3  -3  325.36   11.99
  -1  -3  -3  309.26   13.32
  -1  -3  -3  312.24   13.12
  -1  -3  -3  302.93   13.82
  -1  -3  -2   82.26    4.76
  -1  -3  -2   82.46    5.18
  -1  -3  -2   84.40    5.16
  -1  -3  -2   81.10    4.90
  -1  -3  -2   79.84    4.93
  -1  -3  -2   79.77    4.11
  -1  -3  -2   73.99    4.99
  -1  -3  -1   45.92    3.49
  -1  -3  -1   56.61    3.71
  -1  -3  -1   59.00    3.32
  -1  -3  -1   46.97    3.50
  -1  -3  -1   51.51    3.46
  -1  -3  -1   54.95    3.80
  -1  -3  -1   59.86    3.93
  -1  -3   0  455.21   17.38
  -1  -3   0  484.07   17.46
  -1  -3   0  479.22   16.28
  -1  -3   0  493.29   17.90
  -1  -3   0  472.40   17.29
  -1  -3   0  459.04   17.57
  -1  -3   0  461.15   17.54
  -1  -3   0  492.25   17.56
  -1  -3   0  469.43   17.53
  -1  -3   1   62.52    4.03
  -1  -3   1   60.32    3.87
  -1  -3   1   58.16    3.76
  -1  -3   1   53.66    3.77
  -1  -3   1   58.46    3.96
  -1  -3   1   55.03    3.78
  -1  -3   1   58.15    3.84
  -1  -3   1   62.04    3.94
  -1  -3   2   39.40    3.07
  -1  -3   2   36.56    3.11
  -1  -3   2   36.35    2.39
  -1  -3   2   33.25    3.02
  -1  -3   2   32.94    2.59
  -1  -3   2   32.28    3.32
  -1  -3   2   38.34    3.17
  -1  -3   2   38.48    3.16
  -1  -3   3  439.96   17.32
  -1  -3   3  415.85   17.21
  -1  -3   3  449.89   15.69
  -1  -3   3  422.36   17.15
  -1  -3   3  446.27   17.37
  -1  -3   3  439.76   15.73
  -1  -3   3  458.67   17.14
  -1  -3   4  102.40    6.67
  -1  -3   4  112.93    6.75
  -1  -3   4  104.27    5.59
  -1  -3   4  102.41    4.72
  -1  -3   5  146.46    8.90
  -1  -3   5  138.47    8.57
  -1  -3   5  148.92    7.65
  -1  -3   6   24.69    3.55
  -1  -3   6   30.76    3.99
  -1  -2  -8   96.70    7.75
  -1  -2  -8  100.60    8.30
  -1  -2  -8  101.64    8.37
  -1  -2  -8   92.92    7.99
  -1  -2  -7    5.62    1.69
  -1  -2  -7    3.91    1.75
  -1  -2  -7    4.11    1.50
  -1  -2  -7    5.15    1.17
  -1  -2  -7    5.66    1.86
  -1  -2  -6    6.16    1.45
  -1  -2  -6    7.15    1.80
  -1  -2  -6    3.83    1.01
  -1  -2  -6    3.88    1.34
  -1  -2  -6    6.64    1.22
  -1  -2  -6    9.48    2.00
  -1  -2  -5  265.51   12.25
  -1  -2  -5  274.58   11.80
  -1  -2  -5  296.55   13.17
  -1  -2  -5  275.17   10.95
  -1  -2  -5  291.98   13.19
  -1  -2  -4   39.50    3.95
  -1  -2  -4   39.76    3.28
  -1  -2  -4   35.71    3.26
  -1  -2  -4   36.17    3.64
  -1  -2  -4   38.94    3.45
  -1  -2  -4   38.54    3.41
  -1  -2  -4   34.81    2.41
  -1  -2  -4   39.72    3.97
  -1  -2  -4   35.51    3.03
  -1  -2  -3  383.88   14.98
  -1  -2  -3  373.16   12.98
  -1  -2  -3  344.68   14.96
  -1  -2  -3  373.50   15.17
  -1  -2  -3  364.85   14.29
  -1  -2  -2  136.79    7.00
  -1  -2  -2  145.66    6.92
  -1  -2  -2  152.94    5.78
  -1  -2  -2  148.68    6.78
  -1  -2  -2  146.21    6.74
  -1  -2  -2  139.19    6.50
  -1  -2  -2  148.63    7.17
  -1  -2  -1  222.54    8.55
  -1  -2  -1  210.13    8.35
  -1  -2  -1  214.97    8.47
  -1  -2  -1  206.97    7.78
  -1  -2  -1  225.75    8.37
  -1  -2  -1  203.88    8.47
  -1  -2  -1  205.89    8.49
  -1  -2   0  158.44    7.04
  -1  -2   0  172.58    7.17
  -1  -2   0  167.09    7.19
  -1  -2   0  175.19    6.47
  -1  -2   0  181.97    7.43
  -1  -2   0  192.54    7.49
  -1  -2   0  183.09    7.16
  -1  -2   0  166.52    7.08
  -1  -2   0  163.86    7.12
  -1  -2   1  188.56    7.37
  -1  -2   1  173.42    7.19
  -1  -2   1  170.91    7.18
  -1  -2   1  157.21    7.51
  -1  -2   1  178.27    7.14
  -1  -2   1  183.50    7.81
  -1  -2   1  163.80    7.16
  -1  -2   1  170.72    7.18
  -1  -2   2  190.94    8.31
  -1  -2   2  186.74    8.39
  -1  -2   2  203.37    8.44
  -1  -2   2  176.25    7.47
  -1  -2   2  189.44    9.35
  -1  -2   2  197.65    7.32
  -1  -2   2  193.16    8.30
  -1  -2   2  198.18    8.34
  -1  -2   2  200.68    8.35
  -1  -2   3  140.16    7.03
  -1  -2   3  142.14    7.20
  -1  -2   3  128.86    8.12
  -1  -2   3  143.49    5.73
  -1  -2   3  140.27    7.06
  -1  -2   3  137.54    6.04
  -1  -2   3  132.01    6.89
  -1  -2   3  126.06    6.73
  -1  -2   4  206.86   10.17
  -1  -2   4  213.62   10.28
  -1  -2   4  202.28   10.10
  -1  -2   4  211.82   10.02
  -1  -2   4  201.17   10.14
  -1  -2   4  221.02    9.25
  -1  -2   5   35.77    3.72
  -1  -2   5   36.50    3.25
  -1  -2   5   37.26    3.86
  -1  -2   6   28.47    3.64
  -1  -2   7   54.88    5.68
  -1  -2   7   65.83    6.49
  -1  -1  -8  106.02    7.99
  -1  -1  -8  124.61    9.18
  -1  -1  -8  103.64    8.50
  -1  -1  -8  115.28    8.81
  -1  -1  -7   44.10    4.78
  -1  -1  -7   31.60    3.76
  -1  -1  -7   42.78    4.72
  -1  -1  -7   35.99    4.35
  -1  -1  -7   39.32    3.28
  -1  -1  -6  320.30   14.28
  -1  -1  -6  288.64   13.26
  -1  -1  -6  327.05   15.18
  -1  -1  -6  333.00   11.98
  -1  -1  -6  331.61   15.22
  -1  -1  -6  326.80   12.73
  -1  -1  -6  319.99   15.02
  -1  -1  -5   67.38    4.63
  -1  -1  -5   61.11    4.86
  -1  -1  -5   65.50    3.63
  -1  -1  -5   62.04    3.65
  -1  -1  -5   65.49    5.04
  -1  -1  -5   58.57    4.78
  -1  -1  -4  227.12   10.49
  -1  -1  -4  243.24   10.12
  -1  -1  -4  241.61   10.77
  -1  -1  -4  237.04   11.80
  -1  -1  -4  250.86    9.44
  -1  -1  -4  232.20   11.39
  -1  -1  -4  230.59   10.63
  -1  -1  -4  240.05   10.73
  -1  -1  -4  228.85    8.90
  -1  -1  -4  236.03   10.31
  -1  -1  -3    0.54    0.40
  -1  -1  -3    0.83    0.55
  -1  -1  -3    0.04    0.24
  -1  -1  -3    0.57    0.31
  -1  -1  -3    1.29    0.62
  -1  -1  -3   -0.01    0.14
  -1  -1  -2   22.88    1.18
  -1  -1  -2   21.63    2.04
  -1  -1  -2   23.55    1.20
  -1  -1  -2   22.48    1.77
  -1  -1  -2   22.32    1.98
  -1  -1  -2   23.63    1.87
  -1  -1  -2   23.28    1.81
  -1  -1  -2   21.71    1.79
  -1  -1  -2   23.86    1.80
  -1  -1  -2   21.77    1.61
  -1  -1  -1   28.78    1.49
  -1  -1  -1   33.01    1.98
  -1  -1  -1   32.74    2.06
  -1  -1  -1   31.25    1.88
  -1  -1  -1   32.68    1.92
  -1  -1  -1   32.35    1.89
  -1  -1  -1   31.21    1.79
  -1  -1  -1   32.26    1.75
  -1  -1  -1   30.63    1.95
  -1  -1   0   12.05    1.09
  -1  -1   0   13.89    1.00
  -1  -1   0   12.21    0.91
  -1  -1   0   12.36    1.13
  -1  -1   0   13.60    0.96
  -1  -1   0   13.09    0.97
  -1  -1   0   13.64    1.10
  -1  -1   0   13.64    1.15
  -1  -1   0   13.96    0.98
  -1  -1   1    4.30    0.60
  -1  -1   1    3.31    0.53
  -1  -1   1    4.04    0.69
  -1  -1   1    3.79    0.58
  -1  -1   1    4.43    0.82
  -1  -1   1    4.21    0.60
  -1  -1   1    3.35    0.54
  -1  -1   1    3.56    0.37
  -1  -1   2   11.79    1.31
  -1  -1   2   13.87    1.53
  -1  -1   2   10.61    1.04
  -1  -1   2    9.78    1.58
  -1  -1   2   11.90    1.31
  -1  -1   2   10.11    1.21
  -1  -1   2   10.73    1.02
  -1  -1   3  174.58    7.95
  -1  -1   3  178.56    8.21
  -1  -1   3  175.92    7.25
  -1  -1   3  165.54    7.87
  -1  -1   3  167.20    9.16
  -1  -1   3  161.29    7.79
  -1  -1   4   80.15    5.10
  -1  -1   4   76.70    5.17
  -1  -1   4   73.33    5.06
  -1  -1   5  270.65   12.57
  -1  -1   6   59.49    5.19
  -1  -1   6   55.80    5.21
  -1  -1   7  115.34    8.23
  -1  -1   7  117.85    8.38
  -1   0  -8    0.38    0.72
  -1   0  -8    1.11    0.89
  -1   0  -8    3.78    1.74
  -1   0  -8    1.16    1.09
  -1   0  -7   42.97    4.26
  -1   0  -7   35.61    4.32
  -1   0  -7   30.70    3.00
  -1   0  -7   36.44    4.35
  -1   0  -7   29.22    3.93
  -1   0  -6    9.78    2.01
  -1   0  -6    3.29    1.06
  -1   0  -6    3.13    1.25
  -1   0  -6    7.31    1.39
  -1   0  -6    4.94    1.41
  -1   0  -6    6.49    1.23
  -1   0  -5    6.90    1.54
  -1   0  -5    9.07    1.37
  -1   0  -5    6.72    0.62
  -1   0  -5    7.50    1.60
  -1   0  -5    7.58    1.40
  -1   0  -5    8.87    1.71
  -1   0  -4  152.17    7.08
  -1   0  -4  166.88    8.70
  -1   0  -4  188.94    6.44
  -1   0  -4  180.59    5.11
  -1   0  -4  169.86    8.56
  -1   0  -4  173.89    6.79
  -1   0  -4  163.88    7.01
  -1   0  -4  183.87    7.07
  -1   0  -3  197.89    7.84
  -1   0  -3  178.68    8.00
  -1   0  -3  206.49    7.33
  -1   0  -3  173.12    9.12
  -1   0  -3  190.41    6.82
  -1   0  -3  174.41    9.03
  -1   0  -3  182.14    7.59
  -1   0  -3  179.41    7.91
  -1   0  -2  287.96   10.33
  -1   0  -2  283.61   10.56
  -1   0  -2  311.69    9.84
  -1   0  -2  294.09   10.06
  -1   0  -2  276.17   11.44
  -1   0  -2  290.42   10.25
  -1   0  -2  290.43   10.90
  -1   0  -2  290.82   10.91
  -1   0  -2  284.13   10.85
  -1   0  -1   78.74    2.91
  -1   0  -1   80.73    3.33
  -1   0  -1   77.40    3.29
  -1   0  -1   87.45    3.45
  -1   0  -1   76.18    3.57
  -1   0  -1   82.52    3.35
  -1   0  -1   79.50    3.21
  -1   0  -1   80.16    3.13
  -1   0   0   64.33    2.83
  -1   0   0   69.78    3.04
  -1   0   0   66.42    2.79
  -1   0   0   65.25    2.52
  -1   0   0   66.17    3.09
  -1   0   1  150.82    6.32
  -1   0   1  185.39    6.98
  -1   0   1  171.78    6.38
  -1   0   1  174.68    6.87
  -1   0   1  177.72    6.66
  -1   0   1  172.23    6.25
  -1   0   1  163.94    6.59
  -1   0   1  177.06    6.55
  -1   0   1  169.02    6.22
  -1   0   2  241.11    9.24
  -1   0   2  243.94    9.39
  -1   0   2  234.60    9.17
  -1   0   2  239.50   10.01
  -1   0   2  230.64    9.19
  -1   0   2  221.34    9.79
  -1   0   2  246.20    9.36
  -1   0   3   93.56    5.97
  -1   0   3   89.42    5.75
  -1   0   3   99.64    5.21
  -1   0   3   92.00    5.20
  -1   0   3   95.98    5.25
  -1   0   4   60.85    4.56
  -1   0   4   63.25    4.38
  -1   0   4   62.85    5.30
  -1   0   4   59.02    5.16
  -1   0   4   66.45    4.68
  -1   0   4   67.79    4.69
  -1   0   5    2.56    0.95
  -1   0   5    2.59    1.15
  -1   0   5    2.81    0.92
  -1   0   5    2.87    0.63
  -1   0   6    0.76    0.69
  -1   0   6   -0.01    0.54
  -1   0   6    0.18    0.81
  -1   0   7   23.68    3.41
  -1   0   7   19.84    2.89
  -1   1  -8   24.96    4.01
  -1   1  -8   29.48    3.88
  -1   1  -8   22.95    3.90
  -1   1  -8   22.60    3.84
  -1   1  -8   21.39    3.75
  -1   1  -7  135.60    8.33
  -1   1  -7  120.75    8.83
  -1   1  -7  118.09    8.78
  -1   1  -7  124.39    8.91
  -1   1  -7  108.00    8.41
  -1   1  -6  113.10    6.95
  -1   1  -6  104.58    7.51
  -1   1  -6  107.88    7.65
  -1   1  -6   98.09    7.27
  -1   1  -6  110.35    7.64
  -1   1  -5  210.21   10.84
  -1   1  -5  225.65   11.15
  -1   1  -5  205.36   10.82
  -1   1  -5  240.98   11.29
  -1   1  -5  217.27   10.13
  -1   1  -4   86.36    4.97
  -1   1  -4   88.38    5.54
  -1   1  -4   91.82    5.66
  -1   1  -4   94.52    4.93
  -1   1  -4   83.39    5.12
  -1   1  -4   85.88    5.46
  -1   1  -3  104.80    5.10
  -1   1  -3  105.92    6.36
  -1   1  -3  103.66    4.90
  -1   1  -3  109.40    5.39
  -1   1  -2    1.14    0.27
  -1   1  -2    1.12    0.34
  -1   1  -2    1.53    0.36
  -1   1  -2    1.41    0.39
  -1   1  -2    1.21    0.53
  -1   1  -2    1.78    0.40
  -1   1  -1    6.64    0.79
  -1   1  -1    6.88    0.50
  -1   1  -1    5.83    0.75
  -1   1  -1    6.48    0.69
  -1   1  -1    8.94    0.64
  -1   1  -1    5.19    0.71
  -1   1  -1    7.58    0.84
  -1   1   0   26.26    1.55
  -1   1   0   25.72    1.55
  -1   1   0   25.22    1.50
  -1   1   0   26.83    1.61
  -1   1   0   24.70    1.55
  -1   1   0   26.75    1.59
  -1   1   1    3.49    0.54
  -1   1   1    4.15    0.59
  -1   1   1    4.29    0.70
  -1   1   1    4.05    0.67
  -1   1   1    4.20    0.69
  -1   1   1    5.06    0.63
  -1   1   1    4.36    0.66
  -1   1   1    4.48    0.63
  -1   1   2   14.14    1.43
  -1   1   2   10.94    1.50
  -1   1   2   14.58    1.61
  -1   1   2   14.43    1.64
  -1   1   2   15.31    1.49
  -1   1   2   13.13    1.29
  -1   1   2   14.22    1.41
  -1   1   3   39.47    3.07
  -1   1   3   42.94    2.81
  -1   1   4  191.99    9.09
  -1   1   4  193.50    9.31
  -1   1   4  182.44    9.79
  -1   1   4  190.94   10.22
  -1   1   4  194.73    8.42
  -1   1   4  167.63    8.56
  -1   1   5  148.63    8.01
  -1   1   5  128.07    9.24
  -1   1   6  213.26   11.13
  -1   1   6  210.89   12.99
  -1   1   6  213.91   10.28
  -1   1   7   52.71    5.11
  -1   1   7   44.97    5.93
  -1   2  -7    1.83    0.94
  -1   2  -7    0.98    1.01
  -1   2  -7    1.52    1.06
  -1   2  -7    1.77    1.19
  -1   2  -7   -0.23    0.73
  -1   2  -6    1.54    0.95
  -1   2  -6    2.48    1.30
  -1   2  -6    3.67    1.19
  -1   2  -6    1.67    1.16
  -1   2  -6    1.69    0.93
  -1   2  -6    2.16    0.80
  -1   2  -5  259.00   11.84
  -1   2  -5  265.75   12.85
  -1   2  -5  276.89   13.06
  -1   2  -5  249.19   11.81
  -1   2  -5  262.15   12.82
  -1   2  -5  255.57   12.68
  -1   2  -4   91.34    5.36
  -1   2  -4   91.56    6.00
  -1   2  -4  100.01    5.21
  -1   2  -4   91.02    6.76
  -1   2  -4   85.78    5.84
  -1   2  -4   87.19    4.77
  -1   2  -4   91.30    5.94
  -1   2  -4   91.47    5.97
  -1   2  -3  136.63    6.40
  -1   2  -3  125.74    7.70
  -1   2  -3  132.86    6.33
  -1   2  -3  136.22    6.33
  -1   2  -3  137.85    6.06
  -1   2  -3  141.30    5.73
  -1   2  -3  145.36    6.21
  -1   2  -2   64.99    3.63
  -1   2  -2   68.25    3.51
  -1   2  -2   66.88    3.26
  -1   2  -1   20.77    1.82
  -1   2  -1   19.55    1.77
  -1   2  -1   21.45    1.71
  -1   2  -1   21.16    1.36
  -1   2  -1   18.58    1.26
  -1   2  -1   19.32    1.52
  -1   2  -1   21.01    1.88
  -1   2  -1   18.70    1.75
  -1   2   0    1.46    0.39
  -1   2   0    1.03    0.26
  -1   2   0    0.83    0.39
  -1   2   0    1.10    0.45
  -1   2   0    1.01    0.37
  -1   2   0    0.88    0.34
  -1   2   1   42.24    2.36
  -1   2   1   45.66    2.97
  -1   2   1   41.66    2.74
  -1   2   1   41.16    2.59
  -1   2   1   42.57    2.92
  -1   2   1   37.36    2.20
  -1   2   1   39.42    2.42
  -1   2   2    9.28    1.20
  -1   2   2    8.82    1.41
  -1   2   2   10.07    1.34
  -1   2   2    7.50    1.36
  -1   2   2    8.94    1.38
  -1   2   2   12.37    1.29
  -1   2   2   10.39    1.28
  -1   2   2    8.84    1.27
  -1   2   3  146.03    7.01
  -1   2   3  155.14    7.00
  -1   2   3  131.46    7.05
  -1   2   3  135.06    7.10
  -1   2   3  155.54    6.94
  -1   2   4  107.97    7.46
  -1   2   4  105.14    6.67
  -1   2   4  117.16    7.48
  -1   2   4  118.97    5.65
  -1   2   4  111.62    6.67
  -1   2   4  105.48    6.09
  -1   2   5  147.34    9.67
  -1   2   5  139.55    7.03
  -1   2   5  159.45    8.31
  -1   2   6    6.17    2.09
  -1   2   6    9.49    1.95
  -1   2   7   15.94    3.76
  -1   2   7   20.01    3.08
  -1   3  -7   54.45    5.51
  -1   3  -7   63.02    6.56
  -1   3  -7   61.39    6.46
  -1   3  -7   62.89    6.72
  -1   3  -7   57.84    6.30
  -1   3  -6   96.99    6.88
  -1   3  -6   99.63    7.82
  -1   3  -6   88.93    7.42
  -1   3  -6   93.52    7.65
  -1   3  -6   96.21    7.67
  -1   3  -5  174.23    9.78
  -1   3  -5  171.40    9.77
  -1   3  -5  124.61    7.29
  -1   3  -5  166.95    9.67
  -1   3  -5  134.61    8.32
  -1   3  -5  160.72    9.47
  -1   3  -4  123.42    7.39
  -1   3  -4  115.28    6.51
  -1   3  -4  118.60    7.28
  -1   3  -4  110.89    6.40
  -1   3  -4  103.79    6.29
  -1   3  -4  116.36    7.28
  -1   3  -4  104.20    4.89
  -1   3  -4  129.79    7.53
  -1   3  -4  115.75    6.13
  -1   3  -3  188.90    8.57
  -1   3  -3  218.91   10.23
  -1   3  -3  220.82   10.28
  -1   3  -3  199.56    9.26
  -1   3  -3  220.97   10.24
  -1   3  -3  214.13   10.13
  -1   3  -2   30.20    2.47
  -1   3  -2   32.16    2.24
  -1   3  -2   25.18    2.10
  -1   3  -1   42.42    2.94
  -1   3  -1   43.76    2.58
  -1   3  -1   44.55    2.59
  -1   3   0  324.89   11.85
  -1   3   0  313.43   11.03
  -1   3   0  318.00   11.48
  -1   3   1   51.76    2.90
  -1   3   1   52.32    3.41
  -1   3   1   53.03    3.04
  -1   3   2   14.41    1.68
  -1   3   2   15.91    1.38
  -1   3   2   14.03    1.68
  -1   3   3  375.31   14.63
  -1   3   3  375.84   16.07
  -1   3   3  342.14   14.26
  -1   3   3  363.00   14.23
  -1   3   4   53.79    5.55
  -1   3   4   58.15    4.54
  -1   3   4   59.23    5.60
  -1   3   4   62.47    4.59
  -1   3   4   60.09    4.39
  -1   3   5  242.09   14.05
  -1   3   5  257.17   14.10
  -1   3   5  251.05   11.82
  -1   3   6   37.04    5.32
  -1   3   6   39.41    4.15
  -1   3   7   91.76    7.09
  -1   3   7   86.21    9.06
  -1   4  -7    8.64    2.24
  -1   4  -6    6.50    2.03
  -1   4  -6    6.23    1.77
  -1   4  -6    5.41    2.28
  -1   4  -6    5.52    1.96
  -1   4  -6    7.33    2.20
  -1   4  -5   57.37    5.01
  -1   4  -5   60.24    5.74
  -1   4  -5   59.72    5.70
  -1   4  -5   68.70    6.09
  -1   4  -5   59.95    5.81
  -1   4  -4   28.50    3.54
  -1   4  -4   36.41    2.76
  -1   4  -4   34.11    3.83
  -1   4  -4   36.65    4.07
  -1   4  -4   30.54    3.69
  -1   4  -3  165.70    8.99
  -1   4  -3  159.42    7.58
  -1   4  -3  144.57    8.53
  -1   4  -3  163.93    7.78
  -1   4  -3  153.08    8.06
  -1   4  -3  167.02    9.15
  -1   4  -3  160.01    8.95
  -1   4  -2    1.30    0.69
  -1   4  -2    2.22    0.87
  -1   4  -2    0.54    0.47
  -1   4  -2    1.29    0.63
  -1   4  -2    0.33    0.37
  -1   4  -2    0.55    0.44
  -1   4  -2    0.24    0.31
  -1   4  -1   42.45    3.63
  -1   4  -1   35.54    3.46
  -1   4  -1   37.70    3.39
  -1   4  -1   40.61    3.35
  -1   4  -1   42.13    2.88
  -1   4  -1   38.17    2.73
  -1   4  -1   42.76    3.70
  -1   4   0   59.14    3.66
  -1   4   0   57.10    4.31
  -1   4   0   62.23    4.35
  -1   4   0   53.85    2.64
  -1   4   0   54.88    4.31
  -1   4   0   55.60    3.42
  -1   4   0   56.97    4.03
  -1   4   0   55.76    4.35
  -1   4   1   16.91    1.65
  -1   4   1   15.35    2.22
  -1   4   1   15.66    2.23
  -1   4   1   19.47    2.36
  -1   4   1   15.84    1.99
  -1   4   2   79.03    4.78
  -1   4   2   89.40    6.02
  -1   4   2   90.37    5.83
  -1   4   2   80.64    5.07
  -1   4   2   85.52    4.18
  -1   4   2   77.46    5.75
  -1   4   2   87.71    5.16
  -1   4   3   24.13    2.62
  -1   4   3   16.86    2.68
  -1   4   3   28.61    3.27
  -1   4   3   26.38    2.51
  -1   4   3   24.01    3.16
  -1   4   4  149.84    9.83
  -1   4   4  143.99    9.32
  -1   4   4  151.64    7.87
  -1   4   5   28.75    4.30
  -1   4   5   23.96    3.79
  -1   4   5   32.51    3.41
  -1   4   6   18.74    4.08
  -1   4   6   24.81    4.35
  -1   4   6   26.78    3.43
  -1   4   7   37.84    6.03
  -1   5  -6  170.92   10.76
  -1   5  -6  169.73   11.89
  -1   5  -6  174.36   11.94
  -1   5  -6  167.17   11.98
  -1   5  -6  179.82   12.19
  -1   5  -5   62.90    5.62
  -1   5  -5   67.21    6.48
  -1   5  -5   63.55    6.23
  -1   5  -5   64.27    6.48
  -1   5  -5   59.59    5.27
  -1   5  -5   67.53    6.52
  -1   5  -4   37.31    4.41
  -1   5  -4   38.19    4.51
  -1   5  -4   44.55    4.75
  -1   5  -4   37.30    3.66
  -1   5  -4   34.64    4.30
  -1   5  -3    4.20    1.27
  -1   5  -3    7.21    1.40
  -1   5  -3    6.35    1.64
  -1   5  -3    3.19    1.27
  -1   5  -3    5.94    1.66
  -1   5  -2   10.02    2.05
  -1   5  -2   10.68    2.06
  -1   5  -2    9.14    1.75
  -1   5  -2    8.99    1.88
  -1   5  -2   14.54    1.85
  -1   5  -2    9.44    2.04
  -1   5  -2   10.01    1.55
  -1   5  -1    1.71    0.82
  -1   5  -1    2.64    1.01
  -1   5  -1    1.88    0.67
  -1   5  -1    3.07    1.08
  -1   5  -1    1.57    0.76
  -1   5  -1    3.09    1.12
  -1   5  -1    2.28    0.74
  -1   5   0   41.69    3.24
  -1   5   0   29.84    3.45
  -1   5   0   35.18    3.66
  -1   5   0   37.12    3.87
  -1   5   0   31.21    3.56
  -1   5   0   33.24    2.85
  -1   5   1   13.18    1.61
  -1   5   1   13.44    2.33
  -1   5   1   15.12    2.42
  -1   5   1   12.18    2.09
  -1   5   1   13.79    1.80
  -1   5   2    5.24    1.53
  -1   5   2    5.37    0.92
  -1   5   2    7.55    1.77
  -1   5   2    6.07    1.27
  -1   5   2    4.29    1.31
  -1   5   3    3.91    1.41
  -1   5   3    2.96    1.19
  -1   5   3    4.02    1.03
  -1   5   3    3.45    1.05
  -1   5   3    5.94    1.71
  -1   5   4   63.46    6.33
  -1   5   4   62.44    6.03
  -1   5   4   70.84    5.05
  -1   5   5  127.77   10.18
  -1   5   5  128.00    7.93
  -1   5   5  127.55    9.81
  -1   5   6  138.78   11.90
  -1   5   6  156.25   12.05
  -1   5   6  167.22    9.84
  -1   6  -6   11.72    2.55
  -1   6  -5    9.57    2.18
  -1   6  -5   10.55    2.34
  -1   6  -4  101.79    8.37
  -1   6  -4   98.50    7.96
  -1   6  -4   89.25    6.43
  -1   6  -4   94.56    7.95
  -1   6  -4   90.65    7.87
  -1   6  -3   31.05    4.14
  -1   6  -3   25.30    3.65
  -1   6  -3   24.32    2.92
  -1   6  -3   23.40    3.66
  -1   6  -3   22.58    3.57
  -1   6  -2   69.79    6.13
  -1   6  -2   73.06    6.16
  -1   6  -2   70.69    5.06
  -1   6  -2   67.84    6.21
  -1   6  -2   71.21    6.30
  -1   6  -1   11.00    2.42
  -1   6  -1   13.18    1.97
  -1   6  -1   12.75    2.41
  -1   6  -1   13.64    1.19
  -1   6  -1   10.68    2.33
  -1   6   0   15.05    2.77
  -1   6   0   15.34    2.10
  -1   6   0   14.93    2.68
  -1   6   0   14.07    2.02
  -1   6   0   14.88    2.59
  -1   6   0   15.31    2.73
  -1   6   1   68.84    4.55
  -1   6   1   71.60    6.24
  -1   6   1   75.94    6.17
  -1   6   1   72.85    6.40
  -1   6   1   70.66    4.94
  -1   6   2    7.97    2.16
  -1   6   2    8.44    1.30
  -1   6   2    6.02    1.82
  -1   6   2   10.78    1.86
  -1   6   2   12.75    2.48
  -1   6   3   96.60    6.54
  -1   6   3   94.63    7.96
  -1   6   3  110.72    8.17
  -1   6   3   87.78    7.68
  -1   6   4   14.81    3.32
  -1   6   4   17.38    2.53
  -1   6   4   15.51    2.63
  -1   6   4   13.99    3.02
  -1   6   5   40.87    5.82
  -1   6   5   51.80    6.26
  -1   6   5   53.13    4.89
  -1   7  -4   15.46    2.69
  -1   7  -3   79.99    7.52
  -1   7  -3   68.24    6.89
  -1   7  -3   76.35    7.14
  -1   7  -3   66.39    5.52
  -1   7  -3   65.40    6.91
  -1   7  -2    1.34    1.12
  -1   7  -2    1.82    1.55
  -1   7  -2    1.63    0.95
  -1   7  -2    3.83    1.43
  -1   7  -2    1.19    1.16
  -1   7  -1    9.36    2.48
  -1   7  -1   10.61    2.08
  -1   7  -1    7.68    2.11
  -1   7  -1    8.34    1.74
  -1   7  -1    4.43    1.64
  -1   7  -1    7.52    2.13
  -1   7   0   33.37    4.60
  -1   7   0   43.39    5.13
  -1   7   0   30.43    4.20
  -1   7   0   31.08    3.35
  -1   7   0   28.89    4.30
  -1   7   0   33.66    3.53
  -1   7   1    2.26    0.84
  -1   7   1    2.09    1.22
  -1   7   1    2.41    1.07
  -1   7   1    1.36    0.81
  -1   7   1    3.07    1.46
  -1   7   2    3.03    1.58
  -1   7   2    4.65    1.85
  -1   7   2    4.37    1.43
  -1   7   2    4.74    1.80
  -1   7   3   48.88    4.75
  -1   7   3   51.56    6.12
  -1   7   3   55.62    6.07
  -1   7   3   43.66    5.62
  -1   7   4   44.26    5.99
  -1   7   4   44.44    4.80
  -1   7   4   45.42    6.15
  -1   7   4   53.46    6.28
  -1   7   4   52.39    4.78
  -1   8  -2    2.49    1.20
  -1   8  -1    1.57    1.11
  -1   8   0    9.59    2.08
  -1   8   1    5.72    1.66
  -1   8   2    4.07    1.38
  -1   8   3   16.51    2.96
   0  -8  -3   83.59    7.16
   0  -8  -1  142.88   10.31
   0  -8   0   39.36    4.96
   0  -8   1   89.89    8.06
   0  -8   1   94.28    8.02
   0  -8   2   16.07    3.20
   0  -8   2   16.69    3.17
   0  -7  -5    0.61    0.83
   0  -7  -4   41.16    4.56
   0  -7  -4   30.08    4.50
   0  -7  -4   37.17    4.83
   0  -7  -3   20.91    3.47
   0  -7  -3   20.94    3.15
   0  -7  -3   23.32    3.73
   0  -7  -2   77.33    6.15
   0  -7  -2   63.49    6.21
   0  -7  -2   76.81    6.75
   0  -7  -1    4.51    1.63
   0  -7  -1    5.06    1.76
   0  -7   0    0.45    0.90
   0  -7   0    0.85    0.72
   0  -7   1   47.31    5.11
   0  -7   1   61.28    5.74
   0  -7   2   58.28    5.75
   0  -7   2   59.69    5.63
   0  -7   2   62.53    5.94
   0  -7   3   28.89    3.68
   0  -6  -6   11.81    2.39
   0  -6  -5   37.89    4.16
   0  -6  -5   33.61    4.72
   0  -6  -5   33.91    4.49
   0  -6  -5   37.59    4.75
   0  -6  -4    2.50    1.39
   0  -6  -4    1.51    1.03
   0  -6  -4    3.67    1.27
   0  -6  -3    7.44    1.71
   0  -6  -3    9.97    2.30
   0  -6  -3    9.16    2.11
   0  -6  -2  185.30    9.89
   0  -6  -2  188.28   10.72
   0  -6  -2  191.15   10.82
   0  -6  -1  180.18   10.33
   0  -6  -1  179.93    6.98
   0  -6  -1  187.71    9.76
   0  -6   0  468.23   20.28
   0  -6   0  497.59   20.47
   0  -6   1   75.67    5.93
   0  -6   1   70.46    5.77
   0  -6   2   56.95    5.15
   0  -6   2   54.52    4.99
   0  -6   3   11.41    2.04
   0  -6   4    8.44    1.78
   0  -6   5   -0.30    0.93
   0  -5  -6   16.47    2.64
   0  -5  -6   17.88    3.32
   0  -5  -6   21.99    3.57
   0  -5  -5   56.03    4.82
   0  -5  -5   65.31    5.99
   0  -5  -5   65.51    6.03
   0  -5  -4   17.37    2.46
   0  -5  -4   15.63    2.82
   0  -5  -4   23.31    3.40
   0  -5  -3   84.87    6.43
   0  -5  -3   99.00    6.06
   0  -5  -3   88.72    6.42
   0  -5  -3   86.71    3.73
   0  -5  -2    6.56    0.79
   0  -5  -2    7.05    1.48
   0  -5  -2    7.71    1.76
   0  -5  -2    7.14    1.65
   0  -5  -1   30.71    3.37
   0  -5  -1   31.08    3.00
   0  -5  -1   30.95    3.05
   0  -5   0   21.63    2.50
   0  -5   0   18.01    2.21
   0  -5   0   20.44    2.64
   0  -5   0   22.39    2.71
   0  -5   1   15.47    2.30
   0  -5   1   14.50    2.21
   0  -5   2   45.25    4.03
   0  -5   2   31.46    3.41
   0  -5   3  122.55    6.73
   0  -5   3  111.20    6.61
   0  -5   4   16.63    2.59
   0  -5   4   11.21    1.64
   0  -5   4   15.79    2.24
   0  -5   5   17.30    2.77
   0  -5   5   17.54    2.90
   0  -5   5   19.75    2.70
   0  -5   6   53.41    5.46
   0  -5   6   53.31    5.50
   0  -4  -7   21.53    3.83
   0  -4  -7   23.09    3.09
   0  -4  -7   29.87    4.33
   0  -4  -6   13.50    2.71
   0  -4  -6   14.28    2.25
   0  -4  -6   10.48    2.39
   0  -4  -5    0.27    0.51
   0  -4  -5    1.10    0.71
   0  -4  -5    1.26    0.92
   0  -4  -4   29.59    2.97
   0  -4  -4   34.89    3.68
   0  -4  -4   35.98    3.69
   0  -4  -3    9.10    1.73
   0  -4  -3    9.21    1.49
   0  -4  -3   11.27    1.79
   0  -4  -3    8.36    1.71
   0  -4  -3    9.74    0.93
   0  -4  -2  116.24    6.98
   0  -4  -2  124.13    4.96
   0  -4  -2  118.00    6.88
   0  -4  -2  124.70    6.95
   0  -4  -2  119.58    6.81
   0  -4  -2  115.84    6.32
   0  -4  -2  118.03    7.12
   0  -4  -2  104.24    4.25
   0  -4  -2  117.27    7.11
   0  -4  -1  432.86   17.26
   0  -4  -1  443.30   16.34
   0  -4  -1  455.15   17.32
   0  -4  -1  373.76   15.98
   0  -4  -1  443.23   17.06
   0  -4  -1  424.05   17.41
   0  -4  -1  448.42   17.48
   0  -4   0  704.41   25.93
   0  -4   0  694.00   25.64
   0  -4   0  702.15   25.86
   0  -4   0  762.35   25.39
   0  -4   0  685.05   24.86
   0  -4   0  728.97   26.27
   0  -4   0  705.21   25.99
   0  -4   1  195.04    9.34
   0  -4   1  183.13    9.28
   0  -4   1  187.56    9.19
   0  -4   1  206.95    9.22
   0  -4   1  182.51    9.25
   0  -4   1  173.36    8.76
   0  -4   2   81.75    5.50
   0  -4   2   82.19    5.55
   0  -4   2   83.47    5.29
   0  -4   2   76.63    5.39
   0  -4   2   76.14    5.36
   0  -4   2   85.23    5.33
   0  -4   3   38.23    3.37
   0  -4   3   48.64    3.33
   0  -4   3   44.22    3.44
   0  -4   4   -0.24    0.38
   0  -4   4    0.43    0.34
   0  -4   4    0.65    0.63
   0  -4   4    1.32    0.57
   0  -4   5   20.76    2.86
   0  -4   5   27.53    3.33
   0  -4   5   22.01    2.70
   0  -4   6   30.20    3.84
   0  -4   6   32.50    3.60
   0  -4   6   29.03    3.77
   0  -3  -7   39.29    4.78
   0  -3  -7   38.56    4.80
   0  -3  -7   38.43    4.75
   0  -3  -7   31.73    3.49
   0  -3  -7   34.24    4.30
   0  -3  -6   30.83    3.89
   0  -3  -6   32.28    3.31
   0  -3  -6   38.92    4.37
   0  -3  -6   32.93    3.92
   0  -3  -5   13.51    1.27
   0  -3  -5   15.45    2.36
   0  -3  -5   15.59    2.48
   0  -3  -5   10.44    1.70
   0  -3  -5   10.44    2.11
   0  -3  -4    9.07    0.86
   0  -3  -4   10.96    1.86
   0  -3  -4    9.86    1.53
   0  -3  -4    9.16    1.70
   0  -3  -3  256.94   11.83
   0  -3  -3  258.03   11.57
   0  -3  -3  245.25    8.40
   0  -3  -3  251.71   10.38
   0  -3  -3  251.05   11.07
   0  -3  -3  262.63   11.00
   0  -3  -3  252.15   11.89
   0  -3  -2  240.38   10.71
   0  -3  -2  229.77   10.41
   0  -3  -2  240.09    8.88
   0  -3  -2  249.47    9.70
   0  -3  -2  229.71    9.82
   0  -3  -2  221.78   10.55
   0  -3  -2  250.16   10.91
   0  -3  -1  347.20   11.80
   0  -3  -1  363.33   13.76
   0  -3  -1  350.14   13.05
   0  -3  -1  351.30   13.96
   0  -3  -1  362.95   13.66
   0  -3  -1  338.57   13.01
   0  -3  -1  359.65   13.88
   0  -3  -1  329.36   13.77
   0  -3   0   61.20    3.91
   0  -3   0   66.51    3.99
   0  -3   0   57.70    3.50
   0  -3   0   59.86    3.43
   0  -3   0   59.21    3.75
   0  -3   0   63.14    4.05
   0  -3   0   55.67    3.82
   0  -3   1  136.66    6.56
   0  -3   1  128.15    6.41
   0  -3   1  117.05    6.05
   0  -3   1  133.61    6.58
   0  -3   1  130.00    6.27
   0  -3   1  125.39    6.41
   0  -3   2  502.57   17.86
   0  -3   2  457.92   18.45
   0  -3   2  528.90   18.40
   0  -3   2  474.06   18.49
   0  -3   2  490.97   18.62
   0  -3   2  494.57   18.58
   0  -3   3   56.96    4.34
   0  -3   3   61.20    4.50
   0  -3   3   59.35    3.26
   0  -3   3   57.59    4.37
   0  -3   3   56.92    3.75
   0  -3   3   58.24    4.35
   0  -3   4   33.61    3.18
   0  -3   4   31.04    1.76
   0  -3   4   30.67    3.00
   0  -3   4   32.52    2.86
   0  -3   5   53.10    4.44
   0  -3   5   42.70    4.06
   0  -3   5   50.46    4.06
   0  -3   6   22.46    3.11
   0  -3   6   28.13    3.49
   0  -3   6   21.98    2.87
   0  -3   7   39.41    4.63
   0  -3   7   43.10    4.50
   0  -2  -7    4.01    1.51
   0  -2  -7    0.60    0.96
   0  -2  -7    1.72    0.72
   0  -2  -7    2.84    1.37
   0  -2  -7    1.82    1.33
   0  -2  -6    4.90    1.51
   0  -2  -6    1.77    0.73
   0  -2  -6    1.51    0.88
   0  -2  -6    5.31    1.48
   0  -2  -6    2.43    1.09
   0  -2  -5   17.79    2.41
   0  -2  -5   17.72    2.09
   0  -2  -5   22.16    2.84
   0  -2  -5   23.23    2.90
   0  -2  -4   22.54    2.45
   0  -2  -4   23.40    3.01
   0  -2  -4   26.17    3.04
   0  -2  -4   24.25    2.22
   0  -2  -4   24.50    2.70
   0  -2  -4   23.32    2.51
   0  -2  -4   23.29    2.61
   0  -2  -4   25.58    3.15
   0  -2  -4   23.96    2.68
   0  -2  -3   11.36    1.83
   0  -2  -3   11.78    1.85
   0  -2  -3   10.81    1.52
   0  -2  -3   11.54    1.74
   0  -2  -3   12.22    1.36
   0  -2  -3   11.95    1.62
   0  -2  -3   10.97    0.94
   0  -2  -3    7.53    1.29
   0  -2  -3   10.57    1.46
   0  -2  -2  152.59    5.40
   0  -2  -2  165.67    7.45
   0  -2  -2  161.62    7.24
   0  -2  -2  166.94    6.52
   0  -2  -2  153.04    5.44
   0  -2  -2  149.83    6.85
   0  -2  -2  158.61    6.79
   0  -2  -2  152.19    7.34
   0  -2  -1  773.13   26.54
   0  -2  -1  795.44   25.12
   0  -2  -1  741.47   25.89
   0  -2  -1  789.39   26.43
   0  -2  -1  761.07   26.58
   0  -2  -1  807.52   25.89
   0  -2  -1  779.33   26.33
   0  -2  -1  807.69   26.73
   0  -2   0  746.51   24.50
   0  -2   0  709.74   24.35
   0  -2   0  702.09   23.88
   0  -2   0  733.13   24.09
   0  -2   0  748.22   24.37
   0  -2   0  719.77   24.52
   0  -2   0  729.44   24.50
   0  -2   1  649.40   22.25
   0  -2   1  628.99   21.67
   0  -2   1  648.53   22.24
   0  -2   1  661.24   22.08
   0  -2   1  640.29   22.28
   0  -2   1  668.64   22.08
   0  -2   1  653.62   22.27
   0  -2   2   41.49    2.67
   0  -2   2   39.01    2.87
   0  -2   2   41.88    2.96
   0  -2   2   38.22    2.85
   0  -2   2   39.33    2.88
   0  -2   2   43.73    2.61
   0  -2   3   20.32    2.22
   0  -2   3   25.65    2.47
   0  -2   3   22.29    2.11
   0  -2   3   21.55    1.27
   0  -2   3   20.58    2.24
   0  -2   3   18.13    1.91
   0  -2   3   23.74    2.03
   0  -2   4   44.92    3.84
   0  -2   4   44.19    3.48
   0  -2   4   46.90    3.38
   0  -2   4   44.28    3.53
   0  -2   4   40.74    3.74
   0  -2   4   41.76    3.73
   0  -2   5    7.38    1.53
   0  -2   5    8.80    1.66
   0  -2   5    8.94    1.57
   0  -2   6   16.76    2.61
   0  -2   6   16.34    2.40
   0  -2   7   23.20    3.39
   0  -1  -8  106.61    8.48
   0  -1  -8  113.01    8.74
   0  -1  -8   95.52    8.10
   0  -1  -7   56.26    5.46
   0  -1  -7   47.27    5.02
   0  -1  -7   46.83    4.98
   0  -1  -7   50.23    4.91
   0  -1  -7   43.47    3.94
   0  -1  -6   59.53    4.97
   0  -1  -6   55.71    5.06
   0  -1  -6   59.48    4.32
   0  -1  -6   61.68    3.46
   0  -1  -6   61.79    5.30
   0  -1  -6   57.12    5.10
   0  -1  -5   22.98    2.82
   0  -1  -5   23.26    2.65
   0  -1  -5   20.72    2.46
   0  -1  -5   28.90    3.11
   0  -1  -5   19.30    2.59
   0  -1  -5   17.60    2.05
   0  -1  -4   85.34    5.13
   0  -1  -4   90.71    5.54
   0  -1  -4   85.98    5.46
   0  -1  -4   79.29    5.97
   0  -1  -4   89.84    6.11
   0  -1  -4   87.35    5.06
   0  -1  -4   89.91    5.51
   0  -1  -4   85.89    4.63
   0  -1  -4   85.27    5.10
   0  -1  -4   88.86    5.47
   0  -1  -3  181.31    7.54
   0  -1  -3  160.55    7.60
   0  -1  -3  157.91    8.26
   0  -1  -3  176.89    7.54
   0  -1  -3  154.15    8.01
   0  -1  -3  169.76    7.30
   0  -1  -3  166.22    7.64
   0  -1  -3  169.25    6.90
   0  -1  -3  168.66    7.64
   0  -1  -2  241.03    9.11
   0  -1  -2  248.50    9.36
   0  -1  -2  237.06    9.85
   0  -1  -2  233.06    9.62
   0  -1  -2  245.90    8.75
   0  -1  -2  246.26    9.36
   0  -1  -2  240.29    9.29
   0  -1  -1   36.36    2.20
   0  -1  -1   40.28    1.91
   0  -1  -1   36.95    2.15
   0  -1  -1   38.54    1.87
   0  -1  -1   41.53    2.06
   0  -1  -1   34.03    2.18
   0  -1  -1   37.43    1.98
   0  -1   0   39.62    2.05
   0  -1   0   44.70    2.11
   0  -1   0   45.18    2.18
   0  -1   0   43.51    1.99
   0  -1   0   43.85    1.93
   0  -1   0   42.84    2.06
   0  -1   0   42.63    2.12
   0  -1   1  246.30    8.86
   0  -1   1  244.97    8.73
   0  -1   1  254.79    8.92
   0  -1   1  243.51    8.57
   0  -1   1  238.27    8.82
   0  -1   1  250.71    8.89
   0  -1   2   72.29    3.72
   0  -1   2   75.23    3.51
   0  -1   2   67.44    3.41
   0  -1   2   66.80    3.65
   0  -1   2   62.24    3.20
   0  -1   2   66.08    3.61
   0  -1   3  383.23   14.95
   0  -1   3  394.85   14.50
   0  -1   3  393.78   14.52
   0  -1   3  399.45   15.03
   0  -1   3  386.25   14.25
   0  -1   3  394.67   14.98
   0  -1   4    8.76    1.58
   0  -1   4    8.53    1.42
   0  -1   4    8.17    1.50
   0  -1   4    7.60    1.28
   0  -1   4    7.17    1.41
   0  -1   5   15.79    2.20
   0  -1   5   16.93    2.16
   0  -1   6   94.48    6.50
   0  -1   7   25.45    3.46
   0   0  -8   27.26    4.22
   0   0  -8   32.82    4.61
   0   0  -8   22.36    3.09
   0   0  -8   31.68    4.52
   0   0  -7   23.68    3.50
   0   0  -7   19.47    3.01
   0   0  -7   25.72    3.63
   0   0  -7   19.66    2.61
   0   0  -7   26.21    3.65
   0   0  -6   80.67    5.88
   0   0  -6   83.21    6.27
   0   0  -6   79.87    6.20
   0   0  -6   83.23    5.34
   0   0  -6   72.61    5.90
   0   0  -5   77.56    5.04
   0   0  -5   81.17    5.46
   0   0  -5   76.92    4.86
   0   0  -5   58.94    2.35
   0   0  -5   76.41    5.32
   0   0  -5   80.58    5.41
   0   0  -4   34.23    2.96
   0   0  -4   33.01    3.09
   0   0  -4   34.75    2.89
   0   0  -4   25.73    3.30
   0   0  -4   31.46    3.51
   0   0  -4   36.23    2.92
   0   0  -4   35.32    3.20
   0   0  -4   37.30    3.26
   0   0  -3  787.53   25.89
   0   0  -3  785.78   26.30
   0   0  -3  794.14   26.29
   0   0  -3  728.45   27.26
   0   0  -3  749.44   25.68
   0   0  -3  714.64   27.03
   0   0  -3  723.17   25.53
   0   0  -3  733.48   25.54
   0   0  -3  741.90   26.17
   0   0  -2  625.37   21.07
   0   0  -2  636.46   20.84
   0   0  -2  606.80   20.71
   0   0  -2  544.73   21.63
   0   0  -2  593.78   21.74
   0   0  -2  638.71   21.13
   0   0  -2  627.94   20.66
   0   0  -2  611.89   20.65
   0   0  -2  634.00   21.09
   0   0  -1  560.44   17.53
   0   0  -1  543.16   17.47
   0   0  -1  517.75   17.95
   0   0  -1  526.53   17.40
   0   0  -1  530.16   17.42
   0   0   1  523.55   17.45
   0   0   1  535.72   17.25
   0   0   1  530.18   17.45
   0   0   2  682.45   22.60
   0   0   2  633.02   21.72
   0   0   2  637.72   21.26
   0   0   2  606.55   21.63
   0   0   3  791.92   28.36
   0   0   3  753.08   26.83
   0   0   3  764.01   26.22
   0   0   3  741.67   26.72
   0   0   3  798.97   26.30
   0   0   4   34.25    2.91
   0   0   4   33.78    3.07
   0   0   4   32.89    3.64
   0   0   4   40.88    4.08
   0   0   4   37.99    3.38
   0   0   4   39.01    3.40
   0   0   5   83.04    5.47
   0   0   5   93.57    7.35
   0   0   6   84.57    6.05
   0   0   6   93.50    7.88
   0   0   7   23.98    3.30
   0   0   7   17.73    4.05
   0   0   7   18.17    2.59
   0   1  -8   69.59    5.81
   0   1  -7   32.95    4.31
   0   1  -7   36.93    4.22
   0   1  -7   38.63    4.70
   0   1  -7   28.23    3.97
   0   1  -7   34.86    4.39
   0   1  -6   94.14    6.54
   0   1  -6   96.53    7.06
   0   1  -6   94.61    7.06
   0   1  -6  100.00    7.14
   0   1  -6  100.70    7.14
   0   1  -5   12.82    2.18
   0   1  -5   14.06    2.11
   0   1  -5   15.37    2.37
   0   1  -5   14.05    2.03
   0   1  -5   11.84    2.11
   0   1  -5   15.48    2.40
   0   1  -4    5.81    1.27
   0   1  -4    8.66    1.44
   0   1  -4    6.47    1.36
   0   1  -4    7.52    1.75
   0   1  -4    7.88    1.32
   0   1  -4    6.75    1.38
   0   1  -4    9.35    1.45
   0   1  -3  384.92   14.89
   0   1  -3  398.29   14.63
   0   1  -3  384.23   14.95
   0   1  -3  357.90   15.71
   0   1  -3  398.65   15.01
   0   1  -3  381.32   14.29
   0   1  -3  407.26   15.03
   0   1  -3  394.68   14.39
   0   1  -2   67.14    3.32
   0   1  -2   65.45    3.59
   0   1  -2   60.63    3.35
   0   1  -2   67.36    3.63
   0   1  -2   64.75    4.00
   0   1  -2   62.02    3.52
   0   1  -2   63.20    3.21
   0   1  -2   65.30    3.57
   0   1  -1  246.02    8.70
   0   1  -1  240.48    8.52
   0   1  -1  245.73    8.61
   0   1   0   41.45    1.87
   0   1   1   41.56    1.92
   0   1   1   42.61    1.96
   0   1   1   38.31    2.14
   0   1   1   39.15    2.06
   0   1   2  243.43    9.48
   0   1   2  231.70    9.96
   0   1   2  255.49    9.60
   0   1   2  227.63    9.74
   0   1   2  245.30    8.35
   0   1   2  255.27    8.88
   0   1   3  165.82    8.00
   0   1   3  180.42    8.49
   0   1   3  191.93    6.98
   0   1   3  177.52    8.20
   0   1   4   90.12    5.25
   0   1   4   84.27    4.27
   0   1   4   74.95    5.58
   0   1   4   85.90    6.35
   0   1   4   89.41    5.60
   0   1   4   82.80    5.39
   0   1   4   83.96    4.92
   0   1   5   20.28    2.03
   0   1   5   18.61    3.18
   0   1   5   23.46    2.60
   0   1   6   50.36    4.43
   0   1   6   53.36    5.87
   0   1   7   49.86    4.78
   0   1   7   42.06    5.70
   0   1   7   45.98    3.83
   0   1   8  115.85   10.55
   0   2  -7   17.30    3.19
   0   2  -7   18.77    3.09
   0   2  -7   22.52    3.68
   0   2  -7   24.09    3.83
   0   2  -7   19.31    3.40
   0   2  -6   15.99    2.58
   0   2  -6   12.50    2.51
   0   2  -6   17.56    2.97
   0   2  -6   14.72    2.67
   0   2  -6   15.04    2.69
   0   2  -5    5.18    1.48
   0   2  -5    3.84    1.08
   0   2  -5    8.27    1.68
   0   2  -5    3.92    1.19
   0   2  -5    4.12    1.26
   0   2  -5    5.34    1.48
   0   2  -4   42.28    3.84
   0   2  -4   44.95    3.65
   0   2  -4   37.96    4.22
   0   2  -4   43.63    3.86
   0   2  -4   46.73    3.84
   0   2  -4   44.24    3.88
   0   2  -4   45.85    3.50
   0   2  -4   40.92    3.74
   0   2  -4   48.36    3.56
   0   2  -3   22.05    2.38
   0   2  -3   23.99    2.17
   0   2  -3   23.38    2.26
   0   2  -3   22.80    2.42
   0   2  -3   24.18    2.87
   0   2  -3   19.18    2.21
   0   2  -3   17.43    1.90
   0   2  -3   21.30    2.31
   0   2  -2   39.86    2.88
   0   2  -2   37.63    2.60
   0   2  -2   39.90    2.57
   0   2  -2   37.47    2.81
   0   2  -2   36.10    2.65
   0   2  -2   37.61    2.81
   0   2  -2   35.65    2.77
   0   2  -1  666.49   22.40
   0   2  -1  681.77   22.53
   0   2  -1  653.89   22.33
   0   2  -1  657.28   21.86
   0   2  -1  609.66   22.09
   0   2  -1  642.66   21.81
   0   2  -1  668.93   22.44
   0   2   0  714.36   23.47
   0   2   0  690.90   23.16
   0   2   0  684.47   22.95
   0   2   1  806.83   25.31
   0   2   1  803.24   26.23
   0   2   1  753.76   26.09
   0   2   2  148.10    6.40
   0   2   2  141.52    5.89
   0   2   2  145.41    6.65
   0   2   2  147.60    6.02
   0   2   3    9.90    1.37
   0   2   3    9.81    1.54
   0   2   3   11.35    1.30
   0   2   4   26.02    2.81
   0   2   4   22.19    2.38
   0   2   4   18.42    2.76
   0   2   4   23.94    2.61
   0   2   4   23.17    3.00
   0   2   4   19.71    1.47
   0   2   4   21.22    2.24
   0   2   5   22.64    2.95
   0   2   5   20.49    3.27
   0   2   5   19.50    1.70
   0   2   5   24.36    2.67
   0   2   6    1.81    0.57
   0   2   6    0.70    0.88
   0   2   6    1.26    0.76
   0   2   7    5.43    1.58
   0   2   7    3.06    1.87
   0   3  -7   53.93    5.49
   0   3  -7   46.44    5.58
   0   3  -7   53.77    6.00
   0   3  -7   52.60    5.89
   0   3  -7   39.94    5.19
   0   3  -6   24.00    3.62
   0   3  -6   24.19    3.37
   0   3  -6   23.20    3.61
   0   3  -6   20.02    3.38
   0   3  -6   20.62    3.39
   0   3  -5   48.04    4.43
   0   3  -5   48.72    4.77
   0   3  -5   49.76    4.84
   0   3  -5   43.13    4.55
   0   3  -5   41.39    4.44
   0   3  -4   24.64    3.07
   0   3  -4   30.27    3.14
   0   3  -4   29.18    3.34
   0   3  -4   34.51    3.59
   0   3  -4   28.81    2.92
   0   3  -4   27.61    3.23
   0   3  -3   65.76    4.56
   0   3  -3   88.12    5.75
   0   3  -3   58.78    4.22
   0   3  -3   96.33    5.92
   0   3  -3   75.02    5.17
   0   3  -3   90.26    5.93
   0   3  -3   81.17    5.77
   0   3  -2  514.14   19.48
   0   3  -2  540.81   19.60
   0   3  -2  505.98   18.66
   0   3  -2  539.29   19.26
   0   3  -2  520.81   19.66
   0   3  -2  516.71   19.57
   0   3  -1  125.83    6.36
   0   3  -1  126.62    6.31
   0   3  -1  124.60    6.46
   0   3  -1  126.58    5.84
   0   3  -1  121.27    6.19
   0   3  -1  127.38    5.79
   0   3  -1  127.77    6.45
   0   3   0   63.98    3.76
   0   3   0   62.65    3.56
   0   3   0   65.13    3.99
   0   3   1  373.25   12.40
   0   3   1  339.34   13.28
   0   3   1  354.53   13.29
   0   3   2  225.78    9.10
   0   3   2  220.08    7.65
   0   3   3  256.02   10.66
   0   3   3  243.14   10.69
   0   3   3  242.35   11.86
   0   3   3  244.56    9.84
   0   3   3  260.41   11.72
   0   3   3  259.49   10.38
   0   3   3  248.82   11.16
   0   3   3  250.66   10.13
   0   3   4   11.20    2.24
   0   3   4   11.34    1.66
   0   3   4    9.81    1.59
   0   3   4    9.76    1.69
   0   3   4   10.32    2.08
   0   3   4    9.65    1.49
   0   3   5   11.10    2.54
   0   3   5   10.85    1.94
   0   3   5   15.28    2.16
   0   3   5   16.20    2.98
   0   3   6   44.44    5.77
   0   3   6   29.66    4.75
   0   3   6   37.67    3.86
   0   3   7   26.34    5.03
   0   3   7   33.51    3.97
   0   4  -6   33.04    4.48
   0   4  -6   26.40    3.78
   0   4  -6   29.66    4.31
   0   4  -6   30.00    4.33
   0   4  -6   33.00    4.59
   0   4  -5   22.91    3.46
   0   4  -5   25.41    3.39
   0   4  -5   27.03    3.76
   0   4  -5   24.54    3.60
   0   4  -5   23.36    3.55
   0   4  -4    0.12    0.58
   0   4  -4    1.09    0.81
   0   4  -4    1.19    0.80
   0   4  -4    0.98    0.40
   0   4  -4    0.61    0.53
   0   4  -3   45.79    4.26
   0   4  -3   49.94    4.36
   0   4  -3   49.65    3.94
   0   4  -3   51.43    4.53
   0   4  -3   49.20    4.42
   0   4  -2   77.33    5.46
   0   4  -2   84.68    5.59
   0   4  -2   85.77    5.00
   0   4  -2   90.61    5.17
   0   4  -2   81.72    5.38
   0   4  -2   77.24    5.56
   0   4  -2   83.41    5.68
   0   4  -1  184.32    8.97
   0   4  -1  180.48    8.81
   0   4  -1  173.20    8.45
   0   4  -1  174.43    8.69
   0   4  -1  188.77    9.20
   0   4  -1  173.77    8.03
   0   4  -1  181.19    9.01
   0   4   0  704.66   26.12
   0   4   0  735.53   26.04
   0   4   0  748.88   26.18
   0   4   0  712.89   25.53
   0   4   0  711.77   26.31
   0   4   0  679.71   26.12
   0   4   1  447.31   17.94
   0   4   1  455.92   17.10
   0   4   1  457.80   17.76
   0   4   1  445.49   17.97
   0   4   1  439.78   18.03
   0   4   2  144.15    8.02
   0   4   2  146.26    7.80
   0   4   2  134.70    6.76
   0   4   2  126.91    6.70
   0   4   2  136.95    7.96
   0   4   2  124.27    6.73
   0   4   2  133.22    5.26
   0   4   3    6.54    1.59
   0   4   3    8.51    1.90
   0   4   3    9.28    1.57
   0   4   3    9.73    1.90
   0   4   3    7.49    1.35
   0   4   4   30.20    3.25
   0   4   4   36.70    4.24
   0   4   4   37.73    4.13
   0   4   4   27.76    2.84
   0   4   4   29.47    2.84
   0   4   5    0.62    0.67
   0   4   5    0.47    0.53
   0   4   5    0.32    0.58
   0   4   5    0.79    0.83
   0   4   6   13.23    3.32
   0   4   6   13.31    2.36
   0   4   6   13.34    3.29
   0   4   7   23.30    4.52
   0   4   7   24.86    3.48
   0   5  -6   56.34    5.77
   0   5  -5   16.36    3.18
   0   5  -5   18.26    2.99
   0   5  -5   17.55    2.96
   0   5  -5   20.61    3.53
   0   5  -5   16.62    3.10
   0   5  -5   14.01    2.98
   0   5  -4   24.01    3.56
   0   5  -4   25.12    3.73
   0   5  -4   19.70    3.22
   0   5  -4   19.32    3.19
   0   5  -4   22.42    3.22
   0   5  -3  109.48    7.65
   0   5  -3  116.99    7.78
   0   5  -3  112.28    6.96
   0   5  -3  114.76    7.90
   0   5  -3  119.30    7.99
   0   5  -2   45.65    3.88
   0   5  -2   41.05    4.36
   0   5  -2   41.42    4.33
   0   5  -2   38.27    4.56
   0   5  -2   49.35    4.74
   0   5  -1   12.24    2.19
   0   5  -1   10.94    1.73
   0   5  -1   10.70    2.02
   0   5  -1   12.84    2.17
   0   5  -1   11.85    1.76
   0   5  -1   13.37    2.29
   0   5   0   19.47    2.73
   0   5   0   17.97    2.18
   0   5   0   17.13    2.54
   0   5   0   15.96    2.37
   0   5   0   19.75    2.32
   0   5   0   20.41    2.84
   0   5   1   36.05    3.87
   0   5   1   36.30    3.74
   0   5   1   34.80    2.61
   0   5   1   34.61    3.16
   0   5   1   35.79    3.91
   0   5   2    3.13    1.22
   0   5   2    5.31    0.79
   0   5   2    6.93    1.73
   0   5   2    2.83    0.99
   0   5   2    8.50    1.77
   0   5   3   90.59    6.08
   0   5   3   95.61    7.33
   0   5   3  109.40    7.42
   0   5   3   94.60    7.32
   0   5   4   27.53    4.10
   0   5   4   17.83    2.70
   0   5   4   22.77    3.55
   0   5   4   20.73    2.60
   0   5   5   52.01    5.03
   0   5   5   56.48    6.36
   0   5   5   68.74    6.72
   0   5   5   51.26    4.60
   0   5   6   12.19    3.29
   0   5   6   18.43    2.84
   0   5   6   19.03    3.95
   0   6  -5    3.13    1.36
   0   6  -4    7.18    2.09
   0   6  -4    7.18    1.85
   0   6  -4    5.91    1.93
   0   6  -4    8.42    2.31
   0   6  -4   12.76    2.81
   0   6  -3   13.07    2.70
   0   6  -3   13.04    2.31
   0   6  -3    7.54    2.15
   0   6  -3   11.35    2.49
   0   6  -3   12.71    2.74
   0   6  -2   51.21    5.19
   0   6  -2   51.22    5.12
   0   6  -2   52.04    4.48
   0   6  -2   43.38    4.91
   0   6  -2   55.56    5.43
   0   6  -1   70.76    6.15
   0   6  -1   81.40    6.43
   0   6  -1   73.62    6.01
   0   6  -1   65.69    3.09
   0   6  -1   76.42    5.39
   0   6  -1   74.55    6.28
   0   6   0  443.49   18.30
   0   6   0  449.66   19.92
   0   6   0  455.32   19.68
   0   6   0  463.85   20.19
   0   6   0  443.26   20.03
   0   6   1  190.68    8.48
   0   6   1  173.20   10.67
   0   6   1  184.65   10.65
   0   6   1  184.29    9.54
   0   6   1  189.13   11.15
   0   6   2  181.19    7.67
   0   6   2  185.42   11.13
   0   6   2  189.19   10.85
   0   6   2  186.74    9.70
   0   6   2  180.09   11.09
   0   6   3    8.72    2.28
   0   6   3    8.00    2.12
   0   6   3    8.37    1.81
   0   6   3    9.76    2.31
   0   6   4    1.99    1.35
   0   6   4    2.76    1.27
   0   6   4    2.55    1.16
   0   6   4    0.68    0.83
   0   6   5   32.70    4.19
   0   6   5   30.33    4.92
   0   6   5   28.97    4.51
   0   6   5   41.27    4.22
   0   7  -4    5.01    1.65
   0   7  -3   33.34    4.76
   0   7  -3   27.33    4.25
   0   7  -3   29.99    4.35
   0   7  -3   32.64    3.95
   0   7  -3   31.37    4.66
   0   7  -2   61.93    6.30
   0   7  -2   67.97    6.40
   0   7  -2   51.74    4.95
   0   7  -2   58.71    6.28
   0   7  -2   60.20    6.28
   0   7  -1   52.20    5.71
   0   7  -1   53.21    4.88
   0   7  -1   52.19    5.54
   0   7  -1   58.78    6.14
   0   7  -1   57.01    6.04
   0   7   0    2.35    1.44
   0   7   0    1.12    1.02
   0   7   0    0.32    0.53
   0   7   0    1.04    1.00
   0   7   0    2.72    1.38
   0   7   1    5.49    1.95
   0   7   1    6.24    1.31
   0   7   1    5.47    1.93
   0   7   1    3.67    1.27
   0   7   1    5.74    1.87
   0   7   2   75.07    7.04
   0   7   2   65.35    6.36
   0   7   2   68.24    5.60
   0   7   2   57.90    6.30
   0   7   3   18.69    3.61
   0   7   3   26.35    4.19
   0   7   3   24.58    3.31
   0   7   3   24.58    3.87
   0   7   4   30.32    4.00
   0   7   4   33.88    5.04
   0   7   4   33.51    5.19
   0   7   4   40.04    5.32
   0   7   5    1.55    1.06
   0   8  -2   15.62    2.92
   0   8  -1   91.54    7.16
   0   8   0   50.07    5.08
   0   8   1  157.16    9.81
   0   8   2   31.65    4.05
   0   8   3   77.23    6.72
   1  -8  -2    8.95    2.48
   1  -8  -1    4.16    1.68
   1  -8   0    9.68    2.42
   1  -8   0   10.76    2.57
   1  -8   1    1.49    0.97
   1  -8   1    4.10    1.65
   1  -8   2    2.79    1.25
   1  -8   3   63.96    6.33
   1  -7  -5   75.72    6.91
   1  -7  -4   46.63    5.15
   1  -7  -4   57.30    6.32
   1  -7  -4   55.34    6.02
   1  -7  -3   42.91    5.18
   1  -7  -3   45.16    4.87
   1  -7  -3   46.12    5.31
   1  -7  -2    5.72    1.94
   1  -7  -2    6.15    1.79
   1  -7  -2    5.35    1.82
   1  -7  -1    3.63    1.44
   1  -7  -1    2.12    1.07
   1  -7   0   30.35    3.81
   1  -7   0   32.85    4.14
   1  -7   0   34.07    4.21
   1  -7   1    6.73    1.81
   1  -7   1    8.63    2.11
   1  -7   2    0.86    0.93
   1  -7   2    1.44    1.15
   1  -7   3   76.67    6.47
   1  -7   4   13.87    2.62
   1  -6  -6   11.04    2.55
   1  -6  -5   42.62    5.06
   1  -6  -5   40.05    4.64
   1  -6  -5   41.87    5.39
   1  -6  -5   42.58    5.11
   1  -6  -4   15.34    3.06
   1  -6  -4   13.80    2.56
   1  -6  -4   16.28    2.97
   1  -6  -3  101.20    7.19
   1  -6  -3  109.71    8.09
   1  -6  -3  115.13    8.09
   1  -6  -2    4.58    0.99
   1  -6  -2    5.73    1.57
   1  -6  -2    7.35    1.66
   1  -6  -2    6.09    1.71
   1  -6  -1   76.70    6.01
   1  -6  -1   74.63    4.39
   1  -6  -1   68.68    5.52
   1  -6   0   13.54    2.01
   1  -6   0   15.48    2.50
   1  -6   0   15.29    2.41
   1  -6   1   12.48    2.24
   1  -6   1   12.09    2.19
   1  -6   2   74.99    5.91
   1  -6   2   77.34    5.86
   1  -6   3   24.49    3.17
   1  -6   3   21.79    3.06
   1  -6   4   99.71    7.03
   1  -6   5    8.91    2.17
   1  -6   5    9.79    2.15
   1  -5  -6  135.36    9.19
   1  -5  -6  158.73   10.78
   1  -5  -6  161.17   10.76
   1  -5  -5  145.84    9.54
   1  -5  -5  131.04    8.49
   1  -5  -5  134.26    9.18
   1  -5  -4   76.44    5.78
   1  -5  -4   69.82    5.94
   1  -5  -3    3.24    0.72
   1  -5  -3    2.57    1.10
   1  -5  -3    3.86    0.89
   1  -5  -3    3.49    1.25
   1  -5  -3    2.75    0.98
   1  -5  -2    4.33    1.06
   1  -5  -2    6.45    1.14
   1  -5  -2    7.76    1.71
   1  -5  -2    4.19    1.15
   1  -5  -2    5.04    1.40
   1  -5  -1   17.21    2.32
   1  -5  -1   18.81    2.55
   1  -5  -1   19.26    2.19
   1  -5   0   35.57    3.36
   1  -5   0   36.67    3.00
   1  -5   0   34.79    3.44
   1  -5   1    5.20    1.26
   1  -5   1    4.55    1.18
   1  -5   1    4.21    1.15
   1  -5   2   10.04    1.72
   1  -5   2   12.66    2.01
   1  -5   3    5.94    1.39
   1  -5   3    4.78    1.27
   1  -5   4   39.78    3.90
   1  -5   5   53.89    4.81
   1  -5   5   63.36    5.25
   1  -5   5   64.06    5.27
   1  -5   6  161.68    9.76
   1  -5   6  159.14    9.69
   1  -5   6  150.70    9.41
   1  -4  -7   39.03    4.53
   1  -4  -7   37.41    4.96
   1  -4  -7   33.54    4.76
   1  -4  -6   21.18    3.09
   1  -4  -6   20.53    3.37
   1  -4  -5   26.94    3.26
   1  -4  -5   29.09    3.71
   1  -4  -5   28.45    3.62
   1  -4  -4  129.19    5.96
   1  -4  -4  142.00    6.06
   1  -4  -4  165.09    8.94
   1  -4  -4  143.51    8.02
   1  -4  -4  151.47    8.60
   1  -4  -3   20.64    2.63
   1  -4  -3   21.88    2.20
   1  -4  -3   19.87    1.86
   1  -4  -3   23.24    2.60
   1  -4  -3   22.98    2.59
   1  -4  -2   83.74    5.81
   1  -4  -2   91.31    4.83
   1  -4  -2   86.09    5.75
   1  -4  -2   89.37    5.69
   1  -4  -2   89.51    6.04
   1  -4  -2   87.71    5.36
   1  -4  -2   84.63    5.62
   1  -4  -2   83.99    4.17
   1  -4  -2   87.57    5.09
   1  -4  -2   82.75    5.85
   1  -4  -1   14.50    2.12
   1  -4  -1   20.04    2.46
   1  -4  -1   16.63    2.20
   1  -4  -1   19.12    2.17
   1  -4  -1   12.55    1.86
   1  -4  -1   16.25    1.77
   1  -4  -1   15.86    2.24
   1  -4   0   64.17    4.64
   1  -4   0   64.97    4.59
   1  -4   0   62.81    4.21
   1  -4   0   58.50    3.58
   1  -4   0   66.13    4.34
   1  -4   0   56.71    4.47
   1  -4   0   63.77    4.64
   1  -4   1   38.88    3.49
   1  -4   1   41.95    3.61
   1  -4   1   37.16    3.10
   1  -4   1   43.75    3.36
   1  -4   1   39.05    3.55
   1  -4   1   34.77    3.34
   1  -4   2    1.37    0.59
   1  -4   2    1.29    0.55
   1  -4   3  157.34    7.54
   1  -4   4   32.99    3.28
   1  -4   4   31.81    3.03
   1  -4   5   62.37    4.80
   1  -4   5   64.26    5.03
   1  -4   5   57.65    4.68
   1  -4   6    5.89    1.53
   1  -4   6    5.66    1.59
   1  -4   6    5.48    1.56
   1  -4   7    9.34    2.25
   1  -4   7    6.60    1.89
   1  -3  -7   91.17    7.58
   1  -3  -7   68.49    6.71
   1  -3  -7   71.41    6.08
   1  -3  -7   89.18    7.52
   1  -3  -7   91.60    7.45
   1  -3  -6   28.63    3.46
   1  -3  -6   37.30    4.40
   1  -3  -6   32.39    4.09
   1  -3  -5  239.64   11.28
   1  -3  -5  256.96   12.32
   1  -3  -5  255.78   12.26
   1  -3  -5  249.06   12.05
   1  -3  -4   64.32    4.64
   1  -3  -4   59.96    4.75
   1  -3  -4   53.69    4.50
   1  -3  -4   61.22    4.76
   1  -3  -4   63.40    3.76
   1  -3  -3  355.07   12.84
   1  -3  -3  339.69   15.15
   1  -3  -3  362.54   15.10
   1  -3  -3  356.18   12.92
   1  -3  -3  356.24   14.26
   1  -3  -3  364.01   14.74
   1  -3  -3  361.65   14.47
   1  -3  -3  360.03   15.48
   1  -3  -2   15.48    1.41
   1  -3  -2   18.92    2.30
   1  -3  -2   14.80    1.67
   1  -3  -2   13.50    1.90
   1  -3  -2   18.53    2.21
   1  -3  -2   11.92    1.70
   1  -3  -2   12.78    1.40
   1  -3  -2   17.76    2.24
   1  -3  -2   14.93    1.56
   1  -3  -2   13.96    1.68
   1  -3  -2   17.47    2.24
   1  -3  -1   55.63    3.87
   1  -3  -1   53.34    3.76
   1  -3  -1   59.58    3.68
   1  -3  -1   54.80    3.22
   1  -3  -1   59.55    4.05
   1  -3  -1   52.80    3.61
   1  -3  -1   56.63    3.94
   1  -3   0  331.55   12.80
   1  -3   0  304.27   12.56
   1  -3   0  303.20   12.25
   1  -3   0  323.14   11.53
   1  -3   0  332.04   12.39
   1  -3   0  313.67   12.80
   1  -3   0  328.94   12.85
   1  -3   1   42.84    3.32
   1  -3   1   44.35    3.37
   1  -3   1   51.15    3.28
   1  -3   1   51.38    3.17
   1  -3   1   45.12    3.44
   1  -3   1   42.18    3.30
   1  -3   2   27.99    2.68
   1  -3   2   25.43    2.04
   1  -3   2   27.82    2.67
   1  -3   2   26.75    2.25
   1  -3   2   28.82    2.75
   1  -3   2   25.45    2.26
   1  -3   2   26.84    2.62
   1  -3   3  202.18    9.69
   1  -3   3  188.42    9.43
   1  -3   3  213.59    9.97
   1  -3   3  200.50    9.63
   1  -3   3  185.09    8.40
   1  -3   3  212.98    9.17
   1  -3   4  110.64    5.98
   1  -3   4  110.67    4.68
   1  -3   4  108.31    6.01
   1  -3   4  115.23    6.56
   1  -3   5  134.29    7.48
   1  -3   5  138.12    7.83
   1  -3   6   97.84    6.71
   1  -3   6  103.43    6.41
   1  -3   7   55.33    5.33
   1  -3   7   54.83    5.35
   1  -3   8   50.08    5.42
   1  -2  -7   21.40    3.26
   1  -2  -7   17.18    3.11
   1  -2  -7   20.81    3.37
   1  -2  -7   16.08    2.62
   1  -2  -7   23.42    3.56
   1  -2  -6   11.30    2.18
   1  -2  -6   10.59    2.19
   1  -2  -6   10.98    2.18
   1  -2  -6   11.28    2.01
   1  -2  -6   14.32    2.50
   1  -2  -5  148.78    8.26
   1  -2  -5  153.44    7.87
   1  -2  -5  150.98    8.43
   1  -2  -5  146.27    8.30
   1  -2  -4  116.85    6.50
   1  -2  -4  104.36    6.48
   1  -2  -4  107.05    7.07
   1  -2  -4   94.48    6.51
   1  -2  -4  112.78    6.12
   1  -2  -4  107.62    6.41
   1  -2  -4  119.06    6.62
   1  -2  -4  110.58    5.50
   1  -2  -4  104.57    7.01
   1  -2  -3  148.63    7.16
   1  -2  -3  140.61    7.22
   1  -2  -3  159.75    8.02
   1  -2  -3  139.98    7.49
   1  -2  -3  152.00    7.31
   1  -2  -3  155.09    6.39
   1  -2  -3  144.24    6.97
   1  -2  -3  155.86    7.30
   1  -2  -3  144.03    6.33
   1  -2  -3  146.33    7.85
   1  -2  -2    9.08    1.43
   1  -2  -2    8.83    1.39
   1  -2  -2    8.84    1.29
   1  -2  -2   10.33    1.43
   1  -2  -2   10.25    1.10
   1  -2  -2    9.33    1.28
   1  -2  -2    8.31    1.17
   1  -2  -2   10.33    1.27
   1  -2  -2    8.30    0.97
   1  -2  -2   11.01    1.32
   1  -2  -1   37.21    2.20
   1  -2  -1   38.76    2.28
   1  -2  -1   42.83    2.84
   1  -2  -1   38.65    2.48
   1  -2  -1   43.64    2.45
   1  -2  -1   45.07    2.84
   1  -2  -1   39.10    2.61
   1  -2  -1   39.69    2.59
   1  -2  -1   38.28    2.77
   1  -2  -1   42.12    2.88
   1  -2   0    0.42    0.31
   1  -2   0    0.37    0.17
   1  -2   0    0.47    0.25
   1  -2   0    0.60    0.32
   1  -2   0    0.46    0.25
   1  -2   0    0.28    0.13
   1  -2   0    0.47    0.29
   1  -2   1   21.64    1.85
   1  -2   1   22.63    1.89
   1  -2   1   21.37    1.56
   1  -2   1   20.58    1.67
   1  -2   1   17.60    1.72
   1  -2   1   20.17    1.81
   1  -2   2   59.24    3.75
   1  -2   2   60.09    3.81
   1  -2   2   61.14    3.09
   1  -2   2   63.75    3.83
   1  -2   2   65.72    3.30
   1  -2   2   59.67    3.72
   1  -2   3  123.83    6.68
   1  -2   3  134.62    5.99
   1  -2   3  126.05    6.72
   1  -2   3  149.72    6.58
   1  -2   3  125.97    6.69
   1  -2   4  100.72    6.13
   1  -2   4   96.95    5.06
   1  -2   4  101.19    5.40
   1  -2   4   96.89    6.07
   1  -2   4   92.14    5.44
   1  -2   4   88.20    5.82
   1  -2   5  256.61   11.04
   1  -2   5  250.00   11.39
   1  -2   5  265.26   11.71
   1  -2   6    2.52    0.99
   1  -2   6    1.98    0.88
   1  -2   7    0.70    0.67
   1  -2   7    2.92    1.19
   1  -2   8  138.32    9.42
   1  -1  -8   33.96    3.99
   1  -1  -7   57.36    5.40
   1  -1  -7   53.77    5.40
   1  -1  -7   47.58    4.60
   1  -1  -7   50.04    5.19
   1  -1  -7   54.88    5.40
   1  -1  -6  224.52   11.54
   1  -1  -6  222.76   11.60
   1  -1  -6  208.37   10.66
   1  -1  -6  212.96   11.47
   1  -1  -6  235.94   11.81
   1  -1  -5  141.06    7.92
   1  -1  -5  135.35    7.89
   1  -1  -5  142.81    7.53
   1  -1  -5  135.78    7.87
   1  -1  -5  130.92    7.77
   1  -1  -4  198.85    9.15
   1  -1  -4  206.09    9.32
   1  -1  -4  181.22    9.25
   1  -1  -4  174.26    9.80
   1  -1  -4  187.80    9.31
   1  -1  -4  175.54    9.51
   1  -1  -4  194.78    8.79
   1  -1  -4  187.33    8.78
   1  -1  -4  184.15    8.77
   1  -1  -4  196.57    9.22
   1  -1  -4  189.09    9.06
   1  -1  -3   37.18    2.99
   1  -1  -3   37.64    3.11
   1  -1  -3   43.36    3.03
   1  -1  -3   40.64    3.54
   1  -1  -3   41.65    3.42
   1  -1  -3   37.40    2.97
   1  -1  -3   38.33    2.94
   1  -1  -3   41.77    3.07
   1  -1  -2   13.37    1.42
   1  -1  -2   15.14    1.58
   1  -1  -2   17.44    1.81
   1  -1  -2   17.39    1.82
   1  -1  -2   15.66    1.66
   1  -1  -2   17.63    1.47
   1  -1  -2   15.00    1.45
   1  -1  -2   14.64    1.48
   1  -1  -2   15.86    1.54
   1  -1  -2   16.10    1.52
   1  -1  -2   15.14    1.36
   1  -1  -2   16.05    1.73
   1  -1  -1    2.52    0.53
   1  -1  -1    4.23    0.59
   1  -1  -1    3.04    0.50
   1  -1  -1    2.92    0.55
   1  -1  -1    3.44    0.51
   1  -1  -1    4.21    0.71
   1  -1  -1    3.59    0.55
   1  -1  -1    2.51    0.50
   1  -1  -1    3.31    0.55
   1  -1  -1    2.51    0.47
   1  -1  -1    3.29    0.57
   1  -1   0   27.21    1.64
   1  -1   0   29.65    1.65
   1  -1   0   29.18    1.62
   1  -1   0   27.99    1.66
   1  -1   0   27.25    1.64
   1  -1   0   29.24    1.66
   1  -1   1    4.17    0.61
   1  -1   1    3.85    0.52
   1  -1   1    3.38    0.57
   1  -1   1    3.95    0.61
   1  -1   1    3.66    0.36
   1  -1   1    5.38    0.47
   1  -1   1    3.19    0.55
   1  -1   2    3.20    0.66
   1  -1   2    3.24    0.54
   1  -1   2    2.30    0.59
   1  -1   2    1.66    0.48
   1  -1   2    2.46    0.55
   1  -1   3   97.36    5.45
   1  -1   3  106.11    4.96
   1  -1   3  114.07    4.69
   1  -1   3   98.98    5.49
   1  -1   3  102.95    5.16
   1  -1   3  106.77    5.60
   1  -1   4   88.20    5.57
   1  -1   4   88.24    4.91
   1  -1   4   87.62    5.57
   1  -1   4   73.61    4.73
   1  -1   4   94.02    5.68
   1  -1   5  201.50    9.40
   1  -1   5  193.85    9.48
   1  -1   6  101.90    6.57
   1  -1   6  103.74    6.73
   1  -1   7  107.74    7.35
   1  -1   8   25.10    3.55
   1   0  -8   15.17    2.77
   1   0  -7   27.19    3.69
   1   0  -7   23.51    3.41
   1   0  -7   23.92    3.52
   1   0  -7   23.31    3.50
   1   0  -7   21.28    2.99
   1   0  -6    0.98    0.81
   1   0  -6    0.48    0.47
   1   0  -6    0.68    0.69
   1   0  -6    0.07    0.51
   1   0  -6    0.71    0.45
   1   0  -5    1.63    0.73
   1   0  -5    2.36    0.89
   1   0  -5    1.17    0.66
   1   0  -5    2.85    0.59
   1   0  -5    4.60    1.30
   1   0  -5    2.96    0.89
   1   0  -5    1.86    0.75
   1   0  -4   74.31    4.72
   1   0  -4   62.56    4.43
   1   0  -4   60.19    5.14
   1   0  -4   63.02    4.58
   1   0  -4   63.16    3.38
   1   0  -4   56.75    4.82
   1   0  -4   63.51    4.46
   1   0  -4   64.48    4.32
   1   0  -4   70.06    4.25
   1   0  -4   59.32    4.33
   1   0  -3  100.90    5.33
   1   0  -3  104.04    5.37
   1   0  -3   90.91    5.87
   1   0  -3   94.85    5.81
   1   0  -3   99.85    5.32
   1   0  -3  101.02    4.97
   1   0  -3   98.07    5.18
   1   0  -3   99.92    5.29
   1   0  -2  247.95    9.35
   1   0  -2  254.84    9.52
   1   0  -2  214.46    9.81
   1   0  -2  242.73    9.76
   1   0  -2  224.96    9.76
   1   0  -2  260.77    9.42
   1   0  -2  235.80    8.92
   1   0  -2  253.04    9.35
   1   0  -2  238.96    9.27
   1   0  -1  163.18    6.33
   1   0  -1  178.81    6.25
   1   0  -1  170.02    6.43
   1   0  -1  157.52    6.48
   1   0  -1  159.64    6.42
   1   0  -1  172.31    6.67
   1   0  -1  180.78    6.26
   1   0  -1  175.70    6.23
   1   0   0   62.77    2.35
   1   0   0   64.63    2.76
   1   0   0   65.80    2.68
   1   0   0   63.30    2.46
   1   0   0   64.58    2.88
   1   0   0   70.67    3.02
   1   0   1   79.11    3.30
   1   0   1   82.67    2.91
   1   0   1   77.18    3.14
   1   0   1   78.59    3.29
   1   0   1   74.96    3.26
   1   0   1   76.21    3.52
   1   0   1   80.30    3.26
   1   0   1   78.05    3.28
   1   0   1   76.73    3.55
   1   0   1   77.11    3.07
   1   0   2  283.53   10.20
   1   0   2  287.65    9.82
   1   0   2  259.16   11.20
   1   0   2  285.47   10.76
   1   0   2  298.67   10.10
   1   0   2  293.35   10.49
   1   0   2  283.17   10.72
   1   0   3  188.09    7.85
   1   0   3  179.36    8.35
   1   0   3  192.30    8.00
   1   0   3  184.02    7.56
   1   0   3  189.29    8.37
   1   0   4  167.32    8.05
   1   0   4  175.60    8.75
   1   0   4  169.16    8.10
   1   0   4  190.88    8.94
   1   0   4  175.61    7.84
   1   0   5    5.69    1.73
   1   0   5    8.66    1.50
   1   0   5    9.85    1.68
   1   0   6    3.85    1.55
   1   0   6    6.23    1.46
   1   0   6    8.23    1.20
   1   0   7   31.30    3.62
   1   0   7   29.62    4.97
   1   0   8    2.62    1.22
   1   1  -8    1.52    0.98
   1   1  -7  133.83    8.95
   1   1  -7  122.97    8.81
   1   1  -7  110.45    8.52
   1   1  -7  128.44    8.96
   1   1  -7  124.93    8.21
   1   1  -7  122.75    8.77
   1   1  -6   60.91    5.23
   1   1  -6   56.62    5.24
   1   1  -6   57.61    5.31
   1   1  -6   55.47    5.17
   1   1  -6   61.38    5.37
   1   1  -5  307.40   13.01
   1   1  -5  259.84   12.70
   1   1  -5  263.08   12.75
   1   1  -5  288.82   13.02
   1   1  -5  248.29   11.60
   1   1  -5  275.03   12.87
   1   1  -4   82.10    5.22
   1   1  -4   72.06    5.02
   1   1  -4   75.13    5.12
   1   1  -4   83.47    3.37
   1   1  -4   81.91    6.07
   1   1  -4   73.44    5.07
   1   1  -4   75.43    4.60
   1   1  -4   83.23    5.30
   1   1  -3  178.06    7.97
   1   1  -3  177.63    7.96
   1   1  -3  176.32    7.98
   1   1  -3  169.26    6.47
   1   1  -3  150.56    8.40
   1   1  -3  171.75    7.88
   1   1  -3  166.26    7.17
   1   1  -3  168.58    7.83
   1   1  -3  179.89    7.85
   1   1  -2    9.06    1.15
   1   1  -2   11.32    1.33
   1   1  -2   12.53    1.35
   1   1  -2   10.20    1.23
   1   1  -2   10.28    0.99
   1   1  -2    9.49    1.45
   1   1  -2   10.23    1.22
   1   1  -2   10.66    1.01
   1   1  -2    9.31    1.16
   1   1  -1    5.02    0.67
   1   1  -1    5.13    0.69
   1   1  -1    4.86    0.67
   1   1  -1    3.82    0.75
   1   1  -1    5.17    0.74
   1   1  -1    5.51    0.69
   1   1  -1    6.38    0.74
   1   1   0   11.61    1.01
   1   1   0   11.82    0.90
   1   1   0   12.64    0.96
   1   1   0   10.10    0.84
   1   1   0   12.69    1.15
   1   1   0   12.07    1.08
   1   1   0   11.85    1.01
   1   1   0   10.61    0.99
   1   1   0   12.99    0.96
   1   1   0   11.94    0.92
   1   1   1   31.05    1.97
   1   1   1   34.01    1.61
   1   1   1   31.05    2.04
   1   1   1   30.25    1.90
   1   1   1   33.07    1.49
   1   1   1   30.32    1.88
   1   1   1   33.22    1.87
   1   1   1   35.00    1.47
   1   1   1   28.34    1.91
   1   1   2   21.30    1.72
   1   1   2   20.68    1.55
   1   1   2   22.74    2.16
   1   1   2   23.18    2.10
   1   1   2   24.28    1.91
   1   1   2   22.42    1.15
   1   1   3    0.62    0.32
   1   1   3    0.29    0.27
   1   1   3    0.13    0.22
   1   1   3    0.15    0.30
   1   1   4  260.23   10.21
   1   1   4  259.60   11.01
   1   1   4  241.28    9.73
   1   1   4  228.84   10.59
   1   1   5   53.10    5.50
   1   1   5   65.48    4.41
   1   1   6  283.60   16.47
   1   1   6  322.77   13.85
   1   1   7   36.89    3.94
   1   1   7   35.80    5.33
   1   1   8  119.00    8.21
   1   1   8  104.19   10.15
   1   2  -7   57.16    5.69
   1   2  -7   58.96    6.03
   1   2  -7   49.16    5.61
   1   2  -7   55.40    5.90
   1   2  -7   56.82    5.87
   1   2  -6   28.24    3.73
   1   2  -6   29.05    3.63
   1   2  -6   26.45    3.64
   1   2  -6   27.52    3.73
   1   2  -6   23.93    3.47
   1   2  -5   33.48    3.65
   1   2  -5   42.58    4.15
   1   2  -5   36.48    3.90
   1   2  -5   40.62    4.10
   1   2  -5   38.33    3.98
   1   2  -4  219.15   10.37
   1   2  -4  214.84   10.34
   1   2  -4  210.40   10.29
   1   2  -4  199.74   11.31
   1   2  -4  213.44   10.35
   1   2  -4  200.16   10.10
   1   2  -3  129.19    6.67
   1   2  -3  118.07    6.50
   1   2  -3  135.35    6.63
   1   2  -3  136.38    7.10
   1   2  -3  121.44    6.55
   1   2  -3  117.32    7.32
   1   2  -3  123.20    6.63
   1   2  -3  133.91    6.76
   1   2  -2  206.37    8.81
   1   2  -2  205.60    8.77
   1   2  -2  213.47    8.86
   1   2  -2  201.39    8.82
   1   2  -2  216.12    8.91
   1   2  -1  170.69    7.01
   1   2  -1  164.23    6.93
   1   2  -1  171.82    7.08
   1   2  -1  152.15    7.02
   1   2  -1  164.66    7.05
   1   2  -1  160.88    6.99
   1   2   0  202.42    7.53
   1   2   0  161.52    7.36
   1   2   0  185.56    7.32
   1   2   0  178.60    6.86
   1   2   0  191.52    7.52
   1   2   0  180.68    7.41
   1   2   1  229.87    8.63
   1   2   1  207.37    8.43
   1   2   1  223.43    8.42
   1   2   1  211.67    8.53
   1   2   2  144.41    6.99
   1   2   2  136.71    6.72
   1   2   2  142.39    5.49
   1   2   2  134.68    6.37
   1   2   2  124.37    6.80
   1   2   2  136.20    6.01
   1   2   3  366.83   13.33
   1   2   3  325.81   13.09
   1   2   3  361.43   13.96
   1   2   3  349.85   12.29
   1   2   4   32.28    2.85
   1   2   4   35.59    3.17
   1   2   4   37.11    3.97
   1   2   4   31.22    2.97
   1   2   4   39.31    3.94
   1   2   4   29.86    2.66
   1   2   4   37.04    3.44
   1   2   5  273.78   14.21
   1   2   5  249.41   12.22
   1   2   5  274.59   11.60
   1   2   5  247.22    8.79
   1   2   6    5.19    1.98
   1   2   6    5.01    1.35
   1   2   6    7.34    0.85
   1   2   7    5.37    2.48
   1   2   7    5.68    1.54
   1   2   8  114.90   10.59
   1   2   8  102.37    7.77
   1   3  -7   36.09    4.92
   1   3  -7   36.78    4.91
   1   3  -7   45.40    5.42
   1   3  -7   36.17    4.92
   1   3  -6   34.02    4.28
   1   3  -6   35.07    4.22
   1   3  -6   23.09    3.61
   1   3  -6   29.67    4.04
   1   3  -6   25.93    3.83
   1   3  -5  155.63    9.07
   1   3  -5  143.63    9.01
   1   3  -5  140.16    8.94
   1   3  -5  141.72    8.99
   1   3  -5  131.82    8.67
   1   3  -4  111.92    7.03
   1   3  -4  101.12    6.65
   1   3  -4  103.99    6.81
   1   3  -4  103.64    6.89
   1   3  -4  114.89    7.10
   1   3  -3  435.79   17.22
   1   3  -3  418.48   17.02
   1   3  -3  415.32   17.09
   1   3  -3  437.66   17.35
   1   3  -3  438.51   17.28
   1   3  -2   40.64    3.28
   1   3  -2   36.71    3.12
   1   3  -2   42.30    3.20
   1   3  -2   38.86    3.15
   1   3  -2   37.98    3.33
   1   3  -2   37.74    3.25
   1   3  -2   37.52    3.24
   1   3  -2   43.93    3.42
   1   3  -1   59.90    3.82
   1   3  -1   55.14    3.65
   1   3  -1   50.17    3.47
   1   3  -1   54.49    3.75
   1   3  -1   53.09    3.68
   1   3   0  469.40   17.45
   1   3   0  459.10   17.10
   1   3   0  492.96   17.42
   1   3   0  458.21   16.98
   1   3   0  468.79   15.86
   1   3   0  478.86   17.61
   1   3   0  483.55   17.61
   1   3   1   54.75    3.75
   1   3   1   54.87    3.65
   1   3   1   53.67    3.26
   1   3   1   53.53    3.79
   1   3   2   81.84    5.13
   1   3   2   86.20    5.06
   1   3   2   75.41    4.03
   1   3   2   73.38    4.96
   1   3   3  319.91   12.66
   1   3   3  316.46   13.98
   1   3   3  308.79   11.21
   1   3   3  346.68   13.94
   1   3   3  307.56   11.71
   1   3   3  299.80   13.09
   1   3   3  324.88   12.99
   1   3   4  169.50    8.48
   1   3   4  156.90    9.54
   1   3   4  150.31    7.32
   1   3   4  160.52    9.28
   1   3   4  156.35    7.72
   1   3   4  174.66    7.22
   1   3   5  330.04   16.45
   1   3   5  305.61   15.72
   1   3   5  336.88   13.51
   1   3   6   51.20    6.01
   1   3   6   48.07    5.71
   1   3   6   42.61    4.07
   1   3   7   28.84    5.12
   1   3   7   46.98    4.63
   1   4  -6   19.87    3.56
   1   4  -6   17.98    3.19
   1   4  -6    9.73    2.52
   1   4  -6   15.27    3.09
   1   4  -6   16.35    3.23
   1   4  -5    6.51    1.82
   1   4  -5    8.99    2.14
   1   4  -5    4.90    1.64
   1   4  -5    7.45    1.95
   1   4  -5    7.23    2.04
   1   4  -4   37.08    4.11
   1   4  -4   43.05    4.26
   1   4  -4   44.73    4.43
   1   4  -4   44.26    4.50
   1   4  -4   34.57    3.98
   1   4  -3   95.58    6.43
   1   4  -3   91.60    6.26
   1   4  -3   91.62    6.09
   1   4  -3   98.95    6.62
   1   4  -3   94.86    6.46
   1   4  -2   76.94    5.33
   1   4  -2   73.89    5.16
   1   4  -2   72.93    5.35
   1   4  -2   81.94    5.22
   1   4  -2   75.33    5.34
   1   4  -1   68.19    4.78
   1   4  -1   66.22    4.85
   1   4  -1   74.71    4.87
   1   4  -1   63.88    4.46
   1   4  -1   66.41    4.50
   1   4  -1   73.11    5.04
   1   4  -1   67.10    4.45
   1   4  -1   69.95    4.90
   1   4   0    0.48    0.50
   1   4   0   -0.05    0.33
   1   4   0    0.45    0.40
   1   4   0   -0.11    0.38
   1   4   0    0.69    0.46
   1   4   0    0.14    0.27
   1   4   0    0.39    0.20
   1   4   0    1.19    0.56
   1   4   0    1.25    0.64
   1   4   1    2.28    0.88
   1   4   1    4.16    1.13
   1   4   1    2.71    0.84
   1   4   1    4.77    1.13
   1   4   1    3.44    1.02
   1   4   1    4.25    0.98
   1   4   2   59.30    2.67
   1   4   2   55.82    4.60
   1   4   2   63.25    4.66
   1   4   2   61.11    3.93
   1   4   2   58.08    4.18
   1   4   2   63.28    4.90
   1   4   3   63.92    5.31
   1   4   3   65.87    5.16
   1   4   3   66.68    4.10
   1   4   3   65.00    4.66
   1   4   3   54.05    4.94
   1   4   4  110.29    6.74
   1   4   4  114.88    7.98
   1   4   4  102.93    4.93
   1   4   4  105.85    7.45
   1   4   4   97.00    5.43
   1   4   5   35.46    3.83
   1   4   5   30.36    2.82
   1   4   5   33.75    4.55
   1   4   5   38.00    4.62
   1   4   5   39.46    3.64
   1   4   5   28.28    2.73
   1   4   6   10.05    2.83
   1   4   6   16.40    2.50
   1   4   6   15.47    3.32
   1   4   7   12.86    2.44
   1   4   7    9.83    2.89
   1   5  -5  109.01    8.26
   1   5  -5  106.45    8.54
   1   5  -5  121.03    8.96
   1   5  -5  104.46    8.08
   1   5  -5  114.95    8.95
   1   5  -5   99.66    8.38
   1   5  -4  166.34   10.11
   1   5  -4  150.59    9.66
   1   5  -4  158.19    9.44
   1   5  -4  132.86    9.48
   1   5  -4  153.86    9.91
   1   5  -3   27.13    3.54
   1   5  -3   37.19    4.07
   1   5  -3   22.44    3.26
   1   5  -3   28.65    3.70
   1   5  -3   28.55    3.66
   1   5  -2   69.40    5.57
   1   5  -2   75.18    5.69
   1   5  -2   63.75    5.00
   1   5  -2   68.93    5.68
   1   5  -2   72.09    5.73
   1   5  -1   13.81    2.34
   1   5  -1   13.45    2.10
   1   5  -1   10.68    2.00
   1   5  -1   11.42    2.04
   1   5  -1   12.42    2.18
   1   5   0   17.35    2.57
   1   5   0   15.76    2.42
   1   5   0   14.67    2.10
   1   5   0   17.39    2.46
   1   5   0   13.23    2.26
   1   5   1   69.60    5.48
   1   5   1   70.99    5.33
   1   5   1   66.35    4.85
   1   5   1   65.96    5.45
   1   5   2   21.30    3.02
   1   5   2   19.06    1.48
   1   5   2   18.64    2.77
   1   5   2   17.52    2.59
   1   5   2   20.41    2.57
   1   5   3    4.67    1.75
   1   5   3    2.27    1.53
   1   5   3    5.32    1.42
   1   5   3    4.83    1.68
   1   5   4  161.17    9.19
   1   5   4  153.33   10.25
   1   5   4  153.23    9.90
   1   5   5   73.57    6.16
   1   5   5   72.25    7.36
   1   5   5   65.29    6.72
   1   5   5   76.05    5.77
   1   5   6  210.63   14.68
   1   5   6  236.22   14.80
   1   5   6  199.14   11.15
   1   6  -4   23.86    3.89
   1   6  -4   21.51    3.37
   1   6  -4   19.47    3.48
   1   6  -4   22.49    3.68
   1   6  -4   21.84    3.71
   1   6  -3   14.94    2.92
   1   6  -3   16.26    2.72
   1   6  -3   17.88    3.19
   1   6  -3   16.92    3.06
   1   6  -3   15.30    3.05
   1   6  -2  156.98    9.97
   1   6  -2  168.29   10.06
   1   6  -2  156.91   10.16
   1   6  -2  162.79    9.35
   1   6  -2  165.45   10.30
   1   6  -1   22.05    3.33
   1   6  -1   26.18    3.54
   1   6  -1   23.80    3.26
   1   6  -1   27.49    3.26
   1   6  -1   26.65    3.64
   1   6   0   51.46    5.15
   1   6   0   52.86    5.03
   1   6   0   58.95    4.91
   1   6   0   58.14    5.48
   1   6   0   56.69    5.43
   1   6   1   38.13    4.42
   1   6   1   47.28    4.72
   1   6   1   52.49    4.56
   1   6   1   43.75    4.79
   1   6   2   46.18    2.81
   1   6   2   40.54    4.68
   1   6   2   45.69    4.74
   1   6   2   39.72    4.05
   1   6   2   44.25    4.95
   1   6   3  141.37    9.76
   1   6   3  132.87    9.18
   1   6   3  148.14    8.72
   1   6   3  136.11    9.64
   1   6   4   37.49    4.18
   1   6   4   34.05    4.74
   1   6   4   39.85    5.18
   1   6   4   38.39    4.85
   1   6   5   22.40    4.28
   1   6   5   20.78    2.96
   1   6   5   23.14    3.45
   1   6   5   22.23    3.95
   1   6   6    3.57    1.62
   1   7  -3  152.15   10.76
   1   7  -3  144.77   10.34
   1   7  -3  141.42    9.56
   1   7  -3  151.46   10.97
   1   7  -3  146.66   10.74
   1   7  -2   18.75    3.57
   1   7  -2   23.78    3.80
   1   7  -2   22.44    3.75
   1   7  -2   24.07    3.78
   1   7  -2   22.05    3.83
   1   7  -1   15.58    3.10
   1   7  -1    8.84    2.39
   1   7  -1   11.50    2.31
   1   7  -1   13.90    2.79
   1   7  -1   11.83    2.76
   1   7   0   32.45    4.51
   1   7   0   36.97    4.74
   1   7   0   32.03    4.27
   1   7   0   37.12    4.80
   1   7   0   39.96    4.28
   1   7   1   21.23    3.67
   1   7   1   20.94    3.54
   1   7   1   23.28    3.60
   1   7   1   28.58    3.60
   1   7   2    9.65    2.51
   1   7   2    8.91    2.40
   1   7   2   12.36    2.41
   1   7   2   11.15    2.53
   1   7   3   19.48    3.66
   1   7   3   15.46    3.27
   1   7   3   22.81    3.36
   1   7   3   22.13    3.76
   1   7   4  111.79    8.27
   1   7   4  116.60    9.89
   1   7   4  109.09    9.21
   1   7   4  102.94    9.19
   1   7   5   90.23    7.83
   1   8  -1   10.76    2.44
   1   8   0   17.80    3.18
   1   8   1   10.05    2.35
   1   8   2    7.77    2.00
   1   8   3   50.94    5.52
   2  -8  -1   78.56    7.31
   2  -8   0   51.75    5.64
   2  -8   1   71.72    6.59
   2  -8   1   75.72    7.00
   2  -8   2   35.11    4.64
   2  -8   2   33.37    4.31
   2  -7  -3    2.76    1.34
   2  -7  -3    2.00    1.52
   2  -7  -2  102.30    7.74
   2  -7  -2   92.03    7.72
   2  -7  -2  104.95    8.24
   2  -7  -1   14.79    2.76
   2  -7  -1   12.27    2.65
   2  -7   0   32.42    4.03
   2  -7   0   29.41    3.86
   2  -7   1   39.36    4.48
   2  -7   1   46.14    4.68
   2  -7   1   43.89    4.84
   2  -7   2   31.25    3.76
   2  -7   2   31.17    3.99
   2  -7   3   65.30    5.63
   2  -7   3   67.62    6.06
   2  -7   4   28.32    3.93
   2  -6  -5   10.40    2.44
   2  -6  -5   14.02    3.07
   2  -6  -5   13.73    3.00
   2  -6  -4   11.28    2.59
   2  -6  -4   11.04    2.41
   2  -6  -4   13.10    2.60
   2  -6  -3   10.73    2.00
   2  -6  -3   10.98    2.43
   2  -6  -3   11.42    2.34
   2  -6  -3   14.32    2.68
   2  -6  -2   64.03    4.61
   2  -6  -2   53.14    5.01
   2  -6  -2   49.22    5.04
   2  -6  -2   51.31    5.13
   2  -6  -1  108.76    6.39
   2  -6  -1  109.92    7.31
   2  -6  -1   96.18    5.83
   2  -6  -1  103.03    7.20
   2  -6   0  241.88   12.31
   2  -6   0  254.06   12.44
   2  -6   1  186.72   10.29
   2  -6   1  195.33   10.19
   2  -6   2   71.22    5.70
   2  -6   2   74.68    5.48
   2  -6   3   32.81    3.48
   2  -6   3   35.63    3.86
   2  -6   4   18.75    2.98
   2  -6   5    3.24    1.36
   2  -5  -6   32.02    4.50
   2  -5  -6   25.65    3.88
   2  -5  -6   32.78    4.57
   2  -5  -5   14.93    2.88
   2  -5  -5   10.25    2.38
   2  -5  -5   13.56    2.73
   2  -5  -4   21.26    3.11
   2  -5  -4   27.88    3.65
   2  -5  -4   24.55    3.43
   2  -5  -4   28.24    3.66
   2  -5  -3   56.45    4.55
   2  -5  -3   41.09    4.25
   2  -5  -3   37.58    3.42
   2  -5  -3   49.68    4.62
   2  -5  -2   11.13    1.70
   2  -5  -2   12.51    1.93
   2  -5  -2   13.69    2.30
   2  -5  -2   13.12    2.23
   2  -5  -2   11.38    2.04
   2  -5  -1    0.40    0.40
   2  -5  -1    0.66    0.56
   2  -5  -1    2.02    0.80
   2  -5   0   13.31    1.56
   2  -5   0   13.10    2.03
   2  -5   0   10.06    1.81
   2  -5   1    0.32    0.41
   2  -5   1    0.12    0.50
   2  -5   2    8.34    1.48
   2  -5   2    7.24    1.53
   2  -5   2    8.89    1.68
   2  -5   3   83.33    5.30
   2  -5   3   74.71    5.29
   2  -5   4   22.01    3.01
   2  -5   5  111.32    6.88
   2  -5   5   98.02    6.36
   2  -5   5  117.42    7.80
   2  -5   6    7.47    1.81
   2  -5   6    8.43    2.05
   2  -4  -7   10.51    2.50
   2  -4  -6    1.85    1.23
   2  -4  -6    0.19    0.69
   2  -4  -6    0.91    0.88
   2  -4  -5    9.68    2.19
   2  -4  -5   12.87    2.52
   2  -4  -5   15.53    2.76
   2  -4  -4    8.70    1.42
   2  -4  -4   12.28    2.26
   2  -4  -4    7.45    1.35
   2  -4  -4    7.44    1.77
   2  -4  -4    7.91    1.83
   2  -4  -4   11.23    2.11
   2  -4  -4    8.70    1.89
   2  -4  -3   23.20    2.31
   2  -4  -3   22.81    2.84
   2  -4  -3   24.16    2.92
   2  -4  -3   24.17    2.49
   2  -4  -3   27.36    3.07
   2  -4  -3   23.59    2.68
   2  -4  -3   22.46    2.59
   2  -4  -2   66.31    5.13
   2  -4  -2   68.38    4.70
   2  -4  -2   63.20    4.98
   2  -4  -2   67.87    4.90
   2  -4  -2   64.48    5.07
   2  -4  -2   61.04    4.35
   2  -4  -2   70.72    5.31
   2  -4  -2   65.69    4.23
   2  -4  -2   66.77    5.20
   2  -4  -1  163.12    8.73
   2  -4  -1  168.56    8.71
   2  -4  -1  175.49    8.61
   2  -4  -1  177.42    8.59
   2  -4  -1  169.60    7.39
   2  -4  -1  167.46    8.90
   2  -4  -1  172.30    8.92
   2  -4   0  532.76   20.32
   2  -4   0  524.11   20.19
   2  -4   0  535.66   19.70
   2  -4   0  502.16   17.99
   2  -4   0  519.12   19.41
   2  -4   0  499.93   20.25
   2  -4   0  525.45   20.37
   2  -4   1  270.81   11.39
   2  -4   1  273.83   12.37
   2  -4   1  287.17   12.50
   2  -4   1  280.78   12.06
   2  -4   1  287.26   12.59
   2  -4   1  278.88   12.46
   2  -4   2  229.76   10.33
   2  -4   2  228.41    9.67
   2  -4   2  224.96   10.07
   2  -4   3   31.92    2.86
   2  -4   4   17.90    2.03
   2  -4   4   16.57    2.40
   2  -4   5   12.53    1.87
   2  -4   5   15.38    2.10
   2  -4   5   14.21    2.34
   2  -4   6    3.60    1.15
   2  -4   6    7.45    1.66
   2  -4   6    7.95    1.91
   2  -4   7   11.18    2.40
   2  -4   7   11.34    2.45
   2  -3  -7   42.17    5.07
   2  -3  -7   44.89    4.94
   2  -3  -7   36.26    4.72
   2  -3  -7   45.00    5.19
   2  -3  -6   25.76    3.58
   2  -3  -6   18.54    3.09
   2  -3  -6   18.18    3.10
   2  -3  -6   23.63    3.36
   2  -3  -6   22.18    3.34
   2  -3  -5   16.06    2.58
   2  -3  -5   13.50    2.40
   2  -3  -5   15.12    2.46
   2  -3  -5   19.27    2.82
   2  -3  -4   11.94    2.01
   2  -3  -4   11.22    1.65
   2  -3  -4   14.33    2.46
   2  -3  -4   15.82    2.34
   2  -3  -4   14.67    2.24
   2  -3  -4    8.34    1.69
   2  -3  -3   62.39    3.98
   2  -3  -3   63.31    4.93
   2  -3  -3   71.75    5.20
   2  -3  -3   66.55    4.88
   2  -3  -3   63.08    4.14
   2  -3  -3   66.68    4.65
   2  -3  -3   62.58    4.75
   2  -3  -3   65.88    5.03
   2  -3  -3   67.32    4.61
   2  -3  -3   51.99    4.13
   2  -3  -3   62.88    4.97
   2  -3  -3   67.62    4.77
   2  -3  -2   82.31    4.69
   2  -3  -2   96.96    5.74
   2  -3  -2   93.23    5.52
   2  -3  -2   99.57    5.63
   2  -3  -2   90.72    5.12
   2  -3  -2   92.15    5.32
   2  -3  -2   82.03    5.07
   2  -3  -2   79.65    5.41
   2  -3  -2   88.74    4.80
   2  -3  -2   92.04    5.73
   2  -3  -1  128.66    6.01
   2  -3  -1  119.58    6.45
   2  -3  -1  118.15    6.35
   2  -3  -1  119.27    6.35
   2  -3  -1  129.33    6.40
   2  -3  -1  120.79    6.59
   2  -3  -1  129.59    5.50
   2  -3  -1  124.54    6.62
   2  -3   0   26.17    2.46
   2  -3   0   25.99    2.43
   2  -3   0   26.95    2.40
   2  -3   0   25.75    2.18
   2  -3   0   23.41    1.55
   2  -3   0   23.87    2.41
   2  -3   0   24.52    2.42
   2  -3   1   44.80    3.38
   2  -3   1   39.33    3.22
   2  -3   1   47.06    3.27
   2  -3   1   46.54    3.47
   2  -3   1   47.13    2.88
   2  -3   1   47.36    3.45
   2  -3   2  113.70    6.39
   2  -3   2  122.35    6.58
   2  -3   2  118.47    6.02
   2  -3   2  124.85    5.46
   2  -3   2  126.26    6.65
   2  -3   2  116.65    6.42
   2  -3   3   28.45    2.94
   2  -3   3   31.86    3.12
   2  -3   3   25.63    2.80
   2  -3   3   27.52    2.23
   2  -3   3   22.42    2.62
   2  -3   3   26.44    2.03
   2  -3   4  149.36    7.08
   2  -3   4  167.36    8.40
   2  -3   5    0.72    0.46
   2  -3   5    0.66    0.39
   2  -3   5    0.90    0.29
   2  -3   5    0.96    0.65
   2  -3   6    8.37    1.48
   2  -3   6    6.80    1.72
   2  -3   6    8.04    1.68
   2  -3   7   50.20    4.84
   2  -3   7   58.67    5.54
   2  -3   8   19.64    3.20
   2  -2  -7   11.82    2.57
   2  -2  -7    9.63    2.28
   2  -2  -7   11.09    2.27
   2  -2  -7   14.36    2.81
   2  -2  -6   10.02    2.22
   2  -2  -6   11.10    2.27
   2  -2  -6    8.63    2.02
   2  -2  -6   12.04    2.25
   2  -2  -6   13.15    2.50
   2  -2  -5   43.97    4.23
   2  -2  -5   43.88    4.20
   2  -2  -5   40.48    4.01
   2  -2  -5   48.54    4.39
   2  -2  -5   45.82    4.25
   2  -2  -4   43.07    3.73
   2  -2  -4   34.53    3.71
   2  -2  -4   38.76    3.76
   2  -2  -4   30.74    3.74
   2  -2  -4   38.54    3.57
   2  -2  -4   38.87    3.53
   2  -2  -4   37.67    3.45
   2  -2  -4   33.92    3.08
   2  -2  -4   37.18    3.88
   2  -2  -3   35.39    3.06
   2  -2  -3   31.35    2.98
   2  -2  -3   39.60    3.51
   2  -2  -3   33.04    3.44
   2  -2  -3   39.69    3.38
   2  -2  -3   37.67    3.00
   2  -2  -3   39.76    3.34
   2  -2  -3   37.12    3.06
   2  -2  -3   39.79    3.14
   2  -2  -3   33.29    2.80
   2  -2  -3   38.66    3.52
   2  -2  -2  157.09    7.45
   2  -2  -2  174.25    7.99
   2  -2  -2  168.24    7.79
   2  -2  -2  176.12    7.85
   2  -2  -2  179.09    8.07
   2  -2  -2  180.14    7.71
   2  -2  -2  184.66    8.48
   2  -2  -2  169.46    8.02
   2  -2  -2  171.29    7.54
   2  -2  -2  173.89    7.65
   2  -2  -1  315.21   12.19
   2  -2  -1  331.65   12.37
   2  -2  -1  336.85   12.87
   2  -2  -1  323.26   12.22
   2  -2  -1  313.55   12.43
   2  -2  -1  328.84   12.65
   2  -2  -1  326.43   12.17
   2  -2  -1  327.24   12.68
   2  -2  -1  327.15   12.44
   2  -2  -1  329.83   12.44
   2  -2  -1  327.44   11.58
   2  -2   0  104.65    5.22
   2  -2   0  113.45    5.24
   2  -2   0  106.38    5.12
   2  -2   0  113.65    5.37
   2  -2   0  112.70    5.30
   2  -2   0  116.70    4.14
   2  -2   0  113.77    5.28
   2  -2   1  298.57   11.37
   2  -2   1  294.66   11.36
   2  -2   1  296.41   11.19
   2  -2   1  305.84   10.42
   2  -2   1  295.83   11.41
   2  -2   1  296.24   11.38
   2  -2   2   51.98    3.43
   2  -2   2   48.39    3.38
   2  -2   2   50.40    3.02
   2  -2   2   52.82    3.46
   2  -2   2   52.05    2.38
   2  -2   2   54.03    3.47
   2  -2   3  306.67   12.63
   2  -2   3  296.05   11.08
   2  -2   3  316.19   12.72
   2  -2   3  317.47   12.51
   2  -2   3  313.37   12.66
   2  -2   4   19.46    2.43
   2  -2   4   17.05    1.49
   2  -2   4   15.64    1.38
   2  -2   4   17.50    1.79
   2  -2   4   15.87    2.23
   2  -2   4   14.85    1.99
   2  -2   4   15.81    2.21
   2  -2   5   48.49    3.10
   2  -2   5   44.14    3.53
   2  -2   5   46.77    4.01
   2  -2   6   48.74    4.13
   2  -2   6   46.90    4.41
   2  -2   7    9.43    1.99
   2  -2   7   13.48    2.51
   2  -2   8   15.80    2.89
   2  -2   8   23.27    3.60
   2  -1  -7  114.66    8.28
   2  -1  -7  103.54    7.93
   2  -1  -7  105.72    7.91
   2  -1  -7  105.45    7.70
   2  -1  -7  103.93    7.88
   2  -1  -6   28.07    3.53
   2  -1  -6   26.84    3.45
   2  -1  -6   27.56    3.43
   2  -1  -6   22.14    3.14
   2  -1  -6   26.31    3.40
   2  -1  -5   17.75    2.57
   2  -1  -5   13.07    2.16
   2  -1  -5   15.79    2.34
   2  -1  -5   16.69    2.39
   2  -1  -5   13.24    2.14
   2  -1  -4  169.32    8.53
   2  -1  -4  168.13    8.35
   2  -1  -4  139.26    8.68
   2  -1  -4  157.55    8.74
   2  -1  -4  172.30    8.41
   2  -1  -4  168.28    8.53
   2  -1  -4  168.26    8.07
   2  -1  -4  168.49    8.31
   2  -1  -4  158.70    8.17
   2  -1  -4  140.34    8.66
   2  -1  -3   37.51    3.15
   2  -1  -3   32.19    3.22
   2  -1  -3   29.23    3.19
   2  -1  -3   27.64    3.15
   2  -1  -3   33.36    3.09
   2  -1  -3   32.36    2.84
   2  -1  -3   38.82    2.98
   2  -1  -3   40.48    3.36
   2  -1  -3   36.61    2.91
   2  -1  -3   37.54    3.14
   2  -1  -3   33.34    3.27
   2  -1  -2  236.85    9.29
   2  -1  -2  226.56    9.35
   2  -1  -2  226.52    9.16
   2  -1  -2  228.78    9.51
   2  -1  -2  216.42    8.84
   2  -1  -2  241.00    9.69
   2  -1  -2  225.16    9.10
   2  -1  -2  224.22    8.87
   2  -1  -2  223.48    9.32
   2  -1  -2  208.02    9.21
   2  -1  -1  161.98    6.24
   2  -1  -1  160.89    6.21
   2  -1  -1  154.07    7.08
   2  -1  -1  150.81    6.03
   2  -1  -1  150.04    6.79
   2  -1  -1  146.55    5.91
   2  -1  -1  161.76    6.78
   2  -1  -1  154.72    7.24
   2  -1  -1  154.53    6.10
   2  -1  -1  142.28    6.07
   2  -1  -1  145.80    6.50
   2  -1  -1  150.25    6.17
   2  -1   0  219.11    8.42
   2  -1   0  208.19    7.68
   2  -1   0  213.78    7.68
   2  -1   0  211.80    8.67
   2  -1   0  215.89    8.20
   2  -1   0  215.52    7.33
   2  -1   0  208.93    7.70
   2  -1   0  219.30    7.73
   2  -1   1  113.16    4.88
   2  -1   1  124.21    4.99
   2  -1   1  123.98    4.96
   2  -1   1  121.18    4.97
   2  -1   1  115.14    4.89
   2  -1   2  208.50    6.99
   2  -1   2  184.89    7.94
   2  -1   2  187.50    7.91
   2  -1   2  187.36    7.24
   2  -1   2  189.41    7.97
   2  -1   2  206.97    6.70
   2  -1   2  190.03    8.02
   2  -1   2  191.86    7.98
   2  -1   3  243.90    8.63
   2  -1   3  243.58    9.82
   2  -1   3  212.13    7.51
   2  -1   3  186.65    8.33
   2  -1   3  237.77    9.78
   2  -1   3  220.31    9.28
   2  -1   3  224.13    9.65
   2  -1   3  265.15    9.93
   2  -1   4   14.73    2.13
   2  -1   4   14.66    1.64
   2  -1   4    8.74    1.00
   2  -1   4   15.34    2.16
   2  -1   4   17.54    2.10
   2  -1   4   15.05    2.12
   2  -1   4   18.15    1.93
   2  -1   5  196.98    9.17
   2  -1   5  207.48    9.95
   2  -1   6    5.01    1.29
   2  -1   6    6.95    1.69
   2  -1   7    7.98    1.78
   2  -1   7    5.49    1.59
   2  -1   8   85.83    6.76
   2   0  -7    3.98    1.53
   2   0  -7    3.55    1.35
   2   0  -7    5.34    1.66
   2   0  -7    4.13    1.47
   2   0  -7    7.46    2.04
   2   0  -7    3.27    1.33
   2   0  -6   12.86    2.39
   2   0  -6   17.53    2.81
   2   0  -6   15.23    2.63
   2   0  -6   17.88    2.76
   2   0  -6   17.90    2.72
   2   0  -5   11.49    1.98
   2   0  -5   14.36    2.28
   2   0  -5   15.69    2.30
   2   0  -5   13.22    1.64
   2   0  -5   16.15    2.37
   2   0  -5   16.00    2.37
   2   0  -4    3.78    1.00
   2   0  -4    2.67    0.90
   2   0  -4    5.08    1.16
   2   0  -4    1.71    0.82
   2   0  -4    3.66    0.89
   2   0  -4    3.25    1.11
   2   0  -4    4.39    1.08
   2   0  -4    2.43    0.74
   2   0  -4    4.58    1.18
   2   0  -3   58.74    3.96
   2   0  -3   53.57    3.63
   2   0  -3   53.83    4.17
   2   0  -3   71.84    4.78
   2   0  -3   54.77    3.69
   2   0  -3   58.30    4.71
   2   0  -3   52.53    3.99
   2   0  -3   54.20    3.65
   2   0  -3   59.47    4.12
   2   0  -3   60.26    3.48
   2   0  -3   52.36    3.73
   2   0  -3   58.22    3.73
   2   0  -2   42.08    2.87
   2   0  -2   40.58    2.56
   2   0  -2   40.79    2.94
   2   0  -2   34.09    2.77
   2   0  -2   38.40    2.78
   2   0  -2   45.35    2.68
   2   0  -2   45.54    2.68
   2   0  -2   38.35    2.73
   2   0  -1  123.62    4.63
   2   0  -1  127.06    5.23
   2   0  -1  112.64    5.08
   2   0  -1  116.54    4.80
   2   0  -1  125.72    5.90
   2   0  -1  120.99    5.80
   2   0  -1  117.02    4.73
   2   0  -1  121.11    4.61
   2   0  -1  116.62    6.01
   2   0  -1  132.06    5.71
   2   0  -1  121.48    5.79
   2   0  -1  120.77    4.60
   2   0  -1  118.70    5.54
   2   0   0  943.96   30.45
   2   0   0  936.63   31.38
   2   0   0  969.57   30.70
   2   0   0  993.45   30.79
   2   0   0  969.05   31.80
   2   0   0  957.07   31.94
   2   0   0  967.16   31.19
   2   0   0  874.00   31.94
   2   0   1  669.66   21.96
   2   0   1  651.91   22.43
   2   0   1  662.26   21.54
   2   0   1  655.16   21.03
   2   0   1  638.70   22.16
   2   0   1  671.45   21.23
   2   0   1  640.08   21.30
   2   0   1  669.41   21.39
   2   0   1  665.45   21.63
   2   0   1  639.15   21.28
   2   0   2  349.50   12.40
   2   0   2  359.83   12.02
   2   0   2  367.62   12.93
   2   0   2  344.11   13.41
   2   0   2  354.48   11.45
   2   0   2  356.85   12.92
   2   0   2  361.16   12.82
   2   0   2  347.83   12.85
   2   0   2  349.71   13.56
   2   0   3   25.83    2.02
   2   0   3   28.67    2.05
   2   0   3   27.62    3.00
   2   0   3   25.76    2.43
   2   0   3   28.10    2.34
   2   0   3   29.59    2.54
   2   0   3   31.32    2.06
   2   0   3   27.41    2.50
   2   0   4   10.11    1.42
   2   0   4   10.58    2.04
   2   0   4    9.95    1.70
   2   0   4    9.34    1.29
   2   0   4   12.64    1.69
   2   0   4    7.37    1.34
   2   0   4   10.42    1.70
   2   0   5    1.38    0.65
   2   0   5    3.14    1.26
   2   0   5    1.16    0.55
   2   0   5    2.43    0.83
   2   0   5    1.36    0.61
   2   0   6   19.03    3.44
   2   0   6   17.90    2.58
   2   0   6   14.96    2.01
   2   0   6   18.33    2.36
   2   0   7    4.80    1.89
   2   0   7    4.26    1.32
   2   0   8    7.22    1.88
   2   1  -7   83.53    7.10
   2   1  -7   82.50    7.10
   2   1  -7   80.14    6.99
   2   1  -7  106.44    7.67
   2   1  -7   89.33    7.33
   2   1  -6   67.69    5.81
   2   1  -6   59.96    5.43
   2   1  -6   55.67    5.32
   2   1  -6   74.66    5.99
   2   1  -6   71.27    5.86
   2   1  -6   60.48    5.46
   2   1  -5   15.65    2.36
   2   1  -5   19.84    2.70
   2   1  -5   14.88    2.31
   2   1  -5   13.96    1.41
   2   1  -5   14.53    2.31
   2   1  -5   12.42    2.15
   2   1  -5   13.23    1.89
   2   1  -4   89.70    5.70
   2   1  -4   72.57    5.04
   2   1  -4   74.44    5.94
   2   1  -4   77.70    5.25
   2   1  -4   89.87    4.45
   2   1  -4   74.98    5.82
   2   1  -4   79.57    5.24
   2   1  -4   76.17    4.51
   2   1  -4   73.39    5.06
   2   1  -3  160.55    7.68
   2   1  -3  153.36    7.64
   2   1  -3  147.26    7.18
   2   1  -3  149.17    7.25
   2   1  -3  164.14    7.02
   2   1  -3  157.77    8.19
   2   1  -3  155.23    7.29
   2   1  -3  156.19    6.57
   2   1  -3  144.26    7.11
   2   1  -2   20.05    1.75
   2   1  -2   21.07    2.02
   2   1  -2   20.08    1.99
   2   1  -2   17.64    1.67
   2   1  -2   25.18    2.13
   2   1  -2   17.65    2.26
   2   1  -2   21.77    2.19
   2   1  -2   21.10    1.80
   2   1  -2   19.81    1.37
   2   1  -2   21.42    1.80
   2   1  -1   41.43    2.21
   2   1  -1   40.91    2.20
   2   1  -1   40.96    2.86
   2   1  -1   42.82    3.10
   2   1  -1   43.36    2.75
   2   1  -1   41.55    2.23
   2   1  -1   37.34    2.42
   2   1  -1   43.55    2.91
   2   1  -1   43.06    2.24
   2   1  -1   39.96    2.82
   2   1   0   36.56    1.76
   2   1   0   39.14    2.45
   2   1   0   33.30    2.51
   2   1   0   36.13    1.72
   2   1   0   34.30    2.24
   2   1   0   38.01    2.61
   2   1   0   37.09    2.37
   2   1   0   33.24    2.48
   2   1   0   33.93    1.74
   2   1   0   33.64    2.23
   2   1   0   34.59    2.30
   2   1   0   33.06    2.60
   2   1   0   36.55    1.78
   2   1   1   25.29    1.73
   2   1   1   25.01    1.66
   2   1   1   26.24    1.57
   2   1   1   25.32    1.88
   2   1   1   26.99    1.85
   2   1   1   24.98    1.71
   2   1   1   23.94    1.80
   2   1   1   23.93    1.54
   2   1   1   26.44    1.73
   2   1   2  102.97    4.38
   2   1   2   97.66    4.30
   2   1   2  106.52    5.50
   2   1   2  106.24    5.17
   2   1   2  100.64    5.27
   2   1   2  106.85    4.56
   2   1   2  111.23    4.92
   2   1   2  112.48    4.96
   2   1   2  104.95    4.91
   2   1   3    2.34    0.58
   2   1   3    2.44    0.68
   2   1   3    2.14    0.91
   2   1   3    3.57    0.87
   2   1   3    3.73    0.86
   2   1   3    3.41    0.84
   2   1   4   64.79    3.96
   2   1   4   59.78    4.11
   2   1   4   60.30    4.42
   2   1   4   58.40    5.14
   2   1   4   59.87    3.71
   2   1   4   61.56    4.49
   2   1   4   67.10    4.42
   2   1   5  178.91    8.73
   2   1   5  156.41   10.62
   2   1   5  182.19    8.45
   2   1   6   28.74    4.26
   2   1   6   32.13    3.23
   2   1   7    1.49    1.43
   2   1   7    5.44    1.51
   2   1   8  124.44    8.34
   2   1   8  121.00   10.92
   2   2  -7    2.83    1.38
   2   2  -7    2.17    1.26
   2   2  -7    2.46    1.45
   2   2  -7    3.68    1.63
   2   2  -6   19.22    3.12
   2   2  -6   21.04    3.23
   2   2  -6   20.04    3.18
   2   2  -6   14.11    2.69
   2   2  -6   17.07    2.98
   2   2  -5    5.36    1.49
   2   2  -5    6.45    1.66
   2   2  -5    5.21    1.52
   2   2  -5    3.48    1.21
   2   2  -5    5.12    1.42
   2   2  -4   10.62    1.85
   2   2  -4   11.50    1.96
   2   2  -4   10.80    1.85
   2   2  -4   10.98    1.32
   2   2  -4   11.57    1.92
   2   2  -4    5.94    1.69
   2   2  -4   13.06    2.02
   2   2  -3   62.36    4.25
   2   2  -3   72.67    4.77
   2   2  -3   57.46    4.13
   2   2  -3   67.72    3.90
   2   2  -3   54.91    4.72
   2   2  -3   67.63    4.43
   2   2  -3   63.94    4.29
   2   2  -2   43.02    3.04
   2   2  -2   42.57    3.25
   2   2  -2   44.55    3.08
   2   2  -2   44.14    3.11
   2   2  -2   40.79    3.42
   2   2  -2   43.79    3.57
   2   2  -2   43.63    3.10
   2   2  -2   39.66    2.95
   2   2  -2   46.35    3.07
   2   2  -1  333.46   12.21
   2   2  -1  327.95   12.14
   2   2  -1  320.77   12.76
   2   2  -1  322.72   13.12
   2   2  -1  352.28   12.91
   2   2  -1  320.67   13.01
   2   2  -1  335.54   12.30
   2   2  -1  324.75   12.19
   2   2   0   61.94    3.42
   2   2   0   73.07    3.75
   2   2   0   68.86    3.48
   2   2   0   68.90    4.18
   2   2   0   65.11    3.82
   2   2   0   71.21    4.10
   2   2   0   62.54    3.71
   2   2   0   65.33    3.88
   2   2   0   67.00    3.55
   2   2   0   68.98    3.59
   2   2   0   69.04    3.91
   2   2   1  357.90   13.63
   2   2   1  364.71   13.36
   2   2   1  366.38   12.47
   2   2   1  376.32   13.25
   2   2   1  360.43   13.48
   2   2   1  359.71   12.69
   2   2   1  353.84   13.37
   2   2   2   80.56    3.39
   2   2   2   84.31    4.79
   2   2   2   82.99    4.61
   2   2   2   76.65    3.44
   2   2   2   76.22    4.25
   2   2   2   88.20    4.59
   2   2   3  290.25   11.22
   2   2   3  285.83   12.74
   2   2   3  284.50    9.84
   2   2   3  293.93   12.54
   2   2   3  287.42    9.92
   2   2   3  295.51   11.89
   2   2   3  301.28   11.87
   2   2   4   50.95    3.49
   2   2   4   50.94    3.84
   2   2   4   47.05    4.49
   2   2   4   46.68    4.33
   2   2   4   52.23    3.47
   2   2   4   39.94    1.90
   2   2   4   49.96    3.97
   2   2   5   28.65    3.12
   2   2   5   30.89    3.95
   2   2   5   25.47    1.35
   2   2   5   32.97    2.97
   2   2   6   15.37    2.21
   2   2   6   12.42    2.80
   2   2   6   12.68    0.91
   2   2   7   19.55    4.14
   2   2   7   21.60    2.95
   2   2   8    0.31    1.32
   2   2   8    0.97    1.08
   2   3  -6    8.34    2.27
   2   3  -6   14.11    2.73
   2   3  -6    9.41    2.29
   2   3  -6    5.78    1.84
   2   3  -6    8.56    2.26
   2   3  -5   15.15    2.65
   2   3  -5   18.75    3.01
   2   3  -5   17.87    2.84
   2   3  -5   15.72    2.70
   2   3  -4   35.33    3.77
   2   3  -4   31.45    3.49
   2   3  -4   34.49    3.67
   2   3  -4   29.98    3.47
   2   3  -4   32.74    3.56
   2   3  -3    8.73    1.67
   2   3  -3   12.57    2.00
   2   3  -3    8.68    1.64
   2   3  -3   10.88    1.81
   2   3  -3   13.90    2.43
   2   3  -3    8.70    1.71
   2   3  -3    8.22    1.21
   2   3  -2  122.90    6.49
   2   3  -2  121.20    6.42
   2   3  -2  120.39    6.74
   2   3  -2  118.17    7.04
   2   3  -2  125.82    7.11
   2   3  -2  117.55    6.48
   2   3  -2  119.06    6.47
   2   3  -1   15.20    1.82
   2   3  -1   16.42    1.86
   2   3  -1   14.76    1.93
   2   3  -1   18.06    2.26
   2   3  -1   14.13    1.84
   2   3  -1   14.97    1.91
   2   3  -1   17.44    2.15
   2   3  -1   14.51    1.83
   2   3  -1   16.86    1.92
   2   3   0   39.41    3.08
   2   3   0   33.87    2.78
   2   3   0   34.83    2.75
   2   3   0   36.32    3.18
   2   3   0   35.92    2.60
   2   3   0   41.28    3.23
   2   3   0   34.72    2.86
   2   3   0   33.16    2.81
   2   3   1    7.25    1.31
   2   3   1    8.23    1.34
   2   3   1    8.99    1.36
   2   3   1    8.70    1.44
   2   3   1    7.87    1.14
   2   3   2   27.67    2.76
   2   3   2   23.85    2.47
   2   3   2   26.22    2.03
   2   3   2   28.22    1.60
   2   3   2   22.28    2.51
   2   3   3   31.15    3.28
   2   3   3   26.56    2.91
   2   3   3   26.85    1.97
   2   3   3   28.38    2.80
   2   3   3   28.10    2.76
   2   3   3   28.48    2.56
   2   3   4  103.48    6.18
   2   3   4   92.45    5.49
   2   3   4   89.03    6.77
   2   3   4   87.67    4.89
   2   3   4   98.29    6.76
   2   3   4   90.24    4.26
   2   3   5   10.58    2.73
   2   3   5   10.89    1.78
   2   3   5    9.39    1.91
   2   3   5    8.41    1.58
   2   3   5   11.33    2.63
   2   3   6   34.61    5.00
   2   3   6   37.27    5.18
   2   3   6   23.45    3.06
   2   3   6   40.18    3.80
   2   3   7   41.79    5.85
   2   3   7   38.34    4.20
   2   4  -6    2.38    1.38
   2   4  -6    5.91    1.97
   2   4  -6    3.42    1.73
   2   4  -6    1.23    1.11
   2   4  -5   22.69    3.49
   2   4  -5   24.83    3.63
   2   4  -5   15.94    2.92
   2   4  -5   24.37    3.55
   2   4  -5   26.98    3.83
   2   4  -4    6.13    1.74
   2   4  -4    6.09    1.69
   2   4  -4    7.36    1.81
   2   4  -4    4.65    1.48
   2   4  -4    4.00    1.41
   2   4  -4    5.83    1.76
   2   4  -3   19.58    2.76
   2   4  -3   20.96    2.83
   2   4  -3   16.18    2.52
   2   4  -3   14.98    2.41
   2   4  -3   20.13    2.82
   2   4  -3   17.06    2.15
   2   4  -2   62.55    4.76
   2   4  -2   66.00    4.82
   2   4  -2   58.80    4.71
   2   4  -2   58.55    4.74
   2   4  -2   63.66    4.83
   2   4  -1  148.16    7.82
   2   4  -1  145.05    7.65
   2   4  -1  134.18    7.60
   2   4  -1  149.01    7.34
   2   4  -1  137.22    7.91
   2   4  -1  139.51    7.81
   2   4   0  143.12    7.44
   2   4   0  134.24    7.12
   2   4   0  127.76    6.85
   2   4   0  136.03    7.71
   2   4   0  135.07    7.27
   2   4   0  134.14    7.38
   2   4   0  137.78    7.45
   2   4   0  126.42    7.08
   2   4   1  241.30   11.65
   2   4   1  276.35   11.81
   2   4   1  240.43   10.67
   2   4   1  255.01   11.94
   2   4   1  273.60   11.64
   2   4   1  264.72   12.04
   2   4   2  108.38    6.66
   2   4   2   92.85    6.02
   2   4   2   97.11    5.29
   2   4   2   96.38    5.96
   2   4   2  100.68    6.49
   2   4   3  250.26   12.21
   2   4   3  266.56   12.11
   2   4   3  214.89    9.86
   2   4   3  240.14   11.53
   2   4   3  257.61   12.25
   2   4   4    9.76    1.00
   2   4   4   17.84    2.98
   2   4   4   13.52    2.49
   2   4   4   12.00    1.51
   2   4   4   19.47    2.58
   2   4   5   46.88    4.47
   2   4   5   46.58    5.36
   2   4   5   37.64    2.91
   2   4   5   48.60    5.28
   2   4   5   38.13    2.90
   2   4   6   44.16    4.72
   2   4   6   41.45    5.81
   2   4   6   41.81    5.65
   2   4   6   42.10    4.21
   2   4   7    2.74    1.10
   2   4   7    8.49    2.85
   2   5  -5   -0.09    0.90
   2   5  -5    5.20    1.92
   2   5  -5    3.48    1.27
   2   5  -5    0.38    1.15
   2   5  -4   76.85    6.46
   2   5  -4   70.18    6.22
   2   5  -4   62.13    5.84
   2   5  -4   68.50    6.11
   2   5  -4   59.93    5.91
   2   5  -4   65.09    6.10
   2   5  -3   73.55    5.95
   2   5  -3   67.07    5.65
   2   5  -3   63.24    5.55
   2   5  -3   65.35    5.81
   2   5  -3   63.72    5.68
   2   5  -2   52.82    4.86
   2   5  -2   53.71    4.77
   2   5  -2   51.30    4.68
   2   5  -2   58.46    5.16
   2   5  -2   60.34    5.20
   2   5  -1   26.22    3.17
   2   5  -1   26.59    3.14
   2   5  -1   24.75    3.02
   2   5  -1   22.22    2.35
   2   5  -1   26.88    3.27
   2   5  -1   27.95    3.33
   2   5   0   24.93    3.08
   2   5   0   30.43    3.28
   2   5   0   23.51    2.90
   2   5   0   27.22    3.27
   2   5   0   23.43    3.05
   2   5   1   30.71    3.47
   2   5   1   26.85    3.13
   2   5   1   28.52    3.16
   2   5   1   29.93    3.48
   2   5   2   56.73    5.08
   2   5   2   61.09    5.05
   2   5   2   57.87    4.30
   2   5   2   59.80    4.80
   2   5   2   55.82    5.09
   2   5   3   17.29    2.83
   2   5   3   14.14    2.63
   2   5   3   16.28    2.67
   2   5   3   14.93    1.99
   2   5   3   23.28    2.93
   2   5   4   10.70    2.40
   2   5   4    6.99    1.73
   2   5   4    9.87    2.26
   2   5   4    8.73    1.48
   2   5   5  136.25    8.75
   2   5   5  121.80    9.76
   2   5   5  120.94    9.33
   2   5   6   15.03    3.57
   2   5   6   10.54    2.22
   2   5   6   12.60    2.59
   2   5   6    9.32    2.67
   2   6  -4    3.59    1.57
   2   6  -4    5.13    1.85
   2   6  -4    5.23    1.91
   2   6  -4    4.08    1.56
   2   6  -4    3.02    1.49
   2   6  -3    1.03    0.95
   2   6  -3    0.69    0.68
   2   6  -3    0.72    0.91
   2   6  -3    1.73    1.16
   2   6  -3    0.16    0.71
   2   6  -2   16.85    3.02
   2   6  -2   23.41    3.27
   2   6  -2   14.54    2.76
   2   6  -2   19.49    3.07
   2   6  -2   23.81    3.52
   2   6  -1   38.26    4.43
   2   6  -1   41.82    4.47
   2   6  -1   47.56    4.65
   2   6  -1   47.82    4.93
   2   6  -1   40.84    4.63
   2   6   0  150.25    9.25
   2   6   0  139.46    8.76
   2   6   0  143.38    8.62
   2   6   0  113.59    8.38
   2   6   0  132.23    8.93
   2   6   1  165.68   10.20
   2   6   1  173.55   10.05
   2   6   1  164.87    9.57
   2   6   1  159.60   10.15
   2   6   2  159.56   10.22
   2   6   2  183.70   10.40
   2   6   2  157.13    9.43
   2   6   2  158.82   10.29
   2   6   3   27.00    3.88
   2   6   3   23.64    3.70
   2   6   3   27.04    3.78
   2   6   3   31.73    3.78
   2   6   4   16.89    3.40
   2   6   4   19.54    3.10
   2   6   4   21.50    3.56
   2   6   5    5.55    2.14
   2   6   5    9.53    2.26
   2   6   5    5.91    2.18
   2   7  -3   30.36    4.56
   2   7  -3   31.75    4.62
   2   7  -3   24.26    4.09
   2   7  -3   33.99    4.80
   2   7  -2   57.84    6.11
   2   7  -2   46.12    5.36
   2   7  -2   54.31    5.57
   2   7  -2   53.08    5.99
   2   7  -2   50.82    5.85
   2   7  -1   34.36    4.67
   2   7  -1   29.37    4.27
   2   7  -1   29.22    3.92
   2   7  -1   30.43    4.16
   2   7  -1   27.35    4.15
   2   7   0    9.68    2.52
   2   7   0    9.31    2.39
   2   7   0    6.69    1.87
   2   7   0    4.92    1.72
   2   7   0    9.37    2.42
   2   7   1   13.08    2.96
   2   7   1   17.27    3.33
   2   7   1   18.09    3.06
   2   7   1   16.74    3.12
   2   7   2   15.17    3.17
   2   7   2   22.78    3.79
   2   7   2   17.03    3.00
   2   7   2   18.65    3.33
   2   7   3    8.22    2.48
   2   7   3    4.50    1.93
   2   7   3    3.17    1.40
   2   7   3    8.29    2.47
   2   7   4   49.70    6.48
   2   7   4   57.10    6.55
   2   7   4   53.61    5.59
   2   7   4   58.17    6.80
   2   8   1  101.82    8.21
   3  -8  -1   10.89    2.70
   3  -8   0   14.31    2.92
   3  -7  -3  183.73   12.12
   3  -7  -3  180.14   12.05
   3  -7  -2   36.95    4.75
   3  -7  -2   40.80    4.97
   3  -7  -1   10.59    2.47
   3  -7  -1    3.44    1.41
   3  -7  -1   11.43    2.58
   3  -7   0   89.67    7.09
   3  -7   0   97.20    7.65
   3  -7   1   20.74    3.00
   3  -7   1   16.78    2.99
   3  -7   2   20.94    2.91
   3  -7   2   12.15    2.60
   3  -7   3   68.08    6.07
   3  -6  -4    4.13    1.66
   3  -6  -4    6.39    2.00
   3  -6  -4    5.87    1.96
   3  -6  -4    6.61    2.01
   3  -6  -3   37.12    4.24
   3  -6  -3   36.95    4.53
   3  -6  -3   28.36    4.12
   3  -6  -3   35.96    4.38
   3  -6  -2   72.60    5.67
   3  -6  -2   55.91    5.55
   3  -6  -2   64.60    5.85
   3  -6  -2   64.92    5.84
   3  -6  -1  104.35    6.94
   3  -6  -1   94.81    7.01
   3  -6  -1  100.08    7.35
   3  -6  -1  108.00    7.68
   3  -6   0   20.67    2.81
   3  -6   0   18.83    2.89
   3  -6   1    9.16    1.78
   3  -6   1    8.62    2.01
   3  -6   2   74.29    6.01
   3  -6   2   69.98    5.13
   3  -6   2   80.25    5.99
   3  -6   3   53.26    4.25
   3  -6   3   46.54    4.48
   3  -6   4   94.38    7.38
   3  -6   5   13.08    2.67
   3  -5  -5  105.50    8.43
   3  -5  -5  107.23    8.33
   3  -5  -5  105.25    8.21
   3  -5  -4  183.50   11.21
   3  -5  -4  189.15   11.28
   3  -5  -4  190.39   11.04
   3  -5  -4  166.32   10.45
   3  -5  -3   85.58    6.53
   3  -5  -3   79.08    6.49
   3  -5  -3   74.52    6.10
   3  -5  -2   55.25    4.87
   3  -5  -2   63.57    5.40
   3  -5  -2   63.95    5.38
   3  -5  -2   59.30    5.13
   3  -5  -2   57.36    4.07
   3  -5  -1   19.81    2.64
   3  -5  -1   16.60    1.78
   3  -5  -1   16.68    2.44
   3  -5  -1   17.25    2.56
   3  -5  -1   18.03    2.63
   3  -5   0    0.77    0.57
   3  -5   0    0.72    0.56
   3  -5   1   32.24    3.48
   3  -5   1   39.16    3.37
   3  -5   2    8.59    1.74
   3  -5   2    6.15    1.21
   3  -5   3    2.82    0.80
   3  -5   3    4.38    1.15
   3  -5   4   70.22    5.87
   3  -5   5   66.14    5.87
   3  -5   6  121.61    8.73
   3  -4  -6    2.49    1.33
   3  -4  -6    1.51    0.96
   3  -4  -5   25.29    3.60
   3  -4  -5   23.22    3.59
   3  -4  -5   30.60    3.92
   3  -4  -4   12.36    2.59
   3  -4  -4   16.89    2.65
   3  -4  -4   14.09    2.61
   3  -4  -4   13.32    2.36
   3  -4  -3    1.75    0.95
   3  -4  -3    1.85    0.82
   3  -4  -3    0.87    0.81
   3  -4  -3    0.80    0.70
   3  -4  -3    1.76    0.82
   3  -4  -3    0.89    0.73
   3  -4  -2  180.96    9.07
   3  -4  -2  216.58   10.47
   3  -4  -2  204.45   10.34
   3  -4  -2  180.51    9.61
   3  -4  -2  213.24    9.98
   3  -4  -2  182.12    8.50
   3  -4  -1   55.64    4.44
   3  -4  -1   59.74    4.68
   3  -4  -1   46.91    4.10
   3  -4  -1   56.86    4.57
   3  -4  -1   54.50    4.26
   3  -4  -1   62.24    3.40
   3  -4  -1   61.01    4.74
   3  -4  -1   51.27    4.35
   3  -4   0  179.93    9.49
   3  -4   0  189.08    9.54
   3  -4   0  210.14    7.36
   3  -4   0  185.26    9.49
   3  -4   0  208.03    9.17
   3  -4   0  195.84    9.83
   3  -4   0  185.11    9.57
   3  -4   1   32.11    3.27
   3  -4   1   32.13    3.26
   3  -4   1   39.15    3.43
   3  -4   1   34.79    2.74
   3  -4   1   31.30    3.23
   3  -4   1   33.35    3.31
   3  -4   2   42.62    2.91
   3  -4   2   39.89    3.53
   3  -4   3  285.02   12.33
   3  -4   3  273.02   11.55
   3  -4   4   87.04    6.23
   3  -4   5   20.16    2.20
   3  -4   5   23.15    2.26
   3  -4   5   19.74    2.91
   3  -4   6   10.55    1.80
   3  -4   6   10.46    2.31
   3  -4   7   25.33    3.78
   3  -3  -6    5.42    1.66
   3  -3  -6    5.13    1.69
   3  -3  -6    4.63    1.59
   3  -3  -6    2.41    1.13
   3  -3  -6    4.55    1.61
   3  -3  -5   67.54    5.99
   3  -3  -5   66.33    5.59
   3  -3  -5   66.67    5.62
   3  -3  -5   67.81    5.81
   3  -3  -4  142.54    9.44
   3  -3  -4  112.53    7.42
   3  -3  -4  142.85    8.64
   3  -3  -4  142.68    8.09
   3  -3  -4  148.60    8.16
   3  -3  -4  130.72    8.00
   3  -3  -3  331.95   14.15
   3  -3  -3  327.41   14.74
   3  -3  -3  406.86   16.51
   3  -3  -3  328.99   14.53
   3  -3  -3  343.53   14.56
   3  -3  -3  374.77   15.50
   3  -3  -3  372.36   14.60
   3  -3  -3  309.71   14.69
   3  -3  -3  364.43   14.49
   3  -3  -3  319.52   14.81
   3  -3  -3  296.17   13.83
   3  -3  -2  186.04    8.90
   3  -3  -2  183.54    9.13
   3  -3  -2  201.24    9.94
   3  -3  -2  180.17    8.93
   3  -3  -2  184.32    9.28
   3  -3  -2  203.04    9.71
   3  -3  -2  191.03    8.84
   3  -3  -2  185.90    9.52
   3  -3  -2  185.14    9.26
   3  -3  -2  185.94    9.27
   3  -3  -2  191.12    8.39
   3  -3  -1    8.71    1.45
   3  -3  -1    7.48    1.36
   3  -3  -1    8.14    1.43
   3  -3  -1    8.48    1.61
   3  -3  -1    8.87    1.41
   3  -3  -1    8.59    1.61
   3  -3  -1    7.12    1.28
   3  -3  -1    7.14    1.40
   3  -3  -1    7.62    1.39
   3  -3  -1    8.57    1.01
   3  -3   0  108.29    5.82
   3  -3   0  101.55    5.61
   3  -3   0   99.96    5.54
   3  -3   0  106.35    5.91
   3  -3   0  101.58    3.85
   3  -3   0   94.09    5.55
   3  -3   0  101.55    5.64
   3  -3   1  256.98   10.92
   3  -3   1  244.51   10.81
   3  -3   1  259.35   10.88
   3  -3   1  259.61    9.76
   3  -3   1  257.64   10.95
   3  -3   1  252.96   10.86
   3  -3   2    9.46    1.55
   3  -3   2   11.74    1.74
   3  -3   2   12.11    1.75
   3  -3   2   10.57    1.05
   3  -3   2   10.67    1.54
   3  -3   2   10.03    1.60
   3  -3   3   23.56    2.71
   3  -3   3   29.85    3.05
   3  -3   3   26.74    2.51
   3  -3   3   27.52    2.90
   3  -3   3   27.45    2.15
   3  -3   3   29.82    3.00
   3  -3   4  265.89   11.59
   3  -3   4  270.32   10.52
   3  -3   5  117.59    5.14
   3  -3   5   98.94    5.31
   3  -3   5   99.66    5.54
   3  -3   5  105.94    7.00
   3  -3   6  162.14    8.55
   3  -3   6  194.23   10.55
   3  -3   7   13.90    2.72
   3  -3   7    9.62    1.94
   3  -2  -7   31.40    4.18
   3  -2  -7   31.21    4.27
   3  -2  -7   27.77    4.00
   3  -2  -6   44.37    4.80
   3  -2  -6   43.59    4.63
   3  -2  -6   46.16    4.93
   3  -2  -6   46.73    4.74
   3  -2  -6   37.16    4.26
   3  -2  -5    7.93    1.88
   3  -2  -5    5.20    1.45
   3  -2  -5    3.19    1.28
   3  -2  -5    3.88    1.50
   3  -2  -5    5.83    1.59
   3  -2  -4   10.60    2.19
   3  -2  -4   11.74    2.06
   3  -2  -4   11.25    2.21
   3  -2  -4   11.50    2.67
   3  -2  -4   10.31    2.05
   3  -2  -4   13.85    2.09
   3  -2  -4   11.47    2.18
   3  -2  -4   11.12    1.92
   3  -2  -3  101.10    5.83
   3  -2  -3   84.76    5.59
   3  -2  -3   83.85    5.63
   3  -2  -3  111.57    7.25
   3  -2  -3   86.65    5.56
   3  -2  -3   88.46    5.38
   3  -2  -3   96.44    6.02
   3  -2  -3  102.40    6.35
   3  -2  -3   94.78    5.46
   3  -2  -3   96.51    5.47
   3  -2  -3   86.01    5.59
   3  -2  -3   89.04    5.82
   3  -2  -2   80.95    4.56
   3  -2  -2   70.80    4.46
   3  -2  -2   80.02    4.72
   3  -2  -2   65.74    5.59
   3  -2  -2   68.12    5.04
   3  -2  -2   75.18    4.51
   3  -2  -2   74.08    4.26
   3  -2  -2   67.16    4.79
   3  -2  -2   66.81    4.19
   3  -2  -2   62.31    5.35
   3  -2  -2   73.34    4.66
   3  -2  -2   73.22    4.25
   3  -2  -2   71.74    4.64
   3  -2  -2   80.28    4.91
   3  -2  -1   84.95    4.94
   3  -2  -1   79.06    3.97
   3  -2  -1   81.81    4.40
   3  -2  -1   79.72    5.23
   3  -2  -1   84.65    4.39
   3  -2  -1   84.09    5.25
   3  -2  -1   83.57    4.96
   3  -2  -1   84.33    4.27
   3  -2  -1   73.65    5.06
   3  -2  -1   73.12    4.29
   3  -2  -1   85.18    4.51
   3  -2   0   29.57    2.73
   3  -2   0   23.64    2.06
   3  -2   0   25.28    2.05
   3  -2   0   25.10    2.24
   3  -2   0   25.70    1.31
   3  -2   0   22.68    2.07
   3  -2   1   10.59    1.55
   3  -2   1    8.83    1.19
   3  -2   1   11.99    1.37
   3  -2   1    9.33    0.87
   3  -2   1    8.94    1.30
   3  -2   1    9.12    1.23
   3  -2   1   11.19    1.35
   3  -2   2   24.44    2.27
   3  -2   2   27.81    2.42
   3  -2   2   23.98    2.07
   3  -2   2   25.12    2.32
   3  -2   2   26.40    2.35
   3  -2   3  120.80    6.56
   3  -2   3  124.54    6.50
   3  -2   3  129.96    5.87
   3  -2   3  116.95    4.83
   3  -2   3  120.76    6.57
   3  -2   3  129.99    4.97
   3  -2   3  138.50    6.92
   3  -2   3  131.89    6.74
   3  -2   4  149.28    8.01
   3  -2   4  142.50    5.30
   3  -2   4  132.74    6.70
   3  -2   4  140.51    6.18
   3  -2   4  149.75    8.01
   3  -2   4  146.68    7.76
   3  -2   4  149.78    7.98
   3  -2   5  151.39    7.21
   3  -2   5  144.06    6.56
   3  -2   5  164.92    8.71
   3  -2   6   14.23    2.06
   3  -2   6   12.90    2.48
   3  -2   7    7.94    1.75
   3  -2   7    7.94    2.11
   3  -2   8   48.44    4.82
   3  -1  -7    1.59    1.22
   3  -1  -7    2.75    1.33
   3  -1  -7    1.58    1.11
   3  -1  -6   37.80    4.30
   3  -1  -6   22.34    3.22
   3  -1  -6   31.92    3.96
   3  -1  -6   30.49    3.68
   3  -1  -6   31.94    3.75
   3  -1  -5   52.89    4.73
   3  -1  -5   47.20    4.27
   3  -1  -5   50.78    4.75
   3  -1  -5   45.58    4.19
   3  -1  -5   54.55    4.52
   3  -1  -4  248.93   11.32
   3  -1  -4  247.10   10.82
   3  -1  -4  207.31   11.07
   3  -1  -4  227.76   11.05
   3  -1  -4  251.73   13.30
   3  -1  -4  193.90   10.57
   3  -1  -4  258.27   10.92
   3  -1  -4  247.61   11.70
   3  -1  -4  228.29   10.42
   3  -1  -4  253.43   10.85
   3  -1  -4  205.37   11.05
   3  -1  -3  291.04   11.83
   3  -1  -3  274.32   11.05
   3  -1  -3  257.26   11.53
   3  -1  -3  289.47   13.54
   3  -1  -3  267.95   11.39
   3  -1  -3  282.52   11.14
   3  -1  -3  259.31   12.03
   3  -1  -3  265.91   11.42
   3  -1  -3  264.41   10.96
   3  -1  -3  253.76   11.78
   3  -1  -3  252.01   11.50
   3  -1  -2  302.83   12.19
   3  -1  -2  323.26   12.11
   3  -1  -2  301.64   13.52
   3  -1  -2  314.26   13.86
   3  -1  -2  328.20   11.95
   3  -1  -2  332.14   13.40
   3  -1  -2  297.98   11.62
   3  -1  -2  301.87   12.92
   3  -1  -2  327.05   14.14
   3  -1  -2  328.23   12.35
   3  -1  -2  308.08   11.65
   3  -1  -2  305.41   12.82
   3  -1  -2  306.94   12.09
   3  -1  -1   42.46    2.60
   3  -1  -1   42.06    2.40
   3  -1  -1   45.72    3.57
   3  -1  -1   40.80    2.32
   3  -1  -1   40.50    3.33
   3  -1  -1   39.70    2.25
   3  -1  -1   45.51    3.24
   3  -1  -1   41.94    3.59
   3  -1  -1   42.17    2.43
   3  -1  -1   46.14    2.72
   3  -1  -1   41.48    2.27
   3  -1  -1   43.35    2.46
   3  -1  -1   45.22    3.31
   3  -1   0  173.32    6.58
   3  -1   0  182.76    8.07
   3  -1   0  181.17    6.61
   3  -1   0  188.16    6.64
   3  -1   0  178.23    8.40
   3  -1   0  182.68    7.73
   3  -1   0  178.51    6.64
   3  -1   0  179.41    6.66
   3  -1   0  181.87    6.64
   3  -1   0  184.62    6.54
   3  -1   1  303.39   10.20
   3  -1   1  316.40   11.13
   3  -1   1  305.86   11.68
   3  -1   1  305.09   12.83
   3  -1   1  333.44   11.23
   3  -1   1  317.33   10.46
   3  -1   1  330.45   11.70
   3  -1   1  315.13   11.14
   3  -1   1  324.30   10.36
   3  -1   1  317.18   11.13
   3  -1   2  124.68    5.76
   3  -1   2  125.81    4.95
   3  -1   2  125.58    6.47
   3  -1   2  134.37    5.45
   3  -1   2  130.81    5.82
   3  -1   2  126.61    4.51
   3  -1   2  126.72    6.11
   3  -1   2  125.84    5.74
   3  -1   3  108.05    5.79
   3  -1   3  109.93    5.69
   3  -1   3  111.81    4.63
   3  -1   3  111.22    5.84
   3  -1   3  102.22    5.64
   3  -1   3  112.80    5.84
   3  -1   3  105.54    4.54
   3  -1   4  216.15   10.33
   3  -1   4  227.62    9.23
   3  -1   4  226.44   10.44
   3  -1   4  232.19   10.20
   3  -1   4  210.61   10.19
   3  -1   4  212.51    8.77
   3  -1   5  287.49   11.68
   3  -1   5  272.07   10.99
   3  -1   6  104.99    6.22
   3  -1   6  108.74    7.17
   3  -1   7  101.11    6.65
   3  -1   7  100.42    7.49
   3  -1   8    6.83    1.78
   3  -1   8    9.17    2.31
   3   0  -7   16.39    2.98
   3   0  -7   18.66    3.19
   3   0  -7   15.48    2.95
   3   0  -7   14.22    2.75
   3   0  -6    1.32    1.04
   3   0  -6    4.04    1.41
   3   0  -6    2.24    1.17
   3   0  -6    2.23    1.22
   3   0  -6    0.99    0.87
   3   0  -6    5.05    1.67
   3   0  -5   48.64    4.66
   3   0  -5   57.11    4.65
   3   0  -5   51.55    4.44
   3   0  -5   59.55    5.16
   3   0  -5   57.73    4.68
   3   0  -4    4.41    1.09
   3   0  -4    3.98    1.13
   3   0  -4    4.73    1.11
   3   0  -4    2.33    1.09
   3   0  -4    6.87    1.45
   3   0  -4    4.39    1.25
   3   0  -4    2.73    0.93
   3   0  -4    5.86    1.43
   3   0  -4    3.52    0.91
   3   0  -3   21.64    2.37
   3   0  -3   13.06    1.65
   3   0  -3   11.46    1.79
   3   0  -3   17.65    2.29
   3   0  -3   14.83    2.50
   3   0  -3   15.20    1.91
   3   0  -3   17.77    1.87
   3   0  -3   16.27    2.26
   3   0  -3   17.60    1.74
   3   0  -3   17.22    1.85
   3   0  -2  255.62   10.01
   3   0  -2  229.30    8.90
   3   0  -2  227.80    9.34
   3   0  -2  238.13   11.00
   3   0  -2  248.72   11.46
   3   0  -2  222.61    9.15
   3   0  -2  250.81   11.10
   3   0  -2  230.01   11.43
   3   0  -2  240.64    8.98
   3   0  -2  240.49   10.52
   3   0  -2  236.02    8.92
   3   0  -2  235.15   10.56
   3   0  -2  241.35    9.90
   3   0  -2  214.48    9.21
   3   0  -1  344.03   12.55
   3   0  -1  332.59   11.34
   3   0  -1  334.89   12.61
   3   0  -1  351.76   11.52
   3   0  -1  330.80   13.72
   3   0  -1  346.77   14.02
   3   0  -1  332.32   11.35
   3   0  -1  360.04   11.48
   3   0  -1  363.37   14.02
   3   0  -1  345.14   14.31
   3   0  -1  332.34   11.33
   3   0  -1  351.36   13.41
   3   0  -1  337.23   11.33
   3   0  -1  345.38   11.53
   3   0   0  286.93    9.98
   3   0   0  332.66   12.11
   3   0   0  306.49   11.38
   3   0   0  281.04   10.31
   3   0   0  302.84   10.50
   3   0   0  277.09   10.59
   3   0   0  299.40   11.81
   3   0   0  306.28   11.07
   3   0   0  304.84   12.35
   3   0   1   45.67    3.04
   3   0   1   48.94    2.73
   3   0   1   47.04    2.38
   3   0   1   43.23    3.18
   3   0   1   45.64    2.08
   3   0   1   45.17    2.57
   3   0   1   43.13    2.46
   3   0   1   45.53    2.07
   3   0   1   47.47    2.66
   3   0   1   47.41    2.42
   3   0   2  291.07   11.31
   3   0   2  279.06    9.65
   3   0   2  299.20   11.93
   3   0   2  302.32   10.08
   3   0   2  285.01   10.87
   3   0   2  299.21    9.97
   3   0   2  295.87   11.12
   3   0   2  288.96   10.86
   3   0   2  299.98   10.62
   3   0   3  237.79    9.27
   3   0   3  214.97    8.54
   3   0   3  234.12    9.80
   3   0   3  230.70   10.63
   3   0   3  240.01    8.71
   3   0   3  239.81   10.00
   3   0   3  234.48    9.78
   3   0   3  235.41    9.90
   3   0   4  375.52   14.65
   3   0   4  402.50   15.08
   3   0   4  370.75   17.03
   3   0   4  411.49   16.20
   3   0   4  398.97   14.53
   3   0   4  412.28   15.81
   3   0   4  424.66   16.24
   3   0   5    3.27    0.93
   3   0   5    2.78    0.82
   3   0   5    1.65    0.94
   3   0   5    2.46    0.74
   3   0   5    2.50    0.93
   3   0   5    2.36    0.94
   3   0   6   25.10    3.96
   3   0   6   16.12    2.53
   3   0   6   19.67    2.37
   3   0   6   16.49    2.44
   3   0   7   54.05    4.65
   3   0   7   57.05    5.36
   3   0   8    7.92    1.94
   3   1  -6   19.63    3.08
   3   1  -6   35.48    4.20
   3   1  -6   21.32    3.27
   3   1  -6   28.49    3.68
   3   1  -6   29.70    3.86
   3   1  -6   27.38    3.62
   3   1  -5  124.62    7.69
   3   1  -5  126.63    7.72
   3   1  -5  121.46    7.59
   3   1  -5  131.47    8.43
   3   1  -5  105.88    7.20
   3   1  -4  212.92   10.14
   3   1  -4  187.02    9.16
   3   1  -4  166.61    9.81
   3   1  -4  191.10    9.24
   3   1  -4  167.04    9.56
   3   1  -4  192.82    9.26
   3   1  -4  188.42    8.11
   3   1  -4  185.96    9.15
   3   1  -3  260.81   11.20
   3   1  -3  246.79   10.21
   3   1  -3  219.82   10.91
   3   1  -3  251.48   10.31
   3   1  -3  235.58   12.47
   3   1  -3  234.54   10.89
   3   1  -3  241.58   10.18
   3   1  -3  241.42    9.23
   3   1  -3  245.89   10.20
   3   1  -2  254.06   10.52
   3   1  -2  245.20    9.49
   3   1  -2  268.22   10.79
   3   1  -2  237.59   10.29
   3   1  -2  243.86    9.49
   3   1  -2  218.65   11.40
   3   1  -2  233.55   10.12
   3   1  -2  277.87   12.52
   3   1  -2  242.38    9.50
   3   1  -2  257.11   11.29
   3   1  -2  246.77    8.68
   3   1  -2  247.57    9.51
   3   1  -1   40.19    2.78
   3   1  -1   41.57    2.16
   3   1  -1   42.61    3.03
   3   1  -1   41.71    3.51
   3   1  -1   43.56    2.19
   3   1  -1   42.66    2.45
   3   1  -1   45.72    3.37
   3   1  -1   45.61    3.84
   3   1  -1   39.77    2.16
   3   1  -1   40.91    2.15
   3   1  -1   43.60    3.51
   3   1   0   32.57    1.59
   3   1   0   44.71    3.16
   3   1   0   32.62    1.56
   3   1   0   46.04    3.38
   3   1   0   44.42    2.97
   3   1   0   37.91    2.64
   3   1   0   45.77    2.87
   3   1   0   41.97    3.54
   3   1   0   45.16    1.76
   3   1   0   47.05    3.75
   3   1   0   33.18    1.62
   3   1   1  344.43   12.52
   3   1   1  343.11   11.84
   3   1   1  361.70   11.80
   3   1   1  347.43   13.14
   3   1   1  281.14   12.02
   3   1   1  332.92   12.45
   3   1   1  299.72   12.11
   3   1   1  370.50   11.76
   3   1   1  300.05   12.39
   3   1   2   28.18    2.15
   3   1   2   20.88    2.33
   3   1   2   31.78    2.52
   3   1   2   25.11    2.22
   3   1   2   16.57    1.58
   3   1   2   22.30    1.83
   3   1   2   24.39    1.42
   3   1   2   16.68    1.46
   3   1   2   25.59    2.03
   3   1   2   18.64    2.10
   3   1   2   17.24    1.37
   3   1   3   46.52    2.68
   3   1   3   42.34    3.35
   3   1   3   45.87    3.79
   3   1   3   38.93    2.87
   3   1   3   44.33    3.20
   3   1   3   49.44    3.40
   3   1   3   45.60    3.14
   3   1   4  252.49   10.38
   3   1   4  259.29   11.15
   3   1   4  237.17   10.98
   3   1   4  281.33   13.11
   3   1   4  270.69   10.50
   3   1   4  251.49   11.57
   3   1   4  284.73   11.82
   3   1   4  255.06   11.54
   3   1   5   56.89    4.13
   3   1   5   64.87    5.96
   3   1   5   67.21    4.29
   3   1   5   62.42    4.88
   3   1   6  302.11   13.02
   3   1   6  278.23   14.06
   3   1   7   72.40    7.55
   3   1   7   69.57    5.37
   3   1   8  122.14   11.09
   3   1   8  116.60    7.96
   3   2  -6   26.04    3.64
   3   2  -6   24.54    3.61
   3   2  -6   19.98    3.20
   3   2  -6   21.73    3.35
   3   2  -6   20.63    3.26
   3   2  -5   19.88    2.84
   3   2  -5   16.53    2.73
   3   2  -5   23.42    3.06
   3   2  -5   17.73    2.73
   3   2  -5   17.31    2.67
   3   2  -4   21.99    2.93
   3   2  -4   21.17    2.60
   3   2  -4   18.58    2.96
   3   2  -4   16.84    2.36
   3   2  -4   15.76    2.59
   3   2  -4   23.62    2.75
   3   2  -4   20.79    2.57
   3   2  -3   34.46    3.34
   3   2  -3   30.11    2.80
   3   2  -3   33.42    2.95
   3   2  -3   32.41    3.37
   3   2  -3   31.03    2.89
   3   2  -3   29.12    2.77
   3   2  -2  220.13    9.45
   3   2  -2  194.78    8.37
   3   2  -2  192.57    8.32
   3   2  -2  201.15   10.39
   3   2  -2  191.04    9.09
   3   2  -2  178.90   10.13
   3   2  -2  198.24    8.49
   3   2  -2  194.51    8.40
   3   2  -2  205.88    9.40
   3   2  -1   35.80    2.39
   3   2  -1   36.81    2.39
   3   2  -1   31.63    3.11
   3   2  -1   38.68    3.09
   3   2  -1   31.32    2.87
   3   2  -1   31.02    2.98
   3   2  -1   40.34    3.58
   3   2  -1   31.98    2.33
   3   2  -1   28.48    2.94
   3   2  -1   36.94    2.44
   3   2   0  157.91    6.42
   3   2   0  164.45    7.46
   3   2   0  167.93    8.11
   3   2   0  158.17    6.33
   3   2   0  145.71    7.41
   3   2   0  164.91    7.43
   3   2   0  142.49    7.57
   3   2   0  150.02    7.42
   3   2   0  170.17    7.54
   3   2   0  154.47    6.42
   3   2   0  151.35    6.42
   3   2   1   33.59    2.37
   3   2   1   29.64    2.58
   3   2   1   32.16    2.39
   3   2   1   31.65    2.22
   3   2   1   32.68    2.71
   3   2   1   28.83    2.51
   3   2   1   35.81    2.72
   3   2   1   31.24    2.39
   3   2   1   27.55    2.19
   3   2   2    3.88    0.72
   3   2   2    2.27    0.71
   3   2   2    4.74    0.99
   3   2   2    5.13    1.19
   3   2   2    4.04    0.91
   3   2   2    4.72    0.93
   3   2   2    5.69    1.06
   3   2   2    3.60    0.59
   3   2   3  211.11    8.63
   3   2   3  220.44    8.15
   3   2   3  201.16   10.16
   3   2   3  221.26    9.97
   3   2   3  209.23   10.01
   3   2   3  206.33    7.20
   3   2   3  209.99    8.51
   3   2   3  213.12    9.24
   3   2   3  200.12    9.31
   3   2   4   74.52    4.89
   3   2   4   71.15    4.27
   3   2   4   67.65    5.66
   3   2   4   68.85    5.57
   3   2   4   67.32    3.60
   3   2   4   68.91    4.79
   3   2   5  150.83    7.87
   3   2   5  154.35    8.54
   3   2   5  147.89    9.91
   3   2   5  165.51    8.02
   3   2   5  162.42    6.49
   3   2   6    4.94    1.23
   3   2   6    2.99    1.40
   3   2   7    1.48    0.79
   3   2   7    1.07    1.58
   3   2   8   23.22    4.62
   3   2   8   23.64    3.37
   3   3  -6   17.98    3.17
   3   3  -6   17.87    3.13
   3   3  -6   16.79    3.06
   3   3  -6   16.26    3.07
   3   3  -5   23.84    3.34
   3   3  -5   28.42    3.85
   3   3  -5   20.80    3.10
   3   3  -5   22.27    3.18
   3   3  -5   20.32    3.09
   3   3  -4  141.01    8.78
   3   3  -4  129.35    7.89
   3   3  -4  135.48    8.01
   3   3  -4  132.47    8.07
   3   3  -4  138.92    8.16
   3   3  -3  249.54   11.61
   3   3  -3  231.76   10.72
   3   3  -3  225.74   10.57
   3   3  -3  201.26   11.46
   3   3  -3  213.07   11.28
   3   3  -3  224.41   10.71
   3   3  -3  240.79   10.85
   3   3  -3  223.74   10.11
   3   3  -2  346.73   13.80
   3   3  -2  341.15   13.69
   3   3  -2  343.32   14.53
   3   3  -2  343.66   14.81
   3   3  -2  352.83   14.00
   3   3  -2  308.30   14.11
   3   3  -2  348.45   13.89
   3   3  -1   59.32    3.90
   3   3  -1   62.46    3.89
   3   3  -1   62.35    4.64
   3   3  -1   63.22    4.52
   3   3  -1   57.35    4.53
   3   3  -1   52.40    3.78
   3   3  -1   57.83    3.89
   3   3   0   45.32    3.18
   3   3   0   43.49    3.05
   3   3   0   42.73    3.32
   3   3   0   41.71    3.76
   3   3   0   40.52    3.59
   3   3   0   46.01    3.62
   3   3   0   41.47    3.56
   3   3   0   41.23    3.10
   3   3   0   39.90    3.43
   3   3   0   39.36    3.06
   3   3   1  250.38   10.62
   3   3   1  275.57   11.34
   3   3   1  247.96    9.85
   3   3   1  247.33   10.41
   3   3   1  253.13   11.32
   3   3   1  246.09   11.00
   3   3   1  257.34   10.24
   3   3   1  257.33   10.78
   3   3   2   97.46    5.86
   3   3   2  104.05    4.54
   3   3   2   94.31    5.62
   3   3   2   95.05    4.82
   3   3   2  102.49    6.04
   3   3   2  116.67    6.23
   3   3   2  102.96    4.78
   3   3   2  105.17    5.98
   3   3   3   11.31    1.08
   3   3   3   11.18    1.55
   3   3   3   12.85    2.13
   3   3   3   13.92    2.05
   3   3   3   10.64    1.14
   3   3   3   16.78    2.17
   3   3   4  161.99    8.16
   3   3   4  168.41   10.00
   3   3   4  181.13    9.96
   3   3   4  173.51    6.44
   3   3   4  179.61    9.19
   3   3   5  237.56   11.88
   3   3   5  238.84   13.60
   3   3   5  259.00   13.72
   3   3   6  111.05    7.75
   3   3   6   94.40    8.66
   3   3   7   32.19    5.29
   3   3   7   52.31    4.74
   3   4  -5   12.21    2.56
   3   4  -5    9.30    2.26
   3   4  -5    9.22    2.30
   3   4  -5   13.61    2.79
   3   4  -4   10.47    2.22
   3   4  -4   17.74    3.03
   3   4  -4   12.46    2.55
   3   4  -4   11.68    2.29
   3   4  -4   12.99    2.34
   3   4  -4   13.95    2.56
   3   4  -3   54.30    4.66
   3   4  -3   45.48    4.26
   3   4  -3   53.53    5.00
   3   4  -3   52.78    4.69
   3   4  -3   50.09    4.54
   3   4  -2   41.76    3.76
   3   4  -2   43.91    3.79
   3   4  -2   38.58    3.97
   3   4  -2   43.47    3.90
   3   4  -2   33.06    3.61
   3   4  -2   39.16    3.72
   3   4  -1  117.43    6.74
   3   4  -1  119.81    6.68
   3   4  -1  117.16    7.14
   3   4  -1  112.63    6.86
   3   4  -1  112.34    6.73
   3   4  -1  117.34    6.83
   3   4   0    1.60    0.67
   3   4   0    2.44    0.96
   3   4   0    1.22    0.58
   3   4   0    2.39    0.85
   3   4   0    1.90    0.81
   3   4   1   32.06    3.17
   3   4   1   37.92    3.29
   3   4   1   29.60    2.77
   3   4   1   29.11    3.12
   3   4   1   32.76    3.25
   3   4   2   60.29    4.64
   3   4   2   49.11    4.13
   3   4   2   47.59    3.48
   3   4   2   55.60    4.46
   3   4   2   56.34    3.22
   3   4   2   47.31    4.21
   3   4   3    4.72    0.63
   3   4   3    4.55    1.36
   3   4   3    4.31    1.32
   3   4   3    3.55    1.18
   3   4   3    4.24    0.87
   3   4   4  166.52    9.98
   3   4   4  139.30    5.79
   3   4   4  156.39    9.40
   3   4   4  149.57    6.51
   3   4   4  172.42    9.13
   3   4   5   39.89    4.20
   3   4   5   39.66    4.93
   3   4   5   34.98    4.49
   3   4   6   78.13    6.48
   3   4   6   70.97    7.54
   3   4   6   71.34    7.43
   3   4   6   72.67    5.70
   3   4   7    1.57    0.83
   3   4   7    1.41    1.33
   3   5  -5   40.19    5.03
   3   5  -5   44.47    5.28
   3   5  -5   45.01    5.23
   3   5  -5   50.51    5.70
   3   5  -4  133.46    9.14
   3   5  -4  123.42    8.77
   3   5  -4  145.10    9.88
   3   5  -4  111.43    8.70
   3   5  -4  136.87    9.33
   3   5  -3   52.09    5.01
   3   5  -3   45.94    4.64
   3   5  -3   53.17    5.30
   3   5  -3   46.37    4.85
   3   5  -3   52.40    5.08
   3   5  -2  107.17    7.30
   3   5  -2  113.64    7.35
   3   5  -2  115.21    7.78
   3   5  -2  109.29    7.51
   3   5  -2  103.76    7.33
   3   5  -1    1.87    0.87
   3   5  -1    0.95    0.82
   3   5  -1    1.35    0.70
   3   5  -1    1.08    0.63
   3   5  -1    0.66    0.67
   3   5  -1    0.21    0.62
   3   5   0   14.19    2.35
   3   5   0   11.31    2.15
   3   5   0   11.68    2.08
   3   5   0   14.98    2.30
   3   5   0   12.36    2.21
   3   5   1   40.64    4.02
   3   5   1   35.22    3.65
   3   5   1   40.90    4.06
   3   5   1   36.31    3.91
   3   5   2    4.30    1.41
   3   5   2    2.97    0.74
   3   5   2    1.57    0.93
   3   5   2    2.55    1.07
   3   5   2    1.88    0.85
   3   5   3   15.19    2.65
   3   5   3   13.51    2.55
   3   5   3   11.64    2.17
   3   5   3   13.89    2.46
   3   5   3   12.52    1.79
   3   5   3   12.32    1.04
   3   5   4   46.17    5.15
   3   5   4   48.66    5.06
   3   5   4   31.54    2.85
   3   5   4   45.09    4.56
   3   5   5   59.57    5.54
   3   5   5   53.74    6.22
   3   5   5   53.50    5.93
   3   5   6  106.28    8.16
   3   5   6   94.63    9.25
   3   5   6  101.77    9.25
   3   5   6  102.04    7.27
   3   6  -4    4.78    1.96
   3   6  -4    4.03    1.86
   3   6  -4    4.10    1.79
   3   6  -4    1.86    1.36
   3   6  -3    8.89    2.46
   3   6  -3    7.22    2.12
   3   6  -3    3.73    1.69
   3   6  -3    3.35    1.73
   3   6  -3    4.12    1.91
   3   6  -2   74.83    6.40
   3   6  -2   72.78    6.17
   3   6  -2   67.85    6.22
   3   6  -2   56.47    5.75
   3   6  -2   62.27    5.99
   3   6  -1   55.69    5.78
   3   6  -1   60.33    5.74
   3   6  -1   64.25    5.86
   3   6  -1   60.12    5.93
   3   6  -1   61.90    6.09
   3   6   0   60.15    5.65
   3   6   0   70.56    5.86
   3   6   0   66.03    5.80
   3   6   0   53.58    5.38
   3   6   0   65.53    5.91
   3   6   1    0.10    0.61
   3   6   1    1.54    0.85
   3   6   1    1.93    1.08
   3   6   1    2.23    1.03
   3   6   2   28.20    4.69
   3   6   2   23.15    4.22
   3   6   2   35.78    4.94
   3   6   3   62.89    6.17
   3   6   3   63.48    5.94
   3   6   3   47.95    5.04
   3   6   3   59.12    6.02
   3   6   4  102.93    8.75
   3   6   4  105.14    8.50
   3   6   4  112.79    8.12
   3   6   5   20.19    4.06
   3   6   5   14.13    2.85
   3   6   5   21.09    3.91
   3   7  -2   51.76    5.84
   3   7  -2   44.00    5.24
   3   7  -2   45.12    5.52
   3   7  -2   45.29    5.59
   3   7  -1   28.99    4.35
   3   7  -1   32.23    4.32
   3   7  -1   28.99    4.26
   3   7  -1   26.92    3.96
   3   7  -1   24.72    4.03
   3   7   0    6.65    2.01
   3   7   0    6.02    1.96
   3   7   0    5.72    1.83
   3   7   0    9.38    2.37
   3   7   1   13.86    2.95
   3   7   1    9.63    2.50
   3   7   1   15.47    2.93
   3   7   1   10.44    2.48
   3   7   2   25.43    4.10
   3   7   2   15.32    3.21
   3   7   2   29.06    3.96
   3   7   2   22.07    3.59
   3   7   3   10.66    2.74
   3   7   3    6.64    2.04
   3   7   3   10.75    2.49
   3   7   3    8.24    2.28
   3   7   4   26.01    4.51
   3   7   4   24.27    4.17
   4  -7  -2   37.23    4.88
   4  -7  -2   39.26    5.01
   4  -7  -1   16.15    2.96
   4  -7  -1   24.12    3.82
   4  -7   2   11.37    2.39
   4  -6  -4    4.11    1.86
   4  -6  -4    4.95    1.79
   4  -6  -3    1.61    1.20
   4  -6  -3    3.86    1.55
   4  -6  -3    0.97    0.87
   4  -6  -2   25.40    3.69
   4  -6  -2   25.61    3.73
   4  -6  -2   27.45    3.77
   4  -6  -2   27.42    3.93
   4  -6  -1   57.35    5.45
   4  -6  -1   51.07    5.28
   4  -6  -1   50.53    4.93
   4  -6  -1   48.90    5.10
   4  -6   0   84.66    6.79
   4  -6   0   75.89    5.84
   4  -6   1  105.84    7.67
   4  -6   1  107.57    6.63
   4  -6   2   47.41    4.86
   4  -6   3   72.15    6.19
   4  -6   3   79.03    5.85
   4  -6   4   12.49    2.67
   4  -5  -5    5.82    2.50
   4  -5  -4   21.07    3.86
   4  -5  -4   24.62    3.68
   4  -5  -4   24.42    3.63
   4  -5  -3   76.90    6.83
   4  -5  -3   74.44    6.72
   4  -5  -3   79.35    6.30
   4  -5  -3   72.32    6.03
   4  -5  -2   36.07    4.26
   4  -5  -2   31.57    4.07
   4  -5  -2   34.44    3.84
   4  -5  -1   11.84    2.34
   4  -5  -1   16.30    2.47
   4  -5  -1   11.78    2.21
   4  -5  -1   10.96    2.22
   4  -5   0   28.09    3.45
   4  -5   0   25.80    2.90
   4  -5   1   14.68    1.97
   4  -5   1   13.32    2.30
   4  -5   2   24.01    3.11
   4  -5   2   24.13    2.31
   4  -5   3   31.22    3.53
   4  -5   3   31.31    3.16
   4  -5   4   23.99    2.60
   4  -5   4   34.40    4.24
   4  -5   5  114.84    8.45
   4  -4  -5    7.31    2.59
   4  -4  -5    7.01    2.00
   4  -4  -5    6.73    1.94
   4  -4  -4   12.30    2.91
   4  -4  -4   16.44    2.72
   4  -4  -4   17.01    3.03
   4  -4  -4   13.96    2.46
   4  -4  -3   35.64    4.41
   4  -4  -3   29.91    3.95
   4  -4  -3   38.26    3.81
   4  -4  -3   29.77    3.35
   4  -4  -2   12.32    1.67
   4  -4  -2   14.62    2.59
   4  -4  -2   17.56    2.39
   4  -4  -2   12.77    2.41
   4  -4  -1   74.40    5.36
   4  -4  -1   84.16    6.30
   4  -4  -1   72.34    5.24
   4  -4  -1   74.22    5.76
   4  -4  -1   85.11    5.48
   4  -4  -1   76.83    3.80
   4  -4  -1   72.69    5.40
   4  -4  -1   74.59    5.41
   4  -4   0  193.94   10.02
   4  -4   0  218.25   10.33
   4  -4   0  236.46   11.07
   4  -4   0  220.94    9.73
   4  -4   0  195.69   10.13
   4  -4   0  208.94   10.26
   4  -4   1  190.85    9.72
   4  -4   1  191.52    9.75
   4  -4   1  213.62   10.18
   4  -4   1  215.17    8.71
   4  -4   1  176.59    9.58
   4  -4   1  191.08    9.76
   4  -4   2  216.35   10.41
   4  -4   2  210.75    8.30
   4  -4   3   64.87    4.81
   4  -4   3   65.79    4.22
   4  -4   4   29.50    2.44
   4  -4   4   24.87    3.33
   4  -4   5   11.82    2.40
   4  -4   6   11.82    2.49
   4  -3  -5   35.25    3.95
   4  -3  -5   26.22    4.54
   4  -3  -5   36.72    4.59
   4  -3  -5   33.50    3.91
   4  -3  -5   36.65    4.04
   4  -3  -5   33.83    4.14
   4  -3  -4   16.51    2.58
   4  -3  -4   21.18    3.76
   4  -3  -4   16.37    2.46
   4  -3  -4   18.65    3.07
   4  -3  -4   15.63    2.39
   4  -3  -3   20.63    2.79
   4  -3  -3   20.79    2.68
   4  -3  -3   18.13    2.41
   4  -3  -3   22.00    3.37
   4  -3  -3   21.42    2.63
   4  -3  -3   22.93    2.64
   4  -3  -3   21.44    3.08
   4  -3  -3   20.10    2.72
   4  -3  -3   22.06    2.57
   4  -3  -2   52.92    4.13
   4  -3  -2   63.86    5.45
   4  -3  -2   48.49    3.93
   4  -3  -2   58.87    4.95
   4  -3  -2   61.44    4.17
   4  -3  -2   49.02    4.08
   4  -3  -2   52.11    3.88
   4  -3  -2   56.29    4.28
   4  -3  -2   56.35    3.80
   4  -3  -1   50.03    3.72
   4  -3  -1   49.60    4.60
   4  -3  -1   53.87    3.80
   4  -3  -1   54.54    4.47
   4  -3  -1   48.77    3.58
   4  -3  -1   49.84    3.81
   4  -3  -1   49.59    2.87
   4  -3  -1   48.70    3.72
   4  -3   0   31.84    2.82
   4  -3   0   31.56    2.81
   4  -3   0   31.45    3.13
   4  -3   0   27.64    2.69
   4  -3   0   31.76    2.83
   4  -3   1   34.83    2.98
   4  -3   1   29.88    2.79
   4  -3   1   34.15    3.14
   4  -3   1   34.61    2.29
   4  -3   1   30.11    2.83
   4  -3   1   33.81    2.95
   4  -3   2   13.42    1.90
   4  -3   2   14.87    2.00
   4  -3   2   13.82    1.94
   4  -3   2   14.91    1.95
   4  -3   2   14.78    0.96
   4  -3   2   14.03    1.93
   4  -3   3    6.39    1.41
   4  -3   3    9.13    1.68
   4  -3   3    6.85    1.46
   4  -3   4  103.04    4.24
   4  -3   4   97.97    6.36
   4  -3   4  116.70    7.17
   4  -3   5   18.24    2.31
   4  -3   5   16.95    1.66
   4  -3   5   17.95    2.76
   4  -3   6   20.55    2.23
   4  -3   6   24.20    3.43
   4  -3   7   21.40    3.49
   4  -2  -5   21.53    3.18
   4  -2  -5   18.62    2.67
   4  -2  -5   22.10    2.89
   4  -2  -5   19.35    3.16
   4  -2  -5   21.18    2.82
   4  -2  -4   30.35    3.45
   4  -2  -4   31.53    3.18
   4  -2  -4   30.76    4.51
   4  -2  -4   31.44    3.91
   4  -2  -4   35.13    3.35
   4  -2  -4   32.85    3.23
   4  -2  -3    9.40    1.74
   4  -2  -3    8.23    1.58
   4  -2  -3    8.69    1.61
   4  -2  -3    8.90    2.21
   4  -2  -3    8.32    1.54
   4  -2  -3    6.43    1.24
   4  -2  -3    9.02    1.69
   4  -2  -3    9.64    1.94
   4  -2  -3    8.33    1.42
   4  -2  -2   29.35    2.74
   4  -2  -2   25.57    2.43
   4  -2  -2   32.63    3.74
   4  -2  -2   27.28    2.46
   4  -2  -2   26.54    2.48
   4  -2  -2   31.39    3.32
   4  -2  -2   29.49    2.44
   4  -2  -2   32.51    2.75
   4  -2  -2   30.18    2.44
   4  -2  -2   28.27    2.57
   4  -2  -2   27.18    2.56
   4  -2  -1  207.90    8.66
   4  -2  -1  221.07    8.83
   4  -2  -1  210.90   10.65
   4  -2  -1  239.01   11.27
   4  -2  -1  220.67    8.79
   4  -2  -1  197.31    8.47
   4  -2  -1  222.16   10.32
   4  -2  -1  221.78    8.67
   4  -2  -1  209.72    8.84
   4  -2  -1  225.63    8.93
   4  -2   0   54.50    2.55
   4  -2   0   62.39    4.51
   4  -2   0   58.12    3.33
   4  -2   0   59.10    3.37
   4  -2   0   55.16    2.50
   4  -2   0   58.24    4.15
   4  -2   0   55.83    4.62
   4  -2   0   58.53    3.30
   4  -2   0   57.72    3.36
   4  -2   0   59.10    3.36
   4  -2   1  301.46   12.97
   4  -2   1  308.61   11.57
   4  -2   1  305.43   11.56
   4  -2   1  302.68   12.34
   4  -2   1  306.44   11.59
   4  -2   1  293.88   11.49
   4  -2   2   34.12    2.72
   4  -2   2   31.14    3.30
   4  -2   2   33.63    2.71
   4  -2   2   31.82    2.65
   4  -2   2   31.38    2.61
   4  -2   3  212.71    9.92
   4  -2   3  210.56   10.47
   4  -2   3  222.79    9.22
   4  -2   3  224.55   10.09
   4  -2   3  238.85   10.58
   4  -2   3  220.96   10.00
   4  -2   4   25.98    2.80
   4  -2   4   25.36    1.70
   4  -2   4   25.13    2.89
   4  -2   5   51.89    3.29
   4  -2   5   49.76    3.81
   4  -2   5   49.85    4.51
   4  -2   6    6.62    1.23
   4  -2   6    5.70    1.67
   4  -2   7    3.62    1.13
   4  -2   7    4.34    1.70
   4  -1  -6   42.29    4.78
   4  -1  -5   12.52    2.15
   4  -1  -5   16.99    2.73
   4  -1  -5   17.27    2.47
   4  -1  -5   16.03    2.36
   4  -1  -5   14.00    2.68
   4  -1  -4   10.46    1.69
   4  -1  -4    9.33    1.85
   4  -1  -4    7.69    1.41
   4  -1  -4   12.19    2.74
   4  -1  -4    8.82    1.55
   4  -1  -4    9.85    2.15
   4  -1  -3   14.63    1.95
   4  -1  -3   10.97    1.79
   4  -1  -3   12.03    1.55
   4  -1  -3    9.77    1.61
   4  -1  -3   10.49    2.41
   4  -1  -3   11.17    1.63
   4  -1  -3   11.73    1.55
   4  -1  -3    9.78    1.92
   4  -1  -3   13.67    1.63
   4  -1  -2   76.33    4.49
   4  -1  -2   69.76    3.67
   4  -1  -2   72.91    3.91
   4  -1  -2   70.66    5.70
   4  -1  -2   70.78    3.80
   4  -1  -2   65.28    4.92
   4  -1  -2   68.38    3.66
   4  -1  -2   68.31    3.89
   4  -1  -2   62.36    4.21
   4  -1  -2   69.60    3.66
   4  -1  -2   72.04    3.97
   4  -1  -1   23.55    1.95
   4  -1  -1   23.07    1.53
   4  -1  -1   20.80    2.63
   4  -1  -1   21.87    2.78
   4  -1  -1   27.28    3.16
   4  -1  -1   21.41    1.46
   4  -1  -1   22.38    2.75
   4  -1  -1   22.19    2.48
   4  -1  -1   23.07    1.50
   4  -1  -1   19.03    2.75
   4  -1  -1   20.90    1.50
   4  -1  -1   24.09    2.06
   4  -1  -1   23.63    1.50
   4  -1  -1   22.84    1.54
   4  -1  -1   27.02    2.82
   4  -1   0   65.77    4.46
   4  -1   0   62.18    2.64
   4  -1   0   70.49    4.58
   4  -1   0   56.43    4.79
   4  -1   0   59.22    2.62
   4  -1   0   64.99    3.20
   4  -1   0   63.08    4.73
   4  -1   0   62.01    4.05
   4  -1   0   61.70    2.61
   4  -1   0   62.89    2.65
   4  -1   0   59.20    2.60
   4  -1   0   63.54    3.20
   4  -1   0   62.24    2.89
   4  -1   1    4.52    0.53
   4  -1   1    6.14    1.23
   4  -1   1    4.41    0.64
   4  -1   1    5.94    1.06
   4  -1   1    4.14    1.16
   4  -1   1    4.99    0.65
   4  -1   1    3.06    0.98
   4  -1   1    4.91    0.60
   4  -1   1    4.72    0.66
   4  -1   1    4.45    0.91
   4  -1   1    4.89    0.67
   4  -1   2    1.02    0.57
   4  -1   2    1.69    0.54
   4  -1   2    1.36    0.41
   4  -1   2    1.32    0.22
   4  -1   2    2.65    0.91
   4  -1   2    1.67    0.35
   4  -1   2    1.65    0.55
   4  -1   2    2.08    0.55
   4  -1   2    1.72    0.26
   4  -1   2    1.37    0.49
   4  -1   2    2.01    0.57
   4  -1   3   50.71    3.69
   4  -1   3   59.60    4.37
   4  -1   3   57.15    3.08
   4  -1   3   58.16    3.92
   4  -1   3   55.09    2.61
   4  -1   3   59.85    4.12
   4  -1   3   51.41    3.70
   4  -1   3   52.23    4.76
   4  -1   4   63.19    4.47
   4  -1   4   62.86    4.70
   4  -1   4   62.94    4.63
   4  -1   4   68.36    4.82
   4  -1   4   59.95    3.34
   4  -1   4   67.23    5.48
   4  -1   5   50.64    3.39
   4  -1   5   44.03    3.60
   4  -1   5   52.31    4.46
   4  -1   5   53.68    4.93
   4  -1   6    8.41    1.93
   4  -1   6   10.09    1.64
   4  -1   7   14.01    2.17
   4  -1   7   16.29    2.86
   4  -1   8   24.40    3.24
   4   0  -5   20.40    2.70
   4   0  -5   21.50    2.79
   4   0  -5   21.22    3.15
   4   0  -5   18.37    2.60
   4   0  -5   21.52    2.71
   4   0  -5   19.71    3.16
   4   0  -4   12.52    1.85
   4   0  -4   16.71    2.52
   4   0  -4   14.17    1.95
   4   0  -4   14.03    1.95
   4   0  -4   15.64    3.20
   4   0  -4   13.73    1.92
   4   0  -4   13.59    2.50
   4   0  -3   29.42    2.97
   4   0  -3   25.23    2.21
   4   0  -3   22.40    2.36
   4   0  -3   24.75    2.22
   4   0  -3   23.18    2.30
   4   0  -3   28.60    3.86
   4   0  -3   22.83    2.12
   4   0  -3   23.28    2.97
   4   0  -3   23.45    2.10
   4   0  -3   20.97    2.02
   4   0  -3   22.73    2.41
   4   0  -2   26.96    2.52
   4   0  -2   23.62    1.68
   4   0  -2   24.35    1.85
   4   0  -2   21.52    1.63
   4   0  -2   22.90    2.90
   4   0  -2   26.46    3.49
   4   0  -2   22.39    1.73
   4   0  -2   22.39    1.64
   4   0  -2   24.54    2.81
   4   0  -2   22.93    1.65
   4   0  -2   20.65    2.30
   4   0  -2   18.80    1.69
   4   0  -1   31.24    2.38
   4   0  -1   30.48    2.51
   4   0  -1   24.98    2.88
   4   0  -1   26.78    3.53
   4   0  -1   32.01    3.39
   4   0  -1   25.89    2.66
   4   0  -1   26.92    3.05
   4   0  -1   32.69    3.06
   4   0  -1   21.04    2.66
   4   0   0  268.10    9.97
   4   0   0  266.12   11.65
   4   0   0  283.52   12.41
   4   0   0  288.56   10.60
   4   0   0  269.76   12.53
   4   0   0  281.70   10.97
   4   0   0  265.24   10.60
   4   0   0  299.52   12.61
   4   0   0  273.62   11.30
   4   0   0  278.48   12.98
   4   0   0  271.19   11.81
   4   0   1  580.80   21.56
   4   0   1  574.87   18.83
   4   0   1  604.22   22.66
   4   0   1  608.67   20.06
   4   0   1  587.52   20.09
   4   0   1  569.70   22.01
   4   0   1  624.10   20.75
   4   0   1  608.55   20.28
   4   0   1  586.50   20.44
   4   0   1  621.62   23.53
   4   0   2  440.24   17.13
   4   0   2  439.26   15.42
   4   0   2  438.52   17.65
   4   0   2  431.88   14.87
   4   0   2  453.14   17.50
   4   0   2  446.95   15.42
   4   0   2  434.31   15.41
   4   0   2  474.49   16.35
   4   0   2  437.71   15.36
   4   0   2  450.22   15.65
   4   0   2  443.11   18.60
   4   0   3  127.32    5.98
   4   0   3  116.08    6.30
   4   0   3  117.75    4.63
   4   0   3  121.51    6.88
   4   0   3  130.27    4.85
   4   0   3  122.79    6.89
   4   0   3  118.44    6.12
   4   0   3  122.75    6.48
   4   0   3  133.49    6.31
   4   0   3  133.73    8.06
   4   0   4    7.06    0.98
   4   0   4    5.99    0.98
   4   0   4    5.73    1.28
   4   0   4    6.30    1.19
   4   0   4    5.57    1.23
   4   0   4    7.81    1.46
   4   0   4    7.15    1.75
   4   0   4    4.92    1.21
   4   0   5    7.22    1.26
   4   0   5    5.62    1.30
   4   0   5    6.16    1.15
   4   0   5    7.09    1.57
   4   0   5    5.02    1.51
   4   0   6   12.41    1.96
   4   0   6   18.13    2.76
   4   0   6   18.28    2.23
   4   0   7    6.75    1.55
   4   0   7   10.16    2.30
   4   0   8    7.51    1.87
   4   1  -5   12.30    2.38
   4   1  -5    8.29    2.06
   4   1  -4    0.57    0.47
   4   1  -4    0.68    0.68
   4   1  -4    1.62    0.81
   4   1  -4    0.80    0.56
   4   1  -4    1.86    0.89
   4   1  -4    1.48    0.93
   4   1  -3   88.06    5.71
   4   1  -3   87.83    4.74
   4   1  -3   68.41    4.86
   4   1  -3   80.67    4.62
   4   1  -3   83.87    5.88
   4   1  -3   90.40    7.27
   4   1  -3   73.75    4.82
   4   1  -3   85.23    4.74
   4   1  -3   89.95    6.30
   4   1  -3   83.75    3.87
   4   1  -3   91.54    4.84
   4   1  -2   15.13    1.95
   4   1  -2   11.76    1.21
   4   1  -2   13.42    1.50
   4   1  -2   13.62    1.29
   4   1  -2   14.58    1.49
   4   1  -2   15.98    2.35
   4   1  -2   13.17    2.38
   4   1  -2   12.99    1.28
   4   1  -2   15.55    1.03
   4   1  -2   13.54    1.30
   4   1  -1   91.35    4.57
   4   1  -1   80.15    4.66
   4   1  -1   86.09    5.75
   4   1  -1   81.15    5.55
   4   1  -1   81.57    4.81
   4   1  -1   77.98    5.01
   4   1  -1   69.31    2.64
   4   1  -1   63.49    2.59
   4   1  -1   67.91    5.26
   4   1   0   21.58    1.79
   4   1   0   22.55    2.58
   4   1   0   23.50    2.82
   4   1   0   21.12    2.08
   4   1   0   21.23    2.58
   4   1   0   21.07    2.21
   4   1   0   20.90    2.09
   4   1   0   22.48    1.33
   4   1   0   20.46    2.34
   4   1   0   18.73    2.61
   4   1   1   59.89    4.69
   4   1   1   57.66    2.61
   4   1   1   68.30    4.67
   4   1   1   66.15    3.92
   4   1   1   67.83    3.97
   4   1   1   68.38    3.85
   4   1   1   73.20    4.03
   4   1   1   66.87    3.29
   4   1   1   70.96    5.39
   4   1   1   68.76    4.33
   4   1   2   27.20    2.92
   4   1   2   24.04    2.10
   4   1   2   24.05    2.53
   4   1   2   24.28    2.03
   4   1   2   24.88    1.82
   4   1   2   25.22    1.78
   4   1   2   24.60    2.04
   4   1   2   28.11    2.22
   4   1   2   25.94    2.30
   4   1   2   25.00    3.14
   4   1   2   24.49    1.59
   4   1   3   43.65    2.49
   4   1   3   39.18    3.59
   4   1   3   45.08    1.98
   4   1   3   45.24    3.53
   4   1   3   41.90    3.06
   4   1   3   45.45    3.38
   4   1   3   44.38    4.42
   4   1   3   50.94    3.46
   4   1   4  121.26    6.33
   4   1   4  107.18    5.25
   4   1   4  118.91    6.76
   4   1   4  112.30    7.31
   4   1   4   91.97    5.80
   4   1   4  114.12    6.40
   4   1   4  120.12    6.61
   4   1   4  113.41    7.72
   4   1   5   73.20    4.43
   4   1   5   72.89    5.04
   4   1   5   59.09    4.72
   4   1   5   64.83    6.12
   4   1   5   76.00    4.55
   4   1   5   54.55    4.15
   4   1   5   71.57    5.29
   4   1   6   60.71    6.49
   4   1   6   67.07    4.71
   4   1   6   72.11    5.76
   4   1   7   14.05    3.44
   4   1   7   12.58    2.17
   4   1   8   44.86    6.53
   4   1   8   49.53    4.77
   4   2  -5    3.80    1.44
   4   2  -4   24.21    2.75
   4   2  -4   22.30    3.12
   4   2  -4   22.48    2.72
   4   2  -4   25.34    2.87
   4   2  -4   22.62    2.68
   4   2  -3    3.02    0.85
   4   2  -3    1.55    0.73
   4   2  -3    1.18    0.58
   4   2  -3    2.34    1.01
   4   2  -3    1.01    0.45
   4   2  -3    2.74    1.02
   4   2  -3    1.07    0.60
   4   2  -2   12.95    1.50
   4   2  -2   15.04    2.23
   4   2  -2   12.43    1.90
   4   2  -2   14.44    1.55
   4   2  -2   10.69    1.98
   4   2  -2   13.63    2.51
   4   2  -2   11.07    1.62
   4   2  -2   11.77    1.47
   4   2  -2   15.35    1.65
   4   2  -2   13.08    2.16
   4   2  -1   82.20    4.93
   4   2  -1   86.31    4.00
   4   2  -1   79.94    5.79
   4   2  -1   72.68    5.63
   4   2  -1   84.19    3.91
   4   2  -1   83.94    4.29
   4   2  -1   85.26    5.47
   4   2  -1   82.37    3.99
   4   2  -1   74.96    5.72
   4   2  -1   79.14    3.95
   4   2   0  137.85    5.50
   4   2   0  139.34    7.43
   4   2   0  132.32    7.85
   4   2   0  132.23    5.37
   4   2   0  147.92    7.22
   4   2   0  133.70    7.25
   4   2   0  127.89    6.91
   4   2   0  133.14    7.26
   4   2   0  131.58    7.14
   4   2   0  127.29    7.98
   4   2   0  129.21    5.46
   4   2   1  403.35   14.91
   4   2   1  441.43   16.41
   4   2   1  394.79   17.28
   4   2   1  430.04   14.86
   4   2   1  440.57   17.23
   4   2   1  398.83   16.18
   4   2   1  417.53   16.25
   4   2   1  423.66   16.26
   4   2   1  392.37   17.80
   4   2   1  443.19   16.38
   4   2   1  414.63   16.07
   4   2   2  306.93   12.95
   4   2   2  328.95   14.36
   4   2   2  322.05   12.92
   4   2   2  356.63   13.82
   4   2   2  311.25   12.99
   4   2   2  317.95   12.76
   4   2   2  344.23   13.46
   4   2   3  168.48    7.14
   4   2   3  154.18    8.57
   4   2   3  148.33    8.66
   4   2   3  154.15    8.41
   4   2   3  166.87    6.10
   4   2   3  178.50    8.12
   4   2   3  143.07    7.40
   4   2   3  168.77    6.11
   4   2   3  179.90    8.37
   4   2   4   43.52    3.13
   4   2   4   47.54    4.54
   4   2   4   45.65    3.39
   4   2   4   43.13    3.67
   4   2   4   48.50    3.93
   4   2   5   26.35    2.59
   4   2   5   29.12    3.22
   4   2   5   24.31    3.66
   4   2   5   24.52    2.30
   4   2   6   10.98    2.20
   4   2   6   15.09    3.21
   4   2   6   20.76    2.54
   4   2   7   19.37    2.78
   4   2   7   19.35    4.07
   4   2   8   19.06    4.34
   4   2   8   14.97    2.65
   4   3  -4    2.05    0.95
   4   3  -4    2.90    1.28
   4   3  -4    4.80    1.61
   4   3  -4    3.85    1.29
   4   3  -4    1.61    0.87
   4   3  -4    3.69    1.34
   4   3  -3    7.80    1.51
   4   3  -3    9.13    2.11
   4   3  -3    5.92    1.53
   4   3  -3    6.81    1.43
   4   3  -3    7.68    1.50
   4   3  -3    8.96    1.70
   4   3  -2   81.25    5.72
   4   3  -2   79.68    4.90
   4   3  -2   85.53    4.97
   4   3  -2   80.25    5.63
   4   3  -2   83.83    6.11
   4   3  -2   77.03    4.92
   4   3  -2   80.45    6.05
   4   3  -2   80.48    4.98
   4   3  -1  144.84    6.86
   4   3  -1  139.72    6.65
   4   3  -1  122.49    8.04
   4   3  -1  138.67    8.08
   4   3  -1  145.66    6.91
   4   3  -1  147.12    8.76
   4   3  -1  137.27    6.80
   4   3   0  149.20    7.03
   4   3   0  171.00    8.52
   4   3   0  158.00    7.00
   4   3   0  151.33    8.24
   4   3   0  148.31    7.09
   4   3   1   57.47    3.88
   4   3   1   62.43    4.15
   4   3   1   60.75    3.83
   4   3   1   56.18    4.52
   4   3   1   69.90    4.83
   4   3   1   56.72    4.39
   4   3   1   61.30    4.19
   4   3   1   53.81    3.80
   4   3   2   71.10    4.79
   4   3   2   63.17    3.91
   4   3   2   72.41    4.63
   4   3   2   56.73    3.62
   4   3   2   58.22    4.55
   4   3   2   67.99    4.84
   4   3   3   69.45    4.03
   4   3   3   76.68    5.63
   4   3   3   75.01    5.40
   4   3   3   72.07    3.67
   4   3   3   79.54    5.39
   4   3   3   69.02    4.41
   4   3   4  191.31    9.10
   4   3   4  229.01   11.83
   4   3   4  238.46   11.74
   4   3   4  194.09    6.98
   4   3   4  226.91   10.67
   4   3   5   13.89    2.86
   4   3   5   10.58    2.08
   4   3   5    9.38    2.32
   4   3   6   16.33    2.44
   4   3   6   18.66    2.98
   4   3   6   17.37    3.55
   4   3   7   51.58    6.79
   4   3   7   62.08    5.33
   4   4  -4    1.86    0.99
   4   4  -4    8.25    2.20
   4   4  -3   12.45    2.14
   4   4  -3   10.74    2.28
   4   4  -3   14.75    2.63
   4   4  -3   16.92    2.45
   4   4  -3   13.29    2.13
   4   4  -3    7.88    1.73
   4   4  -2    9.47    1.81
   4   4  -2   11.25    2.25
   4   4  -2   11.69    1.91
   4   4  -2   13.93    2.06
   4   4  -2   10.86    1.90
   4   4  -1   32.20    3.15
   4   4  -1   33.12    3.11
   4   4  -1   32.24    3.68
   4   4  -1   35.17    3.33
   4   4  -1   35.54    3.35
   4   4   0  123.81    6.74
   4   4   0  106.59    6.26
   4   4   0  121.00    7.48
   4   4   0  110.35    6.57
   4   4   1  277.42   11.97
   4   4   1  232.87   11.01
   4   4   1  275.87   11.71
   4   4   1  280.40   12.78
   4   4   1  256.19   11.47
   4   4   1  276.05   12.04
   4   4   2  215.06   10.40
   4   4   2  217.09    8.50
   4   4   2  205.64    9.98
   4   4   2  175.62    8.68
   4   4   2  218.21   10.65
   4   4   2  184.81    8.65
   4   4   2  194.38   10.02
   4   4   3  172.65    7.88
   4   4   3  209.19   10.81
   4   4   3  207.03    7.72
   4   4   3  201.37   10.35
   4   4   3  178.23    8.22
   4   4   3  218.35   10.70
   4   4   4   26.85    3.76
   4   4   4   27.60    3.64
   4   4   4   26.12    2.01
   4   4   4   31.58    3.61
   4   4   5    8.64    2.41
   4   4   5   10.36    2.19
   4   4   5   10.24    2.49
   4   4   6   31.46    4.79
   4   4   6   24.98    3.64
   4   4   6   26.34    4.43
   4   4   7    0.65    0.69
   4   4   7   -0.16    0.63
   4   4   7   -0.15    0.92
   4   5  -3   41.99    4.87
   4   5  -3   30.09    3.80
   4   5  -3   37.16    4.09
   4   5  -3   45.62    5.16
   4   5  -3   32.99    4.03
   4   5  -3   35.90    4.16
   4   5  -2   22.39    3.12
   4   5  -2   28.90    3.45
   4   5  -2   28.18    3.83
   4   5  -2   23.17    3.00
   4   5  -2   22.70    3.16
   4   5  -1   61.43    5.09
   4   5  -1   58.38    4.84
   4   5  -1   60.09    5.54
   4   5  -1   58.56    5.05
   4   5  -1   55.74    4.98
   4   5   0   31.82    3.52
   4   5   0   30.33    3.33
   4   5   0   31.88    3.83
   4   5   0   30.71    3.54
   4   5   1   15.74    2.52
   4   5   1   19.06    2.74
   4   5   1   12.54    2.37
   4   5   1   13.09    2.17
   4   5   2    2.18    1.04
   4   5   2    3.57    1.33
   4   5   2    3.25    1.28
   4   5   2    1.87    0.96
   4   5   3   28.69    3.83
   4   5   3   22.46    3.20
   4   5   3   26.07    3.42
   4   5   4   23.11    3.68
   4   5   4   19.91    3.11
   4   5   4   18.79    3.19
   4   5   5   57.20    6.55
   4   5   5   61.34    6.50
   4   5   5   65.13    5.97
   4   5   6    5.90    2.53
   4   5   6    5.12    1.79
   4   5   6    6.66    2.30
   4   6  -2   39.47    4.62
   4   6  -2   39.54    4.49
   4   6  -2   35.39    4.42
   4   6  -2   42.97    4.89
   4   6  -1    3.78    1.65
   4   6  -1    6.98    2.34
   4   6  -1    8.20    2.10
   4   6  -1    6.06    1.84
   4   6  -1    4.60    1.74
   4   6   0   74.02    6.33
   4   6   0   72.77    6.08
   4   6   0   69.27    6.36
   4   6   0   70.65    6.30
   4   6   1  241.48   12.98
   4   6   1  223.64   12.25
   4   6   1  240.14   13.09
   4   6   1  234.36   12.96
   4   6   2  322.20   16.21
   4   6   2  307.55   15.62
   4   6   2  338.34   16.34
   4   6   2  325.50   16.31
   4   6   3   83.76    7.47
   4   6   3   87.29    7.27
   4   6   3   85.51    7.21
   4   6   3   83.33    7.32
   4   6   4   26.31    4.23
   4   6   4   29.03    3.99
   4   6   4   23.74    3.81
   4   6   5   22.18    4.38
   4   6   5   29.37    4.22
   4   6   5   32.76    4.96
   4   7  -1   75.37    7.05
   4   7  -1   73.10    6.68
   4   7  -1   73.41    7.06
   4   7   0   11.90    2.88
   4   7   0   10.61    2.57
   4   7   0   12.67    2.68
   4   7   1   49.07    5.60
   4   7   1   50.02    5.43
   4   7   1   45.66    5.48
   4   7   2   15.34    3.17
   4   7   2   11.62    2.79
   4   7   2   10.52    2.55
   4   7   3    0.49    0.92
   4   7   3    0.69    1.16
   4   7   3    0.86    0.85
   4   7   4   69.42    7.61
   4   7   4   71.56    7.42
   5  -7   0   17.01    3.44
   5  -7   0   17.98    3.43
   5  -6  -2   18.22    3.62
   5  -6  -2   21.00    3.38
   5  -6  -1   34.69    4.66
   5  -6  -1   35.56    4.36
   5  -6   0    6.11    1.82
   5  -6   0    2.94    1.34
   5  -6   1   16.55    3.00
   5  -6   2   10.29    2.39
   5  -6   3    6.81    1.89
   5  -5  -3   28.42    4.46
   5  -5  -2   53.21    5.75
   5  -5  -2   53.03    5.69
   5  -5  -2   51.51    4.85
   5  -5  -1    3.81    1.43
   5  -5  -1    4.92    1.43
   5  -5  -1    3.09    1.19
   5  -5  -1    3.38    1.40
   5  -5   0   23.17    2.72
   5  -5   0   17.07    2.67
   5  -5   1    6.09    1.80
   5  -5   2   34.10    3.89
   5  -5   3    6.29    1.69
   5  -5   4   15.47    2.92
   5  -4  -4    4.67    2.04
   5  -4  -3    5.27    1.99
   5  -4  -3    5.23    1.66
   5  -4  -2   44.76    5.13
   5  -4  -2   42.19    4.79
   5  -4  -2   38.76    3.71
   5  -4  -2   45.70    3.97
   5  -4  -1   27.09    3.78
   5  -4  -1   29.43    3.73
   5  -4  -1   22.23    2.67
   5  -4   0   46.58    4.52
   5  -4   0   50.66    3.81
   5  -4   0   40.33    3.73
   5  -4   1   11.35    1.43
   5  -4   1   10.65    1.99
   5  -4   2    2.16    0.93
   5  -4   3   36.81    3.66
   5  -4   4   91.72    6.00
   5  -4   4   81.58    6.65
   5  -4   5   35.47    4.32
   5  -3  -5   64.97    6.07
   5  -3  -4   93.33    8.73
   5  -3  -4   84.42    7.46
   5  -3  -3  187.17   12.08
   5  -3  -3  174.54   10.91
   5  -3  -2   71.84    6.54
   5  -3  -2   68.30    5.90
   5  -3  -2   75.66    4.74
   5  -3  -2   67.16    4.50
   5  -3  -1   35.27    3.10
   5  -3  -1   55.12    5.29
   5  -3  -1   45.74    3.42
   5  -3  -1   48.88    4.56
   5  -3  -1   42.25    3.22
   5  -3  -1   40.68    3.32
   5  -3  -1   38.43    3.22
   5  -3   0    3.83    0.97
   5  -3   0    6.81    1.24
   5  -3   0    7.81    1.33
   5  -3   0    7.08    1.25
   5  -3   0    8.48    1.73
   5  -3   0    6.22    1.26
   5  -3   1   18.50    2.12
   5  -3   1   23.10    2.37
   5  -3   1   18.06    1.62
   5  -3   1   18.80    2.13
   5  -3   1   17.36    2.41
   5  -3   1   17.34    2.05
   5  -3   2    4.96    1.16
   5  -3   2    7.45    1.44
   5  -3   2    8.33    1.55
   5  -3   2    5.67    1.27
   5  -3   2    6.07    1.33
   5  -3   3   24.24    2.62
   5  -3   4   21.22    2.38
   5  -3   4   26.70    3.38
   5  -3   5   40.73    4.44
   5  -3   6   86.68    7.10
   5  -2  -5    1.83    1.00
   5  -2  -4    5.14    1.54
   5  -2  -4    5.56    2.02
   5  -2  -4    7.05    2.01
   5  -2  -3  132.00    7.71
   5  -2  -3  124.42    8.70
   5  -2  -2   30.35    2.94
   5  -2  -2   33.41    4.23
   5  -2  -2   26.59    2.64
   5  -2  -2   35.59    3.88
   5  -2  -2   29.60    2.37
   5  -2  -2   31.42    2.42
   5  -2  -2   29.93    2.80
   5  -2  -1   44.07    2.81
   5  -2  -1   45.14    3.16
   5  -2  -1   50.58    4.98
   5  -2  -1   49.98    2.93
   5  -2  -1   44.45    3.10
   5  -2  -1   54.16    4.59
   5  -2  -1   48.51    2.84
   5  -2  -1   43.89    2.84
   5  -2  -1   49.10    2.82
   5  -2  -1   48.96    2.93
   5  -2   0   56.59    2.79
   5  -2   0   54.22    3.04
   5  -2   0   59.13    5.35
   5  -2   0   57.24    3.11
   5  -2   0   55.46    4.43
   5  -2   0   52.24    2.63
   5  -2   0   54.91    3.03
   5  -2   0   54.57    3.06
   5  -2   0   53.95    3.03
   5  -2   1   33.94    2.42
   5  -2   1   35.37    3.28
   5  -2   1   35.54    2.17
   5  -2   1   36.37    3.26
   5  -2   1   31.08    2.33
   5  -2   1   32.79    2.38
   5  -2   2   44.33    3.23
   5  -2   2   46.49    3.42
   5  -2   2   41.50    3.15
   5  -2   2   48.65    3.33
   5  -2   3   51.57    3.92
   5  -2   3   52.50    2.95
   5  -2   3   56.06    3.74
   5  -2   3   46.08    3.75
   5  -2   3   61.82    4.68
   5  -2   3   47.48    3.78
   5  -2   4   42.56    3.04
   5  -2   4   42.28    4.05
   5  -2   5  118.96    5.13
   5  -2   5  127.25    8.03
   5  -2   6  140.19    9.17
   5  -2   7   68.96    6.48
   5  -1  -5   25.39    3.50
   5  -1  -4  174.00    9.86
   5  -1  -4  204.38   13.46
   5  -1  -4  176.32   10.88
   5  -1  -3   68.05    4.96
   5  -1  -3   73.29    7.02
   5  -1  -3   61.36    5.62
   5  -1  -2  133.81    6.76
   5  -1  -2  113.40    4.96
   5  -1  -2  127.81    5.20
   5  -1  -2  152.75    9.60
   5  -1  -2  130.40    5.19
   5  -1  -2  135.92    8.11
   5  -1  -2  121.12    5.01
   5  -1  -2  127.50    5.23
   5  -1  -2  117.76    4.98
   5  -1  -2  122.66    5.16
   5  -1  -1   16.66    1.69
   5  -1  -1   17.72    2.85
   5  -1  -1   15.90    1.84
   5  -1  -1   13.94    1.72
   5  -1  -1   16.90    2.39
   5  -1   0   21.42    2.71
   5  -1   0   28.32    3.44
   5  -1   0   25.74    2.40
   5  -1   0   24.42    2.00
   5  -1   0   29.47    2.95
   5  -1   0   29.43    2.17
   5  -1   0   27.96    1.75
   5  -1   1   12.60    1.79
   5  -1   1   12.46    1.27
   5  -1   1   10.79    0.85
   5  -1   1    8.74    0.99
   5  -1   1    8.86    1.46
   5  -1   1   10.64    0.85
   5  -1   1   11.58    1.06
   5  -1   2   25.91    1.39
   5  -1   2   26.43    2.23
   5  -1   2   22.95    2.26
   5  -1   2   23.76    1.97
   5  -1   2   24.12    1.98
   5  -1   2   30.15    2.80
   5  -1   2   25.76    1.66
   5  -1   3   15.48    1.66
   5  -1   3   17.72    2.06
   5  -1   3   18.66    1.17
   5  -1   3   18.94    1.22
   5  -1   3   21.99    2.48
   5  -1   3   17.61    2.04
   5  -1   4    6.57    0.91
   5  -1   4    6.58    1.44
   5  -1   4    8.63    0.98
   5  -1   4   10.56    1.86
   5  -1   4    4.48    1.23
   5  -1   5   76.12    5.77
   5  -1   5   76.08    4.19
   5  -1   6   17.80    2.10
   5  -1   6   20.29    3.08
   5  -1   7  138.25    9.46
   5   0  -5   19.21    3.06
   5   0  -4   11.95    2.24
   5   0  -4   14.58    3.33
   5   0  -4   12.12    2.53
   5   0  -3   13.88    2.15
   5   0  -3   12.56    2.94
   5   0  -3   15.51    2.61
   5   0  -2   52.48    3.98
   5   0  -2   66.93    6.11
   5   0  -2   55.84    4.83
   5   0  -1   36.06    3.01
   5   0  -1   38.50    2.86
   5   0  -1   49.08    4.74
   5   0  -1   38.89    3.23
   5   0  -1   34.95    3.36
   5   0  -1   37.63    3.64
   5   0   0   38.38    2.34
   5   0   0   30.16    2.54
   5   0   0   36.45    3.49
   5   0   0   41.35    4.10
   5   0   0   37.98    3.10
   5   0   0   38.39    2.89
   5   0   0   31.50    3.04
   5   0   1   30.35    1.34
   5   0   1   30.60    2.28
   5   0   1   27.41    2.29
   5   0   1   34.24    2.79
   5   0   1   27.14    2.29
   5   0   1   29.82    2.40
   5   0   2    5.41    0.86
   5   0   2    4.17    0.86
   5   0   2    4.67    0.74
   5   0   2    5.15    0.69
   5   0   2    4.40    0.86
   5   0   2    5.95    1.20
   5   0   3   10.16    1.28
   5   0   3   11.60    1.23
   5   0   3   11.93    1.49
   5   0   3   10.92    1.10
   5   0   3   11.74    1.47
   5   0   3   12.33    1.78
   5   0   3   11.53    1.46
   5   0   4   94.28    5.24
   5   0   4   93.09    4.54
   5   0   4   78.44    5.32
   5   0   4   93.05    5.85
   5   0   4   79.94    5.31
   5   0   5   49.01    3.38
   5   0   5   46.62    4.35
   5   0   6  107.22    7.48
   5   0   6   96.74    5.75
   5   0   7    5.23    1.44
   5   0   7    6.47    1.98
   5   1  -5  101.67    7.65
   5   1  -4  142.03    8.87
   5   1  -4  157.91    9.94
   5   1  -3   97.37    6.38
   5   1  -3   88.06    8.02
   5   1  -3   94.41    7.04
   5   1  -2   52.34    4.09
   5   1  -2   59.58    5.87
   5   1  -2   52.99    4.51
   5   1  -2   54.99    4.91
   5   1  -1    7.13    1.25
   5   1  -1    7.91    1.55
   5   1  -1    9.22    2.06
   5   1  -1    9.50    1.80
   5   1   0   13.66    1.50
   5   1   0   15.41    2.43
   5   1   0   11.42    1.64
   5   1   0   14.64    1.91
   5   1   0   14.37    2.00
   5   1   0   16.22    1.18
   5   1   0   13.12    1.93
   5   1   1   17.01    1.45
   5   1   1   21.83    2.76
   5   1   1   17.58    2.06
   5   1   1   21.42    2.23
   5   1   1   18.07    2.03
   5   1   1   18.34    1.62
   5   1   2   30.92    3.08
   5   1   2   30.25    2.54
   5   1   2   30.68    2.36
   5   1   2   32.38    2.70
   5   1   2   40.30    2.84
   5   1   2   29.07    2.71
   5   1   2   32.98    2.74
   5   1   2   33.00    1.84
   5   1   3   14.71    1.16
   5   1   3   15.06    2.06
   5   1   3   10.19    1.59
   5   1   3   13.03    1.83
   5   1   3   13.89    1.23
   5   1   3   12.56    2.02
   5   1   3   14.63    1.61
   5   1   3   14.90    1.92
   5   1   4    8.34    1.05
   5   1   4    6.18    1.28
   5   1   4    9.03    1.82
   5   1   4    9.07    1.73
   5   1   4    8.61    1.53
   5   1   4    6.83    1.46
   5   1   5    1.65    0.69
   5   1   5    2.29    0.85
   5   1   5    1.92    0.83
   5   1   5    0.53    0.70
   5   1   5    0.85    0.67
   5   1   5    2.23    0.89
   5   1   6   54.93    5.88
   5   1   6   40.68    3.61
   5   1   6   48.77    4.81
   5   1   7   75.24    7.70
   5   1   7   84.55    6.97
   5   1   7   68.88    5.33
   5   1   8  148.54    9.00
   5   2  -4    5.05    1.71
   5   2  -4    5.16    1.67
   5   2  -4    5.95    1.86
   5   2  -3   80.38    6.14
   5   2  -3   89.70    6.91
   5   2  -2   40.15    3.80
   5   2  -2   41.85    4.93
   5   2  -2   48.92    4.54
   5   2  -1   39.35    3.38
   5   2  -1   39.73    4.39
   5   2  -1   42.85    3.96
   5   2   0    5.77    1.34
   5   2   0    6.35    1.55
   5   2   1    5.73    1.28
   5   2   1    6.25    1.35
   5   2   1    9.56    1.74
   5   2   1    6.07    0.71
   5   2   1    7.25    1.47
   5   2   1    8.25    1.57
   5   2   2    1.53    0.69
   5   2   2    1.46    0.75
   5   2   2    1.48    0.68
   5   2   2    2.60    0.91
   5   2   2    1.00    0.47
   5   2   2    1.74    0.74
   5   2   2    1.66    0.70
   5   2   2    1.98    0.62
   5   2   3    0.59    0.33
   5   2   3    0.54    0.36
   5   2   3    0.95    0.56
   5   2   3    0.95    0.69
   5   2   3    2.10    0.84
   5   2   3    0.44    0.25
   5   2   4   11.43    1.45
   5   2   4   14.03    1.84
   5   2   4   16.70    2.32
   5   2   4    9.27    2.14
   5   2   4   11.42    1.89
   5   2   4    9.77    1.61
   5   2   5   93.49    6.30
   5   2   5   79.03    4.89
   5   2   5   90.02    7.39
   5   2   6   62.16    5.48
   5   2   6   71.87    7.06
   5   2   6   67.30    5.01
   5   2   7   43.07    5.92
   5   2   7   42.35    4.16
   5   2   8    7.61    1.98
   5   3  -4   70.43    6.38
   5   3  -3  109.83    7.71
   5   3  -3  110.64    8.23
   5   3  -2   96.31    6.67
   5   3  -2  100.64    7.28
   5   3  -1   69.54    5.14
   5   3  -1   79.73    4.20
   5   3  -1   67.27    6.02
   5   3  -1   74.58    4.01
   5   3  -1   71.96    5.76
   5   3  -1   76.68    4.20
   5   3   0    3.09    0.73
   5   3   0    3.54    1.18
   5   3   0    2.38    0.65
   5   3   0    1.53    0.78
   5   3   0    4.32    0.82
   5   3   1    3.73    1.10
   5   3   1    3.22    0.85
   5   3   1    4.17    1.14
   5   3   1    2.83    0.72
   5   3   2   44.34    3.77
   5   3   2   53.38    4.00
   5   3   2   48.21    3.77
   5   3   2   53.39    4.46
   5   3   2   45.29    3.75
   5   3   3    6.17    1.22
   5   3   3    7.45    1.35
   5   3   3    9.37    1.93
   5   3   3    6.80    1.58
   5   3   3    8.54    1.48
   5   3   3    6.23    1.55
   5   3   3    7.77    1.11
   5   3   4    0.80    0.52
   5   3   4    0.18    0.37
   5   3   4    0.62    0.69
   5   3   4   -0.02    0.59
   5   3   4    0.31    0.52
   5   3   4    0.21    0.11
   5   3   5   88.81    7.74
   5   3   5  115.68    7.57
   5   3   6   34.45    4.14
   5   3   6   31.74    3.49
   5   3   7  102.33    7.95
   5   3   7   95.58    6.87
   5   4  -3   76.41    6.63
   5   4  -3   67.22    6.55
   5   4  -2   20.65    3.07
   5   4  -2   19.86    3.21
   5   4  -1   58.43    5.44
   5   4   0   12.49    1.84
   5   4   0   12.24    2.31
   5   4   0   11.53    1.76
   5   4   0   11.69    2.24
   5   4   0   13.35    1.82
   5   4   1    9.63    1.74
   5   4   1   13.59    2.38
   5   4   1    7.39    1.48
   5   4   1   10.36    1.83
   5   4   1    8.85    1.60
   5   4   2   15.77    2.36
   5   4   2   11.72    2.23
   5   4   2   13.07    1.87
   5   4   2   12.91    2.04
   5   4   2   11.07    1.73
   5   4   3   29.12    3.61
   5   4   3   27.45    2.49
   5   4   3   24.15    3.19
   5   4   3   27.71    3.46
   5   4   4   29.04    4.05
   5   4   4   29.81    3.91
   5   4   4   27.88    3.59
   5   4   5   38.17    5.07
   5   4   5   35.34    4.77
   5   4   5   37.38    4.33
   5   4   6  138.50    9.46
   5   4   6  123.28   10.32
   5   4   7   39.60    6.26
   5   4   7   51.63    5.10
   5   5  -1    7.75    2.19
   5   5   0    4.72    1.45
   5   5   0    5.57    1.81
   5   5   0    7.66    1.72
   5   5   0    8.38    1.71
   5   5   1   10.83    2.10
   5   5   1    8.77    1.85
   5   5   1    7.60    1.96
   5   5   1    9.53    1.87
   5   5   2    0.61    0.71
   5   5   2    3.91    1.43
   5   5   2    3.19    1.20
   5   5   3   12.18    2.55
   5   5   3   10.27    2.32
   5   5   3   12.14    2.47
   5   5   4    6.82    2.09
   5   5   4    8.64    2.16
   5   5   4    4.24    1.52
   5   5   5   29.48    4.65
   5   5   5   31.03    4.16
   5   5   5   32.59    4.74
   5   5   6   30.46    5.19
   5   5   6   25.21    4.51
   5   6   1    7.19    1.91
   5   6   1    3.80    1.49
   5   6   1    5.58    1.88
   5   6   1    6.91    1.79
   5   6   2    6.30    1.87
   5   6   2    4.10    1.68
   5   6   2    7.19    2.05
   5   6   2    5.82    1.71
   5   6   3   21.90    3.69
   5   6   3   21.51    3.53
   5   6   3   25.49    3.86
   5   6   4   21.40    4.03
   5   6   4   32.26    4.54
   5   6   5   52.64    6.69
   5   6   5   40.59    5.77
   5   7   3    6.45    2.59
   5   7   3    8.37    2.46
   6  -5  -1   53.59    6.20
   6  -5   0   42.85    5.49
   6  -5   0   46.46    5.18
   6  -5   1   29.10    3.92
   6  -5   2   19.79    3.17
   6  -5   3   23.31    3.39
   6  -5   4   19.00    2.95
   6  -4  -2   53.22    6.23
   6  -4  -1    4.43    1.84
   6  -4  -1    5.93    1.89
   6  -4   0   64.05    6.53
   6  -4   0   51.59    5.24
   6  -4   1  183.85   10.60
   6  -4   2  285.63   13.87
   6  -4   3   89.75    6.43
   6  -4   4   26.69    3.19
   6  -4   4   30.85    4.10
   6  -3  -2    6.24    2.13
   6  -3  -2    3.29    1.37
   6  -3  -1   57.01    6.14
   6  -3  -1   64.98    5.87
   6  -3   0   65.65    6.45
   6  -3   0   58.61    5.32
   6  -3   1   99.26    6.84
   6  -3   2    1.74    0.78
   6  -3   3    5.68    1.37
   6  -3   3    6.19    1.70
   6  -3   4  101.46    6.19
   6  -3   4  106.92    7.66
   6  -3   5   38.05    4.51
   6  -2  -3    3.51    1.87
   6  -2  -3    4.55    1.61
   6  -2  -2   19.64    3.63
   6  -2  -2   13.96    2.71
   6  -2  -1   26.98    4.00
   6  -2  -1   19.89    3.00
   6  -2   0   34.89    4.47
   6  -2   0   39.89    4.01
   6  -2   1  200.65   10.11
   6  -2   1  194.17    7.53
   6  -2   2   88.49    5.52
   6  -2   2  103.96    6.25
   6  -2   3  166.46    8.27
   6  -2   3  169.07    9.36
   6  -2   4   30.13    2.69
   6  -2   4   32.23    3.69
   6  -2   5   33.76    4.04
   6  -2   6    1.49    0.92
   6  -1  -4   25.93    3.37
   6  -1  -3    9.17    1.81
   6  -1  -3    7.91    2.49
   6  -1  -3   10.36    2.37
   6  -1  -2   16.46    2.11
   6  -1  -2   16.28    2.28
   6  -1  -2   20.89    3.69
   6  -1  -2   20.85    3.15
   6  -1  -1   73.09    4.17
   6  -1  -1   73.39    6.73
   6  -1  -1   65.79    4.51
   6  -1  -1   71.96    5.76
   6  -1   0  118.63    8.36
   6  -1   0   92.65    5.73
   6  -1   0  108.06    6.86
   6  -1   0  111.74    5.43
   6  -1   0  104.34    5.29
   6  -1   1   50.55    3.36
   6  -1   1   62.16    4.58
   6  -1   1   65.19    3.38
   6  -1   1   58.02    3.15
   6  -1   2   18.91    2.30
   6  -1   2   21.14    1.52
   6  -1   2   21.95    1.52
   6  -1   2   18.89    2.38
   6  -1   2   21.99    1.38
   6  -1   2   25.34    1.72
   6  -1   3   46.56    3.31
   6  -1   3   42.27    3.10
   6  -1   3   36.52    1.65
   6  -1   3   48.59    4.06
   6  -1   3   38.44    2.96
   6  -1   4   79.00    4.23
   6  -1   4   79.51    5.37
   6  -1   4   72.11    5.11
   6  -1   5   85.43    6.45
   6  -1   6   30.39    3.96
   6   0  -4   13.20    2.51
   6   0  -3   25.75    3.05
   6   0  -3   23.23    3.23
   6   0  -3   33.18    5.04
   6   0  -3   27.54    3.85
   6   0  -2    1.70    0.76
   6   0  -2    2.42    0.96
   6   0  -2    2.83    1.41
   6   0  -2    1.90    1.01
   6   0  -1   35.44    2.83
   6   0  -1   43.27    4.96
   6   0  -1   35.52    3.36
   6   0  -1   31.13    3.65
   6   0   0  116.53    4.89
   6   0   0   93.63    5.46
   6   0   0  111.88    8.05
   6   0   0   98.93    6.10
   6   0   0  108.09    5.94
   6   0   0  102.44    6.58
   6   0   0   98.04    5.18
   6   0   1  103.49    5.37
   6   0   1  100.12    5.64
   6   0   1  105.58    6.28
   6   0   1  111.19    5.76
   6   0   1  109.55    5.70
   6   0   2  450.76   17.24
   6   0   2  471.70   17.17
   6   0   2  517.06   18.55
   6   0   2  510.59   18.64
   6   0   2  541.76   18.18
   6   0   3  109.76    5.37
   6   0   3   93.35    4.83
   6   0   3  102.25    5.02
   6   0   3  100.99    5.07
   6   0   3  113.75    6.42
   6   0   3  106.42    5.53
   6   0   4  106.51    5.80
   6   0   4  105.09    4.46
   6   0   4  105.19    4.98
   6   0   4   90.04    5.61
   6   0   4  115.18    6.88
   6   0   4   95.96    5.69
   6   0   5   17.81    1.88
   6   0   5   17.20    2.65
   6   0   6   22.80    3.37
   6   0   7    6.92    2.03
   6   1  -4   20.73    3.11
   6   1  -4   19.60    3.35
   6   1  -3   19.49    2.75
   6   1  -3   23.11    3.40
   6   1  -3   19.71    3.96
   6   1  -3   24.18    3.60
   6   1  -2    7.50    1.49
   6   1  -2    7.14    1.72
   6   1  -2    7.35    2.33
   6   1  -2    5.27    1.68
   6   1  -1   72.08    4.68
   6   1  -1   80.93    7.00
   6   1  -1   78.55    5.60
   6   1  -1   73.02    5.84
   6   1   0   18.04    1.84
   6   1   0   16.45    2.83
   6   1   0   18.12    2.38
   6   1   0   17.14    1.25
   6   1   0   17.04    2.43
   6   1   1   49.49    2.77
   6   1   1   48.39    4.76
   6   1   1   43.61    3.56
   6   1   1   43.31    3.73
   6   1   1   45.51    3.80
   6   1   1   51.50    3.95
   6   1   1   53.32    3.10
   6   1   2   17.35    1.04
   6   1   2   17.92    1.09
   6   1   2   13.95    1.85
   6   1   2   16.56    2.12
   6   1   2   18.77    2.08
   6   1   2   20.25    2.10
   6   1   2   17.40    2.18
   6   1   2   16.45    1.91
   6   1   3   24.35    2.02
   6   1   3   22.29    2.21
   6   1   3   27.02    2.75
   6   1   3   23.73    2.56
   6   1   3   21.73    2.32
   6   1   4   21.33    2.73
   6   1   4   22.49    2.60
   6   1   5   71.88    5.27
   6   1   5   70.69    4.53
   6   1   5   67.48    5.56
   6   1   6   46.09    3.80
   6   1   6   43.04    4.72
   6   1   7   23.30    2.93
   6   1   7   29.55    4.05
   6   2  -4    5.22    1.38
   6   2  -3   -0.73    0.82
   6   2  -3    1.79    1.15
   6   2  -3    0.11    1.01
   6   2  -2   23.58    2.91
   6   2  -2   22.54    3.36
   6   2  -2   25.88    4.34
   6   2  -2   21.76    3.40
   6   2  -1    7.19    1.49
   6   2  -1    3.73    1.73
   6   2  -1    7.62    2.18
   6   2  -1    2.73    1.25
   6   2   0   28.33    2.75
   6   2   0   29.78    3.82
   6   2   0   26.20    3.23
   6   2   0   25.12    3.16
   6   2   1  186.07    8.35
   6   2   1  206.25   10.90
   6   2   1  201.85   10.08
   6   2   1  187.97    9.53
   6   2   2  254.39   12.15
   6   2   2  223.24    9.79
   6   2   2  227.34   11.17
   6   2   3  145.72    7.55
   6   2   3  165.36    6.90
   6   2   3  156.55    8.59
   6   2   4   59.15    5.11
   6   2   4   77.46    5.55
   6   2   5    5.48    1.56
   6   2   5    5.63    1.86
   6   2   6    2.50    1.06
   6   2   6    6.37    1.77
   6   2   6    4.82    1.97
   6   2   7    6.13    1.61
   6   2   7    5.49    2.49
   6   3  -3   13.17    2.59
   6   3  -2    9.27    2.01
   6   3  -2    8.45    2.09
   6   3  -1   27.06    3.13
   6   3  -1   28.00    3.71
   6   3  -1   20.79    3.59
   6   3   0   94.63    5.88
   6   3   0   81.13    6.84
   6   3   0  100.18    7.04
   6   3   1   54.09    4.88
   6   3   1   45.66    4.52
   6   3   2   27.75    3.24
   6   3   2   29.61    3.47
   6   3   3   27.02    3.05
   6   3   3   18.76    2.75
   6   3   3   19.21    2.62
   6   3   3   24.09    2.19
   6   3   4   42.67    4.56
   6   3   4   47.22    4.56
   6   3   5   38.91    4.91
   6   3   5   48.67    4.83
   6   3   6   33.20    4.18
   6   3   6   20.59    3.83
   6   3   7    3.24    1.28
   6   3   7    0.65    0.96
   6   3   7    0.58    1.39
   6   4  -2    4.71    1.71
   6   4  -1    2.83    1.27
   6   4  -1    3.27    1.54
   6   4   0   51.05    5.40
   6   4   0   64.15    5.86
   6   4   1   71.55    5.80
   6   4   1   66.73    6.07
   6   4   2  131.69    7.82
   6   4   2  122.20    8.42
   6   4   3  113.16    8.13
   6   4   4   48.60    5.38
   6   4   4   61.07    5.81
   6   4   4   57.31    5.46
   6   4   5   35.05    4.85
   6   4   5   34.70    4.40
   6   4   6    2.78    1.25
   6   4   6    3.71    1.88
   6   4   7    1.33    1.76
   6   5   0   19.07    3.36
   6   5   1    9.94    2.40
   6   5   2    5.75    1.87
   6   5   3    2.47    1.22
   6   5   4    0.98    0.93
   7  -5   2    7.88    2.13
   7  -5   3    4.05    1.61
   7  -4   0   71.27    6.62
   7  -4   1   13.58    2.81
   7  -4   2   14.11    2.65
   7  -4   3   26.37    3.54
   7  -4   3   33.94    4.45
   7  -3  -1   93.88    7.79
   7  -3   0    7.82    2.41
   7  -3   0    6.46    1.87
   7  -3   1   40.98    5.37
   7  -3   1   27.16    3.66
   7  -3   2   32.36    3.80
   7  -3   3   26.73    3.24
   7  -3   3   27.52    3.78
   7  -3   4    8.74    2.15
   7  -2  -1   45.29    5.86
   7  -2  -1   41.45    4.81
   7  -2   0    7.84    2.33
   7  -2   0   10.38    2.24
   7  -2   1   18.64    3.58
   7  -2   1   14.01    2.45
   7  -2   2   12.81    2.18
   7  -2   2    8.59    1.90
   7  -2   3    7.60    1.58
   7  -2   3    5.60    1.64
   7  -2   4    9.14    2.17
   7  -2   5   90.23    7.21
   7  -1  -1   85.92    8.01
   7  -1  -1   65.60    6.08
   7  -1   0   32.24    4.64
   7  -1   0   33.56    3.91
   7  -1   1    2.05    1.20
   7  -1   1    2.59    1.02
   7  -1   1    2.72    0.89
   7  -1   2   32.84    3.36
   7  -1   2   32.32    3.33
   7  -1   3    7.68    1.49
   7  -1   3   10.53    1.96
   7  -1   4    0.92    0.79
   7  -1   5   52.95    5.22
   7  -1   6   48.21    5.19
   7   0  -2    2.75    1.19
   7   0  -1   22.42    2.85
   7   0  -1   26.38    4.30
   7   0  -1   22.20    3.33
   7   0   0   59.59    6.21
   7   0   0   48.22    4.66
   7   0   0   49.54    4.02
   7   0   1   55.73    4.77
   7   0   1   69.00    4.50
   7   0   1   62.16    4.18
   7   0   2    9.13    1.43
   7   0   2    8.81    1.59
   7   0   2    6.78    1.37
   7   0   3   11.95    1.68
   7   0   3   10.95    1.89
   7   0   4   82.31    6.03
   7   0   5   65.26    5.64
   7   0   6   78.29    6.75
   7   1  -2   74.83    6.29
   7   1  -1   69.17    7.23
   7   1  -1   71.48    5.77
   7   1  -1   64.02    5.90
   7   1   0   15.48    2.38
   7   1   0   14.25    2.99
   7   1   0   19.38    2.90
   7   1   1    6.69    1.53
   7   1   1    6.17    1.93
   7   1   1    6.30    1.49
   7   1   2    8.20    1.74
   7   1   2    7.84    2.20
   7   1   2    4.12    1.20
   7   1   3   11.50    1.88
   7   1   3   13.84    2.03
   7   1   4    5.51    1.35
   7   1   4    3.41    1.03
   7   1   5    9.56    1.95
   7   1   5   11.42    2.41
   7   1   6   72.67    6.46
   7   2  -2    7.10    1.97
   7   2  -1    9.93    2.23
   7   2  -1   13.49    2.64
   7   2   0   64.12    6.48
   7   2   0   74.05    5.94
   7   2   0   63.32    5.63
   7   2   1   18.34    2.73
   7   2   1   19.56    3.27
   7   2   1   19.90    2.76
   7   2   2   37.44    4.40
   7   2   2   35.97    3.34
   7   2   2   37.13    3.83
   7   2   3   26.27    3.58
   7   2   3   23.54    3.04
   7   2   4   13.89    2.35
   7   2   5  137.26    8.60
   7   2   6   17.45    2.98
   7   3  -1  178.72   12.59
   7   3  -1  204.02   11.92
   7   3  -1  184.00   11.51
   7   3   0   13.21    2.60
   7   3   0   10.69    2.68
   7   3   0   13.36    2.62
   7   3   1    7.61    2.05
   7   3   1   12.28    2.61
   7   3   1    8.24    1.87
   7   3   2  100.04    7.46
   7   3   2  105.65    6.57
   7   3   2  106.47    7.53
   7   3   3    8.75    2.04
   7   3   3    9.99    2.21
   7   3   4   15.87    2.79
   7   3   5   79.92    6.63
   7   3   6   39.04    4.72
   7   4   1   31.35    4.28
   7   4   2    3.23    1.53
   7   4   3    6.68    2.34
   7   4   4   21.11    3.44
   7   4   5   66.82    6.48
   8  -3   1   29.15    4.00
   8  -3   2   -0.19    0.86
   8  -3   2    0.04    0.99
   8  -3   3   18.38    3.20
   8  -2   0   43.44    5.03
   8  -2   1   73.88    6.37
   8  -2   2   27.59    3.56
   8  -2   2   28.05    3.75
   8  -2   3   47.91    4.93
   8  -2   4   40.71    4.75
   8  -1   0   48.46    5.15
   8  -1   1   -0.41    0.88
   8  -1   2   50.10    6.23
   8  -1   2   45.59    4.42
   8  -1   3    6.92    1.70
   8  -1   4    6.05    1.74
   8  -1   5   39.50    4.57
   8   0   0   43.55    4.80
   8   0   1   20.22    4.04
   8   0   1   19.40    2.99
   8   0   2  126.10   10.03
   8   0   4   69.88    5.74
   8   0   5   18.34    3.03
   8   1   0    0.24    0.66
   8   1   1    2.85    1.43
   8   1   1    2.04    1.18
   8   1   2    0.61    0.75
   8   1   3   12.95    2.98
   8   2   0    2.87    1.39
   8   2   1   74.29    7.33
   8   2   2   54.46    5.96
   8   2   3   78.12    7.16
   8   2   4   35.71    4.72
   8   3   1   13.67    2.78
   8   3   1   11.90    2.97
   8   3   2   15.01    2.87
   8   3   3   12.90    2.65
   8   3   4    4.03    1.71
   0   0   0    0.00    0.00
;
_shelx_hkl_checksum              38838
_olex2_submission_special_instructions 'No special instructions were received'
_oxdiff_exptl_absorpt_empirical_details
;
Empirical correction (ABSPACK) includes:
- Absorption correction using spherical harmonics
- Frame scaling
- Detector area scaling
;
_oxdiff_exptl_absorpt_empirical_full_max 1.582
_oxdiff_exptl_absorpt_empirical_full_min 0.697
loop_
_space_group_symop_operation_xyz
'x, y, z'
loop_
_atom_site_label
_atom_site_type_symbol
_atom_site_fract_x
_atom_site_fract_y
_atom_site_fract_z
_atom_site_U_iso_or_equiv
_atom_site_adp_type
_atom_site_occupancy
_atom_site_site_symmetry_order
_atom_site_calc_flag
_atom_site_refinement_flags_posn
_atom_site_refinement_flags_adp
_atom_site_refinement_flags_occupancy
_atom_site_disorder_assembly
_atom_site_disorder_group
V1 V 0.28917(17) 1.10136(16) 0.43650(17) 0.0042(3) Uani 1 1 d . . . . .
V2 V -0.14320(17) 0.61007(16) 0.25359(16) 0.0039(3) Uani 1 1 d . . . . .
Ca1 Ca -0.1814(3) 1.3041(2) 0.8115(2) 0.0080(3) Uani 1 1 d . . . . .
P1 P 0.3215(3) 0.6101(3) 0.3499(3) 0.0037(4) Uani 1 1 d . . . . .
P2 P 0.8204(3) 1.1091(3) 0.3364(3) 0.0037(4) Uani 1 1 d . . . . .
O1 O 0.5844(9) 1.0786(8) 0.4854(9) 0.0061(10) Uani 1 1 d . . . . .
O2 O 0.8939(9) 0.9222(8) 0.1994(9) 0.0062(10) Uani 1 1 d . . . . .
O3 O 0.2867(8) 0.4079(8) 0.5000(8) 0.0050(10) Uani 1 1 d . . . . .
O4 O 0.5606(8) 0.6421(9) 0.2112(9) 0.0066(10) Uani 1 1 d . . . . .
O5 O 0.8414(9) 1.3057(8) 0.1777(8) 0.0066(11) Uani 1 1 d . . . . .
O6 O 0.9631(9) 1.1342(9) 0.4884(9) 0.0064(10) Uani 1 1 d . . . . .
O7 O 0.2482(9) 0.7883(8) 0.5004(9) 0.0062(10) Uani 1 1 d . . . . .
O8 O 0.1855(9) 0.5991(9) 0.1900(9) 0.0057(10) Uani 1 1 d . . . . .
O9 O 0.1619(9) 1.1026(9) 0.8146(9) 0.0065(10) Uani 1 1 d . U . . .
H9B H 0.213795 1.211152 0.845764 0.010 Uiso 1 1 d R U . . .
H9A H 0.147235 0.985952 0.893624 0.010 Uiso 1 1 d R U . . .
O10 O -0.2043(9) 0.5672(9) 0.5083(9) 0.0064(11) Uani 1 1 d . . . . .
O11 O 0.3614(9) 1.1134(9) 0.1840(9) 0.0073(11) Uani 1 1 d . . . . .
O12 O -0.5518(9) 1.4150(8) 0.8483(8) 0.0061(10) Uani 1 1 d . . . . .
H12B H -0.480357 1.457506 0.718240 0.009 Uiso 1 1 d R U . . .
H12A H -0.631597 1.515336 0.921590 0.009 Uiso 1 1 d R U . . .
O13 O -0.3407(9) 0.9458(8) 0.8521(9) 0.0102(11) Uani 1 1 d . . . . .
H13A H -0.399250 0.932177 0.747605 0.015 Uiso 1 1 d R U . . .
H13B H -0.448530 0.931547 0.965495 0.015 Uiso 1 1 d R U . . .
O14 O -0.0530(9) 0.6450(8) -0.1257(8) 0.0077(10) Uani 1 1 d . . . . .
H14A H -0.114953 0.748465 -0.173182 0.012 Uiso 1 1 d R U . . .
H14B H 0.083967 0.667015 -0.185862 0.012 Uiso 1 1 d R U . . .
loop_
_atom_site_aniso_label
_atom_site_aniso_U_11
_atom_site_aniso_U_22
_atom_site_aniso_U_33
_atom_site_aniso_U_23
_atom_site_aniso_U_13
_atom_site_aniso_U_12
V1 0.0045(6) 0.0041(6) 0.0041(6) -0.0008(4) -0.0011(4) 0.0005(4)
V2 0.0050(6) 0.0034(5) 0.0037(6) -0.0004(4) -0.0015(4) 0.0003(4)
Ca1 0.0105(7) 0.0067(6) 0.0082(6) -0.0021(5) -0.0046(5) 0.0015(5)
P1 0.0040(9) 0.0033(8) 0.0036(9) 0.0005(7) -0.0010(7) -0.0001(6)
P2 0.0043(9) 0.0027(8) 0.0043(9) -0.0005(7) -0.0014(7) -0.0003(6)
O1 0.006(3) 0.008(3) 0.006(2) 0.000(2) -0.003(2) 0.0008(19)
O2 0.010(3) 0.003(2) 0.005(3) 0.0013(19) 0.001(2) -0.0004(19)
O3 0.006(3) 0.004(2) 0.006(3) -0.001(2) -0.004(2) 0.0029(19)
O4 0.003(3) 0.008(3) 0.008(3) 0.001(2) -0.001(2) -0.0014(19)
O5 0.010(3) 0.004(2) 0.004(3) 0.002(2) 0.000(2) 0.002(2)
O6 0.004(2) 0.007(2) 0.007(2) -0.004(2) 0.0003(19) 0.0030(19)
O7 0.011(3) 0.003(2) 0.004(2) -0.002(2) 0.000(2) 0.0006(19)
O8 0.004(3) 0.008(2) 0.005(2) 0.0003(19) -0.0017(19) -0.0003(18)
O9 0.0071(15) 0.0061(15) 0.0054(15) 0.0002(11) -0.0005(11) -0.0031(11)
O10 0.006(3) 0.006(3) 0.006(3) 0.000(2) -0.002(2) 0.0012(19)
O11 0.010(3) 0.006(2) 0.008(3) -0.001(2) -0.006(2) 0.0029(19)
O12 0.009(3) 0.005(2) 0.004(2) -0.0004(18) -0.0011(19) -0.0012(19)
O13 0.012(3) 0.007(2) 0.008(2) 0.001(2) 0.001(2) 0.004(2)
O14 0.007(3) 0.008(2) 0.009(3) -0.002(2) -0.002(2) 0.0052(19)
loop_
_atom_type_symbol
_atom_type_description
_atom_type_scat_dispersion_real
_atom_type_scat_dispersion_imag
_atom_type_scat_source
Ca Ca 0.2262 0.3064 'International Tables Vol C Tables 4.2.6.8 and 6.1.1.4'
H H 0.0000 0.0000 'International Tables Vol C Tables 4.2.6.8 and 6.1.1.4'
O O 0.0106 0.0060 'International Tables Vol C Tables 4.2.6.8 and 6.1.1.4'
P P 0.1023 0.0942 'International Tables Vol C Tables 4.2.6.8 and 6.1.1.4'
V V 0.3005 0.5294 'International Tables Vol C Tables 4.2.6.8 and 6.1.1.4'
loop_
_geom_angle_atom_site_label_1
_geom_angle_atom_site_label_2
_geom_angle_atom_site_label_3
_geom_angle
_geom_angle_site_symmetry_1
_geom_angle_site_symmetry_3
_geom_angle_publ_flag
O1 V1 Ca1 123.26(16) . . ?
O1 V1 O3 88.7(2) . 1_565 ?
O1 V1 O6 161.5(2) . 1_455 ?
O1 V1 O7 88.8(2) . . ?
O1 V1 O9 83.5(2) . . ?
O3 V1 Ca1 60.24(16) 1_565 . ?
O3 V1 O9 74.2(2) 1_565 . ?
O6 V1 Ca1 39.22(16) 1_455 . ?
O6 V1 O3 84.6(2) 1_455 1_565 ?
O6 V1 O9 78.1(2) 1_455 . ?
O7 V1 Ca1 102.95(16) . . ?
O7 V1 O3 157.1(2) . 1_565 ?
O7 V1 O6 90.7(2) . 1_455 ?
O7 V1 O9 82.8(2) . . ?
O9 V1 Ca1 44.80(13) . . ?
O11 V1 Ca1 131.2(2) . . ?
O11 V1 O1 99.6(3) . . ?
O11 V1 O3 103.0(3) . 1_565 ?
O11 V1 O6 98.7(3) . 1_455 ?
O11 V1 O7 99.9(3) . . ?
O11 V1 O9 175.9(2) . . ?
O2 V2 Ca1 117.80(16) 1_455 1_544 ?
O2 V2 O5 156.4(2) 1_455 1_445 ?
O2 V2 O8 87.1(2) 1_455 . ?
O2 V2 O14 79.4(2) 1_455 . ?
O4 V2 Ca1 70.18(17) 1_455 1_544 ?
O4 V2 O2 87.3(2) 1_455 1_455 ?
O4 V2 O5 86.5(2) 1_455 1_445 ?
O4 V2 O8 160.7(2) 1_455 . ?
O4 V2 O14 78.6(2) 1_455 . ?
O5 V2 Ca1 39.04(15) 1_445 1_544 ?
O5 V2 O14 77.1(2) 1_445 . ?
O8 V2 Ca1 96.33(16) . 1_544 ?
O8 V2 O5 91.3(2) . 1_445 ?
O8 V2 O14 82.2(2) . . ?
O10 V2 Ca1 135.5(2) . 1_544 ?
O10 V2 O2 105.0(3) . 1_455 ?
O10 V2 O4 101.6(3) . 1_455 ?
O10 V2 O5 98.5(2) . 1_445 ?
O10 V2 O8 97.7(3) . . ?
O10 V2 O14 175.6(2) . . ?
O14 V2 Ca1 40.40(13) . 1_544 ?
V1 Ca1 V2 123.22(5) . 1_566 ?
V1 Ca1 H9B 49.3 . . ?
V1 Ca1 H12B 123.9 . . ?
V2 Ca1 H9B 77.2 1_566 . ?
V2 Ca1 H12B 102.6 1_566 . ?
P2 Ca1 V1 54.66(4) 1_455 . ?
P2 Ca1 V2 168.60(6) 1_455 1_566 ?
P2 Ca1 H9B 103.4 1_455 . ?
P2 Ca1 H12B 73.9 1_455 . ?
O3 Ca1 V1 34.18(10) 1_565 . ?
O3 Ca1 V2 98.72(11) 1_565 1_566 ?
O3 Ca1 P2 74.03(11) 1_565 1_455 ?
O3 Ca1 H9B 49.1 1_565 . ?
O3 Ca1 H12B 116.9 1_565 . ?
O5 Ca1 V1 115.34(14) 1_456 . ?
O5 Ca1 V2 31.56(13) 1_456 1_566 ?
O5 Ca1 P2 158.87(14) 1_456 1_455 ?
O5 Ca1 O3 108.21(17) 1_456 1_565 ?
O5 Ca1 O9 74.60(18) 1_456 . ?
O5 Ca1 H9B 66.8 1_456 . ?
O5 Ca1 O10 138.82(19) 1_456 1_565 ?
O5 Ca1 H12B 120.5 1_456 . ?
O5 Ca1 O13 95.90(19) 1_456 . ?
O6 Ca1 V1 32.10(13) 1_455 . ?
O6 Ca1 V2 154.75(15) 1_455 1_566 ?
O6 Ca1 P2 22.87(14) 1_455 1_455 ?
O6 Ca1 O3 57.14(16) 1_455 1_565 ?
O6 Ca1 O5 142.1(2) 1_455 1_456 ?
O6 Ca1 O9 68.77(19) 1_455 . ?
O6 Ca1 H9B 80.5 1_455 . ?
O6 Ca1 O10 73.17(19) 1_455 1_565 ?
O6 Ca1 O12 110.81(19) 1_455 . ?
O6 Ca1 H12B 95.9 1_455 . ?
O6 Ca1 O13 70.28(19) 1_455 . ?
O6 Ca1 O14 123.9(2) 1_455 1_566 ?
O9 Ca1 V1 41.56(13) . . ?
O9 Ca1 V2 92.00(13) . 1_566 ?
O9 Ca1 P2 90.93(14) . 1_455 ?
O9 Ca1 O3 55.25(16) . 1_565 ?
O9 Ca1 H9B 18.2 . . ?
O9 Ca1 O10 123.61(18) . 1_565 ?
O9 Ca1 H12B 164.7 . . ?
H9B Ca1 H12B 165.0 . . ?
O10 Ca1 V1 86.20(13) 1_565 . ?
O10 Ca1 V2 107.28(13) 1_565 1_566 ?
O10 Ca1 P2 62.17(13) 1_565 1_455 ?
O10 Ca1 O3 69.46(16) 1_565 1_565 ?
O10 Ca1 H9B 117.8 1_565 . ?
O10 Ca1 H12B 47.6 1_565 . ?
O12 Ca1 V1 141.91(13) . . ?
O12 Ca1 V2 91.85(13) . 1_566 ?
O12 Ca1 P2 87.94(13) . 1_455 ?
O12 Ca1 O3 137.23(16) . 1_565 ?
O12 Ca1 O5 102.33(18) . 1_456 ?
O12 Ca1 O9 165.92(17) . . ?
O12 Ca1 H9B 168.7 . . ?
O12 Ca1 O10 67.82(17) . 1_565 ?
O12 Ca1 H12B 21.0 . . ?
O12 Ca1 O13 84.51(18) . . ?
O12 Ca1 O14 94.55(18) . 1_566 ?
O13 Ca1 V1 86.20(13) . . ?
O13 Ca1 V2 124.92(14) . 1_566 ?
O13 Ca1 P2 66.41(14) . 1_455 ?
O13 Ca1 O3 120.38(17) . 1_565 ?
O13 Ca1 O9 82.18(18) . . ?
O13 Ca1 H9B 99.4 . . ?
O13 Ca1 O10 121.38(19) . 1_565 ?
O13 Ca1 H12B 93.0 . . ?
O14 Ca1 V1 103.47(14) 1_566 . ?
O14 Ca1 V2 39.74(13) 1_566 1_566 ?
O14 Ca1 P2 128.92(14) 1_566 1_455 ?
O14 Ca1 O3 70.03(16) 1_566 1_565 ?
O14 Ca1 O5 69.28(18) 1_566 1_456 ?
O14 Ca1 O9 97.06(19) 1_566 . ?
O14 Ca1 H9B 78.9 1_566 . ?
O14 Ca1 O10 71.78(18) 1_566 1_565 ?
O14 Ca1 H12B 91.3 1_566 . ?
O14 Ca1 O13 164.65(19) 1_566 . ?
O3 P1 O7 104.2(3) . . ?
O3 P1 O8 110.8(3) . . ?
O4 P1 O3 112.6(3) . . ?
O4 P1 O7 111.9(3) . . ?
O4 P1 O8 104.9(3) . . ?
O7 P1 O8 112.6(3) . . ?
O1 P2 Ca1 73.3(2) . 1_655 ?
O1 P2 O5 111.5(3) . . ?
O1 P2 O6 104.3(3) . . ?
O2 P2 Ca1 143.1(2) . 1_655 ?
O2 P2 O1 112.4(3) . . ?
O2 P2 O5 105.8(3) . . ?
O2 P2 O6 111.4(3) . . ?
O5 P2 Ca1 105.3(2) . 1_655 ?
O6 P2 Ca1 36.9(2) . 1_655 ?
O6 P2 O5 111.5(3) . . ?
P2 O1 V1 132.8(3) . . ?
P2 O2 V2 134.3(3) . 1_655 ?
V1 O3 Ca1 85.58(18) 1_545 1_545 ?
P1 O3 V1 130.5(3) . 1_545 ?
P1 O3 Ca1 118.8(3) . 1_545 ?
P1 O4 V2 136.3(4) . 1_655 ?
V2 O5 Ca1 109.4(2) 1_665 1_654 ?
P2 O5 V2 124.6(3) . 1_665 ?
P2 O5 Ca1 125.6(3) . 1_654 ?
V1 O6 Ca1 108.7(2) 1_655 1_655 ?
P2 O6 V1 129.8(3) . 1_655 ?
P2 O6 Ca1 120.2(3) . 1_655 ?
P1 O7 V1 129.3(3) . . ?
P1 O8 V2 127.3(3) . . ?
V1 O9 Ca1 93.65(19) . . ?
V1 O9 H9B 106.6 . . ?
V1 O9 H9A 120.4 . . ?
Ca1 O9 H9B 88.7 . . ?
Ca1 O9 H9A 118.2 . . ?
H9B O9 H9A 121.7 . . ?
V2 O10 Ca1 144.8(3) . 1_545 ?
Ca1 O12 H12B 75.9 . . ?
Ca1 O12 H12A 131.6 . . ?
H12B O12 H12A 113.7 . . ?
Ca1 O13 H13A 108.2 . . ?
Ca1 O13 H13B 109.6 . . ?
H13A O13 H13B 105.0 . . ?
V2 O14 Ca1 99.9(2) . 1_544 ?
V2 O14 H14A 113.5 . . ?
V2 O14 H14B 112.9 . . ?
Ca1 O14 H14A 113.5 1_544 . ?
Ca1 O14 H14B 112.9 1_544 . ?
H14A O14 H14B 104.5 . . ?
loop_
_geom_bond_atom_site_label_1
_geom_bond_atom_site_label_2
_geom_bond_distance
_geom_bond_site_symmetry_2
_geom_bond_publ_flag
V1 Ca1 3.5782(19) . ?
V1 O1 1.992(5) . ?
V1 O3 2.016(5) 1_565 ?
V1 O6 2.007(6) 1_455 ?
V1 O7 2.000(6) . ?
V1 O9 2.378(6) . ?
V1 O11 1.584(6) . ?
V2 Ca1 3.6713(19) 1_544 ?
V2 O2 1.987(6) 1_455 ?
V2 O4 1.984(5) 1_455 ?
V2 O5 2.037(5) 1_445 ?
V2 O8 2.004(5) . ?
V2 O10 1.606(6) . ?
V2 O14 2.382(5) . ?
Ca1 P2 3.436(3) 1_455 ?
Ca1 O3 3.116(6) 1_565 ?
Ca1 O5 2.452(6) 1_456 ?
Ca1 O6 2.388(6) 1_455 ?
Ca1 O9 2.526(6) . ?
Ca1 H9B 2.6410 . ?
Ca1 O10 2.541(6) 1_565 ?
Ca1 O12 2.399(6) . ?
Ca1 H12B 2.3438 . ?
Ca1 O13 2.452(5) . ?
Ca1 O14 2.415(5) 1_566 ?
P1 O3 1.535(5) . ?
P1 O4 1.529(6) . ?
P1 O7 1.538(6) . ?
P1 O8 1.545(6) . ?
P2 O1 1.535(6) . ?
P2 O2 1.530(6) . ?
P2 O5 1.546(5) . ?
P2 O6 1.545(6) . ?
O9 H9B 0.8270 . ?
O9 H9A 0.8613 . ?
O12 H12B 0.8660 . ?
O12 H12A 0.8916 . ?
O13 H13A 0.8789 . ?
O13 H13B 0.8513 . ?
O14 H14A 0.8500 . ?
O14 H14B 0.8500 . ?
loop_
_geom_hbond_atom_site_label_D
_geom_hbond_atom_site_label_H
_geom_hbond_atom_site_label_A
_geom_hbond_distance_DH
_geom_hbond_distance_HA
_geom_hbond_distance_DA
_geom_hbond_angle_DHA
_geom_hbond_site_symmetry_A
_geom_hbond_publ_flag
O9 H9B O12 0.83 1.97 2.751(7) 156.1 1_655 yes
O9 H9A O2 0.86 2.19 2.770(7) 124.7 1_456 yes
O12 H12B O10 0.87 1.98 2.758(8) 149.4 1_565 yes
O12 H12A O8 0.89 1.92 2.717(8) 148.0 1_466 yes
O13 H13A O1 0.88 1.93 2.665(8) 140.7 1_455 yes
O13 H13B O11 0.85 2.02 2.718(8) 138.9 1_456 yes
O14 H14A O13 0.85 1.88 2.663(7) 152.7 1_554 yes
O14 H14B O7 0.85 2.11 2.732(8) 129.7 1_554 yes
loop_
_geom_torsion_atom_site_label_1
_geom_torsion_atom_site_label_2
_geom_torsion_atom_site_label_3
_geom_torsion_atom_site_label_4
_geom_torsion
_geom_torsion_site_symmetry_1
_geom_torsion_site_symmetry_2
_geom_torsion_site_symmetry_3
_geom_torsion_site_symmetry_4
_geom_torsion_publ_flag
Ca1 V2 O10 Ca1 45.1(6) 1_544 . . 1_545 ?
Ca1 P2 O1 V1 142.9(5) 1_655 . . . ?
Ca1 P2 O2 V2 51.0(7) 1_655 . . 1_655 ?
Ca1 P2 O5 V2 -1.2(4) 1_655 . . 1_665 ?
Ca1 P2 O5 Ca1 -173.7(3) 1_655 . . 1_654 ?
Ca1 P2 O6 V1 -165.2(7) 1_655 . . 1_655 ?
O1 P2 O2 V2 -40.7(6) . . . 1_655 ?
O1 P2 O5 V2 76.5(4) . . . 1_665 ?
O1 P2 O5 Ca1 -96.0(4) . . . 1_654 ?
O1 P2 O6 V1 161.2(4) . . . 1_655 ?
O1 P2 O6 Ca1 -33.6(4) . . . 1_655 ?
O2 V2 O10 Ca1 -151.1(5) 1_455 . . 1_545 ?
O2 P2 O1 V1 -75.9(5) . . . . ?
O2 P2 O5 V2 -161.0(3) . . . 1_665 ?
O2 P2 O5 Ca1 26.5(4) . . . 1_654 ?
O2 P2 O6 V1 39.7(5) . . . 1_655 ?
O2 P2 O6 Ca1 -155.1(3) . . . 1_655 ?
O3 P1 O4 V2 -42.0(6) . . . 1_655 ?
O3 P1 O7 V1 168.5(4) . . . . ?
O3 P1 O8 V2 69.8(5) . . . . ?
O4 V2 O10 Ca1 118.6(5) 1_455 . . 1_545 ?
O4 P1 O3 V1 -70.8(5) . . . 1_545 ?
O4 P1 O3 Ca1 178.5(3) . . . 1_545 ?
O4 P1 O7 V1 46.6(5) . . . . ?
O4 P1 O8 V2 -168.4(4) . . . . ?
O5 V2 O10 Ca1 30.4(5) 1_445 . . 1_545 ?
O5 P2 O1 V1 42.7(5) . . . . ?
O5 P2 O2 V2 -162.6(4) . . . 1_655 ?
O5 P2 O6 V1 -78.3(5) . . . 1_655 ?
O5 P2 O6 Ca1 86.9(4) . . . 1_655 ?
O6 P2 O1 V1 163.2(4) . . . . ?
O6 P2 O2 V2 76.0(5) . . . 1_655 ?
O6 P2 O5 V2 -39.6(5) . . . 1_665 ?
O6 P2 O5 Ca1 147.9(3) . . . 1_654 ?
O7 P1 O3 V1 167.7(4) . . . 1_545 ?
O7 P1 O3 Ca1 57.1(3) . . . 1_545 ?
O7 P1 O4 V2 75.0(6) . . . 1_655 ?
O7 P1 O8 V2 -46.4(5) . . . . ?
O8 V2 O10 Ca1 -62.1(5) . . . 1_545 ?
O8 P1 O3 V1 46.4(5) . . . 1_545 ?
O8 P1 O3 Ca1 -64.3(4) . . . 1_545 ?
O8 P1 O4 V2 -162.6(5) . . . 1_655 ?
O8 P1 O7 V1 -71.4(5) . . . . ?
