#------------------------------------------------------------------------------
#$Date: 2022-06-01 01:37:49 +0300 (Wed, 01 Jun 2022) $
#$Revision: 275708 $
#$URL: file:///home/coder/svn-repositories/cod/cif/7/24/50/7245013.cif $
#------------------------------------------------------------------------------
#
# This file is available in the Crystallography Open Database (COD),
# http://www.crystallography.net/
#
# All data on this site have been placed in the public domain by the
# contributors.
#
data_7245013
loop_
_publ_author_name
'Karunathilaka, Dilan'
'Rajapakse, R. M. G.'
'Steen, April'
'Sexton, Thomas More'
'Sparks, Nicholas'
'Mosely, Jacquelyn'
'Rheingold, Arnold L.'
'Hammer, Nathan I.'
'Tschumper, Gregory S.'
'Watkins, Davita'
_publ_section_title
;
 Correlation of Solid-State Order to Optoelectronic Behavior in
 Heterocyclic Oligomers
;
_journal_name_full               CrystEngComm
_journal_paper_doi               10.1039/D2CE00560C
_journal_year                    2022
_chemical_formula_moiety         'C34 H40 N2 O2 S2'
_chemical_formula_sum            'C34 H40 N2 O2 S2'
_chemical_formula_weight         572.80
_space_group_crystal_system      triclinic
_space_group_IT_number           2
_space_group_name_Hall           '-P 1'
_space_group_name_H-M_alt        'P -1'
_atom_sites_solution_hydrogens   geom
_atom_sites_solution_primary     direct
_audit_creation_date             2020-06-11
_audit_creation_method
;
Olex2 1.2-beta
(compiled 2018.05.29 svn.r3508 for OlexSys, GUI svn.r5506)
;
_audit_update_record
;
2022-04-21 deposited with the CCDC.	2022-05-30 downloaded from the CCDC.
;
_cell_angle_alpha                80.476(4)
_cell_angle_beta                 86.864(6)
_cell_angle_gamma                86.423(5)
_cell_formula_units_Z            1
_cell_length_a                   5.1067(9)
_cell_length_b                   7.1680(8)
_cell_length_c                   20.766(3)
_cell_measurement_reflns_used    671
_cell_measurement_temperature    100
_cell_measurement_theta_max      26.25
_cell_measurement_theta_min      2.99
_cell_volume                     747.44(19)
_computing_cell_refinement       'SAINT v8.38A (Bruker, 2017)'
_computing_data_collection       'APEX3 v2017.3-0 (Bruker, 2017)'
_computing_data_reduction        'SAINT v8.38A (Bruker, 2017)'
_computing_molecular_graphics    'Olex2 (Dolomanov et al., 2009)'
_computing_publication_material  'Olex2 (Dolomanov et al., 2009)'
_computing_structure_refinement  'XL (Sheldrick, 2008)'
_computing_structure_solution    'ShelXT (Sheldrick, 2015)'
_diffrn_ambient_temperature      100.15
_diffrn_detector                 'Bruker APEX-II CCD'
_diffrn_detector_area_resol_mean 8.258
_diffrn_detector_type            'CCD Area Detector'
_diffrn_measured_fraction_theta_full 1.000
_diffrn_measured_fraction_theta_max 0.997
_diffrn_measurement_device       'Kappa Four-Circle Diffractometer'
_diffrn_measurement_device_type  'Bruker APEX II Ultra'
_diffrn_measurement_method       '\w and \f scans'
_diffrn_radiation_monochromator  'Double Bounce Multilayer Mirrors'
_diffrn_radiation_probe          x-ray
_diffrn_radiation_type           MoK\a
_diffrn_radiation_wavelength     0.71073
_diffrn_reflns_av_R_equivalents  0.0297
_diffrn_reflns_av_unetI/netI     0.0372
_diffrn_reflns_Laue_measured_fraction_full 1.000
_diffrn_reflns_Laue_measured_fraction_max 0.997
_diffrn_reflns_limit_h_max       6
_diffrn_reflns_limit_h_min       -6
_diffrn_reflns_limit_k_max       8
_diffrn_reflns_limit_k_min       -8
_diffrn_reflns_limit_l_max       22
_diffrn_reflns_limit_l_min       -25
_diffrn_reflns_number            6950
_diffrn_reflns_point_group_measured_fraction_full 1.000
_diffrn_reflns_point_group_measured_fraction_max 0.997
_diffrn_reflns_theta_full        25.242
_diffrn_reflns_theta_max         26.394
_diffrn_reflns_theta_min         1.991
_diffrn_source                   'Micro Focus Rotating Anode'
_diffrn_source_type              'Bruker TXS'
_diffrn_standards_number         0
_exptl_absorpt_coefficient_mu    0.212
_exptl_absorpt_correction_T_max  0.7454
_exptl_absorpt_correction_T_min  0.7077
_exptl_absorpt_correction_type   multi-scan
_exptl_absorpt_process_details
;
SADABS-2016/2 (Bruker,2016/2) was used for absorption correction.
wR2(int) was 0.0622 before and 0.0337 after correction.
The Ratio of minimum to maximum transmission is 0.9494.
The \l/2 correction factor is Not present.
;
_exptl_crystal_colour            yellow
_exptl_crystal_colour_primary    yellow
_exptl_crystal_density_diffrn    1.273
_exptl_crystal_description       block
_exptl_crystal_F_000             306
_exptl_crystal_size_max          0.33
_exptl_crystal_size_mid          0.29
_exptl_crystal_size_min          0.24
_refine_diff_density_max         0.369
_refine_diff_density_min         -0.210
_refine_diff_density_rms         0.056
_refine_ls_extinction_method     none
_refine_ls_goodness_of_fit_ref   1.064
_refine_ls_hydrogen_treatment    constr
_refine_ls_matrix_type           full
_refine_ls_number_parameters     183
_refine_ls_number_reflns         3063
_refine_ls_number_restraints     0
_refine_ls_restrained_S_all      1.064
_refine_ls_R_factor_all          0.0479
_refine_ls_R_factor_gt           0.0394
_refine_ls_shift/su_max          0.001
_refine_ls_shift/su_mean         0.000
_refine_ls_structure_factor_coef Fsqd
_refine_ls_weighting_details
'w=1/[\s^2^(Fo^2^)+(0.0358P)^2^+0.3972P] where P=(Fo^2^+2Fc^2^)/3'
_refine_ls_weighting_scheme      calc
_refine_ls_wR_factor_gt          0.0876
_refine_ls_wR_factor_ref         0.0920
_reflns_Friedel_coverage         0.000
_reflns_number_gt                2675
_reflns_number_total             3063
_reflns_threshold_expression     'I > 2\s(I)'
_cod_data_source_file            d2ce00560c2.cif
_cod_data_source_block           dwat58_0m_a
_cod_depositor_comments
;
The following automatic conversions were performed:

data item '_diffrn_radiation_probe' value 'X-ray' was changed to
'x-ray' in accordance with the
/home/data/users/saulius/crontab/automatic-downloads/rss-feeds/RSC/lib/dictionaries/cif_core.dic
dictionary named 'cif_core.dic' version 2.4.2 last updated on
2011-04-26.

Automatic conversion script
Id: cif_fix_values 7556 2019-12-06 15:28:31Z antanas 
;
_cod_original_cell_volume        747.43(19)
_cod_database_code               7245013
_shelx_shelxl_version_number     2016/6
_shelx_space_group_comment
;
The symmetry employed for this shelxl refinement is uniquely defined
by the following loop, which should always be used as a source of
symmetry information in preference to the above space-group names.
They are only intended as comments.
;
_shelx_estimated_absorpt_t_max   0.951
_shelx_estimated_absorpt_t_min   0.933
_olex2_refinement_description
;
1. Fixed Uiso
 At 1.2 times of:
  All C(H) groups, All C(H,H) groups
 At 1.5 times of:
  All C(H,H,H) groups
2.a Secondary CH2 refined with riding coordinates:
 C6(H6A,H6B), C4(H4A,H4B), C3(H3A,H3B), C5(H5A,H5B), C2(H2A,H2B)
2.b Aromatic/amide H refined with riding coordinates:
 C12(H12), C9(H9), C8(H8), C13(H13)
2.c Idealised Me refined as rotating group:
 C17(H17A,H17B,H17C), C1(H1A,H1B,H1C)
;
_shelx_res_file
;
TITL dwat58_0m_a.res in P-1
    dwat58_0m_a.res
    created by SHELXL-2016/6 at 17:34:10 on 11-Jun-2020
REM Old TITL dwat58_0m in P-1
REM SHELXT solution in P-1
REM R1 0.110, Rweak 0.010, Alpha 0.069, Orientation as input
REM Formula found by SHELXT: C15 N3 O S
CELL 0.71073 5.1067 7.168 20.7658 80.476 86.864 86.423
ZERR 1 0.0009 0.0008 0.003 0.004 0.006 0.005
LATT 1
SFAC C H N O S
UNIT 34 40 2 2 2

L.S. 10
PLAN  20
SIZE 0.24 0.29 0.33
TEMP -173
BOND $H
LIST 6
fmap 2
ACTA
REM <olex2.extras>
REM <HklSrc "%.\\dwat58_0m.hkl">
REM </olex2.extras>

WGHT    0.035800    0.397200
FVAR       0.50314
S1    5    0.538469   -0.055137    0.756031    11.00000    0.01802    0.01567 =
         0.01688   -0.00265   -0.00454   -0.00155
O1    4    0.012398    0.028669    0.617325    11.00000    0.01521    0.01178 =
         0.01521   -0.00342   -0.00378   -0.00235
N1    3   -0.453165   -0.184309    0.531076    11.00000    0.01260    0.01097 =
         0.01543   -0.00405    0.00092   -0.00192
C15   1   -0.319894   -0.041763    0.545932    11.00000    0.01237    0.01085 =
         0.01366   -0.00482    0.00245   -0.00181
C10   1    0.338497    0.046295    0.693425    11.00000    0.01262    0.01748 =
         0.01326   -0.00445    0.00041   -0.00045
C14   1   -0.131025   -0.103621    0.596175    11.00000    0.01213    0.01348 =
         0.01559   -0.00762    0.00232   -0.00512
C12   1    0.132319   -0.256591    0.672265    11.00000    0.01661    0.01462 =
         0.01771   -0.00217   -0.00241    0.00026
AFIX  43
H12   2    0.218644   -0.354043    0.701552    11.00000   -1.20000
AFIX   0
C11   1    0.172092   -0.067935    0.663989    11.00000    0.01277    0.01706 =
         0.01212   -0.00316   -0.00053    0.00009
C17   1   -0.774608   -0.313118    0.472551    11.00000    0.01599    0.01029 =
         0.02301   -0.00397   -0.00403   -0.00266
AFIX 137
H17A  2   -0.732359   -0.333206    0.427518    11.00000   -1.50000
H17B  2   -0.964447   -0.287864    0.478532    11.00000   -1.50000
H17C  2   -0.719253   -0.426707    0.502873    11.00000   -1.50000
AFIX   0
C9    1    0.361482    0.238173    0.679947    11.00000    0.01721    0.01566 =
         0.01746   -0.00244   -0.00277   -0.00041
AFIX  43
H9    2    0.268486    0.319533    0.647008    11.00000   -1.20000
AFIX   0
C16   1   -0.633134   -0.146815    0.485943    11.00000    0.01125    0.01155 =
         0.01477   -0.00508    0.00207   -0.00236
C8    1    0.539625    0.302286    0.720614    11.00000    0.01906    0.01594 =
         0.02087   -0.00456   -0.00211   -0.00307
AFIX  43
H8    2    0.578241    0.431594    0.717186    11.00000   -1.20000
AFIX   0
C7    1    0.650045    0.162604    0.764853    11.00000    0.01445    0.01853 =
         0.01699   -0.00767    0.00167   -0.00244
C13   1   -0.063018   -0.279272    0.628660    11.00000    0.01762    0.01371 =
         0.01762   -0.00307   -0.00094   -0.00377
AFIX  43
H13   2   -0.133083   -0.395042    0.623168    11.00000   -1.20000
AFIX   0
C6    1    0.840389    0.176016    0.816381    11.00000    0.01810    0.02230 =
         0.01847   -0.00597   -0.00349   -0.00193
AFIX  23
H6A   2    1.011369    0.113979    0.804964    11.00000   -1.20000
H6B   2    0.774100    0.106786    0.858789    11.00000   -1.20000
AFIX   0
C4    1    1.066774    0.396617    0.877098    11.00000    0.01984    0.03013 =
         0.01953   -0.00708   -0.00200   -0.00684
AFIX  23
H4A   2    1.241224    0.338307    0.866420    11.00000   -1.20000
H4B   2    0.999165    0.324932    0.918951    11.00000   -1.20000
AFIX   0
C3    1    1.097864    0.601366    0.885546    11.00000    0.02802    0.03100 =
         0.02052   -0.00614   -0.00079   -0.01374
AFIX  23
H3A   2    1.162646    0.673353    0.843455    11.00000   -1.20000
H3B   2    0.923612    0.658936    0.896802    11.00000   -1.20000
AFIX   0
C5    1    0.881483    0.380254    0.823654    11.00000    0.02045    0.02494 =
         0.01958   -0.00423   -0.00196   -0.00751
AFIX  23
H5A   2    0.952844    0.448079    0.781553    11.00000   -1.20000
H5B   2    0.709320    0.443277    0.833491    11.00000   -1.20000
AFIX   0
C1    1    1.308441    0.823074    0.948920    11.00000    0.05152    0.04561 =
         0.02819   -0.01317   -0.00077   -0.02584
AFIX 137
H1A   2    1.372060    0.899614    0.908194    11.00000   -1.50000
H1B   2    1.432086    0.825413    0.983208    11.00000   -1.50000
H1C   2    1.135669    0.875080    0.962248    11.00000   -1.50000
AFIX   0
C2    1    1.285915    0.619622    0.938208    11.00000    0.02670    0.04049 =
         0.02712   -0.01521   -0.00131   -0.01197
AFIX  23
H2A   2    1.462080    0.567185    0.925924    11.00000   -1.20000
H2B   2    1.225505    0.542800    0.979835    11.00000   -1.20000
AFIX   0
HKLF 4




REM  dwat58_0m_a.res in P-1
REM R1 =  0.0394 for    2675 Fo > 4sig(Fo)  and  0.0479 for all    3063 data
REM    183 parameters refined using      0 restraints

END

WGHT      0.0358      0.3968

REM Highest difference peak  0.369,  deepest hole -0.210,  1-sigma level  0.056
Q1    1   0.4102 -0.0078  0.7191  11.00000  0.05    0.37
Q2    1   0.2649 -0.0191  0.6780  11.00000  0.05    0.35
Q3    1  -0.2717 -0.0677  0.5830  11.00000  0.05    0.34
Q4    1  -0.6759 -0.0563  0.4761  11.00000  0.05    0.33
Q5    1   0.8638  0.2784  0.8222  11.00000  0.05    0.32
Q6    1  -0.7033 -0.2275  0.4775  11.00000  0.05    0.31
Q7    1   0.5922  0.0554  0.7684  11.00000  0.05    0.31
Q8    1   1.1742  0.5872  0.9167  11.00000  0.05    0.29
Q9    1   0.3214  0.1451  0.6979  11.00000  0.05    0.29
Q10   1   0.1900 -0.1670  0.6622  11.00000  0.05    0.29
Q11   1  -0.1359 -0.1769  0.6167  11.00000  0.05    0.29
Q12   1   0.7246  0.1676  0.7935  11.00000  0.05    0.29
Q13   1   1.0947  0.4974  0.8818  11.00000  0.05    0.28
Q14   1  -0.0763 -0.0433  0.6073  11.00000  0.05    0.28
Q15   1   0.5267  0.2310  0.7538  11.00000  0.05    0.27
Q16   1   0.9956  0.4044  0.8425  11.00000  0.05    0.25
Q17   1   0.0737 -0.2858  0.6389  11.00000  0.05    0.25
Q18   1   0.0986 -0.0175  0.6447  11.00000  0.05    0.25
Q19   1  -0.5794 -0.1671  0.5172  11.00000  0.05    0.23
Q20   1  -0.4006 -0.1123  0.5406  11.00000  0.05    0.23
;
_shelx_res_checksum              98007
_shelx_hkl_file
;
  -1   0   0 6.79353 0.56601   5
  -1   0   0 8.27051 0.63806   2
  -1   0   0 7.36588 0.63375   3
   1   0   0 6.46263 0.56261   3
   1   0   0 7.25736 0.58418   2
   1   0   0 6.99724 0.59337   5
  -2   0   0 67.7737 2.21566   2
  -2   0   0 59.6291 2.14216   5
   2   0   0 68.2381 2.18535   2
   2   0   0 66.4149 2.22378   5
   2   0   0 65.0763 2.27368   3
  -3   0   0 0.75610 0.60506   2
   3   0   0 3.24424 0.72346   5
  -4   0   0 8.23281 1.18998   2
   4   0   0 7.76834 1.22325   5
  -5   0   0 30.5775 2.30340   2
   5   0   0 22.2300 2.15080   5
  -6   0   0 23.5701 2.45343   2
   6   0   0 23.8258 2.44977   5
   6  -1   0 55.4116 3.23532   5
  -6   1   0 55.6345 3.32347   2
   5  -1   0 46.5451 2.67681   5
  -5   1   0 43.0207 2.72405   2
   4  -1   0 6.79086 1.16954   5
  -4   1   0 4.28370 1.06600   2
   3  -1   0 46.7773 2.08665   5
  -3   1   0 49.3172 2.13320   2
   2  -1   0 8.87352 0.85643   5
   2  -1   0 6.68679 0.75086   3
   2  -1   0 7.54749 0.78796   2
  -2   1   0 7.58794 0.81615   2
  -2   1   0 7.26430 0.79742   5
   1  -1   0 1514.44 36.5183   2
   1  -1   0 1749.28 36.5954   5
  -1   1   0 1470.22 36.7038   5
  -1   1   0 1415.21 36.8224   2
   0  -1   0 835.140 19.6048   1
   0  -1   0 846.088 19.7632   3
   0  -1   0 808.001 19.9184   4
   0   1   0 814.636 19.5568   1
  -1  -1   0 0.57202 0.40617   3
  -1  -1   0 0.63707 0.29666   2
  -1  -1   0 0.75326 0.39086   4
   1   1   0 0.43725 0.37001   4
   1   1   0 0.56818 0.29553   2
   1   1   0 0.84446 0.34368   3
  -2  -1   0 155.425 4.31938   3
  -2  -1   0 148.062 4.11009   2
   2   1   0 147.080 4.12575   2
   2   1   0 152.189 4.21512   5
   2   1   0 145.942 4.25643   3
   2   1   0 147.070 4.14156   4
  -3  -1   0 24.5129 1.51206   3
  -3  -1   0 24.8122 1.45345   2
   3   1   0 24.2774 1.44410   5
  -4  -1   0 0.93291 0.78363   2
   4   1   0 0.88265 0.78247   5
  -5  -1   0 15.1369 1.80313   2
   5   1   0 13.9055 1.78250   5
  -6  -1   0 56.1053 3.32816   2
   6   1   0 57.0231 3.31256   5
   6  -2   0 26.5603 2.67256   5
  -6   2   0 22.0734 2.48662   2
   5  -2   0 23.7367 2.20886   5
  -5   2   0 19.4513 2.07637   2
   4  -2   0 -0.7758 0.75637   5
  -4   2   0 1.72705 0.94702   2
   3  -2   0 25.7318 1.52773   5
  -3   2   0 24.9209 1.56130   2
  -2   2   0 24.2426 1.32961   2
   1  -2   0 33.4710 1.19168   1
  -1   2   0 33.6657 1.29693   5
   0  -2   0 1.33444 0.20494   1
   0  -2   0 1.05267 0.25085   3
   0  -2   0 1.28461 0.39529   4
   0   2   0 1.11081 0.20757   1
   0   2   0 1.64683 0.36015   4
  -1  -2   0 37.9869 1.41270   3
  -1  -2   0 38.9879 1.44367   4
   1   2   0 39.3123 1.37977   4
   1   2   0 40.0458 1.20094   1
   1   2   0 38.9542 1.36715   3
   1   2   0 38.8559 1.29751   2
  -2  -2   0 47.7553 1.67960   2
  -2  -2   0 42.2042 1.82622   3
  -2  -2   0 43.0301 1.81391   4
   2   2   0 47.7229 1.71465   2
  -3  -2   0 6.64988 0.91069   2
  -3  -2   0 4.85262 0.88543   3
   3   2   0 7.29648 0.95007   5
  -4  -2   0 81.5621 3.10349   2
   4   2   0 78.9312 3.23930   5
  -5  -2   0 48.8490 2.71099   2
   5   2   0 49.2508 2.75616   5
   6   2   0 131.181 5.31733   5
  -5   3   0 3.18925 1.22541   2
  -4   3   0 13.3013 1.63623   2
  -3   3   0 10.4992 1.29734   2
  -2   3   0 14.6491 1.13423   2
   1  -3   0 52.3946 1.95236   4
   1  -3   0 57.3441 1.74524   1
   0  -3   0 156.335 4.03413   3
   0  -3   0 160.745 3.89570   1
   0  -3   0 151.569 4.28297   4
   0   3   0 155.239 4.27269   4
   0   3   0 155.648 3.92002   1
  -1  -3   0 85.9780 2.78380   4
  -1  -3   0 86.5219 2.67414   3
   1   3   0 90.2957 2.56004   2
   1   3   0 86.2071 2.55902   3
   1   3   0 88.8285 2.35714   1
   1   3   0 90.2747 2.88522   4
  -2  -3   0 53.0856 2.12678   3
  -2  -3   0 53.7436 2.13908   4
   2   3   0 52.3510 1.76252   1
  -3  -3   0 21.8976 1.35986   2
  -3  -3   0 19.3997 1.53336   3
  -3  -3   0 19.5597 1.45635   4
  -4  -3   0 122.650 4.43509   3
  -4  -3   0 114.605 3.96142   2
   4   3   0 118.063 4.22408   5
  -5  -3   0 30.7069 2.09867   2
   5   3   0 28.1272 2.20809   5
  -6  -3   0 11.2111 1.94817   2
   6   3   0 14.4571 2.02235   5
  -5   4   0 1.98036 1.18720   2
  -4   4   0 39.4865 2.47269   2
  -3   4   0 46.1832 2.45412   2
  -2   4   0 1.68654 0.70661   2
   1  -4   0 27.7701 1.50921   4
   1  -4   0 29.6354 1.12822   1
   0  -4   0 12.3069 0.76884   3
   0  -4   0 12.9124 0.62101   1
   0  -4   0 13.3266 1.04738   4
   0   4   0 12.1343 0.65147   1
  -1  -4   0 118.556 3.75004   4
  -1  -4   0 119.691 3.54122   3
   1   4   0 121.750 3.14854   1
   1   4   0 120.702 3.40841   3
  -2  -4   0 128.542 3.99025   3
  -2  -4   0 127.935 4.01918   4
   2   4   0 121.208 3.43721   1
  -3  -4   0 5.69358 1.00409   4
  -3  -4   0 7.76821 1.20749   3
   3   4   0 9.38140 0.92256   1
  -4  -4   0 0.39719 0.86805   2
  -4  -4   0 0.82143 0.79266   3
   4   4   0 1.77392 0.89518   5
  -5  -4   0 19.4902 1.96948   2
   5   4   0 18.5033 2.01714   5
  -5   5   0 2.27664 1.38012   2
  -4   5   0 -0.1368 0.89073   2
  -3   5   0 80.5569 3.42553   2
   2  -5   0 79.5165 3.10669   4
  -2   5   0 79.1612 3.14246   2
   1  -5   0 107.146 3.58415   4
   1  -5   0 104.707 3.09768   3
   0  -5   0 14.6059 0.74455   1
   0  -5   0 14.3524 1.28777   4
   0  -5   0 17.2408 0.97990   3
   0   5   0 15.2293 0.79191   1
  -1  -5   0 80.9682 2.67267   3
  -1  -5   0 74.7318 2.88637   4
   1   5   0 76.2457 2.19169   1
  -2  -5   0 123.484 4.01977   3
  -2  -5   0 122.402 4.15640   4
   2   5   0 119.774 3.36258   1
  -3  -5   0 2.32581 0.86396   3
  -3  -5   0 0.66041 0.79542   4
   3   5   0 1.03145 0.53639   1
  -4  -5   0 12.8969 1.78734   4
  -4  -5   0 14.4168 1.66353   3
   4   5   0 16.5920 1.34931   1
   4   5   0 16.8056 1.78633   5
   5   5   0 8.73820 1.17359   1
   5   5   0 9.92125 1.63929   5
   4  -6   0 0.99285 1.06022   4
  -4   6   0 -0.0241 1.13532   2
   3  -6   0 44.2446 2.62579   4
  -3   6   0 38.4114 2.54054   2
   2  -6   0 122.859 4.50782   4
  -2   6   0 136.566 4.61385   2
   1  -6   0 1.38968 0.85446   4
   1  -6   0 1.63794 0.52708   3
   0  -6   0 3.76264 1.03072   4
   0  -6   0 6.45111 0.78193   3
   0   6   0 4.03941 0.53907   1
  -1  -6   0 30.8920 1.62045   3
  -1  -6   0 30.3614 1.92767   4
   1   6   0 33.7606 1.20487   1
  -2  -6   0 49.5586 2.51378   4
  -2  -6   0 52.8394 2.40774   3
   2   6   0 50.9009 1.71062   1
  -3  -6   0 1.84538 1.06356   4
  -3  -6   0 0.78168 0.76929   3
   3   6   0 1.11627 0.50604   1
  -4  -6   0 35.5245 2.59829   4
  -4  -6   0 38.1464 2.50993   3
   3  -7   0 36.1458 2.56633   4
  -3   7   0 41.4062 2.75026   2
   2  -7   0 8.46707 1.45301   4
  -2   7   0 9.93519 1.41170   2
   1  -7   0 16.8371 1.82536   4
   0  -7   0 3.16658 0.66810   3
   0  -7   0 2.32274 0.97259   4
  -1  -7   0 19.7147 1.39004   3
  -1  -7   0 25.1006 2.15132   4
  -2  -7   0 2.44023 0.83728   3
  -2  -7   0 2.60284 1.04078   4
  -3  -7   0 0.92556 0.85969   3
  -3  -7   0 1.00143 1.07756   4
  -4  -7   0 1.88846 1.27869   4
  -4  -7   0 1.17772 0.97912   3
   2  -8   0 8.31809 1.66467   4
  -2   8   0 8.28089 1.54704   2
   1  -8   0 32.7237 2.31443   4
   0  -8   0 42.8271 2.54645   4
  -1  -8   0 89.4394 3.96973   4
  -2  -8   0 2.37541 1.16934   4
  -3  -8   0 21.4787 2.30715   4
  -2  -8   1 12.2606 1.76078   4
  -1  -8   1 12.8417 1.74177   4
   0  -8   1 3.02015 1.07402   4
   1  -8   1 1.58897 1.03351   4
  -2   8  -1 8.23026 1.54011   2
   2  -8   1 8.16986 1.73065   4
  -4  -7   1 30.7050 2.35839   3
  -4  -7   1 27.4229 2.61631   4
  -3  -7   1 15.6531 1.64903   3
  -3  -7   1 11.5555 1.67387   4
  -2  -7   1 1.32561 0.74151   3
  -2  -7   1 0.18178 0.79784   4
  -1  -7   1 18.4191 1.47437   3
  -1  -7   1 23.3435 2.12339   4
   0  -7   1 7.97039 1.26578   4
   1  -7   1 41.6654 2.38880   4
  -2   7  -1 13.1397 1.69275   2
   2  -7   1 15.6798 1.82199   4
  -3   7  -1 5.42394 1.38857   2
   3  -7   1 6.42904 1.60261   4
   4   6  -1 17.7691 1.42274   1
  -4  -6   1 16.6217 1.97102   4
  -4  -6   1 14.5029 1.82891   3
   3   6  -1 39.0302 1.69994   1
  -3  -6   1 43.5605 2.50744   4
  -3  -6   1 40.3737 2.31547   3
   2   6  -1 7.02619 0.70789   1
  -2  -6   1 7.00038 1.28528   4
  -2  -6   1 6.27955 1.05380   3
   1   6  -1 0.50872 0.35405   1
  -1  -6   1 0.62686 0.52236   3
  -1  -6   1 -0.0011 0.72960   4
   0   6  -1 3.52057 0.54067   1
   0  -6   1 3.70650 0.97653   4
   0  -6   1 3.13368 0.58422   3
   1  -6   1 251.174 7.32756   4
   1  -6   1 252.151 6.57524   3
  -2   6  -1 14.4825 1.62940   2
   2  -6   1 17.4400 1.69056   4
  -3   6  -1 37.9437 2.55027   2
   3  -6   1 32.9840 2.39093   4
  -4   6  -1 -0.0236 1.03413   2
   5   5  -1 84.4528 3.91567   5
   4   5  -1 0.85947 0.66854   1
   4   5  -1 0.76521 0.96604   5
  -4  -5   1 0.76472 0.88111   3
  -4  -5   1 0.82191 1.00384   4
   3   5  -1 163.850 4.60335   1
  -3  -5   1 160.435 5.26575   3
  -3  -5   1 162.235 5.32265   4
   2   5  -1 6.58977 0.66949   1
  -2  -5   1 5.99829 0.94815   3
  -2  -5   1 6.78635 1.07724   4
   1   5  -1 2.51463 0.40003   1
  -1  -5   1 2.41890 0.55488   3
  -1  -5   1 1.96172 0.70669   4
   0   5  -1 236.004 6.05286   1
   0  -5   1 228.611 6.60985   4
   0  -5   1 248.471 6.00480   1
   0  -5   1 231.946 6.14558   3
  -1   5  -1 -0.3117 0.39418   1
   1  -5   1 0.76782 0.68102   4
   1  -5   1 0.38716 0.36832   3
  -2   5  -1 10.7960 1.29264   2
   2  -5   1 13.4812 1.45298   4
  -3   5  -1 59.4256 2.90217   2
  -4   5  -1 12.2034 1.82262   2
  -5   5  -1 1.83968 1.20448   2
   5   4  -1 24.4850 2.30353   5
  -5  -4   1 24.3973 2.12038   2
   4   4  -1 5.52422 1.24164   5
   4   4  -1 6.36465 0.96837   1
  -4  -4   1 7.26862 1.25334   2
  -4  -4   1 7.77244 1.34686   3
   3   4  -1 97.8963 3.13509   1
  -3  -4   1 104.627 3.67526   4
  -3  -4   1 95.8653 3.62765   3
   2   4  -1 -0.0463 0.33418   1
  -2  -4   1 0.18528 0.51030   4
  -2  -4   1 -0.3637 0.43343   3
   1   4  -1 295.655 7.14140   1
   1   4  -1 294.617 7.31990   3
  -1  -4   1 275.151 7.66247   4
  -1  -4   1 287.044 7.45207   3
   0   4  -1 1.54191 0.34637   1
   0  -4   1 0.43900 0.45297   4
   0  -4   1 0.38542 0.26950   1
   0  -4   1 0.82370 0.31218   3
  -1   4  -1 5.62133 0.65113   1
   1  -4   1 4.74200 0.52482   1
   1  -4   1 5.07480 0.77281   4
  -2   4  -1 8.40286 1.06885   2
  -3   4  -1 79.2931 3.31656   2
  -4   4  -1 45.7571 2.66664   2
  -5   4  -1 8.16456 1.71532   2
   6   3  -1 51.3041 3.33213   5
  -6  -3   1 59.0881 3.32698   2
   5   3  -1 5.03556 1.25058   5
  -5  -3   1 5.99839 1.42554   2
   4   3  -1 7.90282 1.26239   5
  -4  -3   1 7.70972 1.27221   2
   3   3  -1 108.253 3.66786   5
  -3  -3   1 110.994 3.78502   4
  -3  -3   1 116.031 3.58098   2
  -3  -3   1 105.020 3.80703   3
   2   3  -1 58.7714 1.94048   1
  -2  -3   1 59.2231 2.26652   4
  -2  -3   1 60.9536 2.29468   3
   1   3  -1 399.066 9.93704   3
   1   3  -1 405.388 10.0005   2
   1   3  -1 406.258 9.78063   1
   1   3  -1 403.898 10.0871   4
  -1  -3   1 396.298 10.1610   4
  -1  -3   1 414.626 10.0603   3
   0   3  -1 6.25763 0.45853   1
   0   3  -1 7.13000 0.68626   4
   0  -3   1 5.97364 0.67153   4
   0  -3   1 5.89478 0.47259   3
   0  -3   1 6.20963 0.44493   1
  -1   3  -1 410.841 10.5066   1
   1  -3   1 445.231 10.7210   4
   1  -3   1 423.913 10.4256   1
  -2   3  -1 29.3767 1.54785   2
  -3   3  -1 121.695 4.17489   2
  -4   3  -1 0.17840 0.84865   2
  -5   3  -1 23.5195 2.28775   2
   6   2  -1 100.826 4.46244   5
  -6  -2   1 89.5537 4.20674   2
   5   2  -1 0.93335 0.98050   5
  -5  -2   1 2.49063 1.07033   2
   4   2  -1 4.72299 1.06217   5
  -4  -2   1 5.44327 1.06776   2
   3   2  -1 179.901 5.21336   5
  -3  -2   1 177.152 5.07830   2
  -3  -2   1 171.014 5.31473   3
   2   2  -1 29.7293 1.36193   2
   2   2  -1 31.5475 1.53451   4
   2   2  -1 31.6185 1.59535   3
  -2  -2   1 32.7943 1.45196   4
  -2  -2   1 33.0783 1.41806   2
  -2  -2   1 30.6317 1.52150   3
   1   2  -1 28.8091 0.99323   1
   1   2  -1 26.9426 1.10699   4
   1   2  -1 28.9461 1.09990   2
   1   2  -1 29.5235 1.11714   3
  -1  -2   1 29.7854 1.19510   4
  -1  -2   1 30.4284 1.16950   3
   0   2  -1 125.406 3.26649   1
   0  -2   1 132.963 3.25272   3
   0  -2   1 133.245 3.47783   4
   0  -2   1 128.927 3.25679   1
  -1   2  -1 183.088 4.93764   5
  -1   2  -1 201.564 4.95291   1
   1  -2   1 188.309 4.87261   1
  -2   2  -1 201.124 5.64341   2
   2  -2   1 203.264 5.54750   5
  -3   2  -1 242.332 6.83914   2
   3  -2   1 235.632 6.69367   5
  -4   2  -1 48.6206 2.55771   2
   4  -2   1 51.1714 2.50978   5
  -5   2  -1 33.1380 2.50317   2
   5  -2   1 28.1298 2.18171   5
  -6   2  -1 2.38121 1.40635   2
   6  -2   1 2.06881 1.41590   5
   6   1  -1 138.005 5.38107   5
  -6  -1   1 132.569 5.20781   2
   5   1  -1 17.3188 1.96985   5
  -5  -1   1 22.2928 2.14013   2
   4   1  -1 3.84194 0.98311   5
  -4  -1   1 5.62720 1.08401   2
   3   1  -1 0.98025 0.59447   5
  -3  -1   1 2.60387 0.65492   2
   2   1  -1 40.3113 1.55607   5
   2   1  -1 37.8961 1.47118   4
   2   1  -1 37.6069 1.58735   3
   2   1  -1 33.6016 1.48494   2
  -2  -1   1 37.4981 1.50200   2
  -2  -1   1 38.1963 1.65821   3
   1   1  -1 99.6728 2.75329   3
   1   1  -1 101.626 2.70281   2
   1   1  -1 101.898 2.68518   4
  -1  -1   1 96.7751 2.68883   2
  -1  -1   1 97.9296 2.70264   4
  -1  -1   1 96.8320 2.76122   3
   0   1  -1 1108.69 28.5715   3
   0   1  -1 1068.76 26.5679   1
   0   1  -1 1087.23 26.7702   4
   0  -1   1 1264.08 28.5441   3
   0  -1   1 1058.57 26.7752   4
   0  -1   1 1147.39 26.5884   1
  -1   1  -1 98.1578 2.77812   2
  -1   1  -1 100.256 2.75750   5
   1  -1   1 102.346 2.75663   5
   1  -1   1 98.8727 2.72405   1
  -2   1  -1 14.1455 0.94306   5
  -2   1  -1 13.3768 0.95840   2
   2  -1   1 13.1836 0.95174   3
   2  -1   1 13.5282 0.86543   1
   2  -1   1 12.8612 0.99202   2
   2  -1   1 13.5175 0.96087   5
  -3   1  -1 334.462 9.02464   2
   3  -1   1 339.447 8.98874   5
  -4   1  -1 34.6650 2.09389   2
   4  -1   1 35.9610 2.07178   5
  -5   1  -1 35.8582 2.53164   2
   5  -1   1 39.2055 2.43981   5
  -6   1  -1 15.9629 2.28117   2
   6  -1   1 17.3953 2.16233   5
   6   0  -1 75.3519 3.85761   5
  -6   0   1 83.8985 3.90025   2
   5   0  -1 4.18934 1.23577   5
  -5   0   1 7.61139 1.48960   2
   4   0  -1 60.3290 2.73367   5
  -4   0   1 64.2540 2.79140   2
   3   0  -1 36.1081 1.76829   5
  -3   0   1 35.3869 1.80206   2
   2   0  -1 64.3395 2.19412   3
   2   0  -1 58.1651 2.04404   2
   2   0  -1 58.9545 2.07401   5
  -2   0   1 60.7850 2.05503   5
  -2   0   1 57.3811 2.08934   2
   1   0  -1 24.0862 0.95511   5
   1   0  -1 23.7498 1.00941   2
  -1   0   1 25.4401 0.99038   2
  -1   0   1 23.5982 0.93898   5
  -1   0  -1 26.6465 0.97950   2
  -1   0  -1 27.2025 0.98706   5
  -1   0  -1 25.2797 1.01800   3
   1   0   1 26.2419 1.01474   3
   1   0   1 25.9228 0.99843   2
   1   0   1 25.6823 1.01206   5
  -2   0  -1 1.09649 0.44765   5
  -2   0  -1 0.79949 0.50894   3
  -2   0  -1 0.30721 0.40494   2
   2   0   1 0.51544 0.40093   2
   2   0   1 0.86882 0.41254   3
   2   0   1 1.46880 0.51153   5
  -3   0  -1 83.6632 2.94314   2
   3   0   1 84.7664 3.00857   5
  -4   0  -1 70.6028 3.04490   2
   4   0   1 75.3067 3.08331   5
  -5   0  -1 99.3727 3.96716   2
   5   0   1 91.9759 3.92394   5
  -6   0  -1 8.36040 1.70212   2
   6   0   1 13.2109 1.91251   5
   6  -1  -1 1.98652 1.31058   5
  -6   1   1 2.83579 1.53945   2
   5  -1  -1 67.2691 3.23813   5
  -5   1   1 67.1346 3.27651   2
   4  -1  -1 33.6922 1.99927   5
  -4   1   1 33.9607 2.05312   2
   3  -1  -1 5.76383 0.82401   5
  -3   1   1 5.66913 0.90818   2
   2  -1  -1 52.5433 1.94306   5
   2  -1  -1 53.4949 2.11076   2
  -2   1   1 53.0196 2.10333   5
  -2   1   1 54.1660 2.01633   2
  -1   1   1 357.509 8.70288   5
  -1   1   1 348.997 8.69762   2
   0  -1  -1 603.826 13.4116   1
   0  -1  -1 548.434 13.6883   3
   0  -1  -1 545.730 13.4962   4
   0   1   1 578.276 13.6659   4
  -1  -1  -1 56.4212 1.63850   2
  -1  -1  -1 58.0882 1.77872   4
  -1  -1  -1 56.2393 1.79622   3
   1   1   1 55.9531 1.76026   3
   1   1   1 57.7349 1.65364   2
   1   1   1 58.5547 1.74756   4
  -2  -1  -1 26.6194 1.40397   3
  -2  -1  -1 26.2230 1.23180   2
   2   1   1 29.2309 1.34460   5
   2   1   1 27.1857 1.21355   2
   2   1   1 30.0104 1.28834   4
   2   1   1 26.6670 1.34951   3
  -3  -1  -1 0.34120 0.55776   2
  -3  -1  -1 0.72813 0.58278   3
   3   1   1 0.61496 0.59919   5
  -4  -1  -1 38.8791 2.15377   2
   4   1   1 41.0485 2.22360   5
  -5  -1  -1 -0.1675 0.84606   2
   5   1   1 0.40180 0.99516   5
  -6  -1  -1 1.85935 1.22917   2
   6   1   1 0.77301 1.24152   5
  -6   2   1 26.6453 2.76375   2
   5  -2  -1 4.95623 1.38110   5
  -5   2   1 3.43464 1.21644   2
   4  -2  -1 33.7670 2.07791   5
  -4   2   1 33.5087 2.13947   2
   3  -2  -1 32.8929 1.77224   5
  -3   2   1 37.8719 1.89728   2
  -2   2   1 86.0943 2.86840   2
   1  -2  -1 6.12769 0.53232   1
  -1   2   1 7.06715 0.68892   2
   0  -2  -1 23.9325 0.69398   1
   0  -2  -1 23.8716 0.88029   3
   0  -2  -1 26.3747 1.03933   4
   0   2   1 24.3055 0.98925   4
   0   2   1 24.0385 0.72081   1
  -1  -2  -1 77.5649 2.35253   4
  -1  -2  -1 80.2955 2.35668   3
   1   2   1 78.0654 2.29411   3
   1   2   1 75.0903 2.14552   2
   1   2   1 77.2798 2.31598   4
  -2  -2  -1 1.26160 0.53197   4
  -2  -2  -1 1.59471 0.45293   2
  -2  -2  -1 0.09220 0.47696   3
   2   2   1 0.71711 0.35531   2
  -3  -2  -1 8.28744 0.95236   2
  -3  -2  -1 7.81567 1.03811   3
   3   2   1 8.27528 1.04070   5
  -4  -2  -1 1.48611 0.78458   3
  -4  -2  -1 0.89839 0.77140   2
   4   2   1 0.08378 0.75884   5
  -5  -2  -1 5.89294 1.23147   2
   5   2   1 5.24604 1.31700   5
  -6  -2  -1 2.33613 1.21967   2
   6   2   1 0.63189 1.17986   5
  -5   3   1 36.6383 2.70009   2
  -4   3   1 84.8906 3.59156   2
  -3   3   1 83.1665 3.19801   2
  -2   3   1 10.4280 1.10942   2
   1  -3  -1 2.81574 0.41193   1
   1  -3  -1 3.95317 0.64733   4
   0  -3  -1 153.580 4.34936   4
   0  -3  -1 165.018 3.89949   1
   0  -3  -1 155.744 4.13751   3
   0   3   1 158.300 3.93333   1
   0   3   1 160.157 4.35392   4
  -1  -3  -1 470.291 11.7060   4
  -1  -3  -1 458.387 11.5841   3
   1   3   1 472.710 11.3812   2
   1   3   1 463.320 11.4891   3
   1   3   1 476.645 11.1726   1
  -2  -3  -1 69.5942 2.47330   4
  -2  -3  -1 63.9294 2.47105   3
   2   3   1 68.3037 2.21211   2
  -3  -3  -1 1.30498 0.73411   3
  -3  -3  -1 0.79381 0.69346   4
  -3  -3  -1 0.78833 0.59262   2
  -4  -3  -1 2.58706 0.94045   2
  -4  -3  -1 3.39807 0.99462   3
   4   3   1 2.64457 0.92236   5
  -5  -3  -1 62.2580 3.01923   2
   5   3   1 59.9386 3.12493   5
  -6  -3  -1 13.3541 2.05789   2
   6   3   1 10.2730 1.85446   5
  -5   4   1 109.088 4.71047   2
  -4   4   1 36.3087 2.39556   2
  -3   4   1 0.87775 0.77231   2
  -2   4   1 14.1846 1.38180   2
   1  -4  -1 9.48969 0.96648   4
   1  -4  -1 9.73970 0.62335   1
   0  -4  -1 476.906 11.8622   4
   0  -4  -1 456.316 11.5206   3
   0  -4  -1 482.409 11.2094   1
   0   4   1 460.261 11.2555   1
  -1  -4  -1 4.96607 0.70022   3
  -1  -4  -1 5.71045 0.84283   4
   1   4   1 5.07992 0.39617   1
   1   4   1 5.79882 0.63160   3
  -2  -4  -1 29.1154 1.66033   4
  -2  -4  -1 24.1034 1.47901   3
   2   4   1 25.0539 1.06455   1
  -3  -4  -1 34.4832 2.06100   4
  -3  -4  -1 32.8541 2.01698   3
  -4  -4  -1 23.5608 2.13625   3
  -4  -4  -1 27.0855 1.80420   2
   4   4   1 26.7362 1.90313   5
  -5  -4  -1 19.8601 2.18835   3
  -5  -4  -1 21.8052 2.00260   2
   5   4   1 19.8705 2.15140   5
  -5   5   1 2.25598 1.27162   2
  -4   5   1 44.0819 2.73023   2
  -3   5   1 12.8358 1.56082   2
   2  -5  -1 8.26320 1.21695   4
  -2   5   1 8.60123 1.19902   2
   1  -5  -1 42.1545 1.64879   3
   1  -5  -1 41.5404 1.43581   1
   1  -5  -1 40.5873 2.03520   4
   0  -5  -1 7.38956 0.76618   3
   0  -5  -1 8.35569 1.04157   4
   0  -5  -1 8.43533 0.52537   1
   0   5   1 8.46163 0.57913   1
  -1  -5  -1 128.602 3.94052   3
  -1  -5  -1 135.115 4.24206   4
   1   5   1 126.864 3.33518   1
  -2  -5  -1 155.881 5.00297   4
  -2  -5  -1 155.347 4.86014   3
   2   5   1 157.888 4.12847   1
  -3  -5  -1 126.425 4.43037   3
  -3  -5  -1 116.401 4.38315   4
   3   5   1 123.978 3.60885   1
  -4  -5  -1 5.00646 1.25761   3
  -4  -5  -1 5.80130 1.31231   4
   4   5   1 6.49376 0.95119   1
  -5  -5  -1 7.92145 1.57108   3
   5   5   1 9.96906 1.69331   5
   5   5   1 8.48573 1.15575   1
   4  -6  -1 41.5199 2.72944   4
  -4   6   1 35.8980 2.60585   2
   3  -6  -1 26.2945 2.04218   4
  -3   6   1 23.2066 2.18232   2
   2  -6  -1 1.04022 0.89394   4
  -2   6   1 1.29043 0.85399   2
   1  -6  -1 110.664 4.06490   4
   1  -6  -1 116.948 3.50314   3
   0  -6  -1 20.3592 1.78141   4
   0  -6  -1 18.4084 1.20342   3
  -1  -6  -1 158.067 4.71231   3
  -1  -6  -1 152.349 5.08769   4
   1   6   1 155.720 3.99261   1
  -2  -6  -1 128.794 4.42731   4
  -2  -6  -1 122.351 4.17365   3
   2   6   1 120.011 3.32187   1
  -3  -6  -1 18.4161 1.85585   3
  -3  -6  -1 15.1663 1.73735   4
   3   6   1 15.4577 1.02364   1
  -4  -6  -1 45.6486 2.79905   3
  -4  -6  -1 50.6979 2.92472   4
   3  -7  -1 3.86252 1.38642   4
  -3   7   1 2.77033 1.17280   2
   2  -7  -1 0.62567 1.14288   4
  -2   7   1 1.99842 0.91388   2
   1  -7  -1 39.3143 1.80112   3
   1  -7  -1 34.2719 2.32860   4
   0  -7  -1 0.18121 0.92760   4
   0  -7  -1 1.04987 0.59047   3
  -1  -7  -1 7.03044 1.03686   3
  -1  -7  -1 7.70978 1.38725   4
  -2  -7  -1 44.5457 2.64631   4
  -2  -7  -1 45.6416 2.36472   3
  -3  -7  -1 8.52217 1.40266   3
  -3  -7  -1 7.81227 1.59706   4
  -4  -7  -1 7.10318 1.54214   4
  -4  -7  -1 11.3302 1.70853   3
   2  -8  -1 2.39183 1.13414   4
  -2   8   1 1.15161 0.96292   2
   1  -8  -1 6.45386 1.42950   4
  -1   8   1 5.19349 1.18316   2
   0  -8  -1 12.8302 1.65677   4
  -1  -8  -1 14.9400 1.95630   4
  -2  -8  -1 19.6673 2.17498   4
  -3  -8  -1 11.9730 1.80940   4
  -2  -8   2 5.61681 1.43882   4
  -1  -8   2 14.5388 1.79129   4
   0  -8   2 11.9306 1.60880   4
   1  -8   2 9.60337 1.54197   4
   2  -8   2 30.9755 2.79608   4
  -3  -7   2 9.17784 1.59035   4
  -2  -7   2 24.1572 2.12819   4
  -1  -7   2 -0.4682 0.82596   4
   0  -7   2 61.3863 2.87567   4
   1  -7   2 4.54330 1.14785   4
  -2   7  -2 15.6549 1.86916   2
   2  -7   2 12.8018 1.72677   4
  -3   7  -2 0.66232 1.03720   2
   3  -7   2 1.18898 1.23335   4
   4   6  -2 3.09807 1.08433   5
   4   6  -2 4.09032 0.85188   1
  -4  -6   2 3.63925 1.16356   3
  -4  -6   2 5.72927 1.36132   4
   3   6  -2 39.3056 1.76579   1
  -3  -6   2 45.0629 2.50683   4
  -3  -6   2 43.5286 2.37098   3
   2   6  -2 15.8662 0.99271   1
  -2  -6   2 15.7657 1.41560   3
  -2  -6   2 19.0652 1.80601   4
   1   6  -2 6.55673 0.66686   1
  -1  -6   2 8.62753 0.93645   3
  -1  -6   2 8.47237 1.27219   4
   0   6  -2 82.3530 2.62808   1
   0  -6   2 84.6009 2.61983   3
   0  -6   2 83.3504 3.26249   4
  -1   6  -2 0.39410 0.50251   1
   1  -6   2 0.46317 0.68152   4
   1  -6   2 0.90725 0.41862   3
  -2   6  -2 22.2794 2.04173   2
   2  -6   2 23.5857 1.82006   4
  -3   6  -2 9.84056 1.51512   2
   3  -6   2 6.54948 1.30393   4
  -4   6  -2 2.22295 1.18685   2
   5   5  -2 5.55082 1.35359   5
   5   5  -2 3.02039 0.99592   1
   4   5  -2 7.49893 1.32379   5
   4   5  -2 8.07061 1.05914   1
  -4  -5   2 8.35307 1.50673   4
  -4  -5   2 5.19391 1.15788   3
   3   5  -2 58.7408 2.21572   1
  -3  -5   2 59.0465 2.80867   4
  -3  -5   2 66.4878 2.80979   3
   2   5  -2 31.4066 1.32997   1
  -2  -5   2 27.5592 1.81039   4
  -2  -5   2 29.9198 1.67498   3
   1   5  -2 32.1608 1.30168   3
   1   5  -2 33.0336 1.24997   1
  -1  -5   2 30.2567 1.25814   1
  -1  -5   2 32.0729 1.45696   3
  -1  -5   2 31.1694 1.70923   4
   0   5  -2 12.4801 0.80901   1
   0  -5   2 13.3899 1.27833   4
   0  -5   2 12.0703 0.79271   3
   0  -5   2 13.3899 0.83148   1
  -1   5  -2 45.5975 1.81132   1
   1  -5   2 47.3011 1.59121   3
  -2   5  -2 95.5170 3.54354   2
   2  -5   2 92.1890 3.44711   4
  -3   5  -2 24.1251 1.91576   2
  -4   5  -2 48.3176 2.87875   2
  -5   5  -2 5.51304 1.68451   2
   5   4  -2 38.0015 2.47278   5
   5   4  -2 42.9890 2.29701   1
  -5  -4   2 35.0916 2.35123   2
   4   4  -2 0.82091 0.65141   1
   4   4  -2 0.69488 0.89282   5
  -4  -4   2 -0.4612 0.89274   2
  -3  -4   2 47.0414 2.31414   3
  -3  -4   2 47.7845 2.27321   4
   2   4  -2 1.69276 0.46636   1
  -2  -4   2 2.49877 0.66295   3
  -2  -4   2 1.61865 0.67849   4
   1   4  -2 121.842 3.27532   3
   1   4  -2 113.778 3.17847   1
  -1  -4   2 116.532 3.23007   1
  -1  -4   2 117.608 3.65452   4
  -1  -4   2 114.518 3.38122   3
   0   4  -2 21.2662 0.95489   1
   0  -4   2 23.3783 0.94969   1
   0  -4   2 21.0289 0.89757   3
   0  -4   2 20.7573 1.25192   4
  -1   4  -2 22.2239 1.12925   1
   1  -4   2 17.5327 1.24062   4
  -2   4  -2 22.4348 1.78973   2
  -3   4  -2 24.2262 2.06809   2
  -4   4  -2 55.0690 3.01228   2
  -5   4  -2 2.30662 1.28868   2
   6   3  -2 39.9703 2.80147   5
  -6  -3   2 35.6965 2.70667   2
   5   3  -2 27.2263 2.35559   5
  -5  -3   2 27.2480 2.31009   2
   4   3  -2 15.9057 1.62839   5
  -4  -3   2 14.2560 1.48775   2
   3   3  -2 186.824 5.61100   5
  -3  -3   2 192.030 5.68417   4
  -3  -3   2 194.645 5.56329   2
  -3  -3   2 195.299 5.81900   3
   2   3  -2 143.657 3.94736   1
  -2  -3   2 142.364 4.25399   3
  -2  -3   2 142.058 4.21742   4
   1   3  -2 159.178 4.17710   1
   1   3  -2 164.680 4.41677   4
   1   3  -2 160.704 4.26801   3
  -1  -3   2 168.231 4.24026   1
  -1  -3   2 158.104 4.47463   4
  -1  -3   2 159.055 4.33822   3
   0   3  -2 80.0852 2.38807   4
   0   3  -2 80.2334 2.18974   1
   0  -3   2 74.0008 2.14065   1
   0  -3   2 74.0383 2.07847   3
   0  -3   2 74.3690 2.41382   4
  -1   3  -2 192.567 5.11648   5
  -1   3  -2 184.338 5.03433   1
   1  -3   2 195.328 4.95927   1
  -2   3  -2 0.26856 0.49717   2
  -3   3  -2 1.28961 0.72841   2
  -4   3  -2 44.5718 2.52023   2
  -5   3  -2 11.1291 1.81176   2
   6   2  -2 2.27975 1.23828   5
  -6  -2   2 1.57470 1.21320   2
   5   2  -2 41.1992 2.62911   5
  -5  -2   2 40.8516 2.56857   2
   4   2  -2 29.5583 1.89392   5
  -4  -2   2 31.1430 1.88800   2
   3   2  -2 296.111 8.05234   5
  -3  -2   2 299.413 7.98051   2
   2   2  -2 33.2260 1.69578   3
   2   2  -2 35.0394 1.45201   4
  -2  -2   2 33.7065 1.56058   3
  -2  -2   2 36.5307 1.49254   2
  -2  -2   2 38.8544 1.59310   4
   1   2  -2 45.7154 1.59570   2
   1   2  -2 52.1948 1.58309   4
   1   2  -2 49.5019 1.57682   3
   1   2  -2 47.8850 1.47422   1
  -1  -2   2 48.2035 1.60767   3
  -1  -2   2 43.3545 1.57234   4
   0   2  -2 156.809 3.95079   4
   0   2  -2 148.537 3.82905   1
   0  -2   2 152.327 3.96441   4
   0  -2   2 146.778 3.81021   1
   0  -2   2 154.001 3.70398   3
  -1   2  -2 235.637 6.00183   1
  -1   2  -2 235.685 6.00548   5
  -2   2  -2 32.9353 1.59854   2
   2  -2   2 35.0624 1.49956   3
   2  -2   2 36.4618 1.56035   5
  -3   2  -2 22.9648 1.60963   2
   3  -2   2 26.1716 1.53763   5
  -4   2  -2 4.98406 1.12672   2
   4  -2   2 4.97999 1.10699   5
  -5   2  -2 34.1335 2.44478   2
   5  -2   2 36.7761 2.41920   5
  -6   2  -2 0.06836 1.34882   2
   6  -2   2 -0.8753 1.15059   5
   6   1  -2 15.4477 2.16315   5
  -6  -1   2 20.4282 2.31621   2
   5   1  -2 28.5017 2.15944   5
  -5  -1   2 28.2869 2.14342   2
   4   1  -2 9.15483 1.29088   5
  -4  -1   2 7.13213 1.14511   2
   3   1  -2 88.5937 3.05477   5
  -3  -1   2 87.6102 3.02826   2
   2   1  -2 116.099 3.29781   4
   2   1  -2 115.295 3.47738   3
   2   1  -2 114.335 3.36748   2
   2   1  -2 112.248 3.32774   5
  -2  -1   2 109.548 3.34209   2
   1   1  -2 7.91322 0.54975   4
   1   1  -2 8.08073 0.60478   2
   1   1  -2 8.08246 0.64345   3
   1   1  -2 7.61824 0.56846   1
   1   1  -2 8.40753 0.57968   5
  -1  -1   2 8.06527 0.64444   2
  -1  -1   2 9.11862 0.61208   3
  -1  -1   2 7.49468 0.58420   4
   0   1  -2 374.750 8.92707   1
   0  -1   2 382.245 8.92913   4
   0  -1   2 364.909 8.91426   1
  -1   1  -2 339.109 8.06297   1
  -1   1  -2 323.577 8.03673   5
   1  -1   2 327.692 8.03028   5
   1  -1   2 327.766 7.98972   3
   1  -1   2 316.424 8.00699   1
  -2   1  -2 5.11708 0.70536   5
  -2   1  -2 6.24808 0.78110   2
   2  -1   2 7.15691 0.79204   3
   2  -1   2 7.59071 0.83648   5
  -3   1  -2 220.865 6.30385   2
   3  -1   2 222.646 6.28986   5
  -4   1  -2 16.3730 1.63626   2
   4  -1   2 18.0388 1.68460   5
  -5   1  -2 2.51628 1.05110   2
   5  -1   2 0.40820 0.93052   5
   6  -1   2 40.1563 2.79787   5
   6   0  -2 5.39780 1.71049   5
  -6   0   2 2.75290 1.45901   2
   5   0  -2 18.3485 1.97638   5
  -5   0   2 16.6034 1.85639   2
   4   0  -2 7.19086 1.17333   5
  -4   0   2 10.3449 1.40184   2
   3   0  -2 55.2079 2.21639   5
  -3   0   2 49.9475 2.20375   2
   2   0  -2 167.377 4.77777   3
   2   0  -2 164.586 4.65407   5
   2   0  -2 177.007 4.70550   2
  -2   0   2 169.516 4.65275   5
  -2   0   2 170.191 4.69649   2
   1   0  -2 19.7867 0.84396   5
   1   0  -2 19.7432 0.89273   2
  -1   0   2 18.0823 0.86958   2
  -1   0   2 19.2084 0.82567   5
   0   0  -2 123.299 3.01590   1
   0   0   2 125.050 3.01943   1
  -1   0  -2 116.001 3.16245   2
  -1   0  -2 120.907 3.23770   3
   1   0   2 124.861 3.17295   1
   1   0   2 120.944 3.22399   3
   1   0   2 128.201 3.17841   2
   1   0   2 114.547 3.19988   5
  -2   0  -2 166.571 4.58063   3
  -2   0  -2 160.571 4.46651   2
   2   0   2 161.432 4.51635   5
   2   0   2 160.283 4.52560   3
   2   0   2 161.560 4.43612   2
  -3   0  -2 147.673 4.54642   2
   3   0   2 155.188 4.63167   5
  -4   0  -2 42.5090 2.27377   2
   4   0   2 41.4503 2.24869   5
  -5   0  -2 60.5404 2.99022   2
   5   0   2 54.9510 2.96268   5
  -6   0  -2 19.8734 2.38673   2
   6   0   2 20.2592 2.36433   5
   6  -1  -2 2.98299 1.34425   5
  -6   1   2 3.75082 1.33627   2
   5  -1  -2 0.93498 0.98586   5
  -5   1   2 2.91593 1.10925   2
   4  -1  -2 80.4899 3.20461   5
  -4   1   2 75.4916 3.19569   2
   3  -1  -2 21.6648 1.34391   5
  -3   1   2 21.2845 1.39602   2
   2  -1  -2 151.235 4.27753   5
  -2   1   2 152.341 4.34826   2
   1  -1  -2 774.378 18.8715   2
  -1   1   2 800.280 18.9010   2
  -1   1   2 797.154 18.8744   5
   0  -1  -2 13.2540 0.56442   4
   0  -1  -2 13.9111 0.38927   1
   0   1   2 13.6843 0.56605   4
   0   1   2 13.7032 0.45404   2
  -1  -1  -2 490.506 12.2225   3
  -1  -1  -2 520.109 12.1946   4
  -1  -1  -2 501.580 12.0006   2
   1   1   2 488.672 12.1787   3
   1   1   2 510.623 12.0128   2
   1   1   2 509.457 12.1646   4
  -2  -1  -2 114.541 3.33069   2
  -2  -1  -2 116.365 3.57409   3
   2   1   2 116.926 3.44557   4
   2   1   2 113.789 3.48039   5
   2   1   2 125.196 3.56283   3
   2   1   2 119.289 3.34332   2
  -3  -1  -2 78.0402 2.79247   2
  -3  -1  -2 81.2203 2.99382   3
   3   1   2 82.1728 2.93623   5
  -4  -1  -2 32.3493 1.89197   2
   4   1   2 31.3028 1.96998   5
  -5  -1  -2 1.48162 0.97851   2
   5   1   2 2.19789 1.11838   5
  -6  -1  -2 2.45415 1.32951   2
   6   1   2 1.06485 1.21618   5
  -6   2   2 25.6466 2.62039   2
   5  -2  -2 2.21929 1.14864   5
  -5   2   2 3.48095 1.14714   2
   4  -2  -2 14.9221 1.64946   5
  -4   2   2 18.1199 1.75210   2
  -3   2   2 66.9230 2.67936   2
  -2   2   2 55.5944 2.11908   2
  -1   2   2 94.0791 2.74248   2
   0  -2  -2 6.30408 0.62951   4
   0  -2  -2 6.71601 0.51602   3
   0  -2  -2 5.96739 0.24197   1
   0   2   2 6.93850 0.58925   4
  -1  -2  -2 19.8194 1.04020   4
  -1  -2  -2 19.2849 0.99144   3
   1   2   2 20.1212 0.90526   3
   1   2   2 20.1188 0.95171   4
   1   2   2 20.4375 0.76313   2
  -2  -2  -2 300.626 8.06344   3
  -2  -2  -2 304.781 7.98309   4
  -2  -2  -2 313.074 7.71256   2
   2   2   2 305.678 7.74267   2
  -3  -2  -2 20.0248 1.27420   2
  -3  -2  -2 21.0968 1.52809   3
   3   2   2 18.6051 1.36003   5
  -4  -2  -2 66.9705 2.69606   2
  -4  -2  -2 63.9500 3.01503   3
   4   2   2 62.8508 2.87065   5
  -5  -2  -2 8.03781 1.43869   2
   5   2   2 4.97278 1.31211   5
  -6  -2  -2 2.07480 1.30474   2
   6   2   2 1.86425 1.27756   5
  -5   3   2 8.11492 1.55266   2
  -4   3   2 0.25225 0.79549   2
  -3   3   2 0.04219 0.59208   2
  -2   3   2 93.6160 3.15141   2
   1  -3  -2 66.5154 2.27196   4
   1  -3  -2 69.3693 2.01084   1
  -1   3   2 65.7787 2.23658   2
   0  -3  -2 75.6882 1.86308   1
   0  -3  -2 72.2663 2.36905   4
   0  -3  -2 70.9360 2.19215   3
   0   3   2 75.7275 2.38309   4
  -1  -3  -2 202.156 5.57526   4
  -1  -3  -2 200.329 5.48295   3
   1   3   2 209.598 5.40380   3
   1   3   2 203.700 4.98639   1
   1   3   2 210.692 5.20366   2
  -2  -3  -2 360.110 9.08728   2
  -2  -3  -2 355.812 9.49010   4
  -2  -3  -2 384.006 9.63248   3
   2   3   2 363.742 9.15969   2
  -3  -3  -2 38.1915 1.97847   4
  -3  -3  -2 36.6929 1.99068   3
  -3  -3  -2 39.1486 1.71582   2
  -4  -3  -2 55.5332 2.87435   3
  -4  -3  -2 58.1340 2.46010   2
   4   3   2 56.0352 2.72418   5
  -5  -3  -2 77.9294 3.72318   3
  -5  -3  -2 81.1464 3.41189   2
   5   3   2 75.3312 3.58442   5
  -6  -3  -2 4.37475 1.49142   2
   6   3   2 5.05642 1.60091   5
  -5   4   2 49.1126 3.18125   2
  -4   4   2 19.4027 2.00223   2
  -3   4   2 4.88453 1.08440   2
  -2   4   2 0.42720 0.62841   2
   1  -4  -2 67.4153 2.46823   4
   1  -4  -2 71.3798 2.05459   1
  -1   4   2 67.3272 2.39513   2
   0  -4  -2 81.0770 2.77029   4
   0  -4  -2 81.7122 2.52182   3
   0  -4  -2 82.1528 2.11553   1
  -1  -4  -2 6.92568 0.81438   3
  -1  -4  -2 4.47018 0.84538   4
   1   4   2 5.83916 0.35919   1
  -2  -4  -2 67.5552 2.65299   3
  -2  -4  -2 67.2096 2.65950   4
   2   4   2 72.1242 2.08039   1
   2   4   2 68.7293 2.27997   2
  -3  -4  -2 1.18356 0.77719   3
  -3  -4  -2 2.97445 0.96075   4
  -4  -4  -2 121.523 4.67232   3
  -4  -4  -2 125.113 4.10037   2
   4   4   2 122.326 4.47197   5
  -5  -4  -2 22.6621 2.00741   2
  -5  -4  -2 18.0732 2.14863   3
   5   4   2 22.6795 2.26818   5
  -5   5   2 52.4638 3.30912   2
  -4   5   2 27.0124 2.43946   2
  -3   5   2 49.5857 2.64785   2
   2  -5  -2 41.1237 2.13021   4
  -2   5   2 43.9430 2.19569   2
   1  -5  -2 20.7847 1.17013   3
   1  -5  -2 20.3729 1.41829   4
   1  -5  -2 19.9604 0.90370   1
   0  -5  -2 1.27528 0.47639   3
   0  -5  -2 1.98247 0.29251   1
   0  -5  -2 1.88927 0.67488   4
  -1  -5  -2 24.5576 1.64528   4
  -1  -5  -2 24.8636 1.39137   3
   1   5   2 25.2748 0.82428   1
  -2  -5  -2 27.2385 1.84114   4
  -2  -5  -2 29.6366 1.74202   3
   2   5   2 26.4990 1.06018   1
  -3  -5  -2 7.16931 1.32821   4
  -3  -5  -2 6.38154 1.18440   3
   3   5   2 5.92260 0.72490   1
  -4  -5  -2 0.62971 1.00471   4
  -4  -5  -2 2.41672 1.07066   3
   4   5   2 1.42224 0.57797   1
  -5  -5  -2 1.87118 1.15538   3
   5   5   2 0.81476 0.76164   1
   5   5   2 0.96756 1.06406   5
   4  -6  -2 21.3613 2.17205   4
  -4   6   2 30.0624 2.34851   2
   3  -6  -2 45.2678 2.71224   4
  -3   6   2 51.1668 2.81224   2
   2  -6  -2 39.1212 2.25783   4
  -2   6   2 42.8971 2.34262   2
   1  -6  -2 53.5106 2.09983   3
   1  -6  -2 51.4583 2.48355   4
   0  -6  -2 14.3883 1.52147   4
   0  -6  -2 15.9794 1.15407   3
  -1  -6  -2 36.8867 2.23822   4
  -1  -6  -2 39.8838 1.89274   3
   1   6   2 39.9589 1.18552   1
  -2  -6  -2 48.9412 2.52175   4
  -2  -6  -2 49.7497 2.39270   3
   2   6   2 48.5645 1.53344   1
  -3  -6  -2 19.4323 1.92286   4
  -3  -6  -2 21.6161 1.97453   3
   3   6   2 18.1698 1.06458   1
  -4  -6  -2 13.4100 1.96300   4
  -4  -6  -2 14.6456 1.92333   3
   3  -7  -2 15.9212 2.06111   4
  -3   7   2 12.0292 1.69096   2
   2  -7  -2 11.7339 1.19295   3
   2  -7  -2 11.0297 1.60232   4
  -2   7   2 12.5553 1.55582   2
   1  -7  -2 84.4064 3.55523   4
   1  -7  -2 87.1895 3.03823   3
  -1   7   2 86.1542 3.34961   2
   0  -7  -2 0.97468 0.62961   3
   0  -7  -2 2.00479 1.07185   4
  -1  -7  -2 31.3659 2.47616   4
  -1  -7  -2 26.4498 1.65014   3
  -2  -7  -2 6.08797 1.37114   4
  -2  -7  -2 5.27622 1.05809   3
  -3  -7  -2 2.07986 0.97572   3
  -3  -7  -2 0.91272 1.10805   4
  -4  -7  -2 5.91921 1.58097   4
  -4  -7  -2 3.71102 1.29934   3
   2  -8  -2 2.85853 1.19648   4
  -2   8   2 5.07231 1.25565   2
   1  -8  -2 23.7051 2.33475   4
  -1   8   2 21.3415 1.98840   2
   0  -8  -2 5.87798 1.30512   4
  -1  -8  -2 22.7995 2.29752   4
  -2  -8  -2 21.6372 2.27538   4
  -3  -8  -2 3.82366 1.31784   4
  -2  -8   3 30.1018 2.37116   4
  -1  -8   3 7.98319 1.53114   4
   0  -8   3 3.77747 1.12349   4
   1  -8   3 1.33278 1.06403   4
  -2   8  -3 -0.3299 0.98910   2
   2  -8   3 2.48483 1.34227   4
  -3  -7   3 30.7519 2.29553   4
  -2  -7   3 4.73739 1.22572   4
  -1  -7   3 0.87264 0.94034   4
   0   7  -3 16.4986 1.15545   1
   0  -7   3 18.8787 1.83707   4
  -1   7  -3 0.29407 0.52451   1
   1  -7   3 -0.4259 0.77706   4
  -2   7  -3 7.91311 1.37640   2
   2  -7   3 8.07072 1.46690   4
  -3   7  -3 1.75079 1.13652   2
   3  -7   3 0.90629 1.27499   4
   4   6  -3 7.37687 1.11966   1
   4   6  -3 6.41751 1.36992   5
  -4  -6   3 7.92012 1.43579   4
   3   6  -3 46.9369 1.96449   1
  -3  -6   3 46.8333 2.58825   4
  -3  -6   3 48.9373 2.45448   3
   2   6  -3 71.3411 2.37513   1
  -2  -6   3 73.4754 3.05861   4
  -2  -6   3 69.9610 2.75533   3
   1   6  -3 12.1022 0.86614   1
  -1  -6   3 13.2397 1.52033   4
  -1  -6   3 12.1224 0.96382   3
   0   6  -3 130.343 3.75055   1
   0  -6   3 121.658 4.28463   4
   0  -6   3 131.028 3.58237   3
  -1   6  -3 3.83364 0.74909   1
   1  -6   3 4.77608 0.68982   3
   1  -6   3 3.40190 0.96439   4
   2  -6   3 23.8739 2.08797   4
  -3   6  -3 27.8577 2.53615   2
   3  -6   3 35.0501 2.28301   4
  -4   6  -3 13.5907 1.95118   2
   5   5  -3 2.55839 1.16961   5
   5   5  -3 4.39156 1.09059   1
   4   5  -3 66.2275 2.98417   5
   4   5  -3 65.7092 2.63378   1
   3   5  -3 64.9449 2.43869   1
  -3  -5   3 68.5496 2.96874   4
  -3  -5   3 67.4843 2.88903   3
   2   5  -3 133.629 3.76924   1
  -2  -5   3 133.145 4.33692   4
  -2  -5   3 125.367 4.06407   3
   1   5  -3 2.50793 0.46870   3
   1   5  -3 3.44570 0.53324   1
  -1  -5   3 2.57142 0.54823   3
  -1  -5   3 3.53522 0.82952   4
   0   5  -3 164.316 4.50468   1
   0  -5   3 170.085 4.34210   3
   0  -5   3 159.674 4.90191   4
  -1   5  -3 18.0973 1.16735   1
   1  -5   3 19.8628 0.88592   3
   1  -5   3 23.1465 1.45796   4
   2  -5   3 79.5740 3.10709   4
  -3   5  -3 67.3115 3.23763   2
  -4   5  -3 28.8173 2.65590   2
   5   4  -3 22.9836 2.29336   5
   5   4  -3 28.0380 1.91612   1
   4   4  -3 40.4849 2.30836   5
   4   4  -3 39.8350 2.03301   1
   3   4  -3 31.3047 1.55213   1
  -3  -4   3 31.5956 1.84558   3
  -3  -4   3 25.3573 1.78147   4
   2   4  -3 2.07012 0.51270   1
  -2  -4   3 1.72158 0.58746   3
  -2  -4   3 1.56213 0.65972   4
   1   4  -3 266.723 6.81595   3
   1   4  -3 268.906 6.83484   1
  -1  -4   3 275.913 7.26193   4
  -1  -4   3 270.757 6.88441   1
  -1  -4   3 269.530 6.94511   3
   0   4  -3 2.72907 0.45719   1
   0  -4   3 2.23255 0.41600   1
   0  -4   3 2.45398 0.62312   4
   0  -4   3 2.95900 0.36818   3
  -1   4  -3 30.6252 1.37747   1
   1  -4   3 29.9376 1.53902   4
   2  -4   3 10.0060 0.91724   3
  -3   4  -3 30.5963 2.09857   2
  -4   4  -3 94.0767 4.00194   2
  -5   4  -3 12.9466 1.94049   2
   5   3  -3 9.92378 1.55245   5
  -5  -3   3 7.96810 1.40161   2
   4   3  -3 0.34465 0.71530   5
  -4  -3   3 2.14399 0.98352   2
   3   3  -3 14.5175 1.19478   1
   3   3  -3 17.1693 1.25336   5
  -3  -3   3 15.4982 1.24677   2
  -3  -3   3 15.8389 1.41975   4
   2   3  -3 101.898 3.04543   1
  -2  -3   3 100.538 3.24809   4
  -2  -3   3 107.357 3.33885   3
   1   3  -3 86.2076 2.43762   3
   1   3  -3 83.8676 2.56515   4
   1   3  -3 85.0482 2.42607   1
  -1  -3   3 78.4995 2.60828   4
  -1  -3   3 83.5231 2.50252   3
  -1  -3   3 85.7627 2.47443   1
   0   3  -3 12.2032 0.70273   1
   0  -3   3 13.4507 0.88839   4
   0  -3   3 11.8757 0.66590   1
   0  -3   3 12.8314 0.54406   3
  -1   3  -3 0.66614 0.40544   5
  -1   3  -3 0.93693 0.44178   1
   1  -3   3 1.60475 0.39966   1
  -2   3  -3 38.6614 1.83478   2
   2  -3   3 39.8899 1.59647   3
  -3   3  -3 113.039 4.02927   2
  -4   3  -3 114.512 4.32750   2
  -5   3  -3 18.8632 2.13285   2
   6   2  -3 3.50652 1.43576   5
  -6  -2   3 1.31036 1.36753   2
   5   2  -3 -0.0855 0.85191   5
  -5  -2   3 0.10619 0.90496   2
   4   2  -3 -0.2565 0.73428   5
  -4  -2   3 0.12261 0.81909   2
   3   2  -3 13.2017 1.21201   5
  -3  -2   3 14.8716 1.29424   2
   2   2  -3 49.5148 1.81146   4
   2   2  -3 51.8569 2.16842   3
   2   2  -3 53.0480 1.87091   5
   2   2  -3 51.2940 1.81953   1
  -2  -2   3 51.2086 1.91163   4
  -2  -2   3 50.7136 1.94098   2
   1   2  -3 69.5798 2.16041   2
   1   2  -3 70.7459 2.01293   1
   1   2  -3 67.8765 2.02307   4
   1   2  -3 67.9904 2.04397   3
  -1  -2   3 66.1788 2.01866   1
  -1  -2   3 69.6458 2.07989   4
  -1  -2   3 64.9676 2.04225   3
   0   2  -3 0.23049 0.25025   1
   0  -2   3 0.00345 0.11593   3
   0  -2   3 -0.1313 0.26322   4
   0  -2   3 0.16389 0.20172   1
  -1   2  -3 20.0212 0.95204   1
  -1   2  -3 21.6687 0.95687   5
   1  -2   3 19.9377 0.80349   3
   1  -2   3 19.6276 0.90042   1
  -2   2  -3 177.616 5.00708   2
   2  -2   3 178.721 4.81478   3
   2  -2   3 167.289 4.82025   5
  -3   2  -3 77.3699 2.95728   2
   3  -2   3 76.9945 2.86635   5
  -4   2  -3 14.2779 1.60667   2
   4  -2   3 14.1135 1.58089   5
  -5   2  -3 70.3659 3.42485   2
   5  -2   3 66.7370 3.27290   5
  -6   2  -3 11.1101 1.93258   2
   6  -2   3 12.5706 1.97884   5
   6   1  -3 4.50281 1.53414   5
  -6  -1   3 4.75696 1.48219   2
   5   1  -3 16.8274 1.87482   5
  -5  -1   3 16.3964 1.83283   2
   4   1  -3 1.03338 0.80655   5
  -4  -1   3 3.26692 0.93851   2
   3   1  -3 -0.2676 0.51471   5
  -3  -1   3 -0.0458 0.55280   2
   2   1  -3 8.45549 0.84350   3
   2   1  -3 8.79848 0.77509   4
   2   1  -3 9.54027 0.85131   5
  -2  -1   3 9.79982 0.90334   2
   1   1  -3 100.873 2.74271   5
   1   1  -3 103.546 2.80932   1
   1   1  -3 101.918 2.87932   2
   1   1  -3 103.091 2.72996   4
   1   1  -3 104.180 2.87956   3
  -1  -1   3 113.779 2.78307   4
  -1  -1   3 97.6327 2.85995   2
   0  -1   3 914.622 22.1851   4
   0  -1   3 954.109 22.2002   1
  -1   1  -3 213.831 5.39552   1
  -1   1  -3 213.302 5.35226   5
  -1   1  -3 211.735 5.28771   3
   1  -1   3 213.616 5.28174   3
   1  -1   3 205.745 5.33765   1
   1  -1   3 211.416 5.34106   5
  -2   1  -3 27.0416 1.29242   5
  -2   1  -3 25.9380 1.31191   2
   2  -1   3 25.1168 1.21680   3
   2  -1   3 26.2101 1.30194   5
  -3   1  -3 21.8919 1.45323   2
   3  -1   3 24.6148 1.47876   5
  -4   1  -3 61.2141 2.80939   2
   4  -1   3 66.0407 2.85926   5
  -5   1  -3 1.59897 1.02977   2
   5  -1   3 1.55846 0.97965   5
  -6   1  -3 23.8767 2.63798   2
   6  -1   3 20.4401 2.28657   5
   6   0  -3 41.2905 2.89732   5
  -6   0   3 48.5029 3.06450   2
   5   0  -3 25.7807 2.05775   5
  -5   0   3 29.6277 2.15390   2
   4   0  -3 11.1237 1.38594   5
  -4   0   3 7.35345 1.19890   2
   3   0  -3 4.96730 0.81320   5
  -3   0   3 5.78648 0.91441   2
   2   0  -3 30.0043 1.32653   5
   2   0  -3 26.6686 1.32753   2
  -2   0   3 30.6031 1.38578   2
  -2   0   3 32.0280 1.34898   5
   1   0  -3 18.5710 0.83061   5
   1   0  -3 19.1336 0.95037   2
  -1   0   3 19.9304 0.90721   2
  -1   0   3 19.1417 0.82145   5
   0   0  -3 5.09734 0.31573   1
   0   0   3 6.39289 0.22139   4
   0   0   3 5.88199 0.35142   1
  -1   0  -3 76.3811 2.24711   3
  -1   0  -3 80.8499 2.21079   2
  -1   0  -3 77.3258 2.21699   1
   1   0   3 79.4411 2.19912   1
   1   0   3 79.0853 2.26843   5
   1   0   3 79.4640 2.24023   3
  -2   0  -3 40.0869 1.56868   2
  -2   0  -3 40.5968 1.69493   3
   2   0   3 42.7122 1.66855   5
   2   0   3 42.7954 1.56674   1
   2   0   3 38.6395 1.60155   3
   2   0   3 40.7484 1.53260   2
  -3   0  -3 107.573 3.52172   2
  -3   0  -3 109.365 3.65294   3
   3   0   3 110.233 3.62867   5
  -4   0  -3 9.74165 1.23902   2
   4   0   3 11.5619 1.43607   5
  -5   0  -3 59.7052 3.02258   2
   5   0   3 55.4511 2.96165   5
  -6   0  -3 0.54687 1.18262   2
   6   0   3 0.46984 1.17537   5
   6  -1  -3 21.9110 2.45776   5
  -6   1   3 24.0582 2.62583   2
   5  -1  -3 26.7642 2.11960   5
  -5   1   3 25.0809 2.32536   2
   4  -1  -3 147.450 4.89456   5
  -4   1   3 147.673 4.99524   2
   3  -1  -3 8.61370 0.99704   5
  -3   1   3 6.90031 0.98179   2
   2  -1  -3 51.6884 1.91848   5
  -2   1   3 54.1799 2.02842   2
   1  -1  -3 1139.77 26.8968   2
  -1   1   3 1125.00 27.2954   2
  -1   1   3 1136.40 26.9088   5
   0  -1  -3 108.007 2.81088   4
   0  -1  -3 115.390 2.67573   2
   0  -1  -3 107.922 2.66520   1
   0   1   3 104.553 2.80213   4
   0   1   3 110.748 2.67147   2
   0   1   3 110.024 2.67420   1
  -1  -1  -3 24.8069 0.84846   2
  -1  -1  -3 24.6895 1.05381   3
  -1  -1  -3 26.1613 1.11617   4
   1   1   3 24.7120 0.83855   2
   1   1   3 24.8308 1.02582   3
   1   1   3 23.9673 1.02805   4
   1   1   3 23.9496 0.87081   1
  -2  -1  -3 23.0585 1.11088   2
  -2  -1  -3 23.1510 1.31182   3
   2   1   3 22.7969 1.17963   4
   2   1   3 22.3451 1.19216   3
   2   1   3 25.7656 1.10582   2
  -3  -1  -3 -0.6131 0.48501   2
  -3  -1  -3 0.19168 0.59725   3
   3   1   3 -0.4428 0.51307   5
  -4  -1  -3 45.2132 2.22097   2
  -4  -1  -3 43.2455 2.41032   3
   4   1   3 44.4005 2.34225   5
  -5  -1  -3 143.961 5.11030   2
   5   1   3 146.205 5.25831   5
  -6  -1  -3 38.1330 2.72152   2
   6   1   3 39.0931 2.81939   5
  -6   2   3 10.2240 1.88044   2
  -5   2   3 34.4324 2.55455   2
  -4   2   3 166.733 5.50440   2
  -3   2   3 126.489 4.17866   2
  -2   2   3 0.07482 0.45828   2
   1  -2  -3 24.0201 1.01633   2
  -1   2   3 21.9792 1.04971   2
   0  -2  -3 0.15185 0.36177   4
   0  -2  -3 0.46842 0.27886   3
   0   2   3 0.61396 0.32229   4
  -1  -2  -3 3.10795 0.53555   4
  -1  -2  -3 3.57560 0.53862   3
   1   2   3 3.81400 0.55022   4
   1   2   3 2.60378 0.42773   3
   1   2   3 4.33989 0.35910   2
  -2  -2  -3 332.492 8.25066   2
  -2  -2  -3 338.677 8.60420   4
  -2  -2  -3 323.664 8.65837   3
   2   2   3 328.512 8.27975   2
  -3  -2  -3 -0.3347 0.48721   2
  -3  -2  -3 0.60077 0.60620   3
   3   2   3 -0.4510 0.44490   5
  -4  -2  -3 2.09970 0.93046   3
  -4  -2  -3 1.88763 0.81592   2
   4   2   3 3.56605 1.01053   5
  -5  -2  -3 162.577 5.35778   2
   5   2   3 154.950 5.59948   5
  -6  -2  -3 11.2247 1.85587   2
   6   2   3 10.0197 1.80202   5
  -5   3   3 14.6166 1.92666   2
  -4   3   3 82.4065 3.55681   2
  -3   3   3 29.3542 1.84350   2
  -2   3   3 293.257 7.85769   2
   1  -3  -3 67.9717 2.32667   4
   1  -3  -3 68.9982 2.02548   1
  -1   3   3 67.2164 2.25061   2
   0  -3  -3 158.750 3.80596   1
   0  -3  -3 162.298 4.41789   4
   0  -3  -3 158.168 4.27862   3
   0   3   3 160.532 4.40574   4
  -1  -3  -3 214.398 5.87724   4
  -1  -3  -3 211.882 5.80394   3
   1   3   3 218.008 5.71731   3
   1   3   3 218.680 5.24768   1
   1   3   3 226.045 5.43118   2
  -2  -3  -3 360.694 9.36505   4
  -2  -3  -3 362.825 9.42225   3
  -2  -3  -3 356.115 8.84063   2
   2   3   3 350.982 8.91607   2
  -3  -3  -3 1.54253 0.77442   3
  -3  -3  -3 2.60503 0.78916   4
  -3  -3  -3 1.83363 0.63419   2
  -4  -3  -3 2.25642 0.84203   2
  -4  -3  -3 0.12416 0.88795   3
   4   3   3 1.44077 0.90162   5
  -5  -3  -3 122.583 4.28665   2
  -5  -3  -3 117.579 4.80862   3
   5   3   3 117.479 4.67310   5
  -6  -3  -3 2.23710 1.38978   2
   6   3   3 2.34658 1.36064   5
  -5   4   3 13.6244 2.04728   2
  -4   4   3 39.0450 2.45369   2
  -3   4   3 9.93223 1.28638   2
   2  -4  -3 37.6515 1.83365   4
  -2   4   3 41.3038 1.96831   2
   1  -4  -3 0.52996 0.50634   4
   1  -4  -3 0.02843 0.25252   1
  -1   4   3 -0.3291 0.39246   2
   0  -4  -3 782.518 17.8014   1
   0  -4  -3 739.550 18.3574   3
   0  -4  -3 749.440 18.5998   4
  -1  -4  -3 28.2708 1.52379   4
  -1  -4  -3 28.6555 1.42263   3
   1   4   3 29.2134 0.81483   1
  -2  -4  -3 161.937 4.95148   4
  -2  -4  -3 162.937 4.94781   3
   2   4   3 160.826 4.43595   2
   2   4   3 165.397 4.22898   1
  -3  -4  -3 -0.4869 0.80302   4
  -3  -4  -3 0.57734 0.73707   3
  -4  -4  -3 61.7109 3.16010   3
  -4  -4  -3 64.3520 2.62460   2
  -5  -4  -3 15.1257 2.10620   3
  -5  -4  -3 15.4314 1.67830   2
   5   4   3 15.8980 2.03712   5
  -5   5   3 33.3653 3.05562   2
  -4   5   3 23.4307 2.27498   2
  -3   5   3 1.02493 0.86376   2
   2  -5  -3 25.1092 1.75962   4
  -2   5   3 23.5339 1.65035   2
   1  -5  -3 230.115 5.82012   1
   1  -5  -3 233.702 6.62132   4
  -1   5   3 229.124 6.39340   2
   0  -5  -3 10.8882 0.45165   1
   0  -5  -3 11.0048 0.97420   3
   0  -5  -3 10.1375 1.17553   4
  -1  -5  -3 3.54470 0.84713   4
  -1  -5  -3 3.13490 0.70305   3
  -2  -5  -3 203.777 5.99320   3
  -2  -5  -3 194.255 6.03029   4
   2   5   3 202.375 5.04333   1
  -3  -5  -3 3.71380 1.16187   4
  -3  -5  -3 1.17766 0.89309   3
   3   5   3 2.54374 0.54455   1
  -4  -5  -3 80.5582 3.72721   3
  -4  -5  -3 79.2556 3.68751   4
  -5  -5  -3 6.24796 1.71731   3
   5   5   3 9.13482 1.65735   5
   4  -6  -3 16.6009 2.05034   4
  -4   6   3 17.2338 2.12549   2
   3  -6  -3 1.93691 1.01465   4
  -3   6   3 2.03369 1.03311   2
   2  -6  -3 125.952 4.50173   4
  -2   6   3 133.236 4.52220   2
   1  -6  -3 10.5436 1.06887   3
   1  -6  -3 13.6150 1.55322   4
  -1   6   3 11.5717 1.27001   2
   0  -6  -3 4.11363 0.77039   3
   0  -6  -3 1.94576 0.93578   4
  -1  -6  -3 7.74986 1.27219   4
  -1  -6  -3 8.16883 1.06301   3
  -2  -6  -3 122.740 4.35444   3
  -2  -6  -3 134.512 4.62499   4
   2   6   3 130.989 3.36274   1
  -3  -6  -3 24.6426 1.91059   3
  -3  -6  -3 21.3743 2.05738   4
  -4  -6  -3 87.3374 4.08042   4
  -4  -6  -3 93.4230 4.14415   3
   3  -7  -3 16.3806 1.91056   4
  -3   7   3 15.7516 1.87805   2
   2  -7  -3 67.5986 2.72721   3
   2  -7  -3 71.5019 3.38379   4
  -2   7   3 69.6819 3.15164   2
   1  -7  -3 14.5835 1.72942   4
   1  -7  -3 13.9875 1.31147   3
  -1   7   3 13.6749 1.45480   2
   0  -7  -3 7.81080 1.01471   3
   0  -7  -3 4.68040 1.15516   4
  -1  -7  -3 5.61769 1.35645   4
  -1  -7  -3 3.97198 0.89917   3
  -2  -7  -3 26.9606 2.34529   4
  -2  -7  -3 23.8776 1.76841   3
  -3  -7  -3 20.5506 2.27998   4
  -3  -7  -3 20.6414 2.08621   3
  -4  -7  -3 39.6339 2.88376   4
  -4  -7  -3 37.7005 2.69803   3
   2  -8  -3 1.73192 1.19355   4
  -2   8   3 1.35478 0.96821   2
   1  -8  -3 4.04409 1.22150   4
  -1   8   3 1.35856 0.84352   2
   0  -8  -3 8.45121 1.54346   4
  -1  -8  -3 2.56332 1.13641   4
  -1  -8  -3 2.84519 1.09682   3
  -2  -8  -3 16.7712 1.99015   4
  -2  -8  -3 15.5979 1.72837   3
  -3  -8  -3 60.2708 3.30173   3
  -3  -8  -3 63.3062 3.54047   4
  -2  -8   4 34.2906 2.48010   4
  -1  -8   4 57.9851 3.10484   4
   0  -8   4 39.5622 2.50391   4
   1  -8   4 19.6124 2.05802   4
  -3  -7   4 0.10664 0.81226   4
  -2  -7   4 42.0743 2.50073   4
   1   7  -4 18.5406 1.77744   1
  -1  -7   4 19.2932 1.84930   4
   0   7  -4 18.4543 1.22489   1
   0  -7   4 18.9270 1.89856   4
  -1   7  -4 1.23316 0.62904   1
   1  -7   4 0.98646 0.93009   4
   2  -7   4 52.7714 2.82615   4
  -3   7  -4 12.1704 1.91708   2
   3  -7   4 9.97846 1.77167   4
   4   6  -4 0.06907 0.64699   1
   4   6  -4 1.37841 0.86248   5
  -4  -6   4 1.01602 0.97885   4
   3   6  -4 26.4966 1.49494   1
  -3  -6   4 26.3973 2.00401   4
   2   6  -4 3.81878 0.67361   1
  -2  -6   4 3.12505 0.72891   3
  -2  -6   4 2.72606 1.03049   4
   1   6  -4 2.64070 0.56603   1
  -1  -6   4 1.71160 0.82357   4
  -1  -6   4 2.22098 0.53381   3
   0   6  -4 16.1886 1.09764   1
   0  -6   4 19.1376 1.72137   4
  -1   6  -4 95.0756 3.21487   1
   1  -6   4 95.5075 3.56610   4
   2  -6   4 37.1161 2.27825   4
  -3   6  -4 2.05346 1.06915   2
   3  -6   4 0.26481 0.93650   4
  -4   6  -4 50.3106 3.24912   2
   5   5  -4 -1.4755 0.90093   5
   5   5  -4 1.00613 0.90235   1
   4   5  -4 5.40502 1.21243   5
   4   5  -4 5.35213 1.00714   1
   3   5  -4 93.4776 3.20208   1
  -3  -5   4 102.063 3.71067   4
   2   5  -4 83.5466 2.61467   1
  -2  -5   4 76.5674 2.80272   3
  -2  -5   4 75.6198 3.02198   4
   1   5  -4 28.3518 1.28281   1
   1   5  -4 29.1588 1.17059   3
  -1  -5   4 28.7432 1.29405   3
  -1  -5   4 29.7702 1.70341   4
   0   5  -4 89.5548 2.75325   1
   0  -5   4 89.4115 3.09202   4
   0  -5   4 83.2270 2.38008   3
  -1   5  -4 106.025 3.40427   1
   1  -5   4 109.990 2.87443   3
   1  -5   4 109.028 3.64956   4
   2  -5   4 45.1137 2.29641   4
  -3   5  -4 0.16597 0.83369   2
  -4   5  -4 15.7861 1.98972   2
   5   4  -4 5.35618 1.34102   5
   5   4  -4 4.27098 1.07795   1
  -5  -4   4 3.35836 1.36116   2
   4   4  -4 9.74475 1.21137   1
   4   4  -4 13.3178 1.52151   5
   3   4  -4 118.574 3.86521   5
   3   4  -4 115.410 3.62151   1
  -3  -4   4 110.573 3.92076   4
   2   4  -4 123.512 3.58830   1
  -2  -4   4 126.601 3.84332   3
  -2  -4   4 119.550 3.88035   4
   1   4  -4 7.12911 0.67988   1
   1   4  -4 7.45044 0.61045   3
  -1  -4   4 7.26779 0.68468   3
  -1  -4   4 7.41636 0.89766   4
   0   4  -4 33.0656 1.34103   1
   0  -4   4 35.4204 1.06963   3
   0  -4   4 32.4476 1.54748   4
  -1   4  -4 12.7470 1.03524   1
   1  -4   4 11.1683 0.53695   3
   1  -4   4 13.2824 1.01646   4
  -2   4  -4 70.8727 2.68983   1
   2  -4   4 76.0786 2.42335   3
  -3   4  -4 25.9331 1.88867   2
  -4   4  -4 0.21926 0.86629   2
  -5   4  -4 0.89316 1.22944   2
   5   3  -4 19.4406 1.76307   1
   5   3  -4 17.3683 1.87454   5
  -5  -3   4 16.3981 1.97998   2
   4   3  -4 23.2218 1.72014   5
  -4  -3   4 23.6464 1.76435   2
   3   3  -4 47.6367 2.00352   1
   3   3  -4 50.4425 2.18554   5
  -3  -3   4 53.1807 2.27937   2
   2   3  -4 0.45209 0.41720   1
  -2  -3   4 1.02335 0.52565   4
   1   3  -4 152.432 3.96590   3
   1   3  -4 146.740 4.01411   1
   1   3  -4 150.390 4.10916   4
  -1  -3   4 149.067 4.01632   3
  -1  -3   4 157.337 4.20918   4
  -1  -3   4 143.050 4.04030   1
   0   3  -4 28.6400 1.11625   1
   0  -3   4 25.3595 0.77097   3
   0  -3   4 26.2270 1.06573   1
   0  -3   4 29.2701 1.24625   4
  -1   3  -4 18.2392 0.96849   5
  -1   3  -4 19.0973 1.04525   1
   1  -3   4 19.1878 0.74484   3
  -2   3  -4 11.6642 1.04672   1
   2  -3   4 9.35569 0.82187   3
  -3   3  -4 59.1779 2.73004   2
  -4   3  -4 4.82781 1.15442   2
  -5   3  -4 17.1884 2.16445   2
   6   2  -4 19.7719 2.28727   5
  -6  -2   4 18.0172 2.34495   2
   5   2  -4 75.6129 3.42886   5
  -5  -2   4 73.6818 3.38374   2
   4   2  -4 15.6337 1.57779   5
  -4  -2   4 13.0298 1.53647   2
   3   2  -4 15.2297 1.33650   5
  -3  -2   4 13.7066 1.33258   2
   2   2  -4 19.2649 1.03010   4
   2   2  -4 20.2420 1.04479   1
   2   2  -4 19.6718 1.03650   5
  -2  -2   4 19.9022 1.14969   4
  -2  -2   4 18.3611 1.19602   2
   1   2  -4 25.0536 1.12051   2
   1   2  -4 24.2197 0.96870   4
   1   2  -4 22.8287 0.98395   3
   1   2  -4 23.0289 0.99706   1
  -1  -2   4 22.5853 0.98791   1
  -1  -2   4 21.0718 0.97885   4
   0   2  -4 80.4586 2.29150   1
   0  -2   4 82.3199 2.28371   1
   0  -2   4 78.2454 2.27278   4
  -1   2  -4 53.8317 1.75533   5
  -1   2  -4 54.5312 1.81967   1
   1  -2   4 56.1685 1.57487   3
   1  -2   4 53.6594 1.75996   1
  -2   2  -4 0.72450 0.45491   1
  -2   2  -4 0.22112 0.44934   2
   2  -2   4 0.36656 0.37304   3
   2  -2   4 1.20744 0.46504   5
  -3   2  -4 18.4287 1.39310   2
   3  -2   4 16.8860 1.50263   5
  -4   2  -4 21.6069 2.00947   2
   4  -2   4 18.5811 1.76891   5
  -5   2  -4 66.6966 3.44600   2
   5  -2   4 72.3832 3.44511   5
  -6   2  -4 8.94645 1.96697   2
   6  -2   4 12.3290 2.04635   5
   6   1  -4 18.3673 2.18809   5
  -6  -1   4 9.81002 1.81281   2
   5   1  -4 8.66660 1.50227   5
  -5  -1   4 12.6551 1.75102   2
   4   1  -4 11.8326 1.40786   5
  -4  -1   4 11.8922 1.41626   2
   3   1  -4 45.8041 2.01708   5
  -3  -1   4 44.7315 2.00854   2
   2   1  -4 1.74280 0.48538   5
   2   1  -4 1.87903 0.49299   4
   2   1  -4 2.19931 0.62430   3
  -2  -1   4 1.39216 0.52757   2
   1   1  -4 7.39002 0.51659   5
   1   1  -4 8.32359 0.64868   2
   1   1  -4 7.59263 0.49423   4
   1   1  -4 8.59429 0.59073   1
  -1  -1   4 7.66529 0.53011   4
  -1  -1   4 8.34269 0.63965   2
   0   1  -4 830.879 20.9190   1
   0  -1   4 857.352 21.1423   1
   0  -1   4 962.816 21.0035   4
  -1   1  -4 3.08832 0.46150   1
  -1   1  -4 4.75113 0.48676   5
  -1   1  -4 4.33462 0.43615   3
   1  -1   4 4.63303 0.47725   5
   1  -1   4 4.57028 0.41569   3
   1  -1   4 3.24858 0.43533   1
  -2   1  -4 59.7533 2.15881   2
  -2   1  -4 59.4212 2.11361   5
  -2   1  -4 60.3168 2.10900   3
   2  -1   4 59.4745 2.07169   3
   2  -1   4 60.6821 2.13198   5
  -3   1  -4 11.4369 1.19072   2
   3  -1   4 12.2990 1.26086   5
  -4   1  -4 83.1267 3.32832   2
   4  -1   4 80.1959 3.27314   5
  -5   1  -4 62.0698 3.16527   2
   5  -1   4 53.9076 2.95698   5
   6  -1   4 39.3725 2.77391   5
   6   0  -4 20.0207 2.35121   5
  -6   0   4 22.6851 2.53351   2
   5   0  -4 33.8403 2.30492   5
  -5   0   4 34.4238 2.33477   2
   4   0  -4 10.4891 1.34143   5
  -4   0   4 7.30659 1.20778   2
   3   0  -4 44.9017 1.95525   5
  -3   0   4 41.7542 1.95150   2
   2   0  -4 3.54164 0.61083   5
  -2   0   4 2.39489 0.59242   2
  -2   0   4 2.49237 0.52143   5
   1   0  -4 8961.52 230.821   5
   1   0  -4 8868.40 235.477   1
   1   0  -4 9890.42 222.284   2
  -1   0   4 9470.59 233.360   2
  -1   0   4 9999.99 232.794   5
   0   0  -4 26.9301 0.88737   1
   0   0   4 25.9383 0.88228   1
   0   0   4 27.2195 0.71859   4
  -1   0  -4 29.8797 1.15725   1
  -1   0  -4 32.6451 1.18529   3
   1   0   4 31.1603 1.14086   3
   1   0   4 31.9844 1.10454   1
  -2   0  -4 0.71227 0.52264   3
  -2   0  -4 -0.2633 0.42417   2
   2   0   4 0.55001 0.46458   5
   2   0   4 -0.2077 0.37570   3
   2   0   4 0.16342 0.38211   1
  -3   0  -4 2.54480 0.75139   3
  -3   0  -4 1.80024 0.66562   2
   3   0   4 0.83010 0.63617   5
  -4   0  -4 40.3419 2.14482   2
   4   0   4 36.5214 2.15676   5
  -5   0  -4 50.9736 2.83717   2
   5   0   4 52.8910 2.87759   5
  -6   0  -4 3.22672 1.50321   2
   6   0   4 2.26120 1.31853   5
   6  -1  -4 26.3456 2.63620   5
  -6   1   4 25.0142 2.53391   2
   5  -1  -4 0.62082 0.98143   5
  -5   1   4 0.42916 1.04958   2
   4  -1  -4 14.0167 1.53706   5
  -4   1   4 14.8222 1.64142   2
   3  -1  -4 13.6305 1.27046   5
  -3   1   4 14.9517 1.39457   2
   2  -1  -4 574.833 14.6014   5
  -2   1   4 610.507 14.7020   2
   1  -1  -4 2790.12 64.9446   2
  -1   1   4 2693.86 65.4427   2
   0  -1  -4 9.28729 0.43721   2
   0  -1  -4 8.33096 0.56089   4
   0  -1  -4 9.50877 0.45182   1
   0   1   4 9.05999 0.44759   1
   0   1   4 9.76038 0.42554   2
   0   1   4 9.24646 0.55142   4
  -1  -1  -4 155.087 4.24575   3
  -1  -1  -4 159.623 4.06648   1
  -1  -1  -4 161.298 4.22369   4
  -1  -1  -4 161.874 3.96867   2
   1   1   4 156.662 4.20410   3
   1   1   4 160.621 4.17952   4
   1   1   4 162.898 4.03281   1
  -2  -1  -4 97.9712 3.13836   3
  -2  -1  -4 99.1865 2.89872   2
   2   1   4 100.683 2.86652   2
   2   1   4 97.6037 2.89164   1
  -3  -1  -4 3.21001 0.71229   2
  -3  -1  -4 1.59194 0.64619   3
   3   1   4 1.84581 0.67654   5
  -4  -1  -4 21.1666 1.55392   2
  -4  -1  -4 21.2358 1.96761   3
   4   1   4 17.7288 1.73017   5
  -5  -1  -4 88.7767 3.63762   2
   5   1   4 86.1264 3.77955   5
  -6  -1  -4 4.11400 1.31051   2
   6   1   4 4.14346 1.46479   5
  -6   2   4 12.2943 2.11517   2
  -5   2   4 1.08422 1.13312   2
  -4   2   4 42.6053 2.38827   2
  -3   2   4 1.69468 0.66875   2
  -2   2   4 3.95702 0.75402   2
   1  -2  -4 17.6833 0.90921   2
  -1   2   4 16.9031 0.91049   2
   0  -2  -4 35.3015 1.30175   4
   0  -2  -4 34.8699 1.26386   3
   0  -2  -4 35.1935 0.92931   1
   0   2   4 35.0955 1.04498   2
   0   2   4 35.1302 1.26712   4
  -1  -2  -4 133.773 3.79162   3
  -1  -2  -4 136.179 3.78046   4
   1   2   4 139.570 3.36344   2
   1   2   4 139.485 3.40468   1
   1   2   4 133.511 3.73104   3
   1   2   4 131.678 3.72500   4
  -2  -2  -4 2.21903 0.43930   2
  -2  -2  -4 0.88368 0.55182   4
  -2  -2  -4 2.08191 0.65949   3
   2   2   4 1.95224 0.40865   1
   2   2   4 1.49502 0.38723   2
  -3  -2  -4 37.8327 1.96690   3
  -3  -2  -4 37.0772 1.65657   2
  -4  -2  -4 45.9989 2.22992   2
  -4  -2  -4 52.8771 2.68693   3
   4   2   4 47.4981 2.47208   5
  -5  -2  -4 229.991 7.03405   2
  -5  -2  -4 238.593 7.59570   3
   5   2   4 229.389 7.39845   5
  -6  -2  -4 1.68775 1.26631   2
   6   2   4 0.12784 1.14737   5
  -5   3   4 1.57038 1.15238   2
  -4   3   4 17.6846 1.86715   2
  -3   3   4 3.87411 0.96810   2
  -2   3   4 52.5801 2.14551   2
   1  -3  -4 17.2491 1.04555   4
  -1   3   4 17.0168 0.99037   2
   0  -3  -4 160.042 4.53665   4
   0  -3  -4 164.636 4.46920   3
   0   3   4 172.601 5.22939   4
  -1  -3  -4 112.793 3.46640   4
  -1  -3  -4 112.870 3.44002   3
   1   3   4 119.916 3.34821   3
   1   3   4 113.105 2.95384   2
   1   3   4 115.414 2.82918   1
  -2  -3  -4 1.38608 0.59050   3
  -2  -3  -4 0.96473 0.63627   4
  -2  -3  -4 1.74323 0.41347   2
   2   3   4 1.58719 0.39827   2
  -3  -3  -4 260.427 7.44854   4
  -3  -3  -4 256.667 6.88083   2
  -3  -3  -4 266.661 7.55081   3
  -4  -3  -4 85.3933 3.65918   3
  -4  -3  -4 81.2481 3.05788   2
   4   3   4 87.5479 3.50923   5
  -5  -3  -4 55.4253 3.19923   3
  -5  -3  -4 56.0140 2.74155   2
   5   3   4 59.7770 3.13938   5
  -6  -3  -4 7.49739 1.58362   2
   6   3   4 10.2596 1.93130   5
  -5   4   4 26.5439 2.61822   2
  -4   4   4 21.3431 2.09624   2
  -3   4   4 -1.0980 0.67418   2
   2  -4  -4 26.1536 1.52808   4
  -2   4   4 28.0787 1.55215   2
   1  -4  -4 3.16280 0.41103   1
   1  -4  -4 2.99343 0.64926   4
  -1   4   4 3.42544 0.64434   2
   0  -4  -4 44.8908 1.90675   4
   0  -4  -4 46.7378 1.76433   3
  -1  -4  -4 74.3857 2.57385   3
  -1  -4  -4 68.6381 2.63624   4
   1   4   4 73.1454 2.09214   2
  -2  -4  -4 2.69549 0.78212   4
  -2  -4  -4 1.95076 0.64167   3
   2   4   4 2.28914 0.45939   2
  -3  -4  -4 28.3916 1.83600   3
  -3  -4  -4 25.7060 1.90679   4
  -4  -4  -4 2.35357 1.10155   3
  -4  -4  -4 3.19950 0.86286   2
  -5  -4  -4 59.9070 3.33643   3
  -5  -4  -4 60.7428 2.81351   2
   5   4   4 62.2563 3.25799   5
  -5   5   4 3.92549 1.55856   2
  -4   5   4 63.7210 3.24708   2
   3  -5  -4 31.4733 2.10251   4
  -3   5   4 32.8064 2.05707   2
   2  -5  -4 68.0684 2.85678   4
  -2   5   4 67.2837 2.79280   2
   1  -5  -4 18.1681 1.42432   4
   1  -5  -4 16.4813 0.77585   1
  -1   5   4 14.5087 1.14839   2
   0  -5  -4 21.9677 1.23930   3
   0  -5  -4 19.8673 1.39089   4
  -1  -5  -4 114.061 3.91320   4
  -1  -5  -4 118.263 3.75500   3
  -2  -5  -4 24.1696 1.71056   4
  -2  -5  -4 24.3909 1.62422   3
   2   5   4 22.3573 1.15990   2
   2   5   4 23.9152 0.89690   1
  -3  -5  -4 22.4757 1.75301   3
  -3  -5  -4 24.2985 2.09525   4
   3   5   4 24.5439 1.17281   1
  -4  -5  -4 1.71400 1.13845   4
  -4  -5  -4 2.75638 1.18229   3
  -5  -5  -4 4.61391 1.49409   3
   5   5   4 1.98590 1.20986   5
   4  -6  -4 48.6514 2.87551   4
  -4   6   4 52.9850 3.16407   2
   3  -6  -4 101.903 4.11785   4
  -3   6   4 103.085 4.12854   2
   2  -6  -4 20.4074 1.87241   4
  -2   6   4 13.5923 1.47476   2
   1  -6  -4 17.5614 1.64585   4
   1  -6  -4 20.8352 1.42153   3
  -1   6   4 17.4996 1.51476   2
   0  -6  -4 44.3320 2.01688   3
   0  -6  -4 44.2606 2.28560   4
  -1  -6  -4 72.8085 3.08769   4
  -1  -6  -4 71.2742 2.81606   3
  -2  -6  -4 10.4608 1.36756   3
  -2  -6  -4 11.3727 1.60934   4
  -3  -6  -4 13.1868 1.68586   4
  -3  -6  -4 14.7876 1.74893   3
  -4  -6  -4 1.87183 1.17235   4
  -4  -6  -4 1.95837 1.15094   3
   5   6   4 -0.9404 1.08648   5
   3  -7  -4 28.8309 2.61993   4
  -3   7   4 26.4489 2.38644   2
   2  -7  -4 28.2877 1.74898   3
   2  -7  -4 23.1902 2.18337   4
  -2   7   4 26.7530 1.94602   2
   1  -7  -4 -0.0240 0.83436   4
   1  -7  -4 0.05080 0.56185   3
  -1   7   4 0.67714 0.72200   2
   0  -7  -4 0.81684 0.93458   4
   0  -7  -4 0.52742 0.65227   3
  -1  -7  -4 14.0565 1.47311   3
  -1  -7  -4 10.8999 1.54816   4
  -2  -7  -4 3.41423 0.96893   3
  -2  -7  -4 4.46218 1.27301   4
  -3  -7  -4 2.80012 1.12483   3
  -3  -7  -4 5.92643 1.49187   4
  -4  -7  -4 0.14025 1.17972   4
  -4  -7  -4 -0.0807 0.92892   3
   2  -8  -4 23.6988 2.30595   4
  -2   8   4 17.5565 1.95906   2
   1  -8  -4 8.74213 1.51272   4
  -1   8   4 9.15812 1.35671   2
   0  -8  -4 103.065 3.81759   3
   0  -8  -4 104.558 4.30575   4
  -1  -8  -4 2.40916 0.89407   3
  -1  -8  -4 1.97902 1.07638   4
  -2  -8  -4 19.2178 1.95773   3
  -2  -8  -4 13.9056 1.85471   4
  -3  -8  -4 49.7412 2.89449   3
  -3  -8  -4 50.4224 3.23623   4
  -2  -8   5 10.2123 1.61542   4
  -1  -8   5 11.5801 1.60355   4
   0  -8   5 5.25361 1.24780   4
   1  -8   5 2.36770 1.13259   4
  -3  -7   5 -0.1617 0.84208   4
  -2  -7   5 23.4781 2.11784   4
   1   7  -5 0.60551 0.50353   1
  -1  -7   5 -0.0281 0.81162   4
   0   7  -5 13.0411 1.17368   1
   0  -7   5 12.5863 1.57890   4
  -1   7  -5 3.54783 0.82019   1
   1  -7   5 4.91969 1.25693   4
   2  -7   5 2.64101 1.10991   4
  -3   7  -5 0.12895 1.13887   2
   3  -7   5 2.64897 1.32203   4
   4   6  -5 6.39197 1.07985   1
   4   6  -5 7.54493 1.65006   5
  -4  -6   5 6.30059 1.43462   4
   3   6  -5 5.16699 0.87352   1
  -3  -6   5 4.51092 1.11227   4
   2   6  -5 3.03439 0.65135   1
  -2  -6   5 3.77546 1.02143   4
   1   6  -5 0.69331 0.48501   1
  -1  -6   5 0.00311 0.74822   4
   0   6  -5 211.460 5.82252   1
   0  -6   5 210.814 6.29127   4
  -1   6  -5 21.4935 1.46091   1
   1  -6   5 22.1345 1.64826   4
   2  -6   5 40.2272 2.37734   4
  -3   6  -5 0.58263 1.07863   2
   3  -6   5 -0.2801 0.84190   4
  -4   6  -5 2.77624 1.29624   2
   5   5  -5 2.11418 0.99858   1
   5   5  -5 4.21438 1.26303   5
   4   5  -5 87.9366 3.28872   1
   4   5  -5 93.7209 3.64249   5
   3   5  -5 9.53059 1.07470   1
   3   5  -5 7.22076 1.09863   5
  -3  -5   5 6.08776 1.15039   4
   2   5  -5 6.33089 0.80447   1
  -2  -5   5 5.75097 1.04591   4
   1   5  -5 152.045 3.90436   3
   1   5  -5 139.595 4.13396   1
  -1  -5   5 147.810 4.56204   4
   0   5  -5 31.0817 1.43233   1
   0  -5   5 31.7818 1.68858   4
  -1   5  -5 53.2792 2.17165   1
   1  -5   5 58.3919 2.37668   4
  -2   5  -5 99.9687 3.44405   1
   2  -5   5 92.8018 3.53286   4
  -3   5  -5 1.83373 1.00281   2
  -4   5  -5 0.50354 1.14671   2
   5   4  -5 16.2288 1.72454   1
   5   4  -5 12.5975 1.74355   5
   4   4  -5 69.4481 2.93513   5
   4   4  -5 65.7176 2.77284   1
   3   4  -5 2.70680 0.79391   5
   3   4  -5 2.26261 0.63509   1
  -3  -4   5 1.39192 0.84036   4
   2   4  -5 19.7524 1.14877   1
  -2  -4   5 17.3085 1.28841   4
   1   4  -5 27.2158 1.03827   3
   1   4  -5 25.8853 1.20007   1
  -1  -4   5 24.9350 1.37467   4
   0   4  -5 1.82302 0.46713   1
   0  -4   5 2.11964 0.63019   4
  -1   4  -5 18.4314 1.09593   1
   1  -4   5 17.7694 1.16708   4
   1  -4   5 18.3285 0.59997   3
   1  -4   5 18.3209 0.63671   3
  -2   4  -5 152.890 4.71656   1
   2  -4   5 159.208 4.29584   3
  -3   4  -5 61.9209 2.89985   2
  -4   4  -5 3.44659 1.19248   2
  -5   4  -5 5.41450 1.41581   2
   5   3  -5 0.13610 0.82991   5
   5   3  -5 0.03109 0.76164   1
  -5  -3   5 -0.5859 0.96695   2
   4   3  -5 24.6503 1.70640   1
   4   3  -5 27.9700 1.89064   5
  -4  -3   5 27.3801 2.00426   2
   3   3  -5 2.76398 0.72675   1
   3   3  -5 3.40965 0.76729   5
  -3  -3   5 2.07606 0.74764   2
   2   3  -5 209.377 5.76682   5
   2   3  -5 218.562 5.79770   1
  -2  -3   5 222.512 5.92330   4
   1   3  -5 -0.2516 0.26226   3
   1   3  -5 -0.2364 0.30396   4
   1   3  -5 0.47315 0.35891   1
  -1  -3   5 -0.0256 0.40499   4
   0   3  -5 150.901 4.16786   1
   0  -3   5 158.895 4.25944   4
  -1   3  -5 28.3570 1.19427   5
  -1   3  -5 25.7841 1.27814   1
   1  -3   5 29.0917 0.87741   3
  -2   3  -5 100.880 3.38673   1
   2  -3   5 107.035 3.07266   3
  -3   3  -5 8.04540 1.23461   2
  -4   3  -5 29.5877 2.23947   2
   4  -3   5 28.3395 1.97851   5
  -5   3  -5 41.1264 2.70428   2
   5  -3   5 36.5489 2.56887   5
   6   2  -5 2.58703 1.38811   5
  -6  -2   5 6.93622 1.68374   2
   5   2  -5 24.9318 2.20355   5
  -5  -2   5 23.2940 2.29340   2
   4   2  -5 50.7925 2.47919   5
  -4  -2   5 47.5982 2.43429   2
   3   2  -5 26.6284 1.45927   1
   3   2  -5 29.0927 1.55561   5
  -3  -2   5 25.5953 1.62369   2
   2   2  -5 90.4961 2.84002   1
   2   2  -5 92.3838 2.81343   5
   2   2  -5 91.0289 2.75179   4
  -2  -2   5 94.9047 2.86932   4
  -2  -2   5 92.7005 2.98998   2
   1   2  -5 25.5892 1.08543   3
   1   2  -5 26.7424 1.01661   4
   1   2  -5 25.7178 1.09956   1
  -1  -2   5 29.5279 1.09674   4
  -1  -2   5 26.8634 1.13760   1
   0   2  -5 376.887 9.04009   1
   0  -2   5 365.514 8.93644   4
   0  -2   5 355.106 8.97939   1
  -1   2  -5 139.948 3.90753   1
  -1   2  -5 144.235 3.79234   5
   1  -2   5 139.583 3.84567   1
   1  -2   5 142.920 3.56272   3
  -2   2  -5 290.243 7.97569   1
   2  -2   5 300.933 7.89219   5
   2  -2   5 320.144 7.79682   3
  -3   2  -5 38.8918 2.05542   2
   3  -2   5 35.1944 1.88075   5
  -4   2  -5 58.4433 2.87309   2
   4  -2   5 58.7330 2.74342   5
  -5   2  -5 11.5529 1.65347   2
   5  -2   5 13.0597 1.74981   5
  -6   2  -5 4.13571 1.61427   2
   6  -2   5 7.94688 1.68789   5
   6   1  -5 15.6478 2.14981   5
  -6  -1   5 13.1010 2.06363   2
   5   1  -5 5.71228 1.32298   5
  -5  -1   5 5.39350 1.33652   2
   4   1  -5 5.16969 1.06268   5
  -4  -1   5 5.93059 1.15275   2
   3   1  -5 6.36562 0.90746   5
  -3  -1   5 6.43438 0.93129   2
   2   1  -5 12.7197 0.90258   1
   2   1  -5 14.0998 0.91463   5
   2   1  -5 12.9592 0.83864   4
  -2  -1   5 13.5193 0.84251   5
  -2  -1   5 13.4182 0.98472   2
   1   1  -5 69.7443 1.94108   5
   1   1  -5 71.0187 1.91077   4
   1   1  -5 70.3723 2.20976   2
   1   1  -5 68.7798 2.09352   1
  -1  -1   5 72.9482 1.95448   4
  -1  -1   5 68.6356 2.11421   1
   0   1  -5 275.035 6.70637   1
   0  -1   5 269.324 6.68198   1
   0  -1   5 266.572 6.49076   4
  -1   1  -5 50.9154 1.71096   1
  -1   1  -5 53.4698 1.64409   5
  -1   1  -5 53.2832 1.59635   3
   1  -1   5 55.1416 1.69590   1
   1  -1   5 53.1155 1.63946   5
   1  -1   5 50.4937 1.55084   3
  -2   1  -5 472.723 11.9294   5
  -2   1  -5 472.511 11.9660   2
  -2   1  -5 469.418 11.9579   1
  -2   1  -5 471.868 11.8797   3
   2  -1   5 491.073 11.9507   5
   2  -1   5 487.289 11.8626   3
  -3   1  -5 32.0900 1.77300   2
   3  -1   5 33.8323 1.74491   5
  -4   1  -5 77.1428 3.14466   2
   4  -1   5 71.1354 3.07362   5
  -5   1  -5 3.61230 1.11351   2
   5  -1   5 3.75390 1.20717   5
  -6   1  -5 10.2916 1.86707   2
   6  -1   5 12.4372 1.94114   5
   6   0  -5 2.54786 1.24549   5
  -6   0   5 2.05250 1.29248   2
   5   0  -5 13.7534 1.73591   5
  -5   0   5 12.2957 1.73039   2
   4   0  -5 29.0386 1.82570   5
  -4   0   5 23.5389 1.79128   2
   3   0  -5 47.7103 2.05407   5
  -3   0   5 51.0343 2.18873   2
   2   0  -5 16.1282 0.96478   5
  -2   0   5 16.1575 1.07670   2
  -2   0   5 16.6254 0.97532   5
   1   0  -5 941.834 22.6087   2
   1   0  -5 933.125 22.5364   1
  -1   0   5 945.021 22.6045   2
  -1   0   5 968.939 22.4742   5
   0   0  -5 188.635 4.66777   1
   0   0   5 186.450 4.65698   1
   0   0   5 184.567 4.44248   4
  -1   0  -5 5.71851 0.56980   1
  -1   0  -5 5.74325 0.55176   3
   1   0   5 4.87845 0.47474   3
   1   0   5 5.02691 0.49356   1
  -2   0  -5 218.610 5.80170   2
  -2   0  -5 224.277 5.91611   3
   2   0   5 212.791 5.80855   3
   2   0   5 216.683 5.86250   5
  -3   0  -5 173.970 5.18727   3
  -3   0  -5 165.612 5.03407   2
   3   0   5 178.693 5.22032   5
  -4   0  -5 92.8092 3.61200   3
  -4   0  -5 88.2975 3.43920   2
   4   0   5 97.7118 3.64954   5
  -5   0  -5 7.20859 1.30448   2
   5   0   5 11.7148 1.63444   5
  -6   0  -5 15.5790 2.17029   2
   6   0   5 14.0015 1.99355   5
  -6   1   5 27.8867 2.73227   2
   5  -1  -5 30.0374 2.23091   5
  -5   1   5 24.1298 2.23794   2
   4  -1  -5 8.63775 1.29228   5
  -4   1   5 6.85524 1.23745   2
   3  -1  -5 11.8749 1.21926   5
  -3   1   5 14.1662 1.40763   2
  -2   1   5 6.88814 0.83624   2
   1  -1  -5 1184.22 28.3552   2
  -1   1   5 1203.93 28.3571   2
   0  -1  -5 24.8469 0.84575   1
   0  -1  -5 23.3046 0.88049   4
   0  -1  -5 26.8598 0.81915   2
   0   1   5 24.7928 0.78548   2
   0   1   5 24.4606 0.89237   4
   0   1   5 24.1893 0.82754   1
  -1  -1  -5 60.9766 1.76844   1
  -1  -1  -5 58.9778 1.65439   2
  -1  -1  -5 61.4473 1.92305   4
  -1  -1  -5 59.1558 1.94686   3
   1   1   5 59.9570 1.90042   3
   1   1   5 58.4261 1.71572   1
   1   1   5 60.9207 1.85358   4
  -2  -1  -5 143.253 3.97935   2
  -2  -1  -5 147.066 4.28401   3
   2   1   5 146.720 4.00228   1
   2   1   5 146.208 3.93053   2
  -3  -1  -5 56.9176 2.23043   2
  -3  -1  -5 57.6807 2.49680   3
   3   1   5 57.3023 2.37858   5
  -4  -1  -5 26.7994 1.92128   3
  -4  -1  -5 32.8802 1.94317   2
   4   1   5 29.6707 1.94777   5
  -5  -1  -5 5.41501 1.28456   2
   5   1   5 2.62940 1.12175   5
  -6  -1  -5 17.9489 2.12591   2
   6   1   5 12.0673 1.96791   5
  -5   2   5 18.0447 2.18915   2
  -4   2   5 1.18772 0.88837   2
  -3   2   5 88.5725 3.26372   2
  -2   2   5 4.65097 0.73266   2
   1  -2  -5 35.4553 1.34942   4
   1  -2  -5 39.0288 1.39971   2
  -1   2   5 36.3269 1.40124   2
   0  -2  -5 3.96237 0.28936   1
   0  -2  -5 4.16938 0.51150   3
   0  -2  -5 3.49261 0.47732   4
   0   2   5 4.37752 0.33546   2
   0   2   5 4.62834 0.51875   4
  -1  -2  -5 64.8486 2.14349   4
  -1  -2  -5 64.5248 2.14611   3
   1   2   5 63.4198 2.06810   3
   1   2   5 64.2939 2.07221   4
   1   2   5 65.0313 1.74980   1
   1   2   5 65.2206 1.63513   2
  -2  -2  -5 48.1157 1.95399   3
  -2  -2  -5 40.0496 1.87576   4
  -2  -2  -5 45.9520 1.54100   2
   2   2   5 44.0654 1.50776   2
   2   2   5 48.2382 1.58620   1
  -3  -2  -5 0.31928 0.59674   3
  -3  -2  -5 2.70011 0.64832   2
  -4  -2  -5 9.41777 1.20246   2
  -4  -2  -5 9.48328 1.45386   3
   4   2   5 8.14139 1.33849   5
  -5  -2  -5 1.03477 1.09114   3
  -5  -2  -5 2.65890 0.95703   2
   5   2   5 1.85345 1.11125   5
  -6  -2  -5 4.56220 1.43764   2
   6   2   5 3.30636 1.43409   5
  -5   3   5 45.8344 2.89556   2
  -4   3   5 51.9064 2.72326   2
  -3   3   5 21.8223 1.86730   2
  -2   3   5 -0.0962 0.47596   2
   1  -3  -5 72.7046 2.47921   4
  -1   3   5 77.5403 2.40688   2
   0  -3  -5 485.945 11.4656   1
   0  -3  -5 499.255 12.1308   4
   0  -3  -5 489.363 12.0870   3
   0   3   5 481.104 11.7341   2
  -1  -3  -5 64.4235 2.20367   3
  -1  -3  -5 63.2541 2.23622   4
   1   3   5 60.3197 1.64393   2
   1   3   5 60.6412 1.57098   1
  -2  -3  -5 0.62533 0.34723   2
  -2  -3  -5 -0.1828 0.51994   4
  -2  -3  -5 -0.2028 0.45227   3
   2   3   5 0.07224 0.29123   2
   2   3   5 0.16807 0.24477   1
  -3  -3  -5 43.5251 2.24696   3
  -3  -3  -5 44.8886 1.78033   2
  -3  -3  -5 43.3406 2.20823   4
  -4  -3  -5 3.26537 0.90622   2
  -4  -3  -5 2.66728 0.95337   3
   4   3   5 3.63845 1.07093   5
  -5  -3  -5 22.2752 1.94496   2
  -5  -3  -5 21.7705 2.24834   3
   5   3   5 24.4391 2.33015   5
  -6  -3  -5 4.58247 1.44084   2
   6   3   5 8.39878 1.82100   5
  -5   4   5 35.9629 2.69719   2
  -4   4   5 4.98642 1.33065   2
  -3   4   5 9.96249 1.42751   2
   2  -4  -5 1.99806 0.66328   4
  -2   4   5 3.38158 0.75573   2
   1  -4  -5 309.698 7.86539   1
   1  -4  -5 314.059 8.39780   4
  -1   4   5 332.864 8.27594   2
   0  -4  -5 -0.4583 0.49641   4
   0  -4  -5 0.05966 0.41331   3
   0   4   5 0.33051 0.29727   2
  -1  -4  -5 0.86716 0.57873   4
  -1  -4  -5 1.84956 0.58650   3
   1   4   5 1.07530 0.29310   2
  -2  -4  -5 21.3228 1.57056   4
  -2  -4  -5 25.3270 1.56978   3
   2   4   5 25.6207 0.96955   1
   2   4   5 24.3358 1.06416   2
  -3  -4  -5 0.56989 0.52404   2
  -3  -4  -5 1.20290 0.72812   3
  -3  -4  -5 0.02323 0.83731   4
  -4  -4  -5 73.3940 3.41890   3
  -4  -4  -5 73.3946 2.79153   2
  -5  -4  -5 0.88192 0.96033   3
  -5  -4  -5 2.41456 1.10867   2
   5   4   5 2.24105 1.19282   5
  -4   5   5 -0.1147 0.89453   2
   3  -5  -5 2.07046 0.93017   4
  -3   5   5 2.40275 0.96939   2
   2  -5  -5 1.16062 0.84545   4
  -2   5   5 0.59949 0.69811   2
   1  -5  -5 32.4901 1.84255   4
   1  -5  -5 34.4608 1.18604   1
  -1   5   5 34.2530 1.63042   2
   0  -5  -5 53.0380 2.29315   4
   0  -5  -5 53.6550 2.11373   3
  -1  -5  -5 195.012 5.70213   3
  -1  -5  -5 197.523 5.87789   4
   1   5   5 197.856 5.07632   2
  -2  -5  -5 141.984 4.73502   4
  -2  -5  -5 146.878 4.67959   3
   2   5   5 137.582 3.56955   1
   2   5   5 142.029 3.91230   2
   2   5   5 142.876 3.62544   1
  -3  -5  -5 73.8681 3.20633   3
  -3  -5  -5 70.9040 3.27207   4
  -4  -5  -5 0.53035 1.07533   4
  -4  -5  -5 1.72465 0.97782   3
  -5  -5  -5 -0.5706 0.84927   3
   5   5   5 0.48825 1.07426   5
   4  -6  -5 8.65014 1.67748   4
  -4   6   5 8.16680 1.63500   2
   3  -6  -5 6.86526 1.42102   4
  -3   6   5 6.37581 1.29420   2
   2  -6  -5 52.6540 2.62140   4
  -2   6   5 56.7257 2.59112   2
   1  -6  -5 8.75017 1.10958   3
   1  -6  -5 7.15001 1.16322   4
  -1   6   5 7.81616 1.04076   2
   0  -6  -5 178.341 5.22512   3
   0  -6  -5 171.068 5.52825   4
  -1  -6  -5 216.514 6.29660   3
  -1  -6  -5 212.227 6.56955   4
  -2  -6  -5 22.2596 1.92341   3
  -2  -6  -5 27.3317 2.07482   4
  -3  -6  -5 45.2649 2.62933   3
  -3  -6  -5 47.7594 2.67259   4
  -4  -6  -5 33.0326 2.52661   3
  -4  -6  -5 35.7239 2.95165   4
   3  -7  -5 1.32895 1.04819   4
  -3   7   5 5.01139 1.26759   2
   2  -7  -5 33.8855 1.96413   3
   2  -7  -5 37.2923 2.51705   4
  -2   7   5 35.3302 2.18654   2
   1  -7  -5 4.62347 0.92577   3
   1  -7  -5 2.32652 1.10751   4
  -1   7   5 3.83579 0.89948   2
   0  -7  -5 26.4552 1.94874   4
   0  -7  -5 27.4678 1.70445   3
  -1  -7  -5 71.8510 3.26551   4
  -1  -7  -5 68.9845 2.96156   3
  -2  -7  -5 10.3339 1.60772   4
  -2  -7  -5 14.7095 1.56497   3
  -3  -7  -5 45.7575 2.71691   3
  -3  -7  -5 47.4704 2.93369   4
  -4  -7  -5 10.5283 1.73650   3
  -4  -7  -5 15.9379 2.14614   4
   2  -8  -5 1.38153 1.25654   4
  -2   8   5 0.04160 0.90086   2
   1  -8  -5 6.83784 1.50264   4
   1  -8  -5 7.22222 1.16254   3
  -1   8   5 9.04180 1.21433   2
   0  -8  -5 3.05104 1.14796   4
   0  -8  -5 1.20402 0.80553   3
  -1  -8  -5 19.8347 2.21259   4
  -1  -8  -5 15.6944 1.54813   3
  -2  -8  -5 5.25909 1.36590   4
  -2  -8  -5 5.09827 1.22309   3
  -3  -8  -5 -0.0451 0.97653   3
  -3  -8  -5 1.70910 1.20031   4
  -1  -8   6 13.0340 1.81853   4
   0  -8   6 9.77748 1.51672   4
   1  -8   6 50.5864 2.85346   4
  -3  -7   6 18.5354 2.01090   4
  -2  -7   6 -0.2341 0.89927   4
   1   7  -6 26.5494 1.46801   1
  -1  -7   6 29.0603 2.02031   4
   0   7  -6 0.45124 0.55980   1
   0  -7   6 1.35835 0.91316   4
  -1   7  -6 25.8526 1.69471   1
   1  -7   6 25.5225 2.01467   4
   2  -7   6 3.58531 1.25175   4
  -3   7  -6 6.78913 1.61956   2
   3  -7   6 12.0086 1.85179   4
   4   6  -6 8.15654 1.14885   1
  -4  -6   6 11.3245 1.65656   4
   3   6  -6 10.2729 1.59669   5
   3   6  -6 8.87368 1.05697   1
  -3  -6   6 8.95965 1.38828   4
   2   6  -6 0.38754 0.50342   1
  -2  -6   6 1.51262 0.86111   4
   1   6  -6 78.8710 2.70243   1
  -1  -6   6 80.5088 3.20135   4
   0   6  -6 17.0960 1.35059   1
   0  -6   6 15.9942 1.55128   4
  -1   6  -6 4.98205 0.88812   1
   1  -6   6 2.31375 0.90644   4
  -2   6  -6 -0.3013 0.65320   1
   2  -6   6 -0.2458 0.75665   4
  -3   6  -6 8.36246 1.62702   2
   3  -6   6 7.19248 1.35634   4
  -4   6  -6 19.3521 2.32310   2
   4   5  -6 66.9707 3.01046   5
   3   5  -6 15.0322 1.41237   5
   3   5  -6 13.2389 1.20474   1
  -3  -5   6 15.4317 1.55741   4
   2   5  -6 41.1081 1.78474   1
  -2  -5   6 39.4973 2.05991   4
   1   5  -6 5.11954 0.74027   1
   1   5  -6 3.73955 0.45523   3
  -1  -5   6 5.44568 0.96452   4
   0   5  -6 6.37360 0.78093   1
   0  -5   6 6.35644 0.94739   4
  -1   5  -6 55.4390 2.26164   1
   1  -5   6 59.8699 2.46389   4
  -2   5  -6 7.48922 1.12136   1
   2  -5   6 7.69594 1.20759   4
  -3   5  -6 51.8722 2.80461   2
  -4   5  -6 5.93135 1.52827   2
   5   4  -6 1.34747 1.02418   5
   5   4  -6 0.59527 0.89647   1
   4   4  -6 47.7063 2.33272   1
   4   4  -6 48.7619 2.44763   5
   3   4  -6 16.1081 1.20809   1
   3   4  -6 15.5843 1.35752   5
  -3  -4   6 14.6723 1.44243   4
   2   4  -6 33.3639 1.51556   1
  -2  -4   6 32.7880 1.67018   4
   1   4  -6 2.39494 0.54097   1
   1   4  -6 3.15658 0.40118   3
  -1  -4   6 5.00361 0.77570   4
   0   4  -6 67.4389 2.28579   1
   0  -4   6 70.9768 2.44445   4
  -1   4  -6 41.3310 1.76718   1
  -1   4  -6 43.6183 1.68820   5
   1  -4   6 45.6580 1.90801   4
  -2   4  -6 19.2246 1.34743   1
   2  -4   6 20.4237 0.96756   3
  -3   4  -6 51.6952 2.70453   2
  -4   4  -6 8.82865 1.50593   2
  -5   4  -6 25.4815 2.52466   2
   5   3  -6 3.70307 1.18150   5
   5   3  -6 3.53375 1.06975   1
  -5  -3   6 4.71525 1.40588   2
   4   3  -6 61.9372 2.62451   1
   4   3  -6 60.1549 2.68329   5
  -4  -3   6 59.7835 2.79306   2
   3   3  -6 65.4941 2.51612   5
   3   3  -6 65.7447 2.48526   1
   2   3  -6 129.977 3.78560   1
   2   3  -6 132.764 3.70438   5
  -2  -3   6 122.511 3.77211   4
   1   3  -6 40.3958 1.44679   4
   1   3  -6 36.5454 1.32292   3
   1   3  -6 37.8894 1.49928   1
  -1  -3   6 36.3207 1.48277   4
   0   3  -6 58.6467 1.97423   1
   0  -3   6 60.4470 1.98952   4
  -1   3  -6 3.36603 0.62925   1
  -1   3  -6 3.69896 0.54327   5
  -2   3  -6 12.2771 1.14654   1
   2  -3   6 13.7659 0.83766   3
  -3   3  -6 98.5578 3.68950   2
  -4   3  -6 2.56531 1.03658   2
   4  -3   6 1.28796 0.89330   5
  -5   3  -6 17.8431 2.16964   2
   5  -3   6 14.7336 1.93639   5
   5   2  -6 11.5132 1.57371   5
  -5  -2   6 14.7496 1.81344   2
   4   2  -6 191.737 5.85710   5
   4   2  -6 187.993 5.78700   1
  -4  -2   6 191.703 5.95128   2
   3   2  -6 46.2562 1.99788   1
   3   2  -6 47.3940 2.00124   5
  -3  -2   6 47.5906 2.14794   2
   2   2  -6 137.577 3.88874   1
   2   2  -6 134.776 3.72357   4
   2   2  -6 135.053 3.76929   5
  -2  -2   6 127.717 3.98067   2
   1   2  -6 84.1494 2.31321   4
   1   2  -6 83.1025 2.21741   5
   1   2  -6 78.6147 2.45790   1
   1   2  -6 85.0114 2.43629   3
  -1  -2   6 78.7318 2.32581   4
   0   2  -6 457.961 11.1309   1
   0   2  -6 454.982 10.7094   5
   0  -2   6 455.893 11.0951   1
   0  -2   6 444.102 10.9611   4
  -1   2  -6 2.12302 0.41048   5
  -1   2  -6 1.93568 0.48977   1
   1  -2   6 1.64581 0.24939   3
  -2   2  -6 52.1488 2.07838   1
   2  -2   6 55.4466 1.86673   3
   2  -2   6 53.9943 1.98531   5
  -3   2  -6 -0.5489 0.63617   2
   3  -2   6 -0.3357 0.61626   5
  -4   2  -6 18.3878 1.81891   2
   4  -2   6 18.7452 1.78830   5
  -5   2  -6 18.7907 2.13711   2
   5  -2   6 17.0341 1.95665   5
   6   1  -6 16.6570 2.16494   5
  -6  -1   6 14.4410 2.08189   2
   5   1  -6 0.06637 0.89005   5
  -5  -1   6 -1.4604 0.92139   2
   4   1  -6 101.415 3.67530   5
  -4  -1   6 98.9840 3.73566   2
   3   1  -6 42.4083 1.88115   5
  -3  -1   6 38.2153 1.90678   2
   2   1  -6 6.93983 0.69608   5
   2   1  -6 8.33775 0.71825   4
   2   1  -6 7.24169 0.79187   1
  -2  -1   6 8.60556 0.90285   2
  -2  -1   6 7.36455 0.74601   5
   1   1  -6 47.2570 1.34196   4
   1   1  -6 48.8073 1.72595   2
   1   1  -6 45.1096 1.36751   5
   1   1  -6 46.7112 1.59136   1
  -1  -1   6 45.3342 1.60370   1
  -1  -1   6 47.3986 1.38775   5
   0   1  -6 8.35834 0.59819   1
   0  -1   6 9.46677 0.43092   4
   0  -1   6 9.01028 0.58720   1
  -1   1  -6 0.69437 0.36969   1
  -1   1  -6 0.34763 0.29616   3
   1  -1   6 0.21814 0.28409   1
   1  -1   6 0.39885 0.29180   5
   1  -1   6 0.54280 0.24820   3
  -2   1  -6 333.235 8.37686   3
  -2   1  -6 327.313 8.44778   1
   2  -1   6 316.276 8.37978   5
   2  -1   6 325.863 8.28140   3
  -3   1  -6 56.4264 2.38587   2
  -3   1  -6 60.3116 2.41004   3
   3  -1   6 57.1143 2.36887   5
  -4   1  -6 39.2437 2.21521   2
   4  -1   6 41.2484 2.26531   5
  -5   1  -6 19.3686 2.03827   2
   5  -1   6 16.1036 1.95246   5
  -6   1  -6 5.75327 1.66883   2
   6  -1   6 7.04142 1.65599   5
   6   0  -6 4.70512 1.51186   5
  -6   0   6 4.13577 1.63232   2
   5   0  -6 -0.9022 0.93826   5
  -5   0   6 1.69418 1.17642   2
   4   0  -6 23.4423 1.69180   5
  -4   0   6 22.5686 1.96298   2
   3   0  -6 61.7496 2.34394   5
  -3   0   6 56.3877 2.41007   2
   2   0  -6 0.58173 0.39677   5
  -2   0   6 0.61823 0.48889   2
  -2   0   6 -0.4644 0.38068   5
   1   0  -6 115.738 3.27169   2
   1   0  -6 110.457 3.19211   1
  -1   0   6 121.933 3.11467   5
  -1   0   6 117.254 3.26026   2
   0   0   6 3.53862 0.24124   4
   0   0   6 3.30903 0.40389   1
  -1   0  -6 196.318 4.96836   3
  -1   0  -6 189.742 4.93834   1
   1   0   6 191.778 4.90004   1
   1   0   6 187.789 4.89709   3
  -2   0  -6 759.320 18.4879   2
  -2   0  -6 737.217 18.5062   1
  -2   0  -6 763.975 18.6035   3
   2   0   6 737.925 18.4960   3
   2   0   6 806.569 18.6140   5
  -3   0  -6 69.1218 2.65816   3
  -3   0  -6 63.6507 2.47059   2
   3   0   6 61.3225 2.53064   5
  -4   0  -6 139.438 4.48541   2
  -4   0  -6 127.627 4.55541   3
   4   0   6 126.857 4.50207   5
  -5   0  -6 50.3174 2.80977   2
   5   0   6 54.3747 2.91403   5
  -6   0  -6 -0.6479 1.00845   2
   6   0   6 -1.3879 1.02849   5
  -6   1   6 7.11674 1.79720   2
   5  -1  -6 12.0218 1.74883   5
  -5   1   6 11.5840 1.69809   2
   4  -1  -6 18.3517 1.76785   5
  -4   1   6 17.3765 1.78277   2
  -3   1   6 19.9090 1.48158   2
  -2   1   6 492.469 12.3737   2
   1  -1  -6 0.35488 0.32903   1
   1  -1  -6 0.63327 0.38878   2
  -1   1   6 -0.0719 0.34792   2
   0  -1  -6 397.234 9.71936   1
   0  -1  -6 403.763 9.68115   2
   0  -1  -6 400.052 9.73840   4
   0   1   6 410.820 9.73093   4
   0   1   6 410.944 9.73308   1
  -1  -1  -6 205.699 5.31951   1
  -1  -1  -6 212.017 5.46353   4
  -1  -1  -6 216.059 5.55376   3
   1   1   6 211.946 5.47392   3
   1   1   6 212.146 5.42005   4
   1   1   6 211.839 5.28953   1
  -2  -1  -6 188.185 5.30562   3
  -2  -1  -6 183.802 4.96635   2
   2   1   6 193.592 5.02364   1
  -3  -1  -6 54.9219 2.43977   3
  -3  -1  -6 55.1340 2.16479   2
   3   1   6 56.5057 2.37146   5
  -4  -1  -6 29.4914 1.85770   2
  -4  -1  -6 30.6180 1.99902   3
   4   1   6 27.9589 1.93107   5
  -5  -1  -6 8.86002 1.60262   3
  -5  -1  -6 7.06229 1.36351   2
   5   1   6 7.24397 1.41588   5
  -6  -1  -6 1.42455 1.20926   2
   6   1   6 1.50851 1.13804   5
  -5   2   6 10.5095 1.79629   2
  -4   2   6 15.0323 1.77109   2
  -3   2   6 12.2922 1.32148   2
  -2   2   6 76.6118 2.65696   2
   1  -2  -6 -0.0524 0.34669   2
   1  -2  -6 0.45018 0.38004   4
  -1   2   6 0.55174 0.37723   2
   0  -2  -6 85.9515 2.55581   4
   0  -2  -6 87.2604 2.25775   2
   0  -2  -6 85.8534 2.25708   1
   0  -2  -6 87.9215 2.63316   3
   0   2   6 91.3358 2.28303   1
   0   2   6 87.0116 2.53484   4
   0   2   6 87.7014 2.25106   2
  -1  -2  -6 63.9301 2.15194   4
  -1  -2  -6 63.4282 1.80381   1
  -1  -2  -6 63.7292 2.15549   3
   1   2   6 63.0279 2.07307   3
   1   2   6 66.1235 2.09614   4
   1   2   6 62.1331 1.74428   1
  -2  -2  -6 -0.6227 0.47486   4
  -2  -2  -6 0.19420 0.46276   3
  -2  -2  -6 -0.1021 0.31028   2
   2   2   6 0.10435 0.26311   2
   2   2   6 -0.3984 0.25778   1
  -3  -2  -6 81.1542 2.67743   2
  -3  -2  -6 76.2895 3.04910   3
  -4  -2  -6 10.2104 1.44174   3
  -4  -2  -6 9.95705 1.26439   2
   4   2   6 10.7825 1.48671   5
  -5  -2  -6 1.04366 0.98547   2
  -5  -2  -6 0.97613 0.98539   3
   5   2   6 2.86907 1.20310   5
  -6  -2  -6 0.00494 1.16787   2
   6   2   6 0.84368 1.24689   5
  -5   3   6 1.20187 1.12699   2
  -4   3   6 7.97481 1.35364   2
  -3   3   6 14.3204 1.48948   2
  -2   3   6 15.7137 1.31977   2
   1  -3  -6 22.9248 1.22996   4
  -1   3   6 24.4861 1.16567   2
   0  -3  -6 23.1027 1.14310   3
   0  -3  -6 20.5099 1.16607   4
   0  -3  -6 21.6373 0.65396   1
   0   3   6 22.8256 0.83906   2
  -1  -3  -6 362.195 9.26719   4
  -1  -3  -6 356.080 9.27202   3
   1   3   6 363.605 8.56795   1
  -2  -3  -6 37.4892 1.85726   4
  -2  -3  -6 38.8630 1.86272   3
  -2  -3  -6 36.0059 1.23944   2
   2   3   6 37.6382 1.26744   2
   2   3   6 37.2025 1.30728   1
  -3  -3  -6 59.3500 2.70538   4
  -3  -3  -6 61.5646 2.14834   2
  -3  -3  -6 65.0318 2.77079   3
   3   3   6 62.4356 2.32138   2
  -4  -3  -6 83.4118 3.55577   3
  -4  -3  -6 77.7704 2.90577   2
   4   3   6 75.9227 3.34340   5
  -5  -3  -6 3.82038 1.26094   3
  -5  -3  -6 3.65663 1.07776   2
   5   3   6 2.67584 1.18334   5
  -6  -3  -6 4.83099 1.37801   2
  -6  -3  -6 6.32229 1.57424   3
   6   3   6 7.47565 1.71350   5
  -5   4   6 18.0737 2.15121   2
  -4   4   6 1.56963 0.98557   2
  -3   4   6 9.46002 1.36737   2
   2  -4  -6 61.5954 2.47694   4
  -2   4   6 65.1459 2.53074   2
   1  -4  -6 1.61400 0.63062   4
  -1   4   6 2.45918 0.54827   2
   0  -4  -6 17.3408 1.16092   4
   0  -4  -6 16.6429 1.05220   3
   0   4   6 17.0662 0.83048   2
  -1  -4  -6 130.790 4.09475   4
  -1  -4  -6 133.416 4.02891   3
   1   4   6 129.839 3.31985   2
  -2  -4  -6 7.72726 1.10710   4
  -2  -4  -6 8.05618 1.10757   3
   2   4   6 7.98066 0.60342   2
   2   4   6 7.54706 0.52005   1
  -3  -4  -6 278.040 7.96045   3
  -3  -4  -6 264.626 7.78890   4
  -3  -4  -6 271.605 6.94407   2
   3   4   6 262.349 7.22225   2
  -4  -4  -6 47.4109 2.68539   3
  -4  -4  -6 43.2740 2.02797   2
  -5  -4  -6 7.11113 1.27026   2
  -5  -4  -6 5.05030 1.41762   3
   5   4   6 5.45630 1.47634   5
  -4   5   6 14.9632 1.92231   2
   3  -5  -6 6.02267 1.15008   4
  -3   5   6 8.49557 1.36137   2
   2  -5  -6 13.5557 1.45003   4
  -2   5   6 10.0792 1.16726   2
   1  -5  -6 1.53227 0.75488   4
   1  -5  -6 1.00917 0.28034   1
  -1   5   6 1.05697 0.53750   2
   0  -5  -6 1.54777 0.65220   4
   0  -5  -6 0.98793 0.49643   3
   0   5   6 1.16229 0.40451   2
  -1  -5  -6 5.46713 1.00939   4
  -1  -5  -6 5.74088 0.92558   3
   1   5   6 4.95926 0.50488   2
  -2  -5  -6 11.2484 1.34699   4
  -2  -5  -6 14.0065 1.47817   3
   2   5   6 11.4536 0.52046   1
   2   5   6 10.9317 0.52195   1
   2   5   6 11.2509 0.75991   2
  -3  -5  -6 1.89970 0.96564   4
  -3  -5  -6 2.76214 0.98209   3
  -4  -5  -6 10.3057 1.75210   4
  -4  -5  -6 5.25456 1.21911   3
  -5  -5  -6 21.9523 2.53500   3
   5   5   6 19.7975 2.29837   5
   4  -6  -6 38.5340 2.79275   4
  -4   6   6 42.8878 2.88595   2
   3  -6  -6 85.8236 3.74634   4
  -3   6   6 86.0855 3.67753   2
   2  -6  -6 14.8837 1.61551   4
  -2   6   6 21.0894 1.64991   2
   1  -6  -6 8.03812 1.07333   3
   1  -6  -6 10.3213 1.36343   4
  -1   6   6 7.74213 1.00717   2
   0  -6  -6 54.3647 2.60041   4
   0  -6  -6 52.8292 2.33052   3
   0   6   6 54.3703 2.01596   2
  -1  -6  -6 10.3338 1.36276   4
  -1  -6  -6 8.81197 1.15817   3
  -2  -6  -6 40.0675 2.22139   3
  -2  -6  -6 38.6413 2.32603   4
  -3  -6  -6 8.28943 1.44824   3
  -3  -6  -6 6.64736 1.31964   4
  -4  -6  -6 -0.4457 0.85581   3
  -4  -6  -6 0.06961 1.23019   4
   3  -7  -6 1.84264 1.13847   4
  -3   7   6 1.63490 0.97571   2
   2  -7  -6 80.2939 3.53071   4
  -2   7   6 74.5159 3.19023   2
   1  -7  -6 6.87296 1.06340   3
   1  -7  -6 3.91871 1.12127   4
  -1   7   6 5.81945 0.99568   2
   0  -7  -6 29.6295 2.14418   4
   0  -7  -6 31.8423 1.86225   3
   0   7   6 28.6320 1.55656   2
  -1  -7  -6 0.18007 0.94875   4
  -1  -7  -6 0.31992 0.67716   3
  -2  -7  -6 0.77993 0.76174   3
  -2  -7  -6 -0.7721 0.92406   4
  -3  -7  -6 1.36521 0.97157   3
  -3  -7  -6 0.28508 1.08078   4
  -4  -7  -6 3.33284 1.40293   3
  -4  -7  -6 3.94759 1.57630   4
   2  -8  -6 31.0145 2.43386   4
   2  -8  -6 25.1980 2.78444   3
  -2   8   6 28.2814 2.04252   2
   1  -8  -6 2.13020 1.10191   4
   1  -8  -6 2.77563 0.94326   3
   0  -8  -6 22.3996 2.32397   4
   0  -8  -6 23.2177 1.75447   3
  -1  -8  -6 34.4752 2.16860   3
  -1  -8  -6 34.4706 2.62511   4
  -2  -8  -6 7.65262 1.35199   3
  -2  -8  -6 6.01918 1.54701   4
  -3  -8  -6 0.23750 0.93494   3
  -3  -8  -6 2.23116 1.31461   4
  -1  -8   7 0.33860 1.00037   4
   0  -8   7 2.37045 1.04872   4
  -3  -7   7 12.5483 1.69904   4
   2   7  -7 0.94045 0.62639   1
  -2  -7   7 0.50064 0.91752   4
   1   7  -7 2.94864 0.67815   1
  -1  -7   7 1.66446 0.92645   4
   0   7  -7 0.22834 0.57680   1
   0  -7   7 -1.0721 0.73253   4
  -1   7  -7 0.61841 0.66493   1
   1  -7   7 0.36206 0.89522   4
  -2   7  -7 4.71526 1.07661   1
   2  -7   7 3.61109 1.17421   4
   4   6  -7 19.5329 1.73639   1
   3   6  -7 26.4846 1.63011   1
  -3  -6   7 24.1380 1.91195   4
   2   6  -7 0.50985 0.56223   1
  -2  -6   7 2.29673 0.89085   4
   1   6  -7 66.0428 2.42900   1
  -1  -6   7 61.3044 2.72885   4
   0   6  -7 7.80533 0.99010   1
   0  -6   7 7.00868 1.09280   4
  -1   6  -7 6.63123 1.00699   1
   1  -6   7 6.37053 1.17859   4
  -2   6  -7 8.70527 1.29843   1
   2  -6   7 9.07121 1.37369   4
  -3   6  -7 0.55480 1.08742   2
   3  -6   7 3.15805 1.18657   4
   4   5  -7 14.4969 1.47754   1
   4   5  -7 15.8247 1.62707   5
   3   5  -7 78.5981 2.94634   1
   3   5  -7 78.2657 2.95060   5
  -3  -5   7 86.2097 3.26216   4
   2   5  -7 1.68870 0.62164   1
  -2  -5   7 0.34741 0.65722   4
   1   5  -7 310.761 8.29959   1
  -1  -5   7 324.448 8.56161   4
   0   5  -7 16.3810 1.15380   1
   0  -5   7 18.8649 1.49256   4
  -1   5  -7 114.975 3.68641   1
   1  -5   7 108.510 3.71547   4
  -2   5  -7 73.8463 2.91765   1
   2  -5   7 74.6065 2.99580   4
  -3   5  -7 45.3447 2.63226   2
  -4   5  -7 5.11351 1.41383   2
   5   4  -7 30.8211 2.16441   5
   4   4  -7 19.1698 1.73081   1
   4   4  -7 20.1360 1.76774   5
   3   4  -7 8.44504 1.01978   1
   3   4  -7 9.18519 1.10978   5
  -3  -4   7 8.46034 1.17132   4
   2   4  -7 159.762 4.61935   1
   2   4  -7 157.190 4.46507   5
  -2  -4   7 162.257 4.71104   4
   1   4  -7 3.34789 0.39938   3
   1   4  -7 3.78133 0.61544   1
  -1  -4   7 3.75357 0.69824   4
   0   4  -7 61.8492 2.17099   1
   0  -4   7 57.9833 2.15397   4
  -1   4  -7 52.5893 2.08809   1
  -1   4  -7 50.9988 1.86450   5
   1  -4   7 51.9041 2.09589   4
  -2   4  -7 29.4368 1.65476   1
   2  -4   7 28.4249 1.10629   3
  -3   4  -7 55.2596 2.74920   2
  -4   4  -7 21.6906 2.18077   2
  -5   4  -7 -0.7835 1.03875   2
   5   3  -7 2.24999 0.97957   1
   5   3  -7 3.21329 1.07746   5
  -5  -3   7 3.90373 1.46799   2
   4   3  -7 2.52486 0.92133   5
   4   3  -7 4.60378 0.97238   1
  -4  -3   7 6.63437 1.34130   2
   3   3  -7 35.5282 1.83371   1
   3   3  -7 36.4326 1.76317   5
   2   3  -7 22.2331 1.30032   1
   2   3  -7 21.7056 1.11795   5
  -2  -3   7 23.3842 1.24963   4
   1   3  -7 6.60661 0.64215   4
   1   3  -7 4.84512 0.52329   3
   1   3  -7 6.40149 0.73191   1
  -1  -3   7 5.45882 0.64033   4
   0   3  -7 7.93121 0.78613   1
   0   3  -7 7.66312 0.46085   5
   0  -3   7 7.42608 0.72492   4
  -1   3  -7 13.1437 1.08471   1
  -1   3  -7 13.2165 0.80044   5
  -2   3  -7 87.8703 3.08995   1
   2  -3   7 91.6718 2.63646   3
  -3   3  -7 186.767 6.04310   2
   3  -3   7 206.730 5.87034   5
  -4   3  -7 30.8066 2.26183   2
   4  -3   7 25.5404 1.89005   5
  -5   3  -7 28.4740 2.73328   2
   5  -3   7 26.5573 2.54742   5
   5   2  -7 0.24859 0.86247   5
   5   2  -7 -0.3382 0.94520   1
  -5  -2   7 0.52289 1.20871   2
   4   2  -7 22.1456 1.69958   5
   4   2  -7 22.1223 1.60983   1
  -4  -2   7 23.3923 1.81118   2
   3   2  -7 15.8012 1.22966   5
   3   2  -7 18.1098 1.33331   1
  -3  -2   7 19.4752 1.45849   2
   2   2  -7 18.6160 1.12879   1
   2   2  -7 22.6030 1.05302   4
   2   2  -7 21.9006 1.07706   5
   1   2  -7 11.8129 0.63834   4
   1   2  -7 11.3887 0.73722   3
   1   2  -7 11.1216 0.52455   5
   1   2  -7 11.0778 0.79677   1
  -1  -2   7 10.7984 0.65922   4
   0   2  -7 21.2128 0.63912   3
   0   2  -7 20.9185 1.03761   1
   0  -2   7 21.9791 0.90340   4
  -1   2  -7 174.959 4.64819   5
  -1   2  -7 187.759 4.95072   1
   1  -2   7 179.058 4.42436   3
  -2   2  -7 112.005 3.54396   1
   2  -2   7 110.511 3.18009   3
   2  -2   7 110.176 3.34055   5
  -3   2  -7 61.7488 2.68474   2
   3  -2   7 66.3961 2.58342   5
  -4   2  -7 143.732 5.04715   2
   4  -2   7 142.815 4.82610   5
  -5   2  -7 1.76039 1.06067   2
   5  -2   7 0.15655 0.81388   5
   6   1  -7 7.57023 1.63298   5
  -6  -1   7 8.98943 1.90260   2
   5   1  -7 -0.4264 0.84718   5
  -5  -1   7 1.01208 1.09519   2
   4   1  -7 11.2834 1.33425   5
  -4  -1   7 8.82804 1.31167   2
   3   1  -7 0.11231 0.57556   5
   3   1  -7 0.17084 0.49500   1
  -3  -1   7 -0.6318 0.52787   2
   2   1  -7 40.3180 1.43232   4
   2   1  -7 41.2934 1.51630   5
   2   1  -7 38.2179 1.61391   1
  -2  -1   7 38.6056 1.70309   2
  -2  -1   7 38.0526 1.49629   5
   1   1  -7 380.495 9.03511   4
   1   1  -7 371.471 9.41411   1
  -1  -1   7 383.200 9.11933   5
   0   1  -7 162.284 4.13804   1
   0  -1   7 153.074 3.78521   4
   0  -1   7 148.607 4.09749   1
  -1   1  -7 138.825 3.85218   1
  -1   1  -7 138.248 3.65554   3
   1  -1   7 140.512 3.59259   3
   1  -1   7 136.500 3.65835   5
  -2   1  -7 28.1508 1.45047   1
  -2   1  -7 30.1188 1.38657   3
   2  -1   7 28.1210 1.34218   5
   2  -1   7 30.2457 1.30296   3
  -3   1  -7 58.8411 2.44914   2
  -3   1  -7 60.0599 2.44555   3
   3  -1   7 58.2385 2.41063   5
  -4   1  -7 1.34819 0.86188   2
   4  -1   7 -0.2678 0.74707   5
  -5   1  -7 14.8236 1.74996   2
   5  -1   7 18.0642 1.99620   5
  -6   1  -7 5.25305 1.59073   2
   6  -1   7 3.37694 1.48259   5
   6   0  -7 8.76488 1.87346   5
  -6   0   7 4.45008 1.51146   2
   5   0  -7 2.29899 1.04575   5
  -5   0   7 1.61121 1.15426   2
   4   0  -7 1.86976 0.85305   5
  -4   0   7 4.19935 1.02522   2
   3   0  -7 27.0463 1.47141   5
  -3   0   7 27.1312 1.62912   2
   2   0  -7 55.2345 2.02444   1
  -2   0   7 58.1005 2.00306   5
  -2   0   7 57.4684 2.13044   2
   1   0  -7 49.4128 1.66441   1
   1   0  -7 46.6748 1.71181   2
  -1   0   7 50.1271 1.69385   1
  -1   0   7 49.5387 1.72959   2
  -1   0   7 47.1948 1.51860   5
   0   0  -7 159.722 4.19357   1
   0   0   7 161.578 4.18498   1
   0   0   7 162.786 3.88721   4
  -1   0  -7 18.6654 0.91062   1
  -1   0  -7 20.4953 0.94811   3
   1   0   7 20.2894 0.88094   1
   1   0   7 18.2294 0.85285   3
   1   0   7 19.0107 0.90820   4
  -2   0  -7 77.5906 2.50524   1
  -2   0  -7 69.0745 2.38436   2
  -2   0  -7 76.1636 2.56126   3
   2   0   7 75.6795 2.52007   5
   2   0   7 73.6919 2.60817   3
  -3   0  -7 0.32029 0.62381   3
  -3   0  -7 0.07703 0.60158   2
   3   0   7 -0.1564 0.57170   5
  -4   0  -7 29.2678 2.02549   3
  -4   0  -7 27.7654 1.80295   2
   4   0   7 27.6565 1.90826   5
  -5   0  -7 6.72090 1.31799   2
   5   0   7 7.23819 1.44130   5
  -6   0  -7 23.4381 2.46312   2
   6   0   7 22.8419 2.46945   5
  -6   1   7 7.24161 1.70510   2
  -5   1   7 47.9269 2.94696   2
  -4   1   7 8.81314 1.38393   2
  -3   1   7 77.7351 2.97425   2
  -2   1   7 136.735 4.06561   2
   1  -1  -7 12.0520 0.76340   1
   1  -1  -7 12.7078 0.83368   2
  -1   1   7 14.2746 0.85094   2
   0  -1  -7 3.39182 0.39562   4
   0  -1  -7 3.51221 0.40850   1
   0  -1  -7 3.76180 0.39182   2
   0   1   7 3.52467 0.38579   4
   0   1   7 3.80535 0.40583   1
  -1  -1  -7 28.4939 1.20004   4
  -1  -1  -7 26.2606 1.04016   1
  -1  -1  -7 29.1975 1.25704   3
   1   1   7 26.6324 1.00146   1
   1   1   7 29.7451 1.20363   3
   1   1   7 30.0437 1.15003   4
  -2  -1  -7 1.84936 0.47469   1
  -2  -1  -7 2.42577 0.66249   3
  -2  -1  -7 2.40090 0.51033   2
  -3  -1  -7 100.913 3.58651   3
  -3  -1  -7 104.631 3.31872   2
   3   1   7 101.511 3.53482   5
  -4  -1  -7 90.3237 3.41310   2
  -4  -1  -7 92.9147 3.70457   3
   4   1   7 93.0650 3.66601   5
  -5  -1  -7 31.1267 2.72377   3
  -5  -1  -7 28.4212 2.14727   2
   5   1   7 31.2082 2.29176   5
  -6  -1  -7 39.2633 2.76891   2
   6   1   7 42.8563 2.89986   5
  -5   2   7 96.3150 4.24548   2
  -4   2   7 41.1104 2.39861   2
  -3   2   7 10.8953 1.26565   2
  -2   2   7 2.13015 0.63484   2
   1  -2  -7 12.8906 0.83151   2
   1  -2  -7 14.6732 0.84968   4
   1  -2  -7 14.3060 0.76871   1
  -1   2   7 13.3477 0.84703   2
   0  -2  -7 3.86745 0.35758   1
   0  -2  -7 4.83690 0.63316   3
   0  -2  -7 3.18962 0.49878   4
   0  -2  -7 3.31604 0.34144   2
   0   2   7 3.70412 0.50959   4
   0   2   7 3.71802 0.32353   2
   0   2   7 3.81923 0.37008   1
  -1  -2  -7 122.217 3.64760   3
  -1  -2  -7 126.654 3.28475   1
  -1  -2  -7 127.657 3.59700   4
   1   2   7 124.860 3.21556   1
   1   2   7 123.585 3.52490   4
  -2  -2  -7 2.77775 0.69135   4
  -2  -2  -7 1.76638 0.58259   3
  -2  -2  -7 2.77663 0.44936   2
   2   2   7 2.00049 0.39557   1
  -3  -2  -7 1.99895 0.74605   3
  -3  -2  -7 2.87127 0.63537   2
  -4  -2  -7 176.183 5.30130   2
  -4  -2  -7 165.419 5.77793   3
   4   2   7 184.287 5.77905   5
  -5  -2  -7 53.5542 3.02420   3
  -5  -2  -7 49.8530 2.65219   2
   5   2   7 54.7724 2.99341   5
  -6  -2  -7 15.0207 1.98121   2
   6   2   7 17.7426 2.28695   5
  -5   3   7 66.1267 3.47375   2
  -4   3   7 18.7970 2.00583   2
  -3   3   7 92.3127 3.50571   2
  -2   3   7 53.0622 2.13117   2
   1  -3  -7 46.9861 1.66554   2
   1  -3  -7 43.9530 1.75085   4
  -1   3   7 43.6773 1.64487   2
   0  -3  -7 142.264 4.14416   3
   0  -3  -7 144.137 4.14437   4
   0  -3  -7 142.320 3.56684   1
   0   3   7 151.362 3.69012   2
  -1  -3  -7 553.232 13.5798   4
  -1  -3  -7 531.853 13.5922   3
   1   3   7 547.324 12.8835   1
  -2  -3  -7 10.5549 1.18950   3
  -2  -3  -7 10.9788 1.21096   4
  -2  -3  -7 8.34939 0.56883   2
   2   3   7 8.01929 0.57635   1
   2   3   7 8.45791 0.52505   2
  -3  -3  -7 29.1828 1.35161   2
  -3  -3  -7 28.0644 1.81089   3
  -3  -3  -7 28.9825 1.83983   4
   3   3   7 27.4862 1.28102   2
  -4  -3  -7 239.757 6.68530   2
  -4  -3  -7 239.631 7.52968   3
  -5  -3  -7 7.60276 1.31787   2
  -5  -3  -7 6.58555 1.40970   3
   5   3   7 5.16829 1.43590   5
  -6  -3  -7 6.63778 1.60264   3
  -6  -3  -7 7.52449 1.54042   2
   6   3   7 9.33935 1.88556   5
  -5   4   7 20.3346 2.34668   2
  -4   4   7 11.1982 1.58719   2
  -3   4   7 82.3035 3.33481   2
   2  -4  -7 6.65409 1.03196   4
  -2   4   7 6.17938 0.97074   2
   1  -4  -7 531.480 13.4386   4
  -1   4   7 533.300 13.2027   2
   0  -4  -7 76.9133 2.67547   3
   0  -4  -7 76.9504 2.71929   4
   0   4   7 78.0486 2.22144   2
  -1  -4  -7 273.864 7.37630   4
  -1  -4  -7 265.332 7.30108   3
   1   4   7 265.938 6.40048   2
  -2  -4  -7 1.13400 0.71447   4
  -2  -4  -7 1.74382 0.71845   3
   2   4   7 0.98748 0.28809   2
   2   4   7 1.02885 0.27590   1
  -3  -4  -7 80.6766 2.45332   2
  -3  -4  -7 76.0615 3.23839   3
  -3  -4  -7 73.4141 3.15028   4
   3   4   7 76.5979 2.46625   2
  -4  -4  -7 19.8467 1.45038   2
  -4  -4  -7 26.5685 2.41409   3
  -5  -4  -7 -0.6964 0.96006   3
  -5  -4  -7 -0.4066 0.86496   2
   5   4   7 -1.0958 0.89155   5
  -4   5   7 1.74837 1.05045   2
   3  -5  -7 23.4136 1.79705   4
  -3   5   7 22.4770 2.03658   2
   2  -5  -7 175.870 5.45624   4
  -2   5   7 175.713 5.34530   2
   1  -5  -7 54.3128 1.69637   1
   1  -5  -7 58.1908 2.47130   4
  -1   5   7 54.7326 2.12853   2
   0  -5  -7 3.47634 0.74251   3
   0  -5  -7 4.55123 0.88048   4
   0   5   7 4.03467 0.56041   2
  -1  -5  -7 143.712 4.66274   4
  -1  -5  -7 147.454 4.52784   3
   1   5   7 141.258 3.68095   2
  -2  -5  -7 8.79504 1.19727   3
  -2  -5  -7 10.8333 1.42964   4
   2   5   7 10.7473 0.48302   1
   2   5   7 10.5450 0.45621   1
   2   5   7 11.6298 0.68169   2
  -3  -5  -7 46.2810 2.57779   3
  -3  -5  -7 45.3007 2.52898   4
  -4  -5  -7 13.7502 1.91832   4
  -4  -5  -7 15.9769 2.03781   3
  -5  -5  -7 3.35648 1.35125   3
   5   5   7 1.44660 1.37539   5
   4  -6  -7 5.75747 1.57523   4
  -4   6   7 4.35812 1.28916   2
   3  -6  -7 23.3402 2.10627   4
  -3   6   7 26.0332 2.21220   2
   2  -6  -7 19.4261 1.84802   4
  -2   6   7 22.1262 1.61952   2
   1  -6  -7 -1.0777 0.76363   4
   1  -6  -7 -0.4723 0.60749   3
  -1   6   7 0.96477 0.58843   2
   0  -6  -7 3.18830 0.81401   3
   0  -6  -7 3.82388 0.97751   4
   0   6   7 4.36031 0.67153   2
  -1  -6  -7 182.812 5.64726   3
  -1  -6  -7 182.693 5.82277   4
  -2  -6  -7 18.2825 1.80881   3
  -2  -6  -7 16.3709 1.84445   4
  -3  -6  -7 105.861 4.34672   3
  -3  -6  -7 116.082 4.52908   4
  -4  -6  -7 11.9496 1.93614   3
  -4  -6  -7 11.8991 1.92863   4
   3  -7  -7 62.1052 3.28423   4
  -3   7   7 55.0971 2.97473   2
   2  -7  -7 7.59632 1.43370   4
   2  -7  -7 7.80604 1.18818   3
  -2   7   7 7.25236 1.20058   2
   1  -7  -7 0.21832 0.75458   3
   1  -7  -7 -0.8000 0.89326   4
  -1   7   7 1.07293 0.69890   2
   0  -7  -7 4.40938 1.10995   4
   0  -7  -7 7.92000 1.19788   3
   0   7   7 7.19283 0.89320   2
  -1  -7  -7 55.2760 2.86991   4
  -1  -7  -7 55.1485 2.66530   3
  -2  -7  -7 16.1676 1.81900   3
  -2  -7  -7 13.3865 1.80599   4
  -3  -7  -7 70.7732 3.48003   3
  -3  -7  -7 64.3224 3.41854   4
  -4  -7  -7 40.4490 3.40372   4
  -4  -7  -7 38.1565 2.81054   3
   2  -8  -7 13.3900 2.00981   4
   2  -8  -7 8.31279 1.32869   3
   1  -8  -7 1.37661 1.18847   4
   1  -8  -7 -0.0143 0.69906   3
   0  -8  -7 2.18219 1.07809   4
   0  -8  -7 0.96419 0.77971   3
  -1  -8  -7 4.28149 1.11297   3
  -1  -8  -7 3.14444 1.22483   4
  -2  -8  -7 31.9439 2.83706   4
  -2  -8  -7 34.6063 2.34965   3
  -3  -8  -7 50.1275 3.07199   3
  -3  -8  -7 57.5601 3.36271   4
   2   7  -8 35.3585 1.80895   1
  -2  -7   8 31.9566 2.15218   4
   1   7  -8 31.3106 1.72477   1
  -1  -7   8 32.4423 2.07437   4
   0   7  -8 1.58873 0.69053   1
   0  -7   8 0.67821 0.87034   4
  -1   7  -8 42.5413 2.22310   1
   1  -7   8 40.2689 2.41555   4
   2  -7   8 29.9558 2.49224   4
   4   6  -8 7.01623 1.22562   1
   3   6  -8 0.70162 0.72181   1
  -3  -6   8 1.10555 0.83405   4
   2   6  -8 6.89115 0.94998   1
  -2  -6   8 6.89853 1.13724   4
   1   6  -8 41.6761 1.92182   1
  -1  -6   8 41.5434 2.15523   4
   0   6  -8 43.6154 2.05349   1
   0  -6   8 47.5943 2.27008   4
  -1   6  -8 40.0634 2.02382   1
   1  -6   8 36.5675 2.10962   4
  -2   6  -8 2.48418 0.81083   1
   2  -6   8 2.03137 1.04513   4
  -3   6  -8 54.5645 3.20085   2
   3  -6   8 52.7856 2.93295   4
   4   5  -8 50.3790 2.48088   1
   3   5  -8 48.1922 2.14285   5
  -3  -5   8 47.8319 2.39680   4
   2   5  -8 32.5229 1.66605   1
   2   5  -8 29.8880 1.46582   5
  -2  -5   8 31.6347 1.77196   4
   1   5  -8 13.2020 1.16421   1
  -1  -5   8 12.9465 1.30446   4
   0   5  -8 90.9483 3.03388   1
   0  -5   8 86.3521 3.06568   4
  -1   5  -8 12.9746 1.28547   1
   1  -5   8 13.6016 1.33984   4
  -2   5  -8 1.24645 0.79644   1
   2  -5   8 1.37222 0.89376   4
  -3   5  -8 51.1982 2.83992   2
  -4   5  -8 20.5368 2.29354   2
   5   4  -8 16.6671 1.89117   5
   5   4  -8 14.4322 1.70729   1
   4   4  -8 79.2142 3.16569   5
   4   4  -8 79.4755 3.17003   1
   3   4  -8 111.573 3.76415   1
   3   4  -8 112.898 3.64636   5
   2   4  -8 1.51364 0.52259   5
   2   4  -8 0.29026 0.51029   1
  -2  -4   8 0.73166 0.57553   4
   1   4  -8 27.2186 1.39900   1
   1   4  -8 26.5242 0.98370   3
  -1  -4   8 26.2452 1.37850   4
   0   4  -8 26.8110 1.38721   1
   0   4  -8 24.3147 0.97617   5
   0  -4   8 25.7422 1.34568   4
  -1   4  -8 36.9308 1.69905   1
  -1   4  -8 34.3973 1.43630   5
   1  -4   8 34.6013 1.66597   4
  -2   4  -8 5.79647 1.01676   1
  -3   4  -8 4.33910 1.12470   2
  -4   4  -8 5.78263 1.39613   2
  -5   4  -8 32.5339 2.97307   2
   5   3  -8 15.3789 1.74786   1
   5   3  -8 18.6529 1.96085   5
  -5  -3   8 19.7087 2.12230   2
   4   3  -8 43.6690 2.25800   1
   4   3  -8 41.0297 2.21984   5
  -4  -3   8 49.5424 2.54736   2
   3   3  -8 19.6586 1.43123   1
   3   3  -8 17.9604 1.27206   5
   2   3  -8 65.1542 2.34423   1
   2   3  -8 61.8123 2.04698   5
  -2  -3   8 62.0304 2.18193   4
   1   3  -8 23.7307 1.17933   1
   1   3  -8 20.7914 0.76205   5
   1   3  -8 20.2346 0.94223   3
   1   3  -8 20.4115 0.96786   4
  -1  -3   8 21.0205 1.04139   4
   0   3  -8 2.11500 0.26192   5
   0   3  -8 2.42370 0.55787   1
   0  -3   8 2.11311 0.47094   4
  -1   3  -8 28.3718 1.15727   5
  -1   3  -8 27.5401 1.38259   1
  -2   3  -8 91.5158 3.14897   1
   2  -3   8 86.9246 2.56509   3
  -3   3  -8 26.1544 1.72166   1
  -3   3  -8 26.7401 1.85093   2
   3  -3   8 27.0660 1.70856   5
  -4   3  -8 0.61656 1.00312   2
   4  -3   8 -1.5330 0.76074   5
  -5   3  -8 22.2285 2.38432   2
   5  -3   8 20.4049 2.16765   5
   5   2  -8 19.5937 1.90785   5
   5   2  -8 25.9945 2.21492   1
  -5  -2   8 18.3275 2.00083   2
   4   2  -8 10.2134 1.33190   5
   4   2  -8 9.52855 1.24613   1
  -4  -2   8 14.1550 1.67410   2
   3   2  -8 19.7835 1.27773   5
   3   2  -8 22.2171 1.42533   1
  -3  -2   8 18.5428 1.49405   2
   2   2  -8 49.9631 1.69566   4
   2   2  -8 51.7624 1.99318   1
   2   2  -8 48.5846 1.71709   5
   1   2  -8 39.8622 1.50735   3
   1   2  -8 39.8261 1.60226   1
   1   2  -8 44.3608 1.33510   4
  -1  -2   8 42.9691 1.36049   4
   0   2  -8 105.434 3.14004   1
   0   2  -8 107.850 2.67669   3
   0  -2   8 106.088 2.87097   4
  -1   2  -8 20.5978 0.80547   3
  -1   2  -8 20.4638 1.14201   1
   1  -2   8 22.6892 0.74506   3
   1  -2   8 20.9771 0.90802   5
  -2   2  -8 67.9933 2.54590   1
   2  -2   8 69.6993 2.17241   3
   2  -2   8 66.1540 2.31835   5
  -3   2  -8 0.72650 0.68932   2
  -3   2  -8 -0.1799 0.58468   1
   3  -2   8 1.41432 0.69022   5
  -4   2  -8 74.5202 3.29688   2
   4  -2   8 76.8154 3.19181   5
  -5   2  -8 1.72879 1.11234   2
   5  -2   8 2.93572 1.18140   5
   5   1  -8 4.64770 1.16252   5
   5   1  -8 4.76083 1.20825   1
  -5  -1   8 6.09341 1.57029   2
   4   1  -8 8.97389 1.26880   1
   4   1  -8 10.0881 1.28349   5
  -4  -1   8 9.78129 1.38348   2
   3   1  -8 6.67075 0.88936   5
   3   1  -8 5.34651 0.84579   1
  -3  -1   8 6.51566 1.05032   2
   2   1  -8 0.21528 0.37975   5
   2   1  -8 0.77270 0.46651   1
   2   1  -8 0.61643 0.34154   4
  -2  -1   8 0.57035 0.54738   2
  -2  -1   8 0.28893 0.34281   5
   1   1  -8 158.382 3.86204   4
   1   1  -8 158.820 4.33366   1
  -1  -1   8 158.771 3.98968   5
   0   1  -8 6.62806 0.67086   1
   0  -1   8 6.40294 0.25841   5
   0  -1   8 6.79373 0.37115   4
  -1   1  -8 4.36437 0.50140   3
  -1   1  -8 3.61273 0.58015   1
   1  -1   8 3.99223 0.42143   3
   1  -1   8 5.06705 0.52381   5
  -2   1  -8 18.6265 1.09604   3
  -2   1  -8 17.5071 1.14293   1
   2  -1   8 18.2333 1.07046   5
   2  -1   8 18.3337 0.97681   3
  -3   1  -8 91.0998 3.20964   2
  -3   1  -8 82.9814 3.09180   3
   3  -1   8 88.7949 3.19421   5
  -4   1  -8 23.9964 1.87266   2
   4  -1   8 26.9213 1.90109   5
  -5   1  -8 67.8741 3.30175   2
   5  -1   8 58.7527 3.11811   5
  -6   1  -8 27.7283 2.70310   2
   6  -1   8 23.4099 2.54897   5
   5   0  -8 6.33381 1.34357   5
  -5   0   8 3.41135 1.28591   2
   4   0  -8 22.8766 1.74521   5
  -4   0   8 18.6995 1.80932   2
   3   0  -8 -0.0920 0.54402   5
  -3   0   8 -0.1411 0.55684   2
   2   0  -8 1113.18 26.4524   1
  -2   0   8 1106.02 26.3626   5
  -2   0   8 1073.67 26.5356   2
   1   0  -8 1.06948 0.45414   2
   1   0  -8 2.39592 0.47931   1
  -1   0   8 2.17255 0.38771   5
  -1   0   8 2.14834 0.53596   2
   0   0  -8 46.5851 1.56665   1
   0   0   8 46.3094 1.22720   4
   0   0   8 48.1907 1.55670   1
  -1   0  -8 11.8107 0.81667   1
  -1   0  -8 10.6607 0.76006   3
   1   0   8 12.1364 0.70941   1
   1   0   8 10.4355 0.68078   3
   1   0   8 11.2601 0.71217   4
  -2   0  -8 52.9136 2.04661   3
  -2   0  -8 53.2680 1.91862   2
  -2   0  -8 54.4259 2.00425   1
   2   0   8 51.1926 1.98561   5
  -3   0  -8 16.1020 1.48654   3
  -3   0  -8 18.3257 1.32858   2
   3   0   8 18.0869 1.55689   5
  -4   0  -8 78.6603 3.27083   3
  -4   0  -8 78.5593 3.17523   2
   4   0   8 75.4111 3.22288   5
  -5   0  -8 23.6896 2.21620   2
   5   0   8 23.1731 2.33701   5
  -6   0  -8 1.23122 1.33117   2
   6   0   8 -0.2220 1.21045   5
  -5   1   8 1.31778 1.18366   2
  -4   1   8 11.7198 1.52081   2
  -3   1   8 119.779 4.01141   2
   2  -1  -8 1423.34 32.8961   1
  -2   1   8 1324.64 32.9677   2
   1  -1  -8 63.3832 1.86269   4
   1  -1  -8 63.4717 2.03151   1
   1  -1  -8 62.8232 2.09320   2
  -1   1   8 68.5865 2.12915   2
   0  -1  -8 93.0786 2.59758   1
   0  -1  -8 93.4010 2.52535   4
   0  -1  -8 96.4824 2.56375   2
   0   1   8 92.8615 2.59388   1
   0   1   8 93.7190 2.50881   4
  -1  -1  -8 232.993 5.85914   4
  -1  -1  -8 223.360 5.94205   3
  -1  -1  -8 220.019 5.73259   1
   1   1   8 220.093 5.76125   4
   1   1   8 222.406 5.85872   3
   1   1   8 232.877 5.70594   1
  -2  -1  -8 3.30750 0.54927   2
  -2  -1  -8 3.03100 0.67951   3
  -2  -1  -8 2.64686 0.59518   1
  -3  -1  -8 56.7572 2.21774   2
  -3  -1  -8 54.9641 2.48682   3
   3   1   8 56.9138 2.41603   5
  -4  -1  -8 107.911 4.14084   3
  -4  -1  -8 105.881 3.78542   2
   4   1   8 106.338 4.03392   5
  -5  -1  -8 6.64331 1.40994   3
  -5  -1  -8 10.8060 1.54925   2
   5   1   8 11.1137 1.70283   5
  -6  -1  -8 7.16711 1.52049   2
   6   1   8 10.3495 1.85311   5
  -5   2   8 32.5779 2.53615   2
  -4   2   8 0.33913 0.83514   2
  -3   2   8 59.2263 2.55647   2
  -2   2   8 150.795 4.46984   2
   1  -2  -8 38.4114 1.37697   1
   1  -2  -8 38.6581 1.41877   4
   1  -2  -8 36.6657 1.45810   2
  -1   2   8 37.3361 1.46340   2
   0  -2  -8 95.4058 2.70667   4
   0  -2  -8 92.6813 2.84063   3
   0  -2  -8 93.3163 2.45491   2
   0  -2  -8 90.2321 2.47902   1
   0   2   8 90.0349 2.40218   2
   0   2   8 93.8771 2.68414   4
   0   2   8 91.4431 2.49626   1
  -1  -2  -8 2.47751 0.22830   2
  -1  -2  -8 2.50394 0.39794   1
  -1  -2  -8 2.72843 0.58336   3
  -1  -2  -8 2.55004 0.62753   4
   1   2   8 2.56105 0.53687   4
   1   2   8 2.35876 0.33570   1
  -2  -2  -8 5.92226 0.86557   3
  -2  -2  -8 6.39442 0.94338   4
  -2  -2  -8 6.73742 0.60773   2
   2   2   8 6.43133 0.62625   1
  -3  -2  -8 41.7700 1.76531   2
  -3  -2  -8 43.6067 2.19509   3
  -4  -2  -8 302.881 8.79677   3
  -4  -2  -8 298.064 8.13157   2
   4   2   8 286.322 8.55086   5
  -5  -2  -8 -1.2646 0.89248   2
  -5  -2  -8 0.16688 1.02861   3
   5   2   8 -0.7559 0.86198   5
  -6  -2  -8 10.5036 1.71967   2
  -6  -2  -8 7.70328 1.63089   3
   6   2   8 9.77772 1.89664   5
  -5   3   8 35.7185 2.58120   2
  -4   3   8 0.15737 0.86057   2
  -3   3   8 13.1622 1.49515   2
   2  -3  -8 -0.0876 0.49110   4
  -2   3   8 -0.0693 0.46679   2
   1  -3  -8 27.3558 1.22470   2
   1  -3  -8 26.3285 1.06989   1
   1  -3  -8 24.9487 1.29039   4
  -1   3   8 25.1718 1.20436   2
   0  -3  -8 107.293 3.22229   4
   0  -3  -8 106.094 2.71081   1
   0  -3  -8 104.878 3.27840   3
   0   3   8 103.656 2.72409   2
  -1  -3  -8 3.90956 0.68546   3
  -1  -3  -8 2.71395 0.35570   1
  -1  -3  -8 1.57642 0.66627   4
   1   3   8 3.10602 0.30872   1
  -2  -3  -8 203.309 5.85752   4
  -2  -3  -8 202.834 5.01536   2
  -2  -3  -8 200.459 5.93371   3
   2   3   8 205.895 5.22719   1
  -3  -3  -8 84.6740 3.33723   4
  -3  -3  -8 89.2839 2.70039   2
  -3  -3  -8 84.8467 3.39365   3
   3   3   8 83.6869 2.60927   2
  -4  -3  -8 152.625 5.43494   3
  -4  -3  -8 155.485 4.65691   2
  -5  -3  -8 9.52657 1.63632   3
  -5  -3  -8 9.22689 1.33196   2
   5   3   8 7.64204 1.58180   5
  -5   4   8 10.0949 1.79395   2
  -4   4   8 1.21283 1.03121   2
  -3   4   8 31.9797 2.04693   2
   2  -4  -8 3.70991 0.76885   4
  -2   4   8 3.52032 0.80437   2
   1  -4  -8 1.07542 0.61051   4
   1  -4  -8 0.47668 0.32454   1
  -1   4   8 0.78575 0.46032   2
   0  -4  -8 24.3311 1.41799   4
   0  -4  -8 23.4947 0.67395   1
   0  -4  -8 23.0020 1.32266   3
   0   4   8 24.6275 0.94962   2
  -1  -4  -8 0.86414 0.61489   4
  -1  -4  -8 1.31614 0.55612   3
  -2  -4  -8 97.7887 3.60240   4
  -2  -4  -8 103.651 3.64033   3
   2   4   8 104.178 2.73082   1
   2   4   8 100.070 2.59336   2
  -3  -4  -8 14.9308 1.67312   4
  -3  -4  -8 14.6743 0.95457   2
  -3  -4  -8 17.8568 1.80073   3
   3   4   8 13.8691 0.87509   2
  -4  -4  -8 122.155 4.68571   3
  -4  -4  -8 113.401 3.64860   2
  -5  -4  -8 32.1471 2.56967   3
   5   4   8 28.4792 2.70804   5
   4  -5  -8 11.0240 1.64280   4
  -4   5   8 9.14761 1.53623   2
   3  -5  -8 24.3356 2.07862   4
  -3   5   8 24.0424 1.88714   2
   2  -5  -8 7.94607 1.21773   4
  -2   5   8 8.35102 1.13108   2
   1  -5  -8 -0.2600 0.23765   1
   1  -5  -8 0.23253 0.27879   1
   1  -5  -8 -0.4271 0.66030   4
  -1   5   8 0.47169 0.47780   2
   0  -5  -8 39.6922 1.88733   3
   0  -5  -8 38.5242 1.92844   4
   0   5   8 35.7101 1.36747   2
  -1  -5  -8 40.0030 2.05931   4
  -1  -5  -8 40.2992 1.96218   3
   1   5   8 37.3740 1.11066   2
   1   5   8 36.8054 1.09503   2
  -2  -5  -8 0.51077 0.80133   4
  -2  -5  -8 0.23752 0.74576   3
   2   5   8 -0.2204 0.21582   2
   2   5   8 -0.0013 0.16668   1
  -3  -5  -8 3.04736 1.19795   4
  -3  -5  -8 3.75237 1.02570   3
  -4  -5  -8 9.55197 1.60900   4
  -4  -5  -8 12.7900 1.80944   3
  -5  -5  -8 17.0714 2.23754   3
   5   5   8 23.0866 2.48227   5
   4  -6  -8 40.1829 2.79252   4
  -4   6   8 42.8701 2.85050   2
   3  -6  -8 15.3856 1.74428   4
  -3   6   8 14.8045 1.72040   2
   2  -6  -8 20.3241 1.85719   4
  -2   6   8 18.4684 1.63208   2
   1  -6  -8 17.0146 1.53974   3
   1  -6  -8 18.0541 1.75402   4
  -1   6   8 15.9741 1.22537   2
   0  -6  -8 50.6660 2.44790   4
   0  -6  -8 49.0548 2.31236   3
   0   6   8 47.7713 1.81094   2
  -1  -6  -8 26.7982 2.02895   4
  -1  -6  -8 26.3092 1.78368   3
   1   6   8 25.1639 1.02600   2
  -2  -6  -8 0.95330 0.89922   4
  -2  -6  -8 1.72517 0.91035   3
  -3  -6  -8 4.99875 1.31307   4
  -3  -6  -8 5.80883 1.32785   3
  -4  -6  -8 1.77671 1.06949   3
  -4  -6  -8 2.88405 1.27411   4
   3  -7  -8 36.1706 2.71430   4
  -3   7   8 40.5465 2.60782   2
   2  -7  -8 0.14878 0.80193   3
   2  -7  -8 -0.9358 1.01786   4
  -2   7   8 0.46458 0.73297   2
   1  -7  -8 7.22463 1.20746   3
   1  -7  -8 7.45318 1.47445   4
  -1   7   8 5.97241 0.94583   2
   0  -7  -8 28.1372 2.16516   4
   0  -7  -8 29.1152 1.86930   3
  -1  -7  -8 16.7607 1.66529   3
  -1  -7  -8 15.9737 1.84806   4
  -2  -7  -8 9.45222 1.55102   4
  -2  -7  -8 9.16922 1.37946   3
  -3  -7  -8 4.02732 1.34933   4
  -3  -7  -8 5.95365 1.35465   3
  -4  -7  -8 9.87281 1.89376   3
  -4  -7  -8 11.5506 2.06059   4
   2  -8  -8 1.32837 1.23043   4
   2  -8  -8 -0.4127 0.76976   3
   1  -8  -8 60.3967 3.27643   4
   1  -8  -8 55.7586 2.77380   3
   0  -8  -8 -1.1110 0.91983   4
   0  -8  -8 0.97883 0.85639   3
  -1  -8  -8 7.25615 1.33777   3
  -1  -8  -8 8.47090 1.63312   4
  -2  -8  -8 20.5491 2.08225   3
  -2  -8  -8 21.7431 2.31816   4
  -3  -8  -8 0.44174 1.04677   3
  -3  -8  -8 1.60253 1.29018   4
   2   7  -9 8.56450 1.14075   1
   1   7  -9 9.79344 1.16454   1
  -1  -7   9 11.9709 1.48114   4
   0   7  -9 1.09341 0.70491   1
   0  -7   9 1.04491 0.86297   4
  -1   7  -9 2.05049 0.82904   1
   1  -7   9 1.08976 0.92516   4
  -2   7  -9 0.84825 0.86763   1
   2  -7   9 1.28172 1.06543   4
   3   6  -9 11.1859 1.25406   1
   2   6  -9 -0.2604 0.59649   1
  -2  -6   9 0.44972 0.66558   4
   1   6  -9 99.5713 3.34992   1
  -1  -6   9 94.2696 3.51635   4
   0   6  -9 8.72803 1.08913   1
   0  -6   9 9.75235 1.21156   4
  -1   6  -9 31.0263 1.85349   1
   1  -6   9 31.1115 1.94122   4
  -2   6  -9 1.60133 0.84910   1
   2  -6   9 -0.5182 0.84307   4
  -3   6  -9 0.74496 1.15316   2
   3  -6   9 1.32355 1.01048   4
   4   5  -9 3.92611 1.04599   1
   3   5  -9 1.31239 0.77978   1
  -3  -5   9 0.58140 0.70064   4
   2   5  -9 50.4922 2.13784   1
  -2  -5   9 43.3149 2.10913   4
  -1  -5   9 62.9122 2.47527   4
   0  -5   9 92.6403 3.20746   4
  -1   5  -9 91.7638 3.23560   1
   1  -5   9 88.7377 3.22407   4
  -2   5  -9 2.93676 0.87760   1
   2  -5   9 1.43972 0.86495   4
  -3   5  -9 -0.9032 0.83119   2
  -4   5  -9 0.46910 0.92991   2
   5   4  -9 41.0188 2.55519   1
   4   4  -9 4.29289 1.04902   5
   4   4  -9 2.94141 1.03435   1
   3   4  -9 6.65166 1.10028   1
   3   4  -9 5.92311 0.87516   5
   2   4  -9 48.1546 2.13606   1
   2   4  -9 52.6792 1.80622   5
  -2  -4   9 49.4367 2.03926   4
   1   4  -9 18.0827 0.75211   5
   1   4  -9 18.1389 0.78552   3
   1   4  -9 19.0135 1.27511   1
  -1  -4   9 18.7566 1.16473   4
   0   4  -9 49.9381 2.05267   1
   0   4  -9 49.0519 1.49733   5
   0  -4   9 53.0593 1.97228   4
  -1   4  -9 196.086 5.61645   1
  -1   4  -9 195.298 5.18855   5
   1  -4   9 194.749 5.51077   4
  -2   4  -9 40.2622 2.04087   1
  -3   4  -9 8.43632 1.41961   2
  -3   4  -9 7.18445 1.21186   1
  -4   4  -9 17.6652 2.03656   2
   5   3  -9 11.1942 1.50093   5
   5   3  -9 12.5178 1.63929   1
  -5  -3   9 9.45992 1.70250   2
   4   3  -9 10.9728 1.29630   5
   4   3  -9 9.67337 1.30483   1
   3   3  -9 50.9089 2.10979   5
   3   3  -9 55.3173 2.31315   1
   2   3  -9 0.06302 0.38251   5
   2   3  -9 0.14471 0.35965   4
   2   3  -9 0.32155 0.59567   1
  -2  -3   9 0.34264 0.46054   4
   1   3  -9 35.9865 1.56450   1
   1   3  -9 33.1496 1.29172   3
   1   3  -9 36.5811 1.31532   4
   1   3  -9 34.9627 0.94530   5
  -1  -3   9 36.5770 1.37984   4
   0   3  -9 8.29653 0.88439   1
   0  -3   9 9.25814 0.77291   4
  -1   3  -9 110.453 3.53705   1
  -1   3  -9 114.748 3.13763   5
  -2   3  -9 24.9394 1.60112   1
   2  -3   9 27.3514 1.06414   3
  -3   3  -9 15.9570 1.69448   2
  -3   3  -9 15.8208 1.56155   1
   3  -3   9 12.4788 1.35966   5
  -4   3  -9 15.5831 1.86096   2
   4  -3   9 11.2489 1.43821   5
  -5   3  -9 4.87081 1.51787   2
   5  -3   9 3.70718 1.21688   5
   5   2  -9 6.40733 1.39675   1
   5   2  -9 6.57002 1.38189   5
  -5  -2   9 8.71998 1.73572   2
   4   2  -9 14.8525 1.42378   5
   4   2  -9 11.9961 1.49574   1
  -4  -2   9 9.49714 1.45068   2
   3   2  -9 53.0657 2.10752   5
   3   2  -9 52.0836 2.29073   1
  -3  -2   9 48.5776 2.33160   2
   2   2  -9 0.51329 0.49235   1
   2   2  -9 1.36312 0.38000   4
   2   2  -9 0.58029 0.38169   5
   1   2  -9 101.265 3.11553   1
   1   2  -9 102.652 2.66990   4
  -1  -2   9 99.2085 2.70002   4
   0   2  -9 119.647 3.48654   1
   0   2  -9 115.853 2.97184   3
   0  -2   9 116.249 3.09943   4
  -1   2  -9 171.291 4.40091   3
  -1   2  -9 180.269 4.91442   1
   1  -2   9 171.975 4.46025   5
  -2   2  -9 4.72133 0.64119   3
  -2   2  -9 4.13420 0.77578   1
   2  -2   9 5.20718 0.58008   3
   2  -2   9 5.97341 0.77277   5
  -3   2  -9 58.5021 2.61848   2
  -3   2  -9 54.3625 2.43957   1
   3  -2   9 50.8720 2.33973   5
  -4   2  -9 65.8475 3.15141   2
   4  -2   9 68.0361 2.96747   5
  -5   2  -9 8.24045 1.54738   2
   5  -2   9 9.20386 1.55658   5
   5   1  -9 8.22717 1.35703   1
   5   1  -9 6.58340 1.26941   5
  -5  -1   9 5.34972 1.31128   2
   4   1  -9 0.72129 0.72377   1
   4   1  -9 0.82101 0.72381   5
  -4  -1   9 -0.6014 0.77078   2
   3   1  -9 1.14934 0.67701   1
   3   1  -9 -0.4806 0.52492   5
  -3  -1   9 0.35470 0.66030   2
   2   1  -9 0.92532 0.34204   4
   2   1  -9 -0.2644 0.46950   1
  -2  -1   9 0.70228 0.53533   2
  -2  -1   9 0.58560 0.36978   5
   1   1  -9 226.544 5.97057   1
  -1  -1   9 224.794 5.55626   5
   0   1  -9 80.0266 2.18258   3
   0   1  -9 73.5883 2.36662   1
   0  -1   9 73.8224 1.93495   4
  -1   1  -9 297.185 7.52131   3
  -1   1  -9 296.375 7.74090   1
   1  -1   9 309.180 7.49654   5
   1  -1   9 300.781 7.43166   3
  -2   1  -9 17.5797 1.15792   1
  -2   1  -9 17.0590 1.11070   3
   2  -1   9 18.7694 0.99961   3
   2  -1   9 18.4148 1.08165   5
  -3   1  -9 178.600 5.36252   2
  -3   1  -9 178.524 5.36411   1
  -3   1  -9 173.081 5.24763   3
   3  -1   9 174.319 5.28793   5
  -4   1  -9 0.69059 0.79468   3
  -4   1  -9 2.08165 0.94151   2
   4  -1   9 0.59512 0.97647   5
  -5   1  -9 23.9063 2.32993   2
   5  -1   9 20.6397 2.10073   5
  -5   0   9 9.64007 1.60197   2
  -4   0   9 30.9263 2.04885   2
   3   0  -9 2.17486 0.67969   1
  -3   0   9 2.44742 0.81670   2
   2   0  -9 312.762 7.92977   1
  -2   0   9 299.446 7.98720   5
  -2   0   9 292.855 7.98534   2
   1   0  -9 31.2259 1.30394   1
   1   0  -9 28.8851 0.85326   4
  -1   0   9 31.6056 1.14137   5
   0   0  -9 2.90651 0.48177   1
   0   0   9 3.40575 0.51628   1
   0   0   9 3.03715 0.24719   4
  -1   0  -9 194.827 5.14945   3
  -1   0  -9 189.319 5.12949   1
   1   0   9 195.041 5.06236   3
   1   0   9 194.756 5.00583   4
  -2   0  -9 272.765 7.25231   1
  -2   0  -9 268.283 7.28546   3
   2   0   9 279.432 7.26714   5
  -3   0  -9 62.0680 2.45989   2
  -3   0  -9 60.2844 2.57620   3
   3   0   9 61.1967 2.53662   5
  -4   0  -9 1.55562 0.89945   3
  -4   0  -9 1.57330 0.89793   2
   4   0   9 1.16171 0.86493   5
  -5   0  -9 36.5275 2.32726   2
   5   0   9 32.9841 2.39173   5
  -6   0  -9 4.06571 1.47681   2
   6   0   9 4.96960 1.61787   5
  -5   1   9 13.5139 1.91864   2
  -4   1   9 3.77042 1.16365   2
  -3   1   9 28.9348 1.75087   2
   2  -1  -9 833.650 20.8350   1
  -2   1   9 881.753 21.0079   2
   1  -1  -9 7.90276 0.76905   2
   1  -1  -9 6.96664 0.53528   4
   1  -1  -9 6.58614 0.68318   1
  -1   1   9 8.75389 0.80231   2
   0  -1  -9 14.4382 0.76548   1
   0  -1  -9 16.0920 0.73329   4
   0  -1  -9 15.6304 0.78524   2
   0  -1  -9 14.3611 0.87592   3
   0   1   9 14.8079 0.69090   4
   0   1   9 15.1791 0.80326   1
  -1  -1  -9 403.078 10.2083   1
  -1  -1  -9 420.868 10.4341   3
  -1  -1  -9 419.312 10.2986   4
   1   1   9 416.044 10.2080   4
   1   1   9 420.076 10.3595   3
   1   1   9 408.495 10.1465   1
  -2  -1  -9 35.2059 1.40441   2
  -2  -1  -9 31.0735 1.46461   1
  -2  -1  -9 33.4597 1.64514   3
  -3  -1  -9 56.3489 2.52887   3
  -3  -1  -9 55.2223 2.18630   2
   3   1   9 55.9374 2.41637   5
  -4  -1  -9 4.92939 1.21987   3
  -4  -1  -9 4.00370 0.96730   2
   4   1   9 3.35241 1.09540   5
  -5  -1  -9 28.1545 2.23428   3
  -5  -1  -9 25.7617 2.06074   2
   5   1   9 25.4784 2.36389   5
  -6  -1  -9 16.9783 1.99651   2
   6   1   9 24.8726 2.64511   5
  -5   2   9 0.71340 1.21067   2
  -4   2   9 39.3194 2.41957   2
  -3   2   9 0.38822 0.65675   2
   2  -2  -9 136.150 3.93350   1
  -2   2   9 130.460 4.05554   2
   1  -2  -9 0.93475 0.38236   1
   1  -2  -9 1.01209 0.40777   4
   1  -2  -9 1.17109 0.44615   2
  -1   2   9 0.54260 0.38163   2
   0  -2  -9 39.4108 1.48690   4
   0  -2  -9 41.3150 1.30471   2
   0  -2  -9 41.0303 1.33668   1
   0  -2  -9 39.2043 1.61947   3
   0   2   9 42.0953 1.47009   4
   0   2   9 40.9621 1.35599   1
  -1  -2  -9 49.4882 1.56741   1
  -1  -2  -9 43.2570 1.86607   3
  -1  -2  -9 48.6962 1.82468   4
   1   2   9 47.7954 1.73206   4
   1   2   9 47.7199 1.49836   1
  -2  -2  -9 28.8329 1.27970   1
  -2  -2  -9 30.8544 1.64606   3
  -2  -2  -9 25.6399 1.55383   4
  -2  -2  -9 26.3073 1.09502   2
  -3  -2  -9 1.28655 0.74576   3
  -3  -2  -9 -0.3194 0.45743   2
  -4  -2  -9 4.58608 1.20404   3
  -4  -2  -9 5.04097 1.00542   2
   4   2   9 4.31354 1.15199   5
  -5  -2  -9 6.57706 1.30568   2
  -5  -2  -9 9.19511 1.68785   3
   5   2   9 7.94000 1.55822   5
  -6  -2  -9 9.73125 1.62848   2
  -6  -2  -9 7.66343 1.68761   3
   6   2   9 8.54445 1.80507   5
  -5   3   9 12.8638 1.83446   2
  -4   3   9 15.1263 1.83142   2
  -3   3   9 1.42442 0.86311   2
   2  -3  -9 19.9731 1.25099   4
  -2   3   9 21.2205 1.36580   2
   1  -3  -9 97.9076 3.00937   4
   1  -3  -9 92.7406 2.86361   2
   1  -3  -9 93.2007 2.72075   1
  -1   3   9 98.8874 2.90647   2
   0  -3  -9 10.9726 0.96154   4
   0  -3  -9 9.90452 0.53224   1
   0  -3  -9 8.28561 0.89106   3
   0   3   9 9.14359 0.49528   2
  -1  -3  -9 0.13114 0.50447   4
  -1  -3  -9 0.65470 0.51278   3
  -1  -3  -9 0.38250 0.25563   1
   1   3   9 0.05071 0.20646   1
  -2  -3  -9 67.8354 2.61132   4
  -2  -3  -9 62.6230 1.77844   2
  -2  -3  -9 69.5042 2.71336   3
   2   3   9 67.7726 2.02113   1
  -3  -3  -9 22.4020 1.68989   3
  -3  -3  -9 23.5561 1.73988   4
  -3  -3  -9 22.8149 1.17598   2
  -4  -3  -9 41.8928 1.97640   2
  -4  -3  -9 39.7924 2.56789   3
  -5  -3  -9 12.7565 1.47656   2
  -5  -3  -9 14.7111 2.06894   3
   5   3   9 15.1450 1.94144   5
  -5   4   9 3.15836 1.28329   2
  -4   4   9 9.03961 1.49704   2
   3  -4  -9 0.13357 0.73676   4
  -3   4   9 -1.0791 0.70746   2
   2  -4  -9 132.184 4.10110   4
  -2   4   9 119.928 4.00338   2
   1  -4  -9 19.3070 0.90338   1
   1  -4  -9 18.1019 1.29193   4
  -1   4   9 21.1673 1.14242   2
   0  -4  -9 0.71869 0.50903   3
   0  -4  -9 0.43050 0.51218   4
   0  -4  -9 0.14999 0.16305   1
   0   4   9 0.16533 0.26340   2
  -1  -4  -9 7.81432 0.98142   3
  -1  -4  -9 8.65703 1.09849   4
   1   4   9 7.67422 0.34628   1
  -2  -4  -9 151.862 4.83381   3
  -2  -4  -9 144.485 4.73279   4
   2   4   9 148.032 3.82495   1
  -3  -4  -9 78.3310 3.33781   3
  -3  -4  -9 74.3260 3.23435   4
  -3  -4  -9 80.3567 2.36667   2
  -4  -4  -9 14.2344 1.81824   3
  -4  -4  -9 15.4938 1.22190   2
  -5  -4  -9 2.89558 1.21303   3
   5   4   9 3.47819 1.31777   5
   4  -5  -9 2.90002 1.26269   4
  -4   5   9 1.13929 1.12089   2
   3  -5  -9 4.43587 1.21995   4
  -3   5   9 3.61196 1.03789   2
   2  -5  -9 69.4640 2.85836   4
  -2   5   9 71.7870 2.78343   2
   1  -5  -9 17.7433 0.81768   1
   1  -5  -9 16.6662 1.46888   4
  -1   5   9 17.6639 1.15729   2
   0  -5  -9 100.628 3.50534   4
   0  -5  -9 102.207 3.46767   3
   0   5   9 98.9360 2.81663   2
  -1  -5  -9 136.785 4.47862   4
  -1  -5  -9 133.024 4.37749   3
  -2  -5  -9 143.966 4.85965   4
  -2  -5  -9 148.075 4.89947   3
   2   5   9 144.378 3.56846   1
  -3  -5  -9 2.87171 1.06456   4
  -3  -5  -9 2.39242 1.03119   3
  -4  -5  -9 3.17214 1.23659   4
  -4  -5  -9 2.09582 1.09280   3
  -5  -5  -9 4.24023 1.42386   3
   4  -6  -9 13.2737 1.87462   4
  -4   6   9 13.2511 1.91139   2
   3  -6  -9 17.8898 1.91771   4
  -3   6   9 18.1842 1.83644   2
   2  -6  -9 2.91756 0.98216   4
  -2   6   9 2.57834 0.82347   2
   1  -6  -9 111.557 4.02547   4
   1  -6  -9 113.030 3.89538   3
  -1   6   9 105.055 3.48220   2
   0  -6  -9 279.644 7.80416   3
   0  -6  -9 272.475 7.87962   4
   0   6   9 270.360 7.01310   2
  -1  -6  -9 10.6511 1.33825   3
  -1  -6  -9 10.0192 1.48254   4
  -2  -6  -9 7.76103 1.44306   4
  -2  -6  -9 7.20422 1.20959   3
  -3  -6  -9 31.2651 2.64894   4
  -3  -6  -9 29.6836 2.15794   3
  -4  -6  -9 2.66623 1.26662   3
  -4  -6  -9 1.15555 1.07821   4
   3  -7  -9 21.6606 2.33359   4
  -3   7   9 18.2029 1.98210   2
   2  -7  -9 1.45473 0.84626   3
   2  -7  -9 1.05531 1.09009   4
  -2   7   9 1.53580 0.89394   2
   1  -7  -9 68.1136 3.21079   4
   1  -7  -9 69.5715 2.97085   3
  -1   7   9 62.7548 2.58101   2
   0  -7  -9 100.758 4.06697   4
   0  -7  -9 103.799 3.87776   3
  -1  -7  -9 18.7648 2.06349   4
  -1  -7  -9 13.7064 1.62426   3
  -2  -7  -9 78.9893 3.78048   4
  -2  -7  -9 87.4722 3.73401   3
  -3  -7  -9 15.3088 1.86921   3
  -3  -7  -9 16.3404 2.15986   4
  -4  -7  -9 1.47398 1.08440   3
  -4  -7  -9 2.20354 1.28232   4
   2  -8  -9 -0.1171 0.98857   3
   2  -8  -9 -1.1941 0.99691   4
   1  -8  -9 -0.7934 0.89919   4
   1  -8  -9 -0.0980 0.84223   3
   0  -8  -9 17.6717 1.77476   3
   0  -8  -9 19.4883 2.13450   4
  -1  -8  -9 0.67860 0.89672   3
  -1  -8  -9 3.41859 1.19698   4
  -2  -8  -9 0.95084 0.91233   3
  -2  -8  -9 1.21401 1.24487   4
   2   7 -10 6.47266 1.03877   1
   1   7 -10 4.14344 0.88277   1
  -1  -7  10 4.06552 1.46289   4
   0   7 -10 35.1643 2.01159   1
   0  -7  10 40.1287 2.27153   4
  -1   7 -10 17.9488 1.70770   1
   1  -7  10 17.9982 1.82010   4
  -2   7 -10 17.1146 1.86532   1
   2  -7  10 13.6964 1.84794   4
   3   6 -10 0.95763 0.70121   1
   2   6 -10 46.5059 2.20107   1
  -2  -6  10 48.0520 2.38144   4
   1   6 -10 22.8727 1.56625   1
  -1  -6  10 15.7432 1.50427   4
   0   6 -10 3.28554 0.87637   1
   0  -6  10 4.40564 0.94732   4
  -1   6 -10 1.18229 0.73243   1
   1  -6  10 -0.0274 0.68339   4
  -2   6 -10 12.2758 1.54817   1
   2  -6  10 12.5934 1.60197   4
   3  -6  10 37.0291 2.51371   4
   4   5 -10 5.00533 1.19549   1
   3   5 -10 30.0715 1.77081   1
  -3  -5  10 28.3238 1.83591   4
   2   5 -10 1.14420 0.71799   1
  -2  -5  10 0.00075 0.64907   4
   1   5 -10 4.60948 0.89614   1
  -1  -5  10 5.52667 0.86617   4
   0   5 -10 6.37268 0.99255   1
   0  -5  10 5.64301 0.92768   4
  -1   5 -10 0.50821 0.66753   1
   1  -5  10 0.43483 0.66052   4
  -2   5 -10 55.6926 2.63866   1
   2  -5  10 54.9263 2.58154   4
  -3   5 -10 6.13203 1.18316   1
  -4   5 -10 25.5930 2.71214   2
   4   4 -10 20.6684 1.83073   1
   3   4 -10 8.47085 0.94924   5
   3   4 -10 9.21038 1.17279   1
   2   4 -10 0.10015 0.37927   5
   2   4 -10 0.00323 0.55764   1
  -2  -4  10 0.16991 0.54758   4
   1   4 -10 28.8700 1.04055   3
   1   4 -10 30.8893 1.55365   1
  -1  -4  10 30.1429 1.43935   4
   0   4 -10 32.5532 1.68512   1
   0   4 -10 32.0224 0.92397   5
   0  -4  10 35.5018 1.53486   4
  -1   4 -10 8.54513 1.05246   1
  -1   4 -10 8.91298 0.75915   5
   1  -4  10 10.0929 1.04059   4
  -2   4 -10 36.3014 2.04191   1
  -3   4 -10 13.0506 1.61723   1
  -4   4 -10 56.5392 3.17004   2
   5   3 -10 22.3231 2.10103   1
   5   3 -10 22.6445 2.07146   5
   4   3 -10 30.0570 1.93167   1
   4   3 -10 27.0203 1.76409   5
   3   3 -10 45.7000 2.09611   1
   3   3 -10 38.1413 1.76651   5
   2   3 -10 14.8842 0.82602   5
   2   3 -10 14.9416 1.30545   1
   2   3 -10 16.8232 0.94117   4
  -2  -3  10 14.6080 1.01518   4
   1   3 -10 -0.2666 0.42586   1
   1   3 -10 0.20732 0.31948   3
  -1  -3  10 -0.1376 0.33372   4
   0   3 -10 6.49389 0.84638   1
   0  -3  10 7.65250 0.69328   4
  -1   3 -10 14.5266 1.29216   1
  -2   3 -10 127.785 4.09398   1
   2  -3  10 120.181 3.29994   3
  -3   3 -10 -0.6534 0.66220   1
   3  -3  10 0.49200 0.57658   5
  -4   3 -10 20.0891 2.08458   2
   4  -3  10 16.7462 1.72920   5
  -5   3 -10 3.08115 1.44407   2
   5  -3  10 2.72368 1.28046   5
   5   2 -10 80.2373 3.39889   5
   5   2 -10 81.2213 3.57602   1
  -5  -2  10 70.9354 3.58277   2
   4   2 -10 37.5149 2.01635   5
   4   2 -10 38.6347 2.26609   1
  -4  -2  10 37.5600 2.30244   2
   3   2 -10 117.151 3.70125   5
   3   2 -10 125.478 3.99987   1
   2   2 -10 43.0472 1.47934   4
   2   2 -10 45.9808 1.55399   5
   2   2 -10 42.2547 1.87795   1
   1   2 -10 186.177 5.12747   1
  -1  -2  10 182.244 4.59448   4
   0   2 -10 2.81272 0.33598   3
   0   2 -10 3.44100 0.59857   1
   0  -2  10 2.69734 0.37286   4
  -1   2 -10 65.2487 2.27459   1
  -1   2 -10 58.7937 1.79852   3
   1  -2  10 60.3135 1.80618   5
  -2   2 -10 7.76398 0.98560   1
  -2   2 -10 9.07998 0.84216   3
   2  -2  10 8.55094 0.72166   3
   2  -2  10 8.96181 0.91237   5
  -3   2 -10 0.94372 0.70262   2
  -3   2 -10 1.56636 0.76495   1
   3  -2  10 0.29249 0.60218   5
  -4   2 -10 26.6280 1.98285   2
   4  -2  10 24.9051 1.92285   5
  -5   2 -10 25.1191 2.43420   2
   5  -2  10 22.5319 2.31642   5
   5   1 -10 87.4725 3.71742   5
   5   1 -10 84.3566 3.63245   1
  -5  -1  10 87.0499 3.91351   2
   4   1 -10 31.3878 2.05164   1
   4   1 -10 31.5155 1.95774   5
  -4  -1  10 34.2365 2.19043   2
   3   1 -10 32.0809 1.74307   1
   3   1 -10 32.0894 1.63816   5
  -3  -1  10 30.9890 1.85109   2
   2   1 -10 5.65127 0.52754   4
   2   1 -10 5.07779 0.75415   1
  -2  -1  10 5.14187 0.84702   2
  -2  -1  10 5.53134 0.63371   5
   1   1 -10 119.362 3.50488   1
  -1  -1  10 116.809 3.04625   5
   0   1 -10 7.91740 0.58446   3
   0   1 -10 9.23472 0.86901   1
   0  -1  10 7.88061 0.36699   4
  -1   1 -10 240.769 6.39339   1
  -1   1 -10 237.515 6.15099   3
   1  -1  10 242.912 6.09003   5
  -2   1 -10 78.8672 2.79937   1
  -2   1 -10 78.8909 2.63675   3
   2  -1  10 77.8983 2.50758   3
   2  -1  10 80.7619 2.66248   5
  -3   1 -10 87.6161 3.19598   3
  -3   1 -10 84.8374 3.24270   1
  -3   1 -10 92.5726 3.32458   2
   3  -1  10 89.3502 3.24543   5
  -4   1 -10 1.22210 0.87190   3
  -4   1 -10 0.74400 0.90811   2
   4  -1  10 0.44437 0.83130   5
  -5   1 -10 15.9529 1.87840   2
   5  -1  10 19.9426 2.08839   5
   5   0 -10 19.0882 1.92953   1
  -5   0  10 20.4803 2.19117   2
   4   0 -10 25.7436 1.74098   1
  -4   0  10 24.1306 1.90777   2
   3   0 -10 11.3331 1.18833   1
  -3   0  10 15.5992 1.50154   2
   2   0 -10 57.1947 2.17622   1
  -2   0  10 57.0854 2.26898   2
   1   0 -10 1.51735 0.48321   1
  -1   0  10 1.99977 0.37872   5
   0   0 -10 42.0815 1.57841   1
   0   0 -10 46.3341 1.59193   3
   0   0  10 42.4516 1.15414   4
  -1   0 -10 894.282 21.4569   3
  -1   0 -10 860.198 21.4447   1
   1   0  10 909.105 21.3674   3
   1   0  10 898.081 21.2796   4
  -2   0 -10 63.2661 2.31022   1
  -2   0 -10 60.2908 2.30839   3
   2   0  10 64.2339 2.29226   5
  -3   0 -10 132.470 4.27369   1
  -3   0 -10 138.288 4.24251   2
  -3   0 -10 128.143 4.29554   3
   3   0  10 132.661 4.30954   5
  -4   0 -10 42.9639 2.31404   2
  -4   0 -10 47.1332 2.44795   3
   4   0  10 41.4531 2.35898   5
  -5   0 -10 -0.4350 0.96384   2
  -5   0 -10 1.22801 1.04163   3
   5   0  10 0.45798 1.11089   5
  -5   1  10 6.95760 1.62567   2
  -4   1  10 2.63082 1.01004   2
   3  -1 -10 212.629 6.07747   1
  -3   1  10 208.505 6.20982   2
   2  -1 -10 2.81042 0.67159   1
  -2   1  10 4.20956 0.78625   2
   1  -1 -10 60.9981 2.04720   1
   1  -1 -10 60.2876 1.77079   4
   1  -1 -10 60.6825 2.10513   2
  -1   1  10 61.7633 2.08913   2
   0  -1 -10 132.004 3.77160   3
   0  -1 -10 132.673 3.57152   2
   0  -1 -10 130.468 3.44779   4
   0  -1 -10 129.055 3.60572   1
   0   1  10 131.820 3.61621   1
   0   1  10 136.758 3.43511   4
  -1  -1 -10 -0.1090 0.38478   3
  -1  -1 -10 -0.2132 0.30282   1
  -1  -1 -10 0.71116 0.46272   4
   1   1  10 0.14404 0.28855   1
   1   1  10 0.21032 0.31421   4
  -2  -1 -10 73.9147 2.52937   1
  -2  -1 -10 78.3992 2.42866   2
  -2  -1 -10 75.8656 2.72517   3
  -3  -1 -10 162.961 5.10135   3
  -3  -1 -10 159.017 4.69642   2
   3   1  10 158.274 4.98540   5
  -4  -1 -10 44.9075 2.51104   3
  -4  -1 -10 45.9294 2.31355   2
   4   1  10 45.3467 2.47174   5
  -5  -1 -10 0.15796 0.90662   2
  -5  -1 -10 0.91006 1.04238   3
   5   1  10 1.80969 1.03152   5
  -6  -1 -10 2.25176 1.15650   2
   6   1  10 3.52291 1.44609   5
  -5   2  10 1.30332 1.29712   2
  -4   2  10 4.92778 1.16475   2
  -3   2  10 74.8452 3.00435   2
   2  -2 -10 4.61748 0.75068   1
  -2   2  10 4.95230 0.79689   2
   1  -2 -10 107.812 3.06875   1
   1  -2 -10 106.891 3.17768   2
   1  -2 -10 105.440 3.05615   4
  -1   2  10 107.559 3.14076   2
   0  -2 -10 14.3594 0.86918   4
   0  -2 -10 15.1637 0.73587   2
   0  -2 -10 14.6491 1.02737   3
   0  -2 -10 13.7856 0.74922   1
   0   2  10 14.7587 0.76607   1
   0   2  10 16.3565 0.86167   4
  -1  -2 -10 18.4667 0.90455   1
  -1  -2 -10 17.8332 1.09959   4
  -1  -2 -10 18.4987 1.14613   3
   1   2  10 18.3188 1.00294   4
   1   2  10 18.8053 0.83989   1
  -2  -2 -10 91.5767 2.64469   2
  -2  -2 -10 94.6999 2.91257   1
  -2  -2 -10 94.6819 3.26939   3
  -2  -2 -10 90.9636 3.18708   4
  -3  -2 -10 0.04108 0.46978   2
  -3  -2 -10 0.12210 0.59721   3
  -4  -2 -10 12.2404 1.28327   2
  -4  -2 -10 10.1051 1.50536   3
   4   2  10 11.2854 1.55959   5
  -5  -2 -10 0.68457 0.93771   2
  -5  -2 -10 0.24788 0.97817   3
   5   2  10 -0.0976 0.98633   5
  -5   3  10 7.65252 1.59186   2
  -4   3  10 0.27342 0.88530   2
  -3   3  10 4.96167 1.07432   2
   2  -3 -10 3.28551 0.64185   1
   2  -3 -10 4.04634 0.74474   4
  -2   3  10 4.72472 0.84301   2
   1  -3 -10 1.49365 0.39688   1
   1  -3 -10 1.42069 0.46226   2
   1  -3 -10 0.73309 0.48397   4
  -1   3  10 1.69937 0.48722   2
   0  -3 -10 82.1146 2.17643   2
   0  -3 -10 79.5194 2.22128   1
   0  -3 -10 78.9785 2.74050   3
   0  -3 -10 77.0348 2.60947   4
   0   3  10 78.8234 2.12908   2
  -1  -3 -10 13.3335 0.69771   1
  -1  -3 -10 14.4863 1.22891   4
  -1  -3 -10 11.4304 1.10579   3
   1   3  10 13.2283 0.64292   1
  -2  -3 -10 40.9779 1.17217   2
  -2  -3 -10 38.8900 2.00444   3
  -2  -3 -10 39.1810 1.95483   4
   2   3  10 43.4784 1.45939   1
  -3  -3 -10 66.6825 2.17826   2
  -3  -3 -10 66.4965 3.00157   3
  -3  -3 -10 67.8871 2.99373   4
  -4  -3 -10 1.43451 1.07562   3
  -4  -3 -10 0.60868 0.64423   2
  -5  -3 -10 11.4467 1.94268   3
  -5  -3 -10 11.4727 1.44895   2
   5   3  10 11.5249 1.74836   5
  -5   4  10 4.55765 1.39666   2
  -4   4  10 1.53693 1.16297   2
   3  -4 -10 37.2113 2.03898   4
  -3   4  10 33.6643 2.11545   2
   2  -4 -10 8.21093 1.10048   4
   2  -4 -10 8.02448 0.88759   1
  -2   4  10 8.29780 1.04764   2
   1  -4 -10 2.74485 0.68348   4
   1  -4 -10 2.25301 0.42657   1
  -1   4  10 1.83852 0.51915   2
   0  -4 -10 159.056 4.64162   4
   0  -4 -10 152.095 4.68296   3
   0  -4 -10 154.342 3.87818   1
   0   4  10 156.102 3.92781   2
  -1  -4 -10 28.6905 1.68509   3
  -1  -4 -10 32.4239 1.74994   4
   1   4  10 29.5962 0.92331   1
  -2  -4 -10 348.297 9.61285   4
  -2  -4 -10 359.787 9.81492   3
   2   4  10 354.038 8.64877   1
  -3  -4 -10 33.7190 2.09741   3
  -3  -4 -10 28.3241 1.16909   2
  -3  -4 -10 31.2794 2.05084   4
  -4  -4 -10 6.60259 1.49805   3
  -5  -4 -10 13.8895 2.03347   3
   5   4  10 10.7281 1.82037   5
   4  -5 -10 1.94772 1.12617   4
  -4   5  10 0.55868 1.09901   2
   3  -5 -10 5.46160 1.13143   4
  -3   5  10 5.77741 1.16253   2
   2  -5 -10 -0.4310 0.44391   1
   2  -5 -10 0.34943 0.81812   4
  -2   5  10 0.48605 0.63821   2
   1  -5 -10 3.26717 0.91158   4
   1  -5 -10 4.37892 0.49069   1
  -1   5  10 2.87153 0.66888   2
   0  -5 -10 7.65128 1.14231   4
   0  -5 -10 8.77001 1.08583   3
   0   5  10 8.87586 0.61479   2
  -1  -5 -10 17.5382 1.40434   3
  -1  -5 -10 18.0746 1.68628   4
  -2  -5 -10 8.00554 1.25469   3
  -2  -5 -10 7.02693 1.33236   4
  -3  -5 -10 41.2715 2.58426   4
  -3  -5 -10 42.7857 2.56291   3
  -4  -5 -10 20.7546 2.34027   3
  -4  -5 -10 17.5758 2.22309   4
  -5  -5 -10 29.8182 3.02606   3
   4  -6 -10 56.2273 3.22153   4
  -4   6  10 57.6776 3.13943   2
   3  -6 -10 3.61126 1.26867   4
  -3   6  10 2.00566 0.97659   2
   2  -6 -10 1.58322 0.91260   4
  -2   6  10 2.19704 0.82485   2
   1  -6 -10 28.0291 1.85688   4
   1  -6 -10 29.0323 1.85241   3
  -1   6  10 25.8240 1.45116   2
   0  -6 -10 2.33801 0.86898   4
   0  -6 -10 3.78357 0.97493   3
   0   6  10 2.61057 0.49717   2
  -1  -6 -10 50.9909 2.68544   4
  -1  -6 -10 51.2136 2.54457   3
  -2  -6 -10 10.0917 1.37951   3
  -2  -6 -10 9.32690 1.57536   4
  -3  -6 -10 1.04158 1.00430   3
  -3  -6 -10 1.64251 1.03799   4
  -4  -6 -10 43.3000 3.00011   3
  -4  -6 -10 46.6936 3.13146   4
   3  -7 -10 39.0139 2.80836   4
  -3   7  10 43.1865 2.60356   2
   2  -7 -10 4.77122 1.36758   4
   2  -7 -10 3.76058 1.06342   3
  -2   7  10 5.55061 1.10916   2
   1  -7 -10 40.8648 2.35050   3
   1  -7 -10 46.5823 2.66957   4
   0  -7 -10 4.12621 0.99963   3
   0  -7 -10 5.72561 1.31419   4
  -1  -7 -10 3.33994 0.98422   3
  -1  -7 -10 4.27880 1.19383   4
  -2  -7 -10 3.40899 1.13044   3
  -2  -7 -10 3.44338 1.28501   4
  -3  -7 -10 1.55161 1.15141   4
  -3  -7 -10 -0.1926 0.88801   3
  -4  -7 -10 42.9508 2.97967   3
  -4  -7 -10 44.2038 3.23123   4
   2  -8 -10 2.94155 1.25783   4
   2  -8 -10 -0.5316 0.92091   3
   1  -8 -10 18.1803 2.07678   4
   1  -8 -10 19.1841 1.92837   3
   0  -8 -10 19.9750 1.85452   3
   0  -8 -10 19.6999 2.09118   4
  -1  -8 -10 4.86782 1.36438   4
  -1  -8 -10 4.32468 1.07142   3
  -2  -8 -10 7.31347 1.54675   4
  -2  -8 -10 7.70130 1.41912   3
   1   7 -11 1.26811 0.78762   1
   0   7 -11 7.07085 1.11908   1
  -1   7 -11 -0.7304 0.78010   1
   1  -7  11 0.36096 0.93936   4
   3   6 -11 0.85771 0.78631   1
   2   6 -11 12.5618 1.31888   1
   1   6 -11 8.61214 1.14368   1
  -1  -6  11 9.22567 1.15544   4
   0   6 -11 0.26459 0.60193   1
   0  -6  11 0.09178 0.67442   4
  -1   6 -11 0.49883 0.66333   1
   1  -6  11 0.28513 0.67194   4
  -2   6 -11 0.26112 0.83218   1
   2  -6  11 -0.6533 0.78483   4
  -3   6 -11 56.5044 3.00580   1
   3  -6  11 63.3753 3.19572   4
   3   5 -11 0.24405 0.81112   1
   2   5 -11 279.158 7.78516   1
  -2  -5  11 280.503 7.63950   4
   1   5 -11 5.31615 0.88254   1
  -1  -5  11 5.48869 0.85574   4
   0   5 -11 59.9065 2.48882   1
   0  -5  11 56.7663 2.35297   4
  -1   5 -11 41.0886 2.15117   1
   1  -5  11 40.5822 2.04904   4
  -2   5 -11 26.0753 2.09927   1
   2  -5  11 24.0610 1.82084   4
  -3   5 -11 0.68456 0.88491   1
  -4   5 -11 3.04753 1.51820   2
   4   4 -11 10.6553 1.40656   1
   3   4 -11 114.393 3.94048   1
   2   4 -11 30.8946 1.69602   1
  -2  -4  11 29.0628 1.49760   4
   1   4 -11 52.3123 2.17366   1
  -1  -4  11 53.1861 1.96400   4
   0   4 -11 106.455 3.55984   1
   0  -4  11 106.789 3.26968   4
  -1   4 -11 31.4516 1.80610   1
   1  -4  11 31.2300 1.60308   4
  -2   4 -11 14.3323 1.55064   1
  -3   4 -11 15.8272 1.78187   1
  -4   4 -11 0.07258 1.00223   2
   5   3 -11 -0.7090 1.03918   1
   4   3 -11 22.9131 1.56626   5
   4   3 -11 20.2126 1.79331   1
   3   3 -11 13.0413 1.36514   1
   3   3 -11 12.4855 1.08863   5
   2   3 -11 2.13195 0.72763   1
   2   3 -11 2.32173 0.50063   4
   1   3 -11 38.5272 1.45740   3
   1   3 -11 37.8211 1.74090   1
  -1  -3  11 39.1302 1.39676   4
   0   3 -11 16.5691 1.23003   1
   0  -3  11 17.7359 0.92788   4
  -1   3 -11 41.5124 1.88009   1
   1  -3  11 38.0222 1.60714   4
  -2   3 -11 189.350 5.70245   1
  -3   3 -11 25.3933 1.88593   1
   3  -3  11 25.5931 1.56529   5
  -4   3 -11 24.3671 2.28784   2
   4  -3  11 33.4621 2.04801   5
  -5   3 -11 -0.2720 1.08937   2
   5  -3  11 0.50188 1.12085   5
   5   2 -11 16.5793 1.82928   5
   5   2 -11 18.7357 2.03731   1
  -5  -2  11 19.3788 2.25162   2
   4   2 -11 4.14222 1.06454   1
   4   2 -11 2.96836 0.87830   5
  -4  -2  11 3.08621 1.24254   2
   3   2 -11 2.22071 0.75628   1
   3   2 -11 1.97656 0.65190   5
   2   2 -11 8.18308 0.59598   4
   2   2 -11 6.33234 0.88537   1
   1   2 -11 48.5327 1.96309   1
   0   2 -11 59.5258 1.75420   3
   0   2 -11 58.8619 2.19865   1
   0  -2  11 62.2475 1.75576   4
  -1   2 -11 72.1723 2.13953   3
  -1   2 -11 77.2522 2.62229   1
   1  -2  11 72.5761 2.09120   5
  -2   2 -11 160.154 4.91934   1
  -2   2 -11 161.636 4.50634   3
   2  -2  11 161.242 4.35133   3
   2  -2  11 164.409 4.59391   5
  -3   2 -11 167.096 5.41173   2
  -3   2 -11 170.268 5.42225   1
   3  -2  11 173.801 5.16611   5
  -4   2 -11 3.85352 1.14253   2
   4  -2  11 5.68807 1.11712   5
  -5   2 -11 25.2153 2.50469   2
   5  -2  11 24.8104 2.39554   5
   5   1 -11 15.8134 1.80468   1
  -5  -1  11 14.8008 2.01909   2
   4   1 -11 1.10669 0.84177   1
  -4  -1  11 1.34992 0.95916   2
   3   1 -11 18.5245 1.57215   1
  -3  -1  11 17.3466 1.62667   2
   2   1 -11 97.1548 3.20487   1
   2   1 -11 95.9499 2.61381   4
  -2  -1  11 96.8104 2.87536   5
   1   1 -11 17.2596 1.11726   1
  -1  -1  11 16.9211 0.69006   5
   0   1 -11 153.099 4.40267   1
   0   1 -11 160.178 4.17816   3
  -1   1 -11 38.0182 1.46526   3
  -1   1 -11 38.4467 1.65512   1
   1  -1  11 38.0626 1.35862   5
  -2   1 -11 77.5489 2.76569   1
  -2   1 -11 74.0051 2.57218   3
   2  -1  11 77.2724 2.59690   5
  -3   1 -11 19.1276 1.59575   3
  -3   1 -11 16.6367 1.50866   1
  -3   1 -11 17.6373 1.41581   2
   3  -1  11 17.4295 1.36960   5
  -4   1 -11 -0.2278 0.79225   2
  -4   1 -11 2.01372 0.90555   3
   4  -1  11 0.66414 0.78581   5
  -5   1 -11 21.9948 2.13569   2
   5  -1  11 22.3863 2.24499   5
   5   0 -11 6.66599 1.30667   1
  -5   0  11 5.63543 1.45975   2
   4   0 -11 7.37959 1.28794   1
  -4   0  11 6.64974 1.31880   2
   3   0 -11 62.4891 2.53530   1
  -3   0  11 62.1991 2.74715   2
   2   0 -11 28.3377 1.49764   1
  -2   0  11 27.3917 1.53748   2
   1   0 -11 83.5631 2.68035   1
  -1   0  11 82.3379 2.40697   5
   0   0 -11 31.2496 1.35156   1
   0   0 -11 31.6946 1.33745   3
   0   0  11 33.3039 0.90374   4
  -1   0 -11 -0.2389 0.36959   1
  -1   0 -11 0.49389 0.42539   3
   1   0  11 0.31812 0.33079   4
  -2   0 -11 2.03961 0.61261   3
  -2   0 -11 1.23999 0.55446   1
   2   0  11 1.46365 0.59325   5
  -3   0 -11 8.20111 1.18619   3
  -3   0 -11 7.22909 1.05279   1
  -3   0 -11 7.46491 1.05222   2
   3   0  11 9.31865 1.15327   5
  -4   0 -11 22.4383 1.78844   2
  -4   0 -11 24.8721 2.12251   3
   4   0  11 23.8806 1.84096   5
  -5   0 -11 21.5346 2.18114   2
  -5   0 -11 20.3729 2.21724   3
   5   0  11 20.2070 2.12438   5
   5  -1 -11 4.93517 1.32607   1
  -5   1  11 6.89497 1.63414   2
   4  -1 -11 79.8393 3.32039   1
  -4   1  11 84.2671 3.51757   2
   3  -1 -11 2.01688 0.77384   1
  -3   1  11 2.82010 0.91628   2
   2  -1 -11 4.70667 0.73649   1
  -2   1  11 3.14806 0.69867   2
   1  -1 -11 10.6957 0.88938   1
   1  -1 -11 10.2832 0.59300   4
  -1   1  11 11.2697 0.88042   2
   0  -1 -11 0.11325 0.33853   2
   0  -1 -11 0.53140 0.31778   4
   0  -1 -11 -0.2572 0.34698   1
   0  -1 -11 0.22559 0.37079   3
   0   1  11 0.31144 0.25240   4
  -1  -1 -11 4.17797 0.63727   3
  -1  -1 -11 4.63524 0.59513   1
   1   1  11 4.12638 0.53504   4
  -2  -1 -11 85.1516 2.86018   1
  -2  -1 -11 87.4804 3.08202   3
  -2  -1 -11 90.6881 2.73414   2
  -3  -1 -11 28.8113 1.56485   2
  -3  -1 -11 29.5180 1.88717   3
   3   1  11 33.6573 1.87207   5
  -4  -1 -11 4.77937 1.18801   3
  -4  -1 -11 5.32908 1.07350   2
   4   1  11 4.26421 1.12557   5
  -5  -1 -11 43.4441 2.56724   2
  -5  -1 -11 43.1673 2.78126   3
   5   1  11 41.2150 2.67656   5
  -5   2  11 14.9100 2.02126   2
  -4   2  11 0.44863 1.03683   2
   3  -2 -11 0.53549 0.60723   1
  -3   2  11 1.72182 0.77925   2
   2  -2 -11 10.7725 0.92736   4
   2  -2 -11 9.82673 0.95160   1
  -2   2  11 9.79991 1.06965   2
   1  -2 -11 13.5357 0.97185   2
   1  -2 -11 11.4730 0.84626   1
   1  -2 -11 13.1886 0.81993   4
  -1   2  11 12.2046 0.89286   2
   0  -2 -11 10.3579 0.67534   2
   0  -2 -11 9.31028 0.91158   3
   0  -2 -11 11.0899 0.74762   1
   0  -2 -11 10.0293 0.79013   4
   0   2  11 11.2439 0.72936   1
   0   2  11 12.8811 0.77046   4
  -1  -2 -11 26.4832 1.14592   1
  -1  -2 -11 25.6041 1.34303   4
  -1  -2 -11 26.2630 1.45598   3
   1   2  11 27.7952 1.10581   1
  -2  -2 -11 0.88877 0.66188   4
  -2  -2 -11 0.40560 0.46533   1
  -2  -2 -11 1.23371 0.60835   3
  -2  -2 -11 0.21611 0.34139   2
  -3  -2 -11 124.051 3.65741   2
  -3  -2 -11 117.987 4.25820   3
  -4  -2 -11 69.7916 2.74988   2
  -4  -2 -11 65.0661 3.18072   3
   4   2  11 67.5116 3.14352   5
  -5  -2 -11 31.4874 2.15654   2
  -5  -2 -11 32.0766 2.47976   3
   5   2  11 30.8216 2.70268   5
  -5   3  11 7.19120 1.61543   2
  -4   3  11 12.3263 1.70256   2
   3  -3 -11 20.4570 1.43342   1
  -3   3  11 22.2567 1.72740   2
   2  -3 -11 4.23176 0.75125   4
   2  -3 -11 3.52402 0.66086   1
  -2   3  11 3.98034 0.81189   2
   1  -3 -11 56.0192 1.97300   2
   1  -3 -11 52.9690 1.81110   1
   1  -3 -11 55.5538 2.02438   4
  -1   3  11 54.2490 1.92645   2
   0  -3 -11 255.345 6.30660   1
   0  -3 -11 240.074 6.86212   3
   0  -3 -11 250.468 6.22179   2
   0  -3 -11 256.189 6.71032   4
   0   3  11 255.440 6.34477   1
  -1  -3 -11 17.3899 0.86284   1
  -1  -3 -11 18.7520 1.27179   3
  -1  -3 -11 18.0634 1.25217   4
   1   3  11 18.7074 0.81901   1
  -2  -3 -11 63.5866 1.65539   2
  -2  -3 -11 61.3295 2.64718   3
  -2  -3 -11 62.5634 2.54151   4
  -3  -3 -11 332.611 8.14004   2
  -3  -3 -11 320.022 9.05609   4
  -3  -3 -11 309.525 9.15834   3
  -4  -3 -11 2.07939 1.02960   3
  -4  -3 -11 0.00600 0.65365   2
  -5  -3 -11 8.72695 1.76989   3
   5   3  11 5.10000 1.47849   5
  -4   4  11 60.6448 3.06390   2
   3  -4 -11 6.38340 1.13517   4
  -3   4  11 6.64471 1.21718   2
   2  -4 -11 236.802 6.35351   1
   2  -4 -11 241.139 6.67567   4
  -2   4  11 230.573 6.63123   2
   1  -4 -11 54.9319 2.26309   4
   1  -4 -11 59.6776 1.86595   1
   1  -4 -11 54.3863 2.00679   2
  -1   4  11 59.1743 2.03723   2
   0  -4 -11 297.728 8.05114   3
   0  -4 -11 289.635 7.89694   4
   0  -4 -11 290.515 7.16619   1
   0   4  11 296.503 7.11737   2
  -1  -4 -11 13.6898 1.31684   3
  -1  -4 -11 11.4275 1.17950   4
  -1  -4 -11 10.0805 0.59484   1
   1   4  11 11.0373 0.54624   1
  -2  -4 -11 32.8709 1.99749   4
  -2  -4 -11 32.8463 2.05363   3
   2   4  11 33.9666 1.20751   1
  -3  -4 -11 14.9452 1.74333   4
  -3  -4 -11 14.6912 1.69480   3
  -4  -4 -11 5.07300 1.39468   3
  -5  -4 -11 5.25482 1.62454   3
   5   4  11 4.96149 1.47658   5
   4  -5 -11 2.59415 1.11468   4
  -4   5  11 2.27876 1.23258   2
   3  -5 -11 95.3771 3.78710   4
  -3   5  11 100.392 3.82153   2
   2  -5 -11 73.1979 3.02381   4
   2  -5 -11 81.6799 2.60931   1
  -2   5  11 74.7047 2.91791   2
   1  -5 -11 22.7550 1.55553   3
   1  -5 -11 24.5557 0.99789   1
   1  -5 -11 23.2316 1.55974   4
  -1   5  11 21.9440 1.27215   2
   0  -5 -11 96.8679 3.43981   4
   0  -5 -11 94.6449 3.44104   3
   0   5  11 95.9242 2.57561   2
  -1  -5 -11 10.2758 1.38320   4
  -1  -5 -11 8.10470 1.22700   3
  -2  -5 -11 17.5819 1.72578   3
  -2  -5 -11 20.2787 1.90431   4
  -3  -5 -11 29.5511 2.30502   4
  -3  -5 -11 37.8106 2.46109   3
  -4  -5 -11 0.11277 1.00628   4
  -4  -5 -11 0.27896 1.09919   3
  -5  -5 -11 -0.7862 1.18947   3
   3  -6 -11 28.9326 2.37693   4
  -3   6  11 18.0433 1.86084   2
   2  -6 -11 0.97887 0.96052   4
  -2   6  11 2.64875 0.83783   2
   1  -6 -11 -0.3387 0.67535   4
   1  -6 -11 0.82449 0.83911   3
  -1   6  11 -0.2078 0.49143   2
   0  -6 -11 121.641 4.27786   3
   0  -6 -11 126.510 4.42756   4
  -1  -6 -11 2.14593 0.94007   3
  -1  -6 -11 1.71034 0.97056   4
  -2  -6 -11 86.4938 3.62815   3
  -2  -6 -11 79.8639 3.53969   4
  -3  -6 -11 8.58934 1.58674   3
  -3  -6 -11 11.3720 1.81865   4
  -4  -6 -11 25.8143 2.59593   3
  -4  -6 -11 19.7554 2.28941   4
   3  -7 -11 -0.1386 1.17879   4
  -3   7  11 0.98411 1.12900   2
   2  -7 -11 0.39763 1.08926   4
   2  -7 -11 0.01247 0.84780   3
   1  -7 -11 3.16603 1.16627   4
   1  -7 -11 3.21876 0.99237   3
   0  -7 -11 73.4179 3.40803   4
   0  -7 -11 73.9981 3.29687   3
  -1  -7 -11 13.2477 1.67597   4
  -1  -7 -11 15.7553 1.73846   3
  -2  -7 -11 76.6643 3.65215   4
  -2  -7 -11 82.7277 3.71719   3
  -3  -7 -11 46.8254 3.01203   3
  -3  -7 -11 54.3090 3.28910   4
   1  -8 -11 2.85252 1.16325   3
   1  -8 -11 1.28144 1.14283   4
   0  -8 -11 3.09194 1.33563   4
   0  -8 -11 2.11974 1.06467   3
  -1  -8 -11 17.5614 2.16204   4
  -1  -8 -11 17.6730 1.93303   3
  -2  -8 -11 60.9708 3.35595   3
  -2  -8 -11 64.2949 3.58733   4
   1   7 -12 8.64793 1.23209   1
   0   7 -12 14.8775 1.60580   1
   2   6 -12 12.6394 1.30501   1
   1   6 -12 18.4973 1.65186   1
   0   6 -12 42.1933 2.17072   1
   0  -6  12 36.2084 1.98848   4
  -1   6 -12 13.8073 1.56792   1
   1  -6  12 11.0825 1.36807   4
  -2   6 -12 39.9148 2.41819   1
   2  -6  12 37.5665 2.32233   4
   3   5 -12 12.5702 1.49311   1
   2   5 -12 7.35672 1.15089   1
   1   5 -12 40.2421 2.03929   1
  -1  -5  12 37.3486 1.77786   4
   0   5 -12 5.26330 1.03760   1
   0  -5  12 4.80062 0.82443   4
  -1   5 -12 4.66732 0.95401   1
   1  -5  12 5.49934 0.97416   4
  -2   5 -12 81.4556 3.37859   1
   2  -5  12 79.5042 3.15795   4
  -3   5 -12 53.4269 2.86488   1
   4   4 -12 63.8793 3.02790   1
   3   4 -12 2.81524 0.98322   1
   2   4 -12 2.13365 0.87695   1
  -2  -4  12 2.99231 0.64135   4
   1   4 -12 29.5600 1.69425   1
  -1  -4  12 27.6328 1.29830   4
   0   4 -12 0.72482 0.70312   1
   0  -4  12 1.20175 0.52848   4
  -1   4 -12 1.75666 0.73332   1
   1  -4  12 -0.5040 0.50995   4
  -2   4 -12 27.6579 1.88452   1
  -3   4 -12 -0.1594 0.75965   1
  -4   4 -12 46.2207 2.96001   2
   4   3 -12 33.5924 2.11464   1
   3   3 -12 19.6470 1.24896   5
   3   3 -12 24.2408 1.85132   1
   2   3 -12 20.9384 1.63595   1
   1   3 -12 -0.2699 0.35669   3
   1   3 -12 1.36652 0.63400   1
  -1  -3  12 0.50342 0.33170   4
   0   3 -12 13.9166 1.20614   1
   0  -3  12 13.6903 0.82565   4
  -1   3 -12 38.2892 1.90257   1
   1  -3  12 42.4360 1.66285   4
  -2   3 -12 26.8764 1.71051   1
  -3   3 -12 4.43175 1.14466   1
   3  -3  12 2.65415 0.78617   5
  -4   3 -12 32.4610 2.40976   2
   4  -3  12 31.8178 2.04663   5
  -5   3 -12 23.1509 2.61433   2
   5   2 -12 17.2177 1.97817   1
  -5  -2  12 13.4226 1.91578   2
   4   2 -12 18.1082 1.76233   1
  -4  -2  12 17.3764 1.89938   2
   3   2 -12 35.4655 1.93836   1
   2   2 -12 12.9893 1.19517   1
   2   2 -12 12.3779 0.65262   4
   1   2 -12 86.6942 2.91872   1
   0   2 -12 6.83233 0.54622   3
   0   2 -12 8.87241 0.95257   1
   0  -2  12 7.28074 0.48891   4
  -1   2 -12 83.3712 2.43352   3
  -1   2 -12 84.5238 2.91594   1
   1  -2  12 84.3845 2.32913   5
  -2   2 -12 27.3143 1.63541   1
  -2   2 -12 27.8902 1.33824   3
   2  -2  12 27.3397 1.35774   5
   2  -2  12 28.0877 1.17309   3
  -3   2 -12 27.0809 1.81526   1
  -3   2 -12 23.9281 1.57741   3
   3  -2  12 24.6016 1.58978   5
  -4   2 -12 -0.6355 0.71594   2
   4  -2  12 -0.2604 0.68815   5
  -5   2 -12 5.73577 1.45972   2
   5  -2  12 5.24850 1.45257   5
   5   1 -12 1.58097 1.09404   1
  -5  -1  12 0.65496 1.14088   2
   4   1 -12 11.7874 1.47800   1
  -4  -1  12 13.4038 1.80166   2
   3   1 -12 2.77466 0.83007   1
  -3  -1  12 2.52896 0.92079   2
   2   1 -12 57.4992 1.66577   4
   2   1 -12 56.6881 2.28473   1
  -2  -1  12 60.0282 1.97747   5
   1   1 -12 5.81086 0.77681   1
  -1  -1  12 6.57152 0.43663   5
   0   1 -12 17.0128 0.92880   3
   0   1 -12 18.5695 1.09413   1
  -1   1 -12 31.1136 1.48769   1
  -1   1 -12 29.7912 1.29853   3
   1  -1  12 31.6873 1.21279   5
  -2   1 -12 24.7883 1.47226   1
  -2   1 -12 22.6197 1.33033   3
   2  -1  12 22.8347 1.28713   5
  -3   1 -12 1.56338 0.78397   1
  -3   1 -12 1.84811 0.77352   3
  -3   1 -12 3.96294 0.95448   2
   3  -1  12 3.45904 0.87876   5
  -4   1 -12 51.9287 2.60583   3
  -4   1 -12 49.6231 2.66673   2
   4  -1  12 49.1111 2.60479   5
  -5   1 -12 19.2959 2.04845   2
   5  -1  12 27.2201 2.45784   5
   5   0 -12 3.68835 1.17938   1
  -5   0  12 1.65609 1.31866   2
   4   0 -12 0.32574 0.78278   1
  -4   0  12 0.23920 0.86851   2
   3   0 -12 169.650 5.18754   1
  -3   0  12 166.409 5.28338   2
   2   0 -12 0.74609 0.35579   4
   2   0 -12 0.15488 0.51875   1
  -2   0  12 0.14915 0.61293   2
   1   0 -12 30.9209 1.42904   1
  -1   0  12 32.7734 1.23173   5
   0   0 -12 0.06757 0.37742   1
   0   0 -12 0.22211 0.38091   3
   0   0  12 0.14470 0.12948   4
  -1   0 -12 92.5983 2.97850   1
  -1   0 -12 91.5186 2.92787   3
   1   0  12 96.8072 2.71332   4
  -2   0 -12 1.42142 0.61235   1
  -2   0 -12 1.89855 0.59475   3
   2   0  12 1.82250 0.63579   5
  -3   0 -12 59.8230 2.55217   1
  -3   0 -12 58.5511 2.59186   3
  -3   0 -12 58.4500 2.49689   2
   3   0  12 60.1580 2.58552   5
  -4   0 -12 67.2967 3.09316   3
  -4   0 -12 65.9786 2.83974   2
   4   0  12 58.9311 2.95493   5
  -5   0 -12 9.54110 1.58188   2
  -5   0 -12 9.65121 1.68276   3
   5   0  12 10.8536 1.71333   5
   5  -1 -12 11.3031 1.56092   1
  -5   1  12 9.25174 1.77036   2
   4  -1 -12 8.63061 1.24397   1
  -4   1  12 8.33193 1.46247   2
   3  -1 -12 426.577 11.4385   1
  -3   1  12 449.195 11.7040   2
   2  -1 -12 16.7747 1.20976   1
  -2   1  12 20.1058 1.30674   2
   1  -1 -12 86.4104 2.30793   4
   1  -1 -12 80.3691 2.63513   1
   0  -1 -12 80.8338 2.34098   4
   0  -1 -12 88.3213 2.77725   3
   0  -1 -12 83.3084 2.61080   1
   0  -1 -12 84.2797 2.54586   2
   0   1  12 83.5952 2.30116   4
  -1  -1 -12 0.44944 0.41993   1
  -1  -1 -12 0.27502 0.45813   3
   1   1  12 0.32982 0.36908   4
  -2  -1 -12 92.9727 3.26636   3
  -2  -1 -12 94.0352 3.05816   1
  -3  -1 -12 116.939 3.88128   1
  -3  -1 -12 118.623 4.17453   3
  -3  -1 -12 116.427 3.72369   2
   3   1  12 119.589 4.06367   5
  -4  -1 -12 0.48485 0.89462   3
  -4  -1 -12 -0.3458 0.72137   2
   4   1  12 -1.0225 0.90003   5
  -5  -1 -12 22.6982 2.16356   2
  -5  -1 -12 22.4816 2.29860   3
   5   1  12 17.8437 2.16029   5
   5  -2 -12 4.34971 1.21264   1
  -5   2  12 3.02371 1.44605   2
   4  -2 -12 55.8927 2.64826   1
  -4   2  12 61.8585 2.97065   2
   3  -2 -12 216.549 6.27877   1
  -3   2  12 219.467 6.51156   2
   2  -2 -12 45.8784 1.76713   4
   2  -2 -12 45.6575 1.88692   1
  -2   2  12 47.3720 2.04990   2
   1  -2 -12 37.1173 1.42760   4
   1  -2 -12 40.2203 1.56393   1
  -1   2  12 39.4728 1.56569   2
   0  -2 -12 2.04727 0.48335   4
   0  -2 -12 3.10197 0.47292   2
   0  -2 -12 2.97024 0.62320   3
   0  -2 -12 2.42804 0.45938   1
   0   2  12 1.58601 0.44566   4
  -1  -2 -12 10.3031 0.59791   2
  -1  -2 -12 10.6823 0.85047   1
  -1  -2 -12 9.63664 1.01561   3
  -1  -2 -12 12.0489 1.01178   4
  -2  -2 -12 52.2321 2.18089   4
  -2  -2 -12 48.8834 1.93436   1
  -2  -2 -12 51.3477 1.71460   2
  -2  -2 -12 51.1542 2.28451   3
  -3  -2 -12 264.064 7.59516   3
  -3  -2 -12 246.451 6.76634   2
  -4  -2 -12 12.4558 1.63512   3
  -4  -2 -12 12.5285 1.31424   2
   4   2  12 13.4313 1.71424   5
  -5  -2 -12 22.2185 2.31412   3
  -5  -2 -12 20.8954 1.90800   2
   5   2  12 19.3165 2.16864   5
  -5   3  12 2.16556 1.21395   2
   4  -3 -12 1.23038 0.94582   1
  -4   3  12 1.27648 0.96105   2
   3  -3 -12 2.01748 0.74356   4
   3  -3 -12 3.66458 0.84295   1
  -3   3  12 4.59918 1.03315   2
   2  -3 -12 0.82647 0.56939   4
   2  -3 -12 0.55927 0.57327   1
  -2   3  12 1.63496 0.68164   2
   1  -3 -12 29.2328 1.27404   1
   1  -3 -12 30.5826 1.41488   4
   1  -3 -12 28.2029 1.53532   2
  -1   3  12 32.6379 1.38316   2
   0  -3 -12 1.87205 0.65530   3
   0  -3 -12 1.25803 0.58193   4
   0  -3 -12 2.22036 0.41041   1
   0  -3 -12 2.81085 0.40068   2
   0   3  12 1.84257 0.40424   1
  -1  -3 -12 60.7578 1.92761   1
  -1  -3 -12 64.3221 2.36616   4
  -1  -3 -12 56.8865 2.40776   3
   1   3  12 60.2323 1.86811   1
  -2  -3 -12 30.8601 1.88063   3
  -2  -3 -12 28.8714 0.86860   2
  -2  -3 -12 29.6937 1.78001   4
  -2  -3 -12 29.0060 1.38444   1
  -3  -3 -12 255.990 7.69705   3
  -3  -3 -12 254.595 6.56967   2
  -4  -3 -12 15.6115 1.28721   2
  -4  -3 -12 14.5559 1.77670   3
  -5  -3 -12 37.5971 2.86233   3
   5   3  12 34.3284 2.59432   5
   4  -4 -12 28.2616 2.01634   4
  -4   4  12 29.1614 2.26098   2
   3  -4 -12 14.2728 1.49019   4
   3  -4 -12 11.7169 1.25986   1
  -3   4  12 13.7504 1.54784   2
   2  -4 -12 2.56867 0.77934   4
   2  -4 -12 2.38333 0.63321   1
  -2   4  12 0.94528 0.65618   2
   1  -4 -12 10.6976 1.08491   4
   1  -4 -12 13.2625 1.44622   2
   1  -4 -12 10.4367 0.75792   1
  -1   4  12 10.8574 0.94073   2
   0  -4 -12 9.30385 1.08908   4
   0  -4 -12 8.27810 1.02129   3
   0  -4 -12 10.2013 0.59897   1
  -1  -4 -12 67.9342 2.70015   4
  -1  -4 -12 66.7327 1.98318   1
  -1  -4 -12 69.9681 2.81634   3
   1   4  12 65.7289 1.91592   1
  -2  -4 -12 81.5400 3.27438   4
  -2  -4 -12 82.6554 3.33490   3
   2   4  12 83.8365 2.40234   1
  -3  -4 -12 178.715 5.85522   4
  -3  -4 -12 175.924 5.92710   3
  -4  -4 -12 28.4003 2.62274   3
  -5  -4 -12 35.3170 3.16094   3
   5   4  12 31.9310 2.90096   5
   4  -5 -12 12.2493 1.72014   4
  -4   5  12 8.00366 1.50420   2
   3  -5 -12 -0.2392 0.61587   1
   3  -5 -12 -0.0635 0.86587   4
  -3   5  12 -0.0365 0.82987   2
   2  -5 -12 6.80663 0.84285   1
   2  -5 -12 6.92992 1.21968   4
  -2   5  12 5.85445 0.96204   2
   1  -5 -12 2.81777 0.93978   3
   1  -5 -12 4.22207 0.52055   1
   1  -5 -12 4.92724 1.03141   4
  -1   5  12 3.67447 0.66519   2
   0  -5 -12 42.3151 2.13697   3
   0  -5 -12 40.8952 1.19422   1
   0  -5 -12 46.0769 2.23390   4
   0   5  12 42.7743 1.25933   2
  -1  -5 -12 60.4412 2.69186   4
  -1  -5 -12 56.9675 2.63620   3
  -2  -5 -12 14.1811 1.72884   4
  -2  -5 -12 12.5613 1.55912   3
  -3  -5 -12 21.5125 2.14504   3
  -3  -5 -12 17.6710 1.86525   4
  -4  -5 -12 32.4265 2.90470   3
  -4  -5 -12 30.2724 2.75784   4
  -5  -5 -12 -0.9582 1.07643   3
   3  -6 -12 15.9444 1.85552   4
  -3   6  12 13.5291 1.62138   2
   2  -6 -12 1.65450 1.04871   4
  -2   6  12 0.43482 0.68962   2
   1  -6 -12 10.1166 1.42678   4
   1  -6 -12 10.0320 1.37402   3
  -1   6  12 9.28571 1.00073   2
   0  -6 -12 15.5091 1.69596   4
   0  -6 -12 14.0061 1.51085   3
  -1  -6 -12 9.04442 1.29833   3
  -1  -6 -12 12.4651 1.56213   4
  -2  -6 -12 10.9308 1.54321   4
  -2  -6 -12 10.7696 1.53868   3
  -3  -6 -12 -0.6759 0.84233   3
  -3  -6 -12 -0.0030 1.02339   4
  -4  -6 -12 9.81736 1.91773   4
  -4  -6 -12 8.53001 1.82474   3
   2  -7 -12 12.2402 1.70073   3
   2  -7 -12 13.3213 1.82459   4
   1  -7 -12 33.8525 2.41676   4
   1  -7 -12 33.8296 2.24691   3
   0  -7 -12 48.0433 2.63825   3
   0  -7 -12 49.5942 2.79407   4
  -1  -7 -12 1.07041 0.96616   4
  -1  -7 -12 -0.4997 0.83319   3
  -2  -7 -12 15.1908 1.85601   3
  -2  -7 -12 17.0049 2.03116   4
  -3  -7 -12 4.63620 1.34456   3
  -3  -7 -12 4.81472 1.40855   4
   1  -8 -12 3.61334 1.20290   3
   1  -8 -12 2.96462 1.31718   4
   0  -8 -12 5.48388 1.58745   4
   0  -8 -12 5.56138 1.13935   3
  -1  -8 -12 1.43008 0.97940   3
  -1  -8 -12 1.56444 1.25800   4
  -2  -8 -12 1.73104 1.38654   4
  -2  -8 -12 3.14047 1.08158   3
   2   6 -13 29.7856 1.93540   1
   1   6 -13 1.35720 0.79869   1
   0   6 -13 16.5687 1.69086   1
  -1   6 -13 0.05494 0.72752   1
   1  -6  13 -1.4676 0.74958   4
  -2   6 -13 3.41356 1.13619   1
   2  -6  13 4.68935 1.12476   4
   3   5 -13 5.43525 1.05080   1
   2   5 -13 37.6804 2.11926   1
   1   5 -13 64.6325 2.68809   1
   0   5 -13 58.2407 2.61729   1
   0  -5  13 58.2726 2.27200   4
  -1   5 -13 11.5282 1.46871   1
   1  -5  13 9.92785 1.16901   4
  -2   5 -13 -0.6509 0.71779   1
   2  -5  13 0.14750 0.69804   4
  -3   5 -13 17.3150 1.93703   1
   4   4 -13 27.7317 2.23090   1
   3   4 -13 47.9117 2.38805   1
   2   4 -13 30.4047 1.86667   1
   1   4 -13 98.9165 3.47019   1
  -1  -4  13 97.4482 2.95859   4
   0   4 -13 172.201 5.19791   1
   0  -4  13 165.377 4.66653   4
  -1   4 -13 22.8813 1.83751   1
   1  -4  13 22.1629 1.37228   4
  -2   4 -13 15.7282 1.62163   1
  -3   4 -13 7.94617 1.42642   1
  -4   4 -13 7.24165 1.61427   2
   4   3 -13 6.18535 1.26754   1
   3   3 -13 4.07060 1.02808   1
   2   3 -13 19.5608 1.45686   1
   1   3 -13 11.6672 1.21008   1
   1   3 -13 11.6750 1.07257   3
  -1  -3  13 10.8536 0.66839   4
   0   3 -13 114.437 3.69918   1
   0  -3  13 110.082 3.12231   4
  -1   3 -13 17.2372 1.46904   1
   1  -3  13 17.0780 1.10008   4
  -2   3 -13 6.20822 1.06773   1
  -3   3 -13 0.51573 0.90410   1
   3  -3  13 0.36840 0.63909   5
  -4   3 -13 15.1267 1.96983   2
   4  -3  13 12.1547 1.53199   5
   5   2 -13 0.66135 1.14828   1
  -5  -2  13 -0.1198 1.34002   2
   4   2 -13 19.9527 1.86148   1
   3   2 -13 1.80974 0.81818   1
   2   2 -13 33.7983 1.12861   4
   2   2 -13 36.4601 1.83351   1
   1   2 -13 34.2108 1.67104   1
   0   2 -13 96.9282 3.27246   1
   0   2 -13 101.093 2.81404   3
   0  -2  13 102.404 2.62633   4
  -1   2 -13 6.52202 0.89707   1
  -1   2 -13 5.28859 0.56929   3
   1  -2  13 5.48926 0.47853   5
  -2   2 -13 12.9563 1.02780   3
  -2   2 -13 16.9348 1.51685   1
   2  -2  13 15.6362 0.87418   3
   2  -2  13 16.9843 1.08522   5
  -3   2 -13 105.233 3.54956   3
  -3   2 -13 106.913 3.92679   1
   3  -2  13 103.044 3.58014   5
  -4   2 -13 18.0233 1.94593   2
   4  -2  13 15.6420 1.66573   5
  -5   2 -13 10.9742 1.75097   2
   5  -2  13 12.5610 1.76421   5
   5   1 -13 2.24784 1.18494   1
  -5  -1  13 1.12292 1.26226   2
   4   1 -13 1.16735 0.84919   1
  -4  -1  13 0.71841 1.13159   2
   3   1 -13 5.24096 1.00208   1
  -3  -1  13 7.15132 1.23181   2
   2   1 -13 76.7135 1.98291   4
   2   1 -13 76.3726 2.78672   1
  -2  -1  13 75.4819 2.38798   5
   1   1 -13 46.4722 1.96522   1
  -1  -1  13 50.5872 1.45713   5
   0   1 -13 93.1059 3.01840   1
   0   1 -13 89.0931 2.73455   3
  -1   1 -13 -0.0015 0.37772   3
  -1   1 -13 0.25150 0.46048   1
   1  -1  13 0.35781 0.33533   4
   1  -1  13 0.38000 0.32985   5
  -2   1 -13 257.016 6.87164   3
  -2   1 -13 248.386 7.06618   1
   2  -1  13 252.433 6.79128   5
  -3   1 -13 19.7021 1.50783   3
  -3   1 -13 21.9778 1.85016   1
  -3   1 -13 21.8572 1.85419   2
   3  -1  13 19.2207 1.47617   5
  -4   1 -13 35.2788 2.29409   2
  -4   1 -13 32.4039 2.11063   3
   4  -1  13 31.6906 2.12314   5
  -5   1 -13 39.0658 2.55231   2
   5  -1  13 32.9137 2.42936   5
   5   0 -13 10.1083 1.69475   1
  -5   0  13 10.4468 1.87281   2
   4   0 -13 0.35959 0.88784   1
  -4   0  13 0.26409 1.05027   2
   3   0 -13 73.7550 2.84675   1
  -3   0  13 67.4694 2.95145   2
   2   0 -13 0.47107 0.29873   4
   2   0 -13 -0.0554 0.58934   1
  -2   0  13 0.02107 0.58411   2
   1   0 -13 2.24685 0.64923   1
  -1   0  13 1.62837 0.39766   5
   0   0 -13 81.4201 2.63408   3
   0   0 -13 82.1508 2.69393   1
  -1   0 -13 199.355 5.64602   1
  -1   0 -13 207.168 5.64604   3
   1   0  13 208.763 5.32453   4
  -2   0 -13 43.3010 1.94405   3
  -2   0 -13 42.1129 1.91788   1
   2   0  13 43.2491 1.87090   5
  -3   0 -13 10.9727 1.27030   1
  -3   0 -13 11.0315 1.28807   3
  -3   0 -13 12.2759 1.27736   2
   3   0  13 8.33492 1.22623   5
  -4   0 -13 54.8883 2.82696   3
  -4   0 -13 53.6927 2.64930   2
   4   0  13 53.1453 2.77357   5
  -5   0 -13 8.48867 1.53861   2
  -5   0 -13 9.52993 1.65554   3
   5   0  13 7.19982 1.48715   5
   5  -1 -13 3.34453 1.20365   1
  -5   1  13 1.27525 1.22283   2
   4  -1 -13 43.6445 2.48004   1
  -4   1  13 42.7371 2.64995   2
   3  -1 -13 393.706 10.6466   1
  -3   1  13 410.753 10.9042   2
   2  -1 -13 15.5548 0.87048   4
   2  -1 -13 18.2347 1.40615   1
  -2   1  13 20.0359 1.41051   2
   1  -1 -13 12.1783 0.99169   1
   1  -1 -13 10.6901 0.60268   4
   0  -1 -13 205.904 5.20638   4
   0  -1 -13 211.002 5.71080   3
   0  -1 -13 205.593 5.53731   1
   0  -1 -13 202.837 5.49219   2
   0   1  13 205.227 5.14999   4
  -1  -1 -13 16.3016 1.16218   3
  -1  -1 -13 14.9810 0.97109   1
   1   1  13 15.9775 0.89907   4
  -2  -1 -13 29.0172 1.70667   3
  -2  -1 -13 33.0181 1.62249   1
  -3  -1 -13 0.38155 0.69433   1
  -3  -1 -13 0.10923 0.61165   2
  -3  -1 -13 0.46988 0.79929   3
  -4  -1 -13 35.7701 2.01849   2
  -4  -1 -13 41.3758 2.52644   3
   4   1  13 35.3268 2.26819   5
  -5  -1 -13 17.2033 2.05369   3
  -5  -1 -13 19.8164 2.01248   2
   5   1  13 21.9219 2.30222   5
   5  -2 -13 19.3045 2.06463   1
  -5   2  13 29.3104 2.70095   2
   4  -2 -13 10.4809 1.51134   1
  -4   2  13 8.95168 1.47567   2
   3  -2 -13 206.606 6.08876   1
  -3   2  13 207.859 6.29623   2
   2  -2 -13 2.13021 0.55371   4
   2  -2 -13 2.31302 0.64573   1
  -2   2  13 1.37932 0.71357   2
   1  -2 -13 9.36685 0.72089   4
   1  -2 -13 9.44963 0.88448   1
  -1   2  13 8.55670 0.85331   2
   0  -2 -13 2.54660 0.67137   3
   0  -2 -13 2.41119 0.52261   4
   0  -2 -13 2.41572 0.47295   2
   0  -2 -13 3.46856 0.56067   1
   0   2  13 2.20011 0.47649   4
  -1  -2 -13 48.5621 1.54824   2
  -1  -2 -13 50.8598 2.12246   3
  -1  -2 -13 49.7040 1.94781   4
  -1  -2 -13 47.6204 1.76932   1
  -2  -2 -13 6.09087 0.85557   1
  -2  -2 -13 7.60097 0.71207   2
  -2  -2 -13 6.55612 1.07231   3
  -3  -2 -13 3.84279 0.75040   2
  -3  -2 -13 5.01567 1.11248   3
  -4  -2 -13 12.0205 1.63601   3
  -4  -2 -13 12.7437 1.34561   2
   4   2  13 12.4159 1.66499   5
  -5  -2 -13 14.6870 2.10713   3
  -5  -2 -13 9.91023 1.57551   2
   5   2  13 8.59555 1.62106   5
   5  -3 -13 7.40304 1.32650   1
  -5   3  13 5.16910 1.61086   2
   4  -3 -13 2.68100 0.92642   1
  -4   3  13 3.71455 1.25544   2
   3  -3 -13 16.9682 1.42755   4
   3  -3 -13 19.3796 1.57214   1
  -3   3  13 18.3665 1.76674   2
   2  -3 -13 24.0768 1.36376   1
   2  -3 -13 23.4414 1.32735   4
  -2   3  13 21.6790 1.47087   2
   1  -3 -13 34.2044 1.52800   4
   1  -3 -13 32.4883 1.37317   1
  -1   3  13 30.0919 1.39892   2
   0  -3 -13 6.12433 0.61927   1
   0  -3 -13 8.02780 0.61127   2
   0  -3 -13 7.68638 0.88217   4
   0  -3 -13 5.59332 0.87473   3
  -1  -3 -13 15.0623 1.30041   4
  -1  -3 -13 15.8331 1.43277   3
  -1  -3 -13 13.5908 0.84124   1
   1   3  13 13.8736 0.88052   1
  -2  -3 -13 64.5576 2.26000   1
  -2  -3 -13 62.2975 1.67483   2
  -2  -3 -13 62.1100 2.62915   4
  -2  -3 -13 63.5572 2.76815   3
  -3  -3 -13 44.7709 1.62832   2
  -3  -3 -13 37.7253 2.39110   3
  -4  -3 -13 9.61344 1.59114   3
  -5  -3 -13 6.89223 1.74178   3
   5   3  13 8.58625 1.64498   5
   4  -4 -13 1.91156 0.98220   1
   4  -4 -13 0.85110 0.93787   4
  -4   4  13 0.56839 0.91271   2
   3  -4 -13 26.4769 1.77463   4
   3  -4 -13 28.2235 1.71975   1
  -3   4  13 25.1239 1.88535   2
   2  -4 -13 26.9959 1.66332   4
   2  -4 -13 29.1399 1.48994   1
  -2   4  13 28.5867 1.64164   2
   1  -4 -13 8.94559 1.07995   4
   1  -4 -13 11.3487 0.87306   1
  -1   4  13 11.6099 0.95870   2
   0  -4 -13 1.68739 0.70125   3
   0  -4 -13 2.19064 0.38932   1
   0  -4 -13 2.84076 0.78804   4
  -1  -4 -13 290.301 7.25319   1
  -1  -4 -13 294.709 8.00702   4
  -1  -4 -13 286.114 8.17602   3
   1   4  13 288.794 7.18252   1
  -2  -4 -13 33.9573 2.10687   4
  -2  -4 -13 32.1870 2.02374   3
   2   4  13 34.5130 1.35322   1
  -3  -4 -13 57.4835 2.95054   3
  -3  -4 -13 62.9208 2.97464   4
  -4  -4 -13 4.96104 1.41377   3
  -5  -4 -13 8.21977 1.75919   3
   5   4  13 7.68974 1.60393   5
   4  -5 -13 6.13767 1.39975   4
   4  -5 -13 10.3767 1.40169   1
  -4   5  13 11.1237 1.68936   2
   3  -5 -13 73.1839 3.19554   4
   3  -5 -13 74.6608 2.81040   1
  -3   5  13 70.2455 3.12302   2
   2  -5 -13 7.40580 1.19467   4
   2  -5 -13 8.38334 0.87887   1
  -2   5  13 7.84230 1.08498   2
   1  -5 -13 29.5039 1.83874   4
   1  -5 -13 30.3450 1.21747   1
   1  -5 -13 32.0243 1.91066   3
  -1   5  13 29.4000 1.41613   2
   0  -5 -13 81.0439 3.13199   3
   0  -5 -13 73.9539 2.07135   1
   0  -5 -13 77.7955 3.06461   4
  -1  -5 -13 53.9261 2.51417   4
  -1  -5 -13 55.1846 2.66372   3
  -2  -5 -13 7.63178 1.39282   3
  -2  -5 -13 7.85779 1.38334   4
  -3  -5 -13 9.08489 1.45717   4
  -3  -5 -13 12.7283 1.82283   3
  -4  -5 -13 3.12708 1.27989   4
  -4  -5 -13 2.38988 1.29021   3
   3  -6 -13 6.14941 1.35891   4
  -3   6  13 6.35572 1.29018   2
   2  -6 -13 36.9113 2.33698   4
  -2   6  13 38.3939 2.01440   2
   1  -6 -13 181.071 5.76729   4
   1  -6 -13 177.413 5.76465   3
   0  -6 -13 0.99249 0.77928   3
   0  -6 -13 1.84392 0.93691   4
  -1  -6 -13 5.34171 1.17668   3
  -1  -6 -13 6.79840 1.32786   4
  -2  -6 -13 12.3817 1.78567   3
  -2  -6 -13 10.1640 1.54850   4
  -3  -6 -13 7.17392 1.45548   3
  -3  -6 -13 5.33801 1.39649   4
  -4  -6 -13 11.6145 1.88419   4
  -4  -6 -13 16.4241 2.26502   3
   2  -7 -13 63.7285 3.16616   3
   2  -7 -13 73.1948 3.36082   4
   1  -7 -13 115.857 4.42283   3
   1  -7 -13 121.854 4.61382   4
   0  -7 -13 7.11362 1.27652   3
   0  -7 -13 9.17311 1.58003   4
  -1  -7 -13 53.7299 2.91155   4
  -1  -7 -13 57.7194 2.92118   3
  -2  -7 -13 13.2438 1.78420   3
  -2  -7 -13 21.0262 2.26663   4
  -3  -7 -13 9.99806 1.73894   3
  -3  -7 -13 12.0732 1.88197   4
   1  -8 -13 33.4720 2.60634   4
   0  -8 -13 2.74916 1.18495   3
   0  -8 -13 1.55170 1.28517   4
  -1  -8 -13 11.7198 1.76496   4
  -1  -8 -13 9.07891 1.56862   3
  -2  -8 -13 51.2998 3.11854   3
  -2  -8 -13 45.6686 3.03190   4
   2   6 -14 10.5325 1.42263   1
   1   6 -14 9.26661 1.30666   1
   0   6 -14 1.56111 0.91598   1
  -1   6 -14 11.6683 1.59347   1
  -2   6 -14 47.6382 2.79655   1
   3   5 -14 2.55076 1.00711   1
   2   5 -14 15.5142 1.59031   1
   1   5 -14 1.78644 0.86179   1
   0   5 -14 10.5834 1.36658   1
  -1   5 -14 62.1713 2.84723   1
   1  -5  14 64.0966 2.64239   4
  -2   5 -14 7.07677 1.35370   1
   2  -5  14 6.51210 1.14797   4
  -3   5 -14 10.6020 1.57749   1
   3  -5  14 8.32932 1.42491   4
   4   4 -14 0.53192 0.98452   1
   3   4 -14 -0.1257 0.86904   1
   2   4 -14 2.78441 0.86483   1
   1   4 -14 1.97283 0.80940   1
   0   4 -14 2.68263 0.80782   1
   0  -4  14 1.70447 0.54394   4
  -1   4 -14 18.9024 1.71521   1
   1  -4  14 18.7225 1.24295   4
  -2   4 -14 9.93208 1.37557   1
   2  -4  14 8.36481 1.08499   4
  -3   4 -14 62.0341 3.15168   1
  -4   4 -14 21.2039 2.46185   2
   4   3 -14 5.93503 1.34369   1
   3   3 -14 5.94355 1.11663   1
   2   3 -14 6.41915 1.13782   1
   1   3 -14 10.5748 1.18967   1
   0   3 -14 10.9751 1.18116   1
   0   3 -14 10.3847 0.49624   3
   0  -3  14 10.0480 0.69762   4
  -1   3 -14 78.1645 3.04392   1
   1  -3  14 81.4225 2.59081   4
  -2   3 -14 -0.0441 0.75227   1
  -3   3 -14 32.8832 2.24235   1
   3  -3  14 30.0163 1.72067   5
  -4   3 -14 4.67334 1.51495   2
   4  -3  14 4.04186 1.14081   5
   4   2 -14 69.2652 3.12390   1
   3   2 -14 20.3130 1.70933   1
   2   2 -14 32.2643 1.88421   1
   1   2 -14 4.81032 0.90611   1
   0   2 -14 46.2266 2.02805   1
   0   2 -14 46.6878 1.59778   3
   0  -2  14 46.8557 1.30500   4
  -1   2 -14 26.9728 1.17367   3
  -1   2 -14 24.9991 1.52279   1
  -2   2 -14 7.72086 1.17809   1
  -2   2 -14 8.48566 0.89703   3
   2  -2  14 7.67832 0.87625   5
  -3   2 -14 22.0530 1.91971   1
  -3   2 -14 23.3177 1.51997   3
   3  -2  14 22.9496 1.52276   5
  -4   2 -14 8.83050 1.62256   2
   4  -2  14 7.76971 1.27121   5
  -5   2 -14 10.7743 1.77081   2
   5  -2  14 12.3061 1.81511   5
   5   1 -14 25.0173 2.21668   1
  -5  -1  14 30.6420 2.85835   2
   4   1 -14 49.2870 2.55683   1
  -4  -1  14 43.7415 2.62353   2
   3   1 -14 0.13744 0.72546   1
   2   1 -14 157.276 4.68597   1
  -2  -1  14 147.287 4.16829   5
   1   1 -14 27.6220 1.49844   1
  -1  -1  14 29.3739 0.97893   5
   0   1 -14 114.177 3.69011   1
   0   1 -14 121.634 3.45715   3
  -1   1 -14 65.0600 2.24291   3
  -1   1 -14 65.0969 2.50306   1
   1  -1  14 63.6385 2.02682   5
   1  -1  14 64.9396 2.04165   4
  -2   1 -14 82.4288 2.90034   3
  -2   1 -14 84.0276 3.10817   1
   2  -1  14 84.9988 2.83025   5
  -3   1 -14 -0.0760 0.61825   3
  -3   1 -14 -0.5937 0.76702   1
   3  -1  14 -0.3888 0.62138   5
  -4   1 -14 21.7584 2.06977   2
  -4   1 -14 20.2765 1.93305   3
   4  -1  14 26.5558 1.97278   5
  -5   1 -14 6.47932 1.48422   2
   5  -1  14 5.30379 1.34637   5
   5   0 -14 15.5194 1.98184   1
  -5   0  14 8.58113 1.71558   2
   4   0 -14 19.0576 1.82862   1
  -4   0  14 19.6916 2.07566   2
   3   0 -14 43.8379 2.19630   1
  -3   0  14 45.7705 2.40750   2
   2   0 -14 7.16541 0.49793   4
   2   0 -14 9.88864 1.15768   1
   2   0 -14 8.24574 0.48386   4
   1   0 -14 22.1327 1.35753   1
  -1   0  14 22.0114 1.02073   5
   0   0 -14 404.737 10.1406   1
   0   0 -14 385.845 10.0460   3
  -1   0 -14 10.9478 1.01516   1
  -1   0 -14 9.08837 0.94984   3
   1   0  14 10.9878 0.71939   4
  -2   0 -14 45.2384 2.10196   3
  -2   0 -14 50.2503 2.14379   1
   2   0  14 51.2354 2.07012   5
  -3   0 -14 10.7713 1.34215   1
  -3   0 -14 7.54561 1.12935   3
  -3   0 -14 10.1190 1.27823   2
   3   0  14 8.71669 1.23979   5
  -4   0 -14 0.14808 0.82486   3
  -4   0 -14 -0.4244 0.77257   2
   4   0  14 -1.4158 0.82877   5
  -5   0 -14 0.79064 1.09796   3
  -5   0 -14 0.02013 1.03410   2
   5   0  14 1.66223 1.20393   5
   5  -1 -14 0.46107 0.94792   1
  -5   1  14 1.02419 1.24220   2
   4  -1 -14 65.1350 2.92116   1
  -4   1  14 62.1723 3.06996   2
   3  -1 -14 3.74351 1.01905   1
  -3   1  14 3.60918 0.99462   2
   2  -1 -14 4.74735 0.82436   1
   2  -1 -14 5.44276 0.58370   4
  -2   1  14 6.01424 1.03717   2
   1  -1 -14 43.9346 1.31791   4
   1  -1 -14 39.4621 1.72888   1
   0  -1 -14 147.753 4.37001   3
   0  -1 -14 144.232 4.19974   1
   0  -1 -14 148.324 3.84595   4
   0   1  14 146.710 3.76921   4
  -1  -1 -14 50.7736 1.95890   1
  -1  -1 -14 47.7205 2.07728   3
   1   1  14 51.2916 1.75866   4
  -2  -1 -14 231.472 6.49581   1
  -2  -1 -14 235.761 6.72384   3
  -3  -1 -14 55.5836 2.34007   2
  -3  -1 -14 59.1922 2.51986   1
  -3  -1 -14 55.7766 2.72264   3
  -4  -1 -14 8.64580 1.45622   3
  -4  -1 -14 7.01689 1.14133   2
   4   1  14 6.39907 1.28182   5
  -5  -1 -14 3.68999 1.28530   3
  -5  -1 -14 4.62577 1.20901   2
   5   1  14 3.65522 1.25976   5
   5  -2 -14 5.61928 1.44418   1
  -5   2  14 4.77765 1.61584   2
   4  -2 -14 50.8476 2.56462   1
  -4   2  14 48.1490 2.81235   2
   3  -2 -14 13.1918 1.15636   4
   3  -2 -14 18.4001 1.58614   1
  -3   2  14 17.6467 1.66977   2
   2  -2 -14 53.2570 2.15763   1
   2  -2 -14 52.4267 1.92011   4
  -2   2  14 57.9706 2.37266   2
   1  -2 -14 19.4870 1.00250   4
   1  -2 -14 19.3042 1.14681   1
   0  -2 -14 0.82495 0.42107   1
   0  -2 -14 1.43874 0.48692   4
   0  -2 -14 0.18687 0.48125   3
   0  -2 -14 -0.1123 0.39614   2
   0   2  14 0.24559 0.36883   4
  -1  -2 -14 75.1792 2.79294   3
  -1  -2 -14 73.4276 2.17475   2
  -1  -2 -14 74.4812 2.44006   1
  -1  -2 -14 71.3511 2.51488   4
  -2  -2 -14 38.9740 1.48557   2
  -2  -2 -14 35.0524 1.97402   3
  -2  -2 -14 39.1194 1.74568   1
  -3  -2 -14 34.1057 1.60966   2
  -3  -2 -14 29.8752 1.75919   1
  -3  -2 -14 30.1394 2.02538   3
  -4  -2 -14 2.78762 0.87548   2
  -4  -2 -14 3.34448 1.13562   3
   4   2  14 4.59289 1.17944   5
  -5  -2 -14 3.82766 1.54342   3
   5   2  14 6.94464 1.73148   5
   4  -3 -14 5.58693 1.23649   1
  -4   3  14 2.94242 1.19498   2
   3  -3 -14 1.62252 0.75463   4
   3  -3 -14 1.11003 0.73191   1
  -3   3  14 2.54241 0.98813   2
   2  -3 -14 2.15915 0.70439   1
   2  -3 -14 3.01453 0.73159   4
  -2   3  14 2.68644 0.75797   2
   1  -3 -14 5.86816 0.73343   1
   1  -3 -14 6.85798 0.82886   4
  -1   3  14 6.47319 0.78716   2
   0  -3 -14 0.17067 0.53460   4
   0  -3 -14 0.16241 0.32006   2
   0  -3 -14 -0.1035 0.35934   1
   0  -3 -14 1.80923 0.71206   3
  -1  -3 -14 35.1884 1.94509   3
  -1  -3 -14 36.2067 1.47323   1
  -1  -3 -14 36.3242 1.78371   4
  -2  -3 -14 60.4274 1.68239   2
  -2  -3 -14 62.2813 2.24623   1
  -2  -3 -14 64.5840 2.81106   3
  -2  -3 -14 62.2103 2.64980   4
  -3  -3 -14 8.60308 1.48494   3
  -3  -3 -14 8.03923 0.78719   2
  -4  -3 -14 10.3054 1.73552   3
  -5  -3 -14 9.58809 1.77026   3
   5   3  14 4.52888 1.50073   5
   4  -4 -14 15.8612 1.75099   4
   4  -4 -14 14.4130 1.53250   1
  -4   4  14 17.6108 2.05419   2
   3  -4 -14 18.6086 1.66210   4
   3  -4 -14 20.8514 1.65146   1
  -3   4  14 19.0010 1.81443   2
   2  -4 -14 0.36296 0.56184   1
   2  -4 -14 0.77383 0.70159   4
  -2   4  14 1.32404 0.67082   2
   1  -4 -14 52.1189 2.25388   4
   1  -4 -14 57.6692 1.94993   1
  -1   4  14 54.9972 1.99141   2
   0  -4 -14 40.0896 1.95453   4
   0  -4 -14 39.3844 1.43687   1
   0  -4 -14 41.6585 2.14227   3
  -1  -4 -14 174.311 5.26050   4
  -1  -4 -14 174.212 4.57448   1
  -1  -4 -14 166.296 5.41032   3
   1   4  14 172.143 4.50058   1
  -2  -4 -14 8.28965 1.29623   4
  -2  -4 -14 4.91113 1.18185   3
  -3  -4 -14 0.60379 0.92131   4
  -3  -4 -14 -0.6869 0.89346   3
  -4  -4 -14 22.4351 2.37290   3
  -5  -4 -14 17.7373 2.31540   3
   5   4  14 19.9720 2.46157   5
   4  -5 -14 2.67633 0.92907   1
   4  -5 -14 1.24323 1.10349   4
  -4   5  14 0.67404 1.04566   2
   3  -5 -14 5.39964 1.19822   4
   3  -5 -14 4.41203 0.94373   1
  -3   5  14 3.85990 1.11753   2
   2  -5 -14 3.01992 0.69228   1
   2  -5 -14 3.24853 0.93750   4
  -2   5  14 2.90826 0.85149   2
   1  -5 -14 23.8023 1.07695   1
   1  -5 -14 21.1216 1.60251   4
   1  -5 -14 20.5917 1.84230   3
  -1   5  14 18.0163 1.13829   2
   0  -5 -14 27.4676 1.81587   4
   0  -5 -14 23.8460 0.94964   1
   0  -5 -14 26.2743 1.77488   3
  -1  -5 -14 14.2683 1.66884   3
  -1  -5 -14 15.2013 1.62470   4
  -2  -5 -14 81.3380 3.46167   4
  -2  -5 -14 79.8268 3.50957   3
  -3  -5 -14 11.4000 1.66528   3
  -3  -5 -14 12.3200 1.70216   4
  -4  -5 -14 26.0182 2.52537   3
   3  -6 -14 0.85779 1.08521   4
  -3   6  14 0.23953 0.93688   2
   2  -6 -14 8.14830 1.39034   4
   1  -6 -14 13.1497 1.57997   4
   1  -6 -14 12.1690 1.50687   3
   0  -6 -14 36.9418 2.21986   3
   0  -6 -14 37.5549 2.27325   4
  -1  -6 -14 24.4775 2.15695   3
  -1  -6 -14 24.8356 2.19437   4
  -2  -6 -14 -0.5641 0.81247   3
  -2  -6 -14 1.80589 1.07207   4
  -3  -6 -14 26.0735 2.52677   4
  -3  -6 -14 28.9655 2.29802   3
  -4  -6 -14 33.5237 3.15349   4
  -4  -6 -14 35.0413 3.22426   3
   2  -7 -14 41.0140 2.64956   3
   2  -7 -14 45.4697 2.73853   4
   1  -7 -14 17.9533 1.82804   3
   1  -7 -14 20.3626 2.02204   4
   0  -7 -14 14.0377 1.85646   4
   0  -7 -14 10.1615 1.50070   3
  -1  -7 -14 6.13814 1.32133   4
  -1  -7 -14 7.37260 1.47543   3
  -2  -7 -14 13.4308 1.94867   4
  -2  -7 -14 11.2182 1.85272   3
  -3  -7 -14 63.7170 3.47910   3
  -3  -7 -14 63.6929 3.66831   4
   0  -8 -14 3.03611 1.36810   4
   0  -8 -14 4.83303 1.32457   3
  -1  -8 -14 21.7196 2.27124   4
  -1  -8 -14 29.6759 2.66118   3
   1   6 -15 4.98688 1.14591   1
   0   6 -15 1.15676 0.87925   1
  -1   6 -15 3.02405 1.10458   1
   3   5 -15 135.158 4.76240   1
   2   5 -15 1.77052 0.93572   1
   1   5 -15 11.1097 1.38672   1
   0   5 -15 8.78090 1.25120   1
  -1   5 -15 5.17661 1.14554   1
  -2   5 -15 1.04992 0.91223   1
  -3   5 -15 7.52647 1.59262   1
   3  -5  15 4.50988 1.16510   4
   3   4 -15 55.1410 2.70876   1
   2   4 -15 29.0207 1.85816   1
   1   4 -15 73.0913 2.96613   1
   0   4 -15 39.1539 2.15919   1
  -1   4 -15 1.35373 0.81130   1
   1  -4  15 0.22845 0.58381   4
  -2   4 -15 10.1224 1.40802   1
   2  -4  15 8.77703 1.13382   4
  -3   4 -15 8.96403 1.48008   1
   4   3 -15 20.3762 2.03150   1
   3   3 -15 0.14285 0.92369   1
   2   3 -15 47.1035 2.28176   1
   1   3 -15 40.9774 2.10058   1
   0   3 -15 15.9287 1.43527   1
  -1   3 -15 91.8213 3.43566   1
   1  -3  15 94.1317 2.90111   4
  -2   3 -15 18.1756 1.71532   1
  -3   3 -15 39.2130 2.42627   1
  -4   3 -15 4.49642 1.23311   2
   4   2 -15 0.44257 1.12981   1
   3   2 -15 2.24589 0.90761   1
   2   2 -15 10.6811 1.25741   1
   1   2 -15 18.0475 1.34722   1
   0   2 -15 20.4708 1.48171   1
   0   2 -15 22.5004 1.05880   3
  -1   2 -15 203.621 5.84242   1
  -1   2 -15 190.468 5.18415   3
  -2   2 -15 125.431 3.80372   3
  -2   2 -15 133.567 4.39932   1
   2  -2  15 123.857 3.72904   5
  -3   2 -15 12.0842 1.24249   3
  -3   2 -15 16.4662 1.71901   1
   3  -2  15 14.5429 1.37521   5
  -4   2 -15 15.1713 1.95379   2
   4  -2  15 14.8329 1.69014   5
   4   1 -15 5.05130 1.20907   1
  -4  -1  15 6.25695 1.45741   2
   3   1 -15 38.6294 2.22718   1
   2   1 -15 -0.1417 0.58296   1
   1   1 -15 62.6745 2.41500   1
  -1  -1  15 60.3921 1.72489   5
   0   1 -15 31.3258 1.64337   1
   0   1 -15 33.1231 1.46277   3
  -1   1 -15 104.090 3.23108   3
  -1   1 -15 102.441 3.51846   1
   1  -1  15 103.917 2.98128   5
   1  -1  15 105.592 2.97001   4
  -2   1 -15 53.1775 2.41161   1
  -2   1 -15 47.7868 2.08751   3
   2  -1  15 47.2603 1.96467   5
  -3   1 -15 10.5235 1.45495   1
  -3   1 -15 11.6421 1.36064   3
   3  -1  15 13.5408 1.39770   5
  -4   1 -15 64.8778 3.14959   2
  -4   1 -15 60.9033 2.91510   3
   4  -1  15 61.3862 2.98184   5
  -5   1 -15 15.7320 2.03974   2
   5  -1  15 17.1698 2.01971   5
   4   0 -15 26.8526 2.21133   1
  -4   0  15 23.4038 2.22415   2
   3   0 -15 13.3114 1.49902   1
  -3   0  15 15.6320 1.72606   2
   2   0 -15 22.1130 1.48177   1
   1   0 -15 41.2777 1.80561   1
  -1   0  15 37.2246 1.42963   5
   0   0 -15 3.60159 0.72777   1
   0   0 -15 4.12720 0.69673   3
  -1   0 -15 0.88993 0.51921   3
  -1   0 -15 0.46300 0.53251   1
   1   0  15 -0.0114 0.31131   4
  -2   0 -15 9.04872 1.12988   1
  -2   0 -15 8.49546 1.07094   3
   2   0  15 11.4385 1.13043   5
  -3   0 -15 11.8492 1.35809   2
  -3   0 -15 11.9871 1.40124   3
  -3   0 -15 10.1142 1.40158   1
   3   0  15 9.91041 1.30358   5
  -4   0 -15 32.0492 2.05304   2
  -4   0 -15 32.5881 2.31922   3
   4   0  15 27.6639 2.14822   5
  -5   0 -15 7.99539 1.50297   2
  -5   0 -15 5.20271 1.39581   3
   5   0  15 7.98143 1.62895   5
   4  -1 -15 5.62247 1.23552   1
  -4   1  15 9.89957 1.56557   2
   3  -1 -15 9.34367 1.20751   1
  -3   1  15 10.5051 1.49365   2
   2  -1 -15 9.11099 1.14943   1
   2  -1 -15 8.99091 0.66709   4
  -2   1  15 8.90902 1.11747   2
   1  -1 -15 0.51693 0.26334   4
   1  -1 -15 0.69959 0.51880   1
   0  -1 -15 3.23364 0.71473   3
   0  -1 -15 3.07718 0.66776   1
   0   1  15 3.22615 0.38876   4
  -1  -1 -15 30.1526 1.65254   3
  -1  -1 -15 30.7233 1.54378   1
   1   1  15 32.2381 1.30234   4
  -2  -1 -15 -0.2959 0.57604   1
  -2  -1 -15 -0.3476 0.62210   3
  -3  -1 -15 1.83685 0.72067   2
  -3  -1 -15 2.07088 0.88753   3
  -3  -1 -15 3.31027 0.93465   1
  -4  -1 -15 13.3855 1.64885   3
  -4  -1 -15 17.0650 1.62542   2
   4   1  15 16.7639 1.85084   5
  -5  -1 -15 28.5125 2.11998   2
  -5  -1 -15 31.2126 2.80857   3
   5   1  15 29.2983 2.67416   5
   4  -2 -15 6.43959 1.29578   1
  -4   2  15 3.68042 1.28099   2
   3  -2 -15 1.50221 0.61900   4
   3  -2 -15 1.41681 0.77766   1
  -3   2  15 1.09582 0.89344   2
   2  -2 -15 10.8325 0.91194   4
   2  -2 -15 8.59771 1.08155   1
  -2   2  15 13.9369 1.34539   2
   1  -2 -15 0.89899 0.54692   1
   1  -2 -15 2.12563 0.50527   4
   0  -2 -15 16.8161 1.01218   2
   0  -2 -15 16.7389 1.05335   1
   0  -2 -15 16.5274 1.23741   3
   0  -2 -15 14.9184 0.98504   4
   0   2  15 16.4654 0.90854   4
  -1  -2 -15 6.44533 0.77163   1
  -1  -2 -15 5.55162 0.60476   2
  -1  -2 -15 5.44702 0.82445   4
  -1  -2 -15 6.61309 0.98060   3
  -2  -2 -15 25.1243 1.78362   3
  -2  -2 -15 23.1847 1.16147   2
  -2  -2 -15 24.7888 1.46157   1
  -3  -2 -15 36.0567 2.27637   3
  -3  -2 -15 33.3625 1.91248   1
  -3  -2 -15 36.0839 1.66851   2
  -4  -2 -15 43.4206 2.15548   2
  -4  -2 -15 46.8520 2.83490   3
   4   2  15 43.7158 2.57256   5
  -5  -2 -15 1.15624 1.10431   3
   5   2  15 1.39299 1.14916   5
   4  -3 -15 7.45777 1.27265   1
   4  -3 -15 6.35532 1.14583   4
  -4   3  15 8.69988 1.48529   2
   3  -3 -15 4.54852 1.00751   1
   3  -3 -15 3.36165 0.82818   4
  -3   3  15 4.44133 1.08010   2
   2  -3 -15 34.3485 1.66421   4
   2  -3 -15 35.3090 1.74683   1
  -2   3  15 37.2728 1.88901   2
   1  -3 -15 63.8915 2.25743   1
   1  -3 -15 65.3788 2.32992   4
  -1   3  15 66.2803 2.28100   2
   0  -3 -15 0.02991 0.42253   1
   0  -3 -15 1.45467 0.59237   4
   0  -3 -15 0.12635 0.56978   3
   0  -3 -15 0.72476 0.42352   2
  -1  -3 -15 52.1724 2.16796   4
  -1  -3 -15 48.4720 1.86720   1
  -1  -3 -15 49.7854 1.43287   2
  -1  -3 -15 51.1580 2.41320   3
  -2  -3 -15 236.328 7.01968   3
  -2  -3 -15 222.970 5.65382   2
  -2  -3 -15 227.265 6.71685   4
  -2  -3 -15 239.498 6.33811   1
  -3  -3 -15 2.79957 1.01499   3
  -4  -3 -15 6.55784 1.51354   3
  -5  -3 -15 2.39467 1.36623   3
   5   3  15 0.70825 1.10156   5
   4  -4 -15 4.59964 1.14483   4
   4  -4 -15 5.78647 1.26729   1
  -4   4  15 2.01327 1.10311   2
   3  -4 -15 80.0091 3.05411   1
   3  -4 -15 80.7362 3.16036   4
  -3   4  15 82.3302 3.35871   2
   2  -4 -15 32.0623 1.79761   4
   2  -4 -15 31.8269 1.64014   1
  -2   4  15 32.7758 1.80351   2
   1  -4 -15 178.102 4.80251   1
   1  -4 -15 172.536 5.15884   4
  -1   4  15 174.374 4.82729   2
   0  -4 -15 29.9116 1.71517   4
   0  -4 -15 30.0085 1.83516   3
   0  -4 -15 29.4957 1.24833   1
  -1  -4 -15 1.27580 0.74431   3
  -1  -4 -15 1.82600 0.45710   1
  -1  -4 -15 0.68983 0.82833   4
  -2  -4 -15 0.31955 0.83024   4
  -2  -4 -15 0.26861 0.49043   1
  -2  -4 -15 0.30972 0.74847   3
  -3  -4 -15 7.65292 1.48337   3
  -3  -4 -15 5.74312 1.32309   4
  -4  -4 -15 1.49750 1.10527   3
  -5  -4 -15 21.6413 2.64961   3
   5   4  15 17.8674 2.30800   5
   3  -5 -15 51.6141 2.24978   1
   3  -5 -15 51.4428 2.69268   4
  -3   5  15 47.8188 2.55629   2
   2  -5 -15 25.2445 1.87374   4
   2  -5 -15 27.3613 1.43270   1
  -2   5  15 28.3574 1.70539   2
   1  -5 -15 73.3813 2.97833   4
   1  -5 -15 73.5885 2.30583   1
   1  -5 -15 71.2061 3.10566   3
  -1   5  15 73.2657 2.44226   2
   0  -5 -15 3.25895 0.98450   3
   0  -5 -15 3.64276 0.96599   4
  -1  -5 -15 2.78236 0.98397   4
  -1  -5 -15 3.66664 1.07036   3
  -2  -5 -15 50.9622 2.72761   4
  -2  -5 -15 50.3519 2.81577   3
  -3  -5 -15 0.81688 1.00974   3
  -3  -5 -15 2.35990 1.16762   4
  -4  -5 -15 5.23200 1.46735   3
   3  -6 -15 9.09899 1.54683   4
   2  -6 -15 1.64654 1.00473   4
   1  -6 -15 75.2815 3.25888   4
   1  -6 -15 78.0409 3.44356   3
   0  -6 -15 7.31168 1.35029   4
   0  -6 -15 5.14258 1.15228   3
  -1  -6 -15 46.7316 2.57847   3
  -1  -6 -15 40.7701 2.42428   4
  -2  -6 -15 11.3720 1.61621   4
  -2  -6 -15 19.3475 2.11296   3
  -3  -6 -15 15.7805 2.12488   3
  -3  -6 -15 18.4150 2.26163   4
  -4  -6 -15 47.8635 3.21745   3
  -4  -6 -15 50.3787 3.38666   4
   2  -7 -15 0.86296 1.06322   4
   2  -7 -15 0.98291 1.12707   3
   1  -7 -15 38.3865 2.49471   4
   1  -7 -15 37.7463 2.57712   3
   0  -7 -15 5.74668 1.38574   4
   0  -7 -15 4.52831 1.13104   3
  -1  -7 -15 78.1852 3.51819   4
  -1  -7 -15 69.7619 3.50032   3
  -2  -7 -15 30.4267 2.75805   4
  -2  -7 -15 32.7283 2.45036   3
  -3  -7 -15 17.5936 2.34712   3
  -3  -7 -15 20.1298 2.49588   4
   0  -8 -15 11.7574 1.72377   3
   0  -8 -15 18.5141 2.26476   4
  -1  -8 -15 42.6409 2.77695   3
  -1  -8 -15 46.0354 2.92369   4
   0   6 -16 16.0084 1.71757   1
   2   5 -16 11.5648 1.57563   1
   1   5 -16 6.98565 1.17462   1
   0   5 -16 3.37731 0.97383   1
  -1   5 -16 73.8375 3.26389   1
  -2   5 -16 67.4792 3.36353   1
   3   4 -16 9.20154 1.46205   1
   2   4 -16 14.2852 1.59576   1
   1   4 -16 8.48131 1.21100   1
   0   4 -16 -0.7460 0.63441   1
  -1   4 -16 45.4265 2.41077   1
  -2   4 -16 12.5431 1.66427   1
  -3   4 -16 37.5276 2.54364   1
   4   3 -16 9.44603 1.49199   1
   3   3 -16 7.00381 1.41194   1
   2   3 -16 0.88100 0.87003   1
   1   3 -16 0.10475 0.76261   1
   0   3 -16 14.7843 1.46199   1
  -1   3 -16 5.03767 1.05815   1
   1  -3  16 5.99560 0.91801   4
  -2   3 -16 5.73768 1.16295   1
  -3   3 -16 36.0451 2.38488   1
  -4   3 -16 53.1094 3.13054   1
  -4   3 -16 44.3651 3.03344   2
   4   2 -16 16.5527 1.90559   1
   3   2 -16 4.27429 1.23299   1
   2   2 -16 26.5513 1.75794   1
   1   2 -16 3.07780 0.81111   1
   0   2 -16 45.7052 2.09656   1
   0   2 -16 39.8800 1.58905   3
  -1   2 -16 77.1409 2.94096   1
  -1   2 -16 70.1557 2.34309   3
  -2   2 -16 1.16498 0.85135   1
  -2   2 -16 -0.4144 0.50278   3
   2  -2  16 -0.5146 0.41325   5
  -3   2 -16 0.26658 1.03657   3
  -3   2 -16 1.22084 0.93601   1
   3  -2  16 0.76458 0.64569   5
  -4   2 -16 8.44202 1.57225   2
  -4   2 -16 7.03163 1.53508   1
   4  -2  16 4.69935 1.18820   5
   4   1 -16 8.31244 1.41702   1
   3   1 -16 24.2236 2.00677   1
   2   1 -16 8.00900 1.14872   1
   1   1 -16 25.2163 1.54063   1
   0   1 -16 33.2793 1.51520   3
   0   1 -16 35.5957 1.76310   1
  -1   1 -16 14.7533 1.09596   3
  -1   1 -16 15.9599 1.43272   1
   1  -1  16 14.5568 1.00130   4
   1  -1  16 14.8408 0.87784   5
  -2   1 -16 0.22123 0.68418   1
  -2   1 -16 0.49358 0.60607   3
   2  -1  16 -0.0355 0.51846   5
  -3   1 -16 19.3519 1.84704   1
  -3   1 -16 15.5373 1.53346   3
   3  -1  16 15.2522 1.50119   5
  -4   1 -16 9.74494 1.45743   1
  -4   1 -16 9.81732 1.37340   3
  -4   1 -16 6.16668 1.33116   2
   4  -1  16 7.13431 1.35135   5
   4   0 -16 21.6935 2.09142   1
  -4   0  16 23.1867 2.25197   2
   3   0 -16 0.81438 0.92499   1
   2   0 -16 14.2721 1.35986   1
   1   0 -16 11.3008 1.13467   1
  -1   0  16 11.1627 0.76793   5
   0   0 -16 92.3719 3.17104   1
   0   0 -16 95.3542 3.13449   3
  -1   0 -16 22.2128 1.41094   1
  -1   0 -16 24.4636 1.44960   3
   1   0  16 23.2536 1.03421   4
  -2   0 -16 23.9047 1.54402   3
  -2   0 -16 23.5670 1.62513   1
   2   0  16 22.8354 1.46052   5
  -3   0 -16 78.4116 3.05461   2
  -3   0 -16 76.2220 3.23019   1
  -3   0 -16 83.1720 3.28266   3
   3   0  16 73.2576 3.06140   5
  -4   0 -16 19.1831 1.87357   2
  -4   0 -16 24.7994 2.24387   3
   4   0  16 22.1083 2.06813   5
  -5   0 -16 10.1026 1.74973   3
  -5   0 -16 10.0818 1.54510   2
   5   0  16 10.2959 1.70519   5
   4  -1 -16 106.185 4.10559   1
  -4   1  16 105.713 4.24852   2
   3  -1 -16 0.80407 0.80340   1
  -3   1  16 -1.4210 0.82154   2
   2  -1 -16 37.2668 1.97915   1
   2  -1 -16 40.9630 1.33851   4
   1  -1 -16 54.1580 2.15594   1
   0  -1 -16 0.64896 0.57999   3
   0  -1 -16 0.64224 0.54448   1
  -1  -1 -16 65.5179 2.45368   1
  -1  -1 -16 63.0680 2.56791   3
   1   1  16 64.6551 2.09332   4
  -2  -1 -16 84.4143 3.01499   1
  -2  -1 -16 78.9895 3.12857   3
  -3  -1 -16 10.0615 1.41829   3
  -3  -1 -16 11.3310 1.27382   2
  -3  -1 -16 12.9587 1.43487   1
   3   1  16 8.88783 1.27383   5
  -4  -1 -16 25.2399 2.37586   3
  -4  -1 -16 19.9600 1.77616   2
   4   1  16 20.1263 2.07879   5
  -5  -1 -16 -1.6503 0.95117   3
   5   1  16 0.51166 1.10105   5
   4  -2 -16 138.188 4.78578   1
  -4   2  16 131.103 4.95606   2
   3  -2 -16 27.2067 1.84024   1
   3  -2 -16 29.3492 1.49386   4
  -3   2  16 23.9298 1.93739   2
   2  -2 -16 27.6823 1.28911   4
   2  -2 -16 27.1322 1.56211   1
  -2   2  16 27.4856 1.74106   2
   1  -2 -16 7.94663 0.75935   4
   1  -2 -16 7.29863 0.89233   1
   0  -2 -16 19.1628 1.37949   3
   0  -2 -16 21.1084 1.22673   1
   0  -2 -16 21.4921 1.14375   4
   0   2  16 20.2513 1.01843   4
  -1  -2 -16 84.0932 3.17787   3
  -1  -2 -16 84.8162 2.84430   1
  -1  -2 -16 86.9412 2.90922   4
  -1  -2 -16 85.7190 2.58319   2
  -2  -2 -16 158.545 5.20109   3
  -2  -2 -16 160.863 4.80216   1
  -3  -2 -16 17.2471 1.53575   1
  -3  -2 -16 18.7950 1.27800   2
  -3  -2 -16 16.3174 1.84897   3
  -4  -2 -16 41.1107 2.71656   3
   4   2  16 33.2311 2.31450   5
  -5  -2 -16 11.6123 1.97655   3
   5   2  16 11.7787 1.97862   5
   4  -3 -16 10.8028 1.51426   1
  -4   3  16 9.98099 1.68585   2
   3  -3 -16 1.30980 0.71590   4
   3  -3 -16 0.08855 0.73755   1
  -3   3  16 0.58211 0.91656   2
   2  -3 -16 8.27992 0.96354   4
   2  -3 -16 9.04887 1.07283   1
  -2   3  16 8.49219 1.12966   2
   1  -3 -16 0.67558 0.53114   4
   1  -3 -16 0.08650 0.52964   1
   0  -3 -16 21.4034 1.07986   2
   0  -3 -16 22.8104 1.22835   1
   0  -3 -16 20.9270 1.51921   3
   0  -3 -16 20.8511 1.31733   4
  -1  -3 -16 2.03894 0.75923   4
  -1  -3 -16 2.44722 0.85153   3
  -1  -3 -16 2.10255 0.57328   1
  -2  -3 -16 295.490 8.47141   3
  -2  -3 -16 286.236 7.71239   1
  -2  -3 -16 283.052 8.11328   4
  -3  -3 -16 27.7585 2.19116   3
  -4  -3 -16 43.6340 2.81667   3
  -5  -3 -16 1.80783 1.45491   3
   5   3  16 3.74711 1.44231   5
   4  -4 -16 6.79858 1.40004   4
   4  -4 -16 8.92550 1.35614   1
  -4   4  16 7.50836 1.60302   2
   3  -4 -16 1.83508 0.85383   1
   3  -4 -16 0.11518 0.80403   4
  -3   4  16 2.29651 0.99320   2
   2  -4 -16 3.99654 0.88482   4
   2  -4 -16 4.75073 0.83552   1
  -2   4  16 4.84855 0.92549   2
   1  -4 -16 13.8798 1.43967   3
   1  -4 -16 12.2251 1.24411   4
   1  -4 -16 14.3410 0.99972   1
  -1   4  16 12.1009 1.02746   2
   0  -4 -16 12.0206 1.29191   4
   0  -4 -16 11.9615 1.49032   3
   0  -4 -16 11.5958 0.87187   1
  -1  -4 -16 83.2329 3.22250   4
  -1  -4 -16 85.9137 2.68888   1
  -1  -4 -16 90.3614 3.52677   3
  -2  -4 -16 219.951 6.94399   3
  -2  -4 -16 218.497 5.99241   1
  -2  -4 -16 220.250 6.66283   4
  -3  -4 -16 18.3701 2.00271   3
  -3  -4 -16 17.8632 1.96548   4
  -4  -4 -16 52.7402 3.30681   3
   3  -5 -16 9.47482 1.39389   4
   3  -5 -16 10.7628 1.27629   1
  -3   5  16 13.8303 1.60885   2
   2  -5 -16 0.00109 0.78872   4
   2  -5 -16 -0.1228 0.59708   1
  -2   5  16 0.20653 0.66905   2
   1  -5 -16 46.2097 2.43563   3
   1  -5 -16 44.5612 1.77819   1
   1  -5 -16 46.9971 2.32013   4
   0  -5 -16 117.090 4.33584   3
   0  -5 -16 118.574 4.10988   4
  -1  -5 -16 41.0900 2.45420   3
  -1  -5 -16 40.0192 2.28093   4
  -2  -5 -16 26.2584 2.04402   4
  -2  -5 -16 28.5609 2.14727   3
  -3  -5 -16 28.9447 2.57323   4
  -3  -5 -16 26.7343 2.55289   3
  -4  -5 -16 1.44665 1.21273   3
   3  -6 -16 1.71326 1.15777   4
   2  -6 -16 0.59613 0.83552   4
   1  -6 -16 5.12064 1.16061   3
   1  -6 -16 6.34694 1.26154   4
   0  -6 -16 0.08043 0.88909   4
   0  -6 -16 0.71602 0.83016   3
  -1  -6 -16 3.85248 1.26687   4
  -1  -6 -16 4.03330 1.04618   3
  -2  -6 -16 2.51122 1.14261   4
  -2  -6 -16 0.79739 0.94138   3
  -3  -6 -16 4.68395 1.37084   3
  -3  -6 -16 10.1063 1.84229   4
   1  -7 -16 55.2087 2.97194   4
   1  -7 -16 53.3111 3.04520   3
   0  -7 -16 3.38461 1.24079   4
   0  -7 -16 3.47308 1.14364   3
  -1  -7 -16 22.8496 2.23125   3
  -1  -7 -16 30.6337 2.58364   4
  -2  -7 -16 0.63551 1.21099   4
  -2  -7 -16 2.95302 1.34987   3
   2   5 -17 16.9377 1.82308   1
   1   5 -17 27.8375 2.04470   1
   0   5 -17 20.3923 1.97010   1
  -1   5 -17 0.77307 0.84556   1
  -2   5 -17 33.2569 2.71814   1
   3   4 -17 23.1015 2.13422   1
   2   4 -17 89.1352 3.59795   1
   1   4 -17 103.856 3.85259   1
   0   4 -17 11.3425 1.42299   1
  -1   4 -17 24.5425 2.09749   1
  -2   4 -17 1.75295 0.98847   1
  -3   4 -17 14.7740 1.90441   1
   3   3 -17 19.9150 1.88895   1
   2   3 -17 39.0555 2.19138   1
   1   3 -17 66.9760 2.88690   1
   0   3 -17 5.40068 1.01127   1
  -1   3 -17 8.38918 1.27806   1
  -2   3 -17 10.2316 1.48943   1
  -3   3 -17 19.7555 2.09602   1
   4   2 -17 5.76326 1.30007   1
   3   2 -17 19.4116 1.92453   1
   2   2 -17 7.95277 1.28182   1
   1   2 -17 61.7553 2.62918   1
   0   2 -17 10.2890 1.23218   1
   0   2 -17 9.09796 0.82819   3
  -1   2 -17 2.20864 0.54495   3
  -1   2 -17 2.43373 0.78920   1
  -2   2 -17 70.3167 3.10109   1
  -3   2 -17 18.0960 1.88619   1
  -4   2 -17 14.4335 1.99506   2
  -4   2 -17 15.3776 1.92259   1
   4   1 -17 2.75995 1.15172   1
   3   1 -17 20.7958 1.83336   1
   2   1 -17 16.9681 1.61521   1
   1   1 -17 28.7383 1.76542   1
   0   1 -17 10.7302 0.99686   3
   0   1 -17 14.2677 1.36186   1
  -1   1 -17 217.284 6.01285   3
  -1   1 -17 218.270 6.35060   1
   1  -1  17 216.286 5.63327   5
  -2   1 -17 49.0808 2.15914   3
  -2   1 -17 47.0232 2.35164   1
   2  -1  17 49.6714 2.01855   5
  -3   1 -17 34.9535 2.03717   3
  -3   1 -17 34.7755 2.20768   1
   3  -1  17 32.9412 1.91300   5
  -4   1 -17 44.7573 2.58223   2
  -4   1 -17 36.2317 2.33715   3
  -4   1 -17 47.9329 2.82148   1
   4  -1  17 40.4572 2.32853   5
   4   0 -17 19.1396 2.00617   1
  -4   0  17 21.3532 2.21445   2
   3   0 -17 5.22001 1.16418   1
   2   0 -17 7.16588 1.09894   1
   1   0 -17 11.7198 1.24701   1
   0   0 -17 106.943 3.47250   3
   0   0 -17 103.930 3.51116   1
  -1   0 -17 48.6241 2.16643   1
  -1   0 -17 49.5116 2.13217   3
  -2   0 -17 4.79280 0.97491   3
  -2   0 -17 2.60950 0.82484   1
   2   0  17 5.71338 0.89242   5
  -3   0 -17 68.7947 3.02334   1
  -3   0 -17 67.7739 2.99968   3
  -3   0 -17 69.4338 2.89872   2
   3   0  17 68.2439 2.90407   5
  -4   0 -17 21.5756 2.12256   3
  -4   0 -17 25.7025 1.98685   2
   4   0  17 24.9256 2.24136   5
   4  -1 -17 144.690 4.98372   1
  -4   1  17 132.415 5.09685   2
   3  -1 -17 5.17688 1.13499   1
  -3   1  17 3.05812 1.05606   2
   2  -1 -17 9.00899 1.22427   1
   1  -1 -17 83.6715 2.97513   1
   0  -1 -17 11.7576 1.15544   1
   0  -1 -17 9.75527 1.12123   3
  -1  -1 -17 9.84735 1.09234   1
  -1  -1 -17 7.39789 1.00988   3
   1   1  17 9.30038 0.77937   4
  -2  -1 -17 14.1454 1.37379   1
  -2  -1 -17 11.8914 1.41505   3
  -3  -1 -17 58.6458 2.71560   1
  -3  -1 -17 57.9172 2.84375   3
  -3  -1 -17 56.2395 2.44127   2
   3   1  17 58.7902 2.65664   5
  -4  -1 -17 15.4659 1.87440   3
  -4  -1 -17 17.2032 1.62444   2
   4   1  17 19.5556 2.06412   5
  -5  -1 -17 39.7283 2.89169   3
   5   1  17 38.3728 2.67382   5
   4  -2 -17 186.179 5.92873   1
  -4   2  17 178.799 6.21440   2
   3  -2 -17 9.70457 1.34190   1
  -3   2  17 10.6725 1.51858   2
   2  -2 -17 4.17151 0.87950   1
   2  -2 -17 5.40996 0.66699   4
  -2   2  17 5.61064 1.06258   2
   1  -2 -17 2.16598 0.66834   1
   1  -2 -17 1.39957 0.48093   4
   0  -2 -17 27.8962 1.47338   1
   0  -2 -17 28.2685 1.32303   4
   0  -2 -17 29.1326 1.75369   3
   0   2  17 27.6152 1.18630   4
  -1  -2 -17 4.41610 0.96558   3
  -1  -2 -17 3.53271 0.68604   1
  -1  -2 -17 2.79182 0.64875   2
  -2  -2 -17 7.67306 1.23149   3
  -2  -2 -17 8.58647 1.07186   1
  -3  -2 -17 16.7815 1.87709   3
  -3  -2 -17 17.2691 1.62664   1
  -3  -2 -17 18.7002 1.27508   2
  -4  -2 -17 7.36239 1.48953   3
   4   2  17 9.38091 1.65988   5
  -5  -2 -17 88.0743 4.40922   3
   5   2  17 90.9456 4.29590   5
   4  -3 -17 37.1789 2.40478   1
  -4   3  17 35.7835 2.46636   2
   3  -3 -17 6.50047 1.15474   1
   3  -3 -17 7.95069 1.33280   4
  -3   3  17 6.42012 1.22553   2
   2  -3 -17 13.5327 1.14093   4
   2  -3 -17 13.8691 1.30943   1
  -2   3  17 12.0159 1.31966   2
   1  -3 -17 5.01203 0.76778   4
   1  -3 -17 3.80113 0.73043   1
   0  -3 -17 0.77609 0.59389   4
   0  -3 -17 0.50358 0.75045   3
   0  -3 -17 -0.0048 0.47185   1
  -1  -3 -17 47.9815 2.37933   3
  -1  -3 -17 45.5141 2.12095   4
  -1  -3 -17 46.7374 1.91589   1
  -2  -3 -17 23.1099 1.75887   4
  -2  -3 -17 25.1846 1.50836   1
  -2  -3 -17 25.7076 2.24590   3
  -3  -3 -17 7.90678 1.37293   3
  -4  -3 -17 3.88751 1.31095   3
   3  -4 -17 20.3790 1.68616   1
   3  -4 -17 19.3488 1.67287   4
  -3   4  17 16.6911 1.73549   2
   2  -4 -17 17.9911 1.40536   4
   2  -4 -17 18.0078 1.42298   1
  -2   4  17 18.6667 1.48848   2
   1  -4 -17 2.13032 0.87375   3
   1  -4 -17 3.42327 0.66708   1
   1  -4 -17 2.11197 0.77549   4
   0  -4 -17 200.783 5.32955   1
   0  -4 -17 192.141 6.10829   3
   0  -4 -17 196.911 5.75219   4
  -1  -4 -17 3.14386 0.61893   1
  -1  -4 -17 3.63712 0.97783   4
  -1  -4 -17 2.97556 0.97496   3
  -2  -4 -17 97.5179 3.19856   1
  -2  -4 -17 95.5030 3.72939   4
  -2  -4 -17 103.124 4.08446   3
  -3  -4 -17 3.98920 1.20755   3
  -4  -4 -17 1.41180 1.10883   3
   3  -5 -17 5.51457 1.21833   4
  -3   5  17 6.92846 1.31406   2
   2  -5 -17 15.5338 1.57047   4
   1  -5 -17 42.0683 2.43083   3
   1  -5 -17 35.5546 2.13005   4
   0  -5 -17 0.34751 0.78347   3
   0  -5 -17 0.02462 0.83052   4
  -1  -5 -17 0.01614 0.86438   3
  -1  -5 -17 0.76930 0.87726   4
  -2  -5 -17 36.4974 2.43531   3
  -2  -5 -17 34.6853 2.33860   4
  -3  -5 -17 3.86728 1.37056   4
  -3  -5 -17 7.50740 1.57800   3
  -4  -5 -17 3.20650 1.35994   3
   2  -6 -17 63.8024 3.03796   4
   1  -6 -17 -0.1034 0.84226   4
   1  -6 -17 -0.7740 0.87580   3
   0  -6 -17 7.81482 1.39961   4
   0  -6 -17 11.4097 1.71404   3
  -1  -6 -17 1.44361 0.91235   3
  -1  -6 -17 0.27306 0.98757   4
  -2  -6 -17 8.27561 1.61261   4
  -2  -6 -17 7.98833 1.53245   3
  -3  -6 -17 19.1281 2.27649   4
  -3  -6 -17 26.6192 2.78165   3
   1  -7 -17 1.20242 1.07572   4
   1  -7 -17 0.93689 0.94647   3
   0  -7 -17 7.43778 1.54431   4
   0  -7 -17 6.76535 1.35561   3
  -1  -7 -17 3.62106 1.41234   4
  -1  -7 -17 2.26467 1.10854   3
  -2  -7 -17 19.6231 2.33115   3
  -2  -7 -17 23.6101 2.54784   4
   1   5 -18 6.83808 1.33715   1
   0   5 -18 41.4898 2.42249   1
  -1   5 -18 7.93887 1.38570   1
   2   4 -18 7.73918 1.39255   1
   1   4 -18 2.96992 1.05593   1
   0   4 -18 21.2238 1.96544   1
  -1   4 -18 6.10234 1.34884   1
  -2   4 -18 23.1072 2.16776   1
   3   3 -18 2.03555 1.12307   1
   2   3 -18 1.80790 0.94627   1
   1   3 -18 7.36916 1.23102   1
   0   3 -18 40.0182 2.20908   1
  -1   3 -18 1.72507 0.87421   1
  -2   3 -18 43.6008 2.60735   1
  -3   3 -18 17.1271 1.95810   1
   3   2 -18 0.49038 0.90742   1
   2   2 -18 1.41705 0.82527   1
   1   2 -18 38.0196 2.11604   1
   0   2 -18 23.5152 1.24819   3
   0   2 -18 24.6957 1.77051   1
  -1   2 -18 23.5036 1.91998   1
  -2   2 -18 31.6309 2.07969   1
  -3   2 -18 -1.2429 0.88465   1
  -4   2 -18 7.39205 1.52671   1
  -4   2 -18 8.01988 1.57223   2
   4   1 -18 -0.3818 0.97327   1
   3   1 -18 90.1800 3.59883   1
   2   1 -18 30.2765 1.89323   1
   1   1 -18 68.4187 2.76180   1
   0   1 -18 24.0339 1.67511   1
   0   1 -18 20.2900 1.30927   3
  -1   1 -18 34.2298 1.73980   3
  -1   1 -18 36.8269 1.98010   1
  -2   1 -18 2.68786 0.77445   3
  -2   1 -18 3.85812 1.07131   1
   2  -1  18 2.29319 0.65495   5
  -3   1 -18 7.63396 1.20297   3
  -3   1 -18 8.04879 1.42092   1
   3  -1  18 6.79000 1.07771   5
  -4   1 -18 3.45842 1.25596   2
  -4   1 -18 5.83446 1.41663   1
   4  -1  18 4.23375 1.12609   5
   4   0 -18 29.6040 2.45201   1
   3   0 -18 29.0625 2.23351   1
   2   0 -18 24.3791 1.78864   1
   1   0 -18 144.059 4.53322   1
   0   0 -18 0.04727 0.52449   3
   0   0 -18 1.17088 0.62936   1
  -1   0 -18 12.2874 1.36210   1
  -1   0 -18 9.16183 1.10788   3
  -2   0 -18 -0.3765 0.63778   1
  -2   0 -18 0.40440 0.66155   3
   2   0  18 0.35919 0.50859   5
  -3   0 -18 0.72525 0.86611   1
  -3   0 -18 -0.6748 0.68903   3
   3   0  18 0.90784 0.83352   5
  -4   0 -18 1.58196 1.09770   1
  -4   0 -18 0.55372 0.99703   3
  -4   0 -18 1.38976 0.94698   2
   4   0  18 0.88304 0.91168   5
   4  -1 -18 2.49206 1.16597   1
  -4   1  18 2.45631 1.23854   2
   3  -1 -18 0.54851 0.92557   1
   2  -1 -18 14.1055 1.47502   1
   1  -1 -18 153.708 4.69779   1
   0  -1 -18 29.2147 1.70484   3
   0  -1 -18 28.6120 1.64137   1
  -1  -1 -18 114.335 3.98188   3
  -1  -1 -18 121.952 3.90369   1
  -2  -1 -18 20.0476 1.47752   1
  -2  -1 -18 21.3486 1.86849   3
  -3  -1 -18 12.1765 1.29853   2
  -3  -1 -18 10.1683 1.33192   1
  -3  -1 -18 14.1145 1.70042   3
   3   1  18 13.6510 1.55662   5
  -4  -1 -18 3.89432 1.30852   3
   4   1  18 5.76232 1.26801   5
   4  -2 -18 28.0692 2.07052   1
  -4   2  18 26.1365 2.47167   2
   3  -2 -18 15.2433 1.56372   1
  -3   2  18 16.1756 1.79915   2
   2  -2 -18 17.6311 1.56134   1
   1  -2 -18 17.7464 1.31663   1
   1  -2 -18 17.0582 0.98504   4
   0  -2 -18 54.7561 1.99024   4
   0  -2 -18 62.0442 2.62464   3
   0  -2 -18 58.4837 2.28685   1
  -1  -2 -18 78.9370 3.15461   3
  -1  -2 -18 74.7281 2.71938   1
  -2  -2 -18 76.5565 3.25085   3
  -2  -2 -18 70.1671 2.81361   1
  -3  -2 -18 14.2592 1.51862   1
  -3  -2 -18 13.4739 1.66196   3
  -4  -2 -18 5.02362 1.48190   3
   4   2  18 7.13188 1.42056   5
   4  -3 -18 1.02449 0.99795   1
  -4   3  18 -1.3206 1.02560   2
   3  -3 -18 1.35230 0.88129   1
  -3   3  18 1.48737 1.06519   2
   2  -3 -18 0.90911 0.59799   4
   2  -3 -18 0.16453 0.69127   1
  -2   3  18 0.40211 0.76254   2
   1  -3 -18 1.61430 0.61977   1
   1  -3 -18 2.90742 0.68648   4
   0  -3 -18 32.0158 1.54831   1
   0  -3 -18 32.6611 1.63966   4
   0  -3 -18 31.4576 2.01151   3
  -1  -3 -18 77.2324 2.72229   1
  -1  -3 -18 74.2180 2.86331   4
  -1  -3 -18 80.1988 3.31765   3
  -2  -3 -18 4.95866 1.19562   3
  -2  -3 -18 3.21181 0.81621   1
  -3  -3 -18 4.68877 0.96192   1
  -3  -3 -18 6.16104 1.43615   3
  -4  -3 -18 7.27312 1.61410   3
   3  -4 -18 1.91270 0.91732   1
  -3   4  18 2.47190 1.09279   2
   2  -4 -18 5.93271 0.97932   1
   2  -4 -18 7.99176 1.08843   4
  -2   4  18 6.40671 1.06892   2
   1  -4 -18 9.85127 1.36050   3
   1  -4 -18 12.3034 1.29914   4
   1  -4 -18 10.1952 0.98151   1
   0  -4 -18 64.9003 2.97817   3
   0  -4 -18 59.9217 2.53219   4
   0  -4 -18 63.6419 2.21090   1
  -1  -4 -18 1.94648 0.86819   4
  -1  -4 -18 1.46210 0.55988   1
  -1  -4 -18 -0.7852 0.79785   3
  -2  -4 -18 10.2703 1.57783   3
  -2  -4 -18 7.41634 0.95194   1
  -2  -4 -18 8.20292 1.36562   4
  -3  -4 -18 26.1946 2.56401   3
  -4  -4 -18 31.0922 3.04326   3
   3  -5 -18 -0.9919 1.03972   4
   2  -5 -18 19.5303 1.77347   4
   1  -5 -18 24.6957 2.17612   3
   1  -5 -18 21.5761 1.66049   4
   0  -5 -18 11.2850 1.60176   3
   0  -5 -18 9.32517 1.31544   4
  -1  -5 -18 64.6363 3.18870   3
  -1  -5 -18 59.6391 2.85750   4
  -2  -5 -18 1.92372 1.05434   4
  -2  -5 -18 1.98412 1.04394   3
  -3  -5 -18 35.2633 2.51136   4
  -3  -5 -18 36.3256 2.64425   3
   2  -6 -18 8.85536 1.44196   4
   2  -6 -18 8.32008 1.44344   3
   1  -6 -18 5.60721 1.21644   4
   1  -6 -18 7.83810 1.40413   3
   0  -6 -18 28.4160 2.26381   3
   0  -6 -18 26.3230 2.03785   4
  -1  -6 -18 14.6880 1.81102   4
  -1  -6 -18 12.7897 1.67551   3
  -2  -6 -18 10.9408 1.76780   4
  -2  -6 -18 13.8993 1.95704   3
  -3  -6 -18 5.41164 1.60115   3
  -3  -6 -18 12.4473 1.96808   4
   1  -7 -18 20.0099 2.12289   4
   1  -7 -18 14.5499 2.05605   3
   0  -7 -18 0.40316 1.03525   4
   0  -7 -18 0.06041 0.92570   3
  -1  -7 -18 8.77038 1.55729   3
  -1  -7 -18 9.69191 1.70200   4
  -2  -7 -18 44.7483 2.98341   3
  -2  -7 -18 41.5309 2.90837   4
   2   4 -19 17.3604 1.79631   1
   1   4 -19 22.7978 2.07414   1
   0   4 -19 -0.1898 0.72638   1
  -1   4 -19 7.71026 1.51326   1
  -2   4 -19 13.1105 1.74221   1
   3   3 -19 30.5481 2.19251   1
   2   3 -19 53.6917 2.77667   1
   1   3 -19 8.25128 1.35547   1
   0   3 -19 31.6863 2.12371   1
  -1   3 -19 9.00465 1.36727   1
  -2   3 -19 40.3206 2.47303   1
  -3   3 -19 -0.5383 0.86818   1
   3   2 -19 -0.4584 0.96208   1
   2   2 -19 15.5765 1.67557   1
   1   2 -19 4.21681 1.01684   1
   1   2 -19 3.75908 0.81178   3
   0   2 -19 133.673 4.53233   1
  -1   2 -19 63.7548 2.93269   1
  -2   2 -19 11.3644 1.53496   1
  -3   2 -19 1.61477 0.97554   1
   3   1 -19 5.62978 1.18612   1
   2   1 -19 18.6805 1.77397   1
   1   1 -19 16.7419 1.54681   1
   0   1 -19 89.2272 3.36240   1
   0   1 -19 90.1932 3.05915   3
  -1   1 -19 54.1739 2.27090   3
  -1   1 -19 60.0023 2.68896   1
  -2   1 -19 18.6397 1.44591   3
  -2   1 -19 21.5350 1.96929   1
  -3   1 -19 69.1163 3.03418   3
  -3   1 -19 67.7090 3.22254   1
  -4   1 -19 32.1628 2.45484   2
  -4   1 -19 37.4624 2.56892   1
   4   0 -19 6.74422 1.47954   1
   3   0 -19 2.22274 1.07757   1
   2   0 -19 26.3673 2.05007   1
   1   0 -19 5.54888 0.98712   1
   0   0 -19 12.4338 1.24133   3
   0   0 -19 8.15104 1.11657   1
  -1   0 -19 25.1921 1.65925   1
  -1   0 -19 27.7800 1.69196   3
  -2   0 -19 0.58643 0.71290   3
  -2   0 -19 0.17901 0.77517   1
   2   0  19 -0.1914 0.54726   5
  -3   0 -19 67.0539 3.10923   3
  -3   0 -19 71.6232 3.16104   1
   3   0  19 66.2600 2.89292   5
  -4   0 -19 2.70207 1.15227   3
  -4   0 -19 1.49839 0.93951   1
  -4   0 -19 3.92024 1.20955   2
   4   0  19 3.88569 1.16123   5
   4  -1 -19 8.88434 1.60110   1
  -4   1  19 9.12583 1.66534   2
   3  -1 -19 10.3257 1.48659   1
   2  -1 -19 2.20334 0.94613   1
   1  -1 -19 6.37985 0.99232   1
   0  -1 -19 3.38963 0.86173   1
   0  -1 -19 2.17301 0.71003   3
  -1  -1 -19 5.70761 0.94176   1
  -1  -1 -19 4.62519 0.93312   3
  -2  -1 -19 8.22288 1.25288   1
  -2  -1 -19 10.4483 1.41012   3
  -3  -1 -19 4.28527 0.98544   2
  -3  -1 -19 3.48186 1.08190   3
  -3  -1 -19 4.92034 1.14435   1
   3   1  19 5.58979 1.13496   5
  -4  -1 -19 31.4643 2.42169   3
   4   1  19 33.1850 2.42928   5
  -4   2  19 0.96072 1.33463   2
   3  -2 -19 3.30984 0.99145   1
  -3   2  19 3.89994 1.25210   2
   2  -2 -19 0.25764 0.73158   1
   1  -2 -19 -0.1355 0.60977   1
   0  -2 -19 4.30469 0.98514   3
   0  -2 -19 3.05165 0.78696   1
   0  -2 -19 4.44449 0.67874   4
  -1  -2 -19 1.58561 0.82840   3
  -1  -2 -19 1.87060 0.73670   1
  -2  -2 -19 5.79635 1.14677   3
  -2  -2 -19 6.67990 1.07559   1
  -3  -2 -19 34.2604 2.35166   3
  -3  -2 -19 27.4960 1.81461   1
  -4  -2 -19 10.3494 1.80306   3
   4   2  19 6.86461 1.46938   5
   3  -3 -19 25.2864 1.89293   1
  -3   3  19 22.9877 2.10983   2
   2  -3 -19 16.7405 1.45044   1
   1  -3 -19 1.34417 0.64101   4
   1  -3 -19 1.80283 0.68668   1
   1  -3 -19 1.93401 0.86955   3
   0  -3 -19 14.7009 1.51442   3
   0  -3 -19 16.2780 1.20196   1
   0  -3 -19 16.4956 1.23232   4
  -1  -3 -19 73.0060 2.71298   1
  -1  -3 -19 70.5821 2.79660   4
  -1  -3 -19 77.8423 3.30186   3
  -2  -3 -19 6.08030 1.34152   3
  -2  -3 -19 6.21082 1.01501   1
  -3  -3 -19 6.77624 1.50589   3
  -3  -3 -19 7.13741 1.09259   1
  -4  -3 -19 0.11721 0.96334   3
   3  -4 -19 16.5429 1.63973   1
  -3   4  19 15.1620 1.72524   2
   2  -4 -19 71.7716 2.71486   1
  -2   4  19 68.6827 2.79964   2
   1  -4 -19 11.4310 1.07894   1
   1  -4 -19 9.95616 1.20033   4
   1  -4 -19 12.1398 1.51855   3
   0  -4 -19 27.2971 1.40971   1
   0  -4 -19 27.2406 1.75250   4
   0  -4 -19 29.4358 2.06483   3
  -1  -4 -19 7.39682 1.22008   4
  -1  -4 -19 8.10029 0.92514   1
  -1  -4 -19 6.98387 1.25955   3
  -2  -4 -19 0.73434 0.59256   1
  -2  -4 -19 -0.4300 0.92845   3
  -2  -4 -19 -0.0080 0.91607   4
  -3  -4 -19 0.05526 1.03965   3
  -4  -4 -19 34.4075 3.12892   3
   2  -5 -19 56.4958 2.65859   4
   1  -5 -19 35.2483 2.32154   3
   1  -5 -19 37.5809 2.14680   4
   0  -5 -19 0.45593 0.86361   3
   0  -5 -19 2.49508 1.01158   4
  -1  -5 -19 38.1294 2.45642   3
  -1  -5 -19 37.3634 2.26819   4
  -2  -5 -19 2.76692 1.13340   3
  -2  -5 -19 4.30710 1.23594   4
  -3  -5 -19 16.9671 2.19799   3
  -3  -5 -19 20.8905 2.25374   4
   2  -6 -19 49.4421 3.00925   3
   2  -6 -19 50.0484 2.66604   4
   1  -6 -19 6.37337 1.28906   4
   1  -6 -19 6.72053 1.42513   3
   0  -6 -19 16.5475 1.79095   4
   0  -6 -19 17.6553 1.90476   3
  -1  -6 -19 29.2012 2.25580   4
  -1  -6 -19 30.5797 2.27808   3
  -2  -6 -19 7.61577 1.49436   4
  -2  -6 -19 6.08669 1.54658   3
   0  -7 -19 46.6562 3.04571   3
   0  -7 -19 49.6571 2.90228   4
  -1  -7 -19 13.3654 1.88764   4
  -1  -7 -19 13.6797 1.85501   3
   1   4 -20 1.24241 1.02254   1
   0   4 -20 38.8343 2.38927   1
  -1   4 -20 19.2217 2.02935   1
   2   3 -20 2.77623 1.09246   1
   1   3 -20 8.69512 1.45363   1
   0   3 -20 0.65678 0.81009   1
  -1   3 -20 1.42593 0.95170   1
  -2   3 -20 29.3347 2.20373   1
   3   2 -20 9.95647 1.53859   1
   2   2 -20 2.30124 0.96811   1
   1   2 -20 13.2429 1.53010   1
   0   2 -20 55.9474 2.66516   1
  -1   2 -20 10.2271 1.40350   1
  -2   2 -20 -0.0806 0.85826   1
  -3   2 -20 15.2999 1.84421   1
   3   1 -20 5.00379 1.33832   1
   2   1 -20 17.4776 1.69823   1
   1   1 -20 20.9709 1.46122   3
   1   1 -20 24.5709 1.98543   1
   0   1 -20 116.042 4.08471   1
   0   1 -20 116.304 3.75333   3
  -1   1 -20 0.63380 0.75811   1
  -1   1 -20 -0.0091 0.58337   3
  -2   1 -20 1.11346 0.88443   1
  -2   1 -20 1.04977 0.72862   3
  -3   1 -20 0.79286 0.92554   1
   3   0 -20 5.67591 1.27502   1
   2   0 -20 15.5439 1.53674   1
   1   0 -20 106.181 3.76167   1
   1   0 -20 101.984 3.61951   3
   0   0 -20 11.3023 1.28824   1
   0   0 -20 12.5606 1.27134   3
  -1   0 -20 8.00019 1.11214   3
  -1   0 -20 9.97909 1.25354   1
  -2   0 -20 40.7091 2.21802   3
  -2   0 -20 43.3440 2.34498   1
   2   0  20 39.4758 1.95674   5
  -3   0 -20 13.4960 1.76298   1
  -3   0 -20 8.75779 1.38823   3
   3   0  20 11.2856 1.39382   5
  -4   0 -20 6.93182 1.48974   1
  -4   0 -20 3.91799 1.30467   3
  -4   0 -20 3.94187 1.49525   2
   4   0  20 3.33668 1.20546   5
   3  -1 -20 15.6187 1.80534   1
   2  -1 -20 55.1956 2.62793   1
   1  -1 -20 0.76205 0.75022   1
   1  -1 -20 0.23363 0.68203   3
   0  -1 -20 12.3384 1.29774   3
   0  -1 -20 14.9924 1.40769   1
  -1  -1 -20 35.6415 2.03491   3
  -1  -1 -20 35.5654 1.95453   1
  -2  -1 -20 33.2804 2.08890   3
  -2  -1 -20 29.2659 1.91704   1
  -3  -1 -20 6.91556 1.23955   1
  -3  -1 -20 6.08803 1.26979   3
   3   1  20 6.21908 1.12280   5
  -4  -1 -20 7.46603 1.60118   3
   4   1  20 6.11590 1.39764   5
   3  -2 -20 19.4594 1.81086   1
   2  -2 -20 9.75081 1.29761   1
   1  -2 -20 12.4389 1.43491   3
   1  -2 -20 11.8147 1.24274   1
   0  -2 -20 97.0127 3.66818   3
   0  -2 -20 96.7551 3.35299   1
  -1  -2 -20 62.0385 2.88675   3
  -1  -2 -20 62.6930 2.55754   1
  -2  -2 -20 4.62325 1.10722   3
  -2  -2 -20 8.44326 1.16220   1
  -3  -2 -20 41.8361 2.69372   3
  -3  -2 -20 42.6185 2.36093   1
  -4  -2 -20 0.49486 1.05394   3
   4   2  20 -0.4343 0.96803   5
   3  -3 -20 3.42827 1.12063   1
  -3   3  20 2.67502 1.16435   2
   2  -3 -20 0.69639 0.72573   1
   1  -3 -20 13.9713 1.26777   1
   1  -3 -20 12.5807 1.49438   3
   0  -3 -20 0.54737 0.72059   3
   0  -3 -20 0.72759 0.58611   4
   0  -3 -20 1.39690 0.61709   1
  -1  -3 -20 205.442 6.02672   4
  -1  -3 -20 207.011 5.96434   1
  -1  -3 -20 210.395 6.60161   3
  -2  -3 -20 41.9142 2.57833   3
  -2  -3 -20 36.2414 1.92273   1
  -3  -3 -20 52.5288 3.09339   3
  -4  -3 -20 -0.3644 1.13809   3
   3  -4 -20 0.49402 0.87365   1
  -3   4  20 -0.0419 1.22307   2
   2  -4 -20 9.28793 1.19644   1
   1  -4 -20 0.27632 0.84013   3
   1  -4 -20 1.82838 0.67767   1
   0  -4 -20 42.4049 2.11584   4
   0  -4 -20 40.6334 2.40550   3
   0  -4 -20 41.2522 1.82139   1
  -1  -4 -20 193.313 6.44371   3
  -1  -4 -20 193.164 5.91522   4
  -1  -4 -20 195.836 5.50667   1
  -2  -4 -20 18.9903 1.98893   1
  -2  -4 -20 17.6558 2.00731   3
  -2  -4 -20 14.9383 1.74623   4
  -3  -4 -20 49.2628 3.02916   3
   1  -5 -20 78.3261 3.15704   4
   1  -5 -20 72.0555 3.43909   3
   0  -5 -20 42.5192 2.62002   3
   0  -5 -20 35.2515 2.13417   4
  -1  -5 -20 30.3628 2.28666   3
  -1  -5 -20 33.9370 2.18188   4
  -2  -5 -20 15.7399 1.94451   3
  -2  -5 -20 14.7049 1.75038   4
  -3  -5 -20 3.90453 1.51423   3
  -3  -5 -20 6.39057 1.47617   4
   1  -6 -20 2.52962 1.29659   3
   1  -6 -20 5.25134 1.27621   4
   0  -6 -20 1.19397 1.04820   3
   0  -6 -20 0.35183 0.98017   4
  -1  -6 -20 -0.4682 0.90054   3
  -1  -6 -20 0.16040 0.98125   4
  -2  -6 -20 10.5765 1.72894   4
  -2  -6 -20 7.28406 1.71500   3
   2   3 -21 33.8905 2.26721   1
   1   3 -21 4.40062 1.17305   1
   0   3 -21 16.4690 1.79371   1
  -1   3 -21 1.93308 0.99509   1
  -2   3 -21 34.4159 2.79089   1
   2   2 -21 30.1854 2.10454   1
   1   2 -21 4.54878 1.13984   1
   0   2 -21 10.6525 1.43388   1
  -1   2 -21 25.7295 2.26931   1
  -2   2 -21 17.7579 1.91563   1
  -3   2 -21 21.9198 2.23946   1
   3   1 -21 2.73601 1.09734   1
   2   1 -21 11.2218 1.53706   1
   1   1 -21 26.0427 2.03764   1
   1   1 -21 18.7288 1.47312   3
   0   1 -21 78.8521 3.21099   1
   0   1 -21 78.2217 2.92230   3
  -1   1 -21 41.9983 2.32581   1
  -1   1 -21 47.5169 2.81211   3
  -2   1 -21 28.3132 2.33848   1
  -3   1 -21 34.7007 2.55343   1
   3   0 -21 5.29050 1.25553   1
   2   0 -21 -0.6844 0.81137   1
   1   0 -21 35.6405 1.97212   3
   1   0 -21 38.4726 2.09961   1
   0   0 -21 44.1823 2.24302   1
   0   0 -21 48.0950 2.26055   3
  -1   0 -21 2.08992 0.83912   1
  -1   0 -21 0.30947 0.67856   3
  -2   0 -21 61.4528 2.90250   1
  -2   0 -21 58.1181 2.70798   3
  -3   0 -21 35.2875 2.34336   3
  -3   0 -21 38.1416 2.40825   1
   3  -1 -21 1.47113 1.10668   1
   2  -1 -21 24.8486 1.77788   1
   1  -1 -21 3.18913 0.86000   1
   1  -1 -21 3.72727 0.97855   3
   0  -1 -21 6.66449 1.13254   3
   0  -1 -21 8.08190 1.15547   1
  -1  -1 -21 19.8569 1.67818   1
  -1  -1 -21 22.3588 1.68772   3
  -2  -1 -21 68.4727 3.05368   1
  -2  -1 -21 74.8886 3.29415   3
  -3  -1 -21 17.5040 1.88069   3
  -3  -1 -21 22.3980 2.09335   1
   3   1  21 21.9450 2.01140   5
  -4  -1 -21 19.9514 2.18854   1
  -4  -1 -21 24.3326 2.52421   3
   4   1  21 16.7081 1.98913   5
   3  -2 -21 5.12579 1.29559   1
   2  -2 -21 4.20783 1.08507   1
   1  -2 -21 9.47822 1.35793   3
   1  -2 -21 10.0832 1.23174   1
   0  -2 -21 1.27772 0.68187   1
   0  -2 -21 1.33681 0.84411   3
  -1  -2 -21 24.1882 1.89202   3
  -1  -2 -21 27.0545 1.66723   1
  -2  -2 -21 24.3865 1.71846   1
  -2  -2 -21 25.8952 2.27919   3
  -3  -2 -21 5.98708 1.23670   1
  -3  -2 -21 8.62194 1.57245   3
   3  -3 -21 3.80832 1.18679   1
   2  -3 -21 -0.2402 0.68481   1
   1  -3 -21 2.95127 1.00182   3
   1  -3 -21 4.43519 0.90352   1
   0  -3 -21 32.7559 2.10455   3
   0  -3 -21 34.9451 1.76650   1
  -1  -3 -21 7.58610 1.37292   3
  -1  -3 -21 5.73922 0.96251   1
  -2  -3 -21 3.03605 0.86859   1
  -2  -3 -21 4.17095 1.27520   3
  -3  -3 -21 1.72179 0.88933   1
  -3  -3 -21 1.96203 1.18957   3
   2  -4 -21 2.36389 0.86480   1
   1  -4 -21 98.6543 3.36161   1
   1  -4 -21 102.120 4.07913   3
   0  -4 -21 1.32417 0.59747   1
   0  -4 -21 1.14893 0.92123   3
  -1  -4 -21 105.014 4.30402   3
  -1  -4 -21 101.918 3.55054   1
  -1  -4 -21 101.852 3.76654   4
  -2  -4 -21 0.56259 1.04144   4
  -2  -4 -21 1.27576 0.96741   3
  -3  -4 -21 0.39831 1.01610   3
   2  -5 -21 18.0674 2.13304   3
   1  -5 -21 13.0155 1.76457   3
   0  -5 -21 5.07117 1.23493   3
   0  -5 -21 5.89556 1.19108   4
  -1  -5 -21 65.4753 3.40908   3
  -1  -5 -21 64.4503 2.99027   4
  -2  -5 -21 3.12918 1.23909   3
  -2  -5 -21 4.40446 1.31764   4
   0  -6 -21 -0.4653 1.03918   4
   0  -6 -21 0.49616 1.01061   3
  -1  -6 -21 5.63170 1.57281   3
  -1  -6 -21 7.13970 1.48356   4
   1   3 -22 30.1514 2.47887   1
   0   3 -22 1.10307 1.00745   1
  -1   3 -22 32.7138 2.70177   1
   2   2 -22 24.7499 2.25248   1
   1   2 -22 16.3897 1.75740   1
   0   2 -22 15.4161 1.74104   1
  -1   2 -22 43.3627 2.54146   1
  -2   2 -22 1.61553 1.08348   1
   2   1 -22 42.7671 2.46201   1
   1   1 -22 3.26006 0.95869   3
   1   1 -22 3.98765 1.07960   1
   0   1 -22 8.17045 1.22496   1
  -1   1 -22 7.02526 1.27996   1
  -2   1 -22 2.42344 1.03938   1
  -3   1 -22 -0.9446 1.01347   1
   3   0 -22 25.7234 2.21810   1
   2   0 -22 51.3429 2.68032   1
   1   0 -22 2.17586 0.97117   1
   1   0 -22 1.56554 0.85263   3
   0   0 -22 4.21191 0.96266   3
   0   0 -22 1.41263 0.79787   1
  -1   0 -22 0.25140 0.68922   3
  -1   0 -22 1.63380 0.76333   1
  -2   0 -22 0.60178 0.91536   1
  -2   0 -22 1.24120 0.75987   3
  -3   0 -22 6.82402 1.78120   3
  -3   0 -22 2.36283 1.03537   1
   3  -1 -22 5.20817 1.34277   1
   2  -1 -22 94.4627 3.62146   1
   1  -1 -22 9.72738 1.33518   3
   1  -1 -22 11.2195 1.39277   1
   0  -1 -22 44.0686 2.21073   1
   0  -1 -22 39.6282 2.21724   3
  -1  -1 -22 -0.0452 0.67806   1
  -1  -1 -22 -0.5134 0.71781   3
  -2  -1 -22 14.0051 1.63934   1
  -2  -1 -22 12.2817 1.59917   3
  -3  -1 -22 10.6177 1.61814   3
  -3  -1 -22 12.5556 1.60878   1
   3   1  22 16.7987 2.80734   5
   3  -2 -22 10.7814 1.60863   1
   2  -2 -22 28.0179 1.84843   1
   1  -2 -22 35.1567 2.24103   3
   1  -2 -22 37.6580 1.94608   1
   0  -2 -22 57.8985 2.54162   1
   0  -2 -22 62.2077 2.89160   3
  -1  -2 -22 57.3175 2.53170   1
  -1  -2 -22 56.4919 2.77431   3
  -2  -2 -22 22.3074 1.85135   1
  -2  -2 -22 26.2333 2.41107   3
  -3  -2 -22 4.34706 1.33234   3
  -3  -2 -22 4.55807 1.14590   1
   2  -3 -22 -0.4794 0.70714   1
   1  -3 -22 27.0497 2.14749   3
   1  -3 -22 32.4705 1.78089   1
   0  -3 -22 75.0029 2.82720   1
   0  -3 -22 73.7973 3.34561   3
  -1  -3 -22 1.08719 0.93080   3
  -1  -3 -22 -0.0297 0.57289   1
  -2  -3 -22 4.75093 1.19818   3
  -2  -3 -22 4.35735 1.02871   1
  -3  -3 -22 2.65881 0.99917   1
  -3  -3 -22 4.62634 1.46251   3
   2  -4 -22 1.23653 0.75506   1
   1  -4 -22 26.3312 2.07805   3
   1  -4 -22 26.2989 1.60617   1
   0  -4 -22 1.71306 0.68837   1
   0  -4 -22 0.11180 0.99191   3
  -1  -4 -22 15.7927 1.85201   3
  -2  -4 -22 14.9485 1.96284   3
  -3  -4 -22 39.5183 2.95203   3
   1  -5 -22 6.92863 1.57623   3
   0  -5 -22 16.7908 1.96923   3
  -1  -5 -22 3.29920 1.08456   4
  -1  -5 -22 2.24711 1.07096   3
  -2  -5 -22 42.8172 3.02628   3
  -2  -5 -22 45.1334 2.71893   4
   1   2 -23 66.6634 3.16013   1
   0   2 -23 18.5104 1.98641   1
  -1   2 -23 25.1193 2.25371   1
   2   1 -23 5.05404 1.31560   1
   1   1 -23 52.0304 2.72266   1
   0   1 -23 42.6250 2.41116   1
  -1   1 -23 15.6091 1.75002   1
  -2   1 -23 32.4815 2.30360   1
   2   0 -23 8.98845 1.37974   1
   1   0 -23 26.7569 2.02260   1
   1   0 -23 30.5894 1.92273   3
   0   0 -23 34.5628 2.14384   1
   0   0 -23 34.2342 2.04066   3
  -1   0 -23 5.12096 1.03697   3
  -1   0 -23 6.78789 1.28052   1
  -2   0 -23 86.8880 3.70783   1
  -2   0 -23 90.2042 3.91328   3
  -3   0 -23 1.18403 1.00512   1
   2  -1 -23 3.25451 1.10480   1
   1  -1 -23 1.53416 0.92695   1
   1  -1 -23 0.02651 0.78903   3
   0  -1 -23 2.24823 0.91099   3
   0  -1 -23 1.34910 0.81250   1
  -1  -1 -23 2.07592 0.90659   3
  -1  -1 -23 1.03903 0.81018   1
  -2  -1 -23 4.69503 1.23016   1
  -2  -1 -23 4.04497 1.11466   3
  -3  -1 -23 18.4990 1.99891   3
  -3  -1 -23 17.9774 1.84028   1
   2  -2 -23 7.62752 1.28370   1
   1  -2 -23 1.07340 0.86855   3
   1  -2 -23 -0.1377 0.73429   1
   0  -2 -23 19.1635 1.65028   1
   0  -2 -23 16.7085 1.77356   3
  -1  -2 -23 2.52882 1.04088   3
  -1  -2 -23 0.78997 0.74693   1
  -2  -2 -23 5.18496 1.11656   1
  -2  -2 -23 6.92679 1.31458   3
  -3  -2 -23 8.71083 1.37844   1
  -3  -2 -23 11.9423 1.82330   3
   2  -3 -23 1.26450 0.91523   1
   1  -3 -23 2.91553 0.78298   1
   1  -3 -23 1.82948 1.10624   3
   0  -3 -23 2.14323 0.74228   1
   0  -3 -23 2.56000 1.10803   3
  -1  -3 -23 2.43083 1.09263   3
  -1  -3 -23 1.76855 0.74469   1
  -2  -3 -23 5.30908 1.10272   1
  -2  -3 -23 7.11693 1.50505   3
  -3  -3 -23 0.16638 1.12573   3
  -3  -3 -23 0.41633 0.74615   1
   1  -4 -23 45.2231 2.73697   3
   0  -4 -23 8.12497 1.53080   3
  -1  -4 -23 -1.6447 0.83697   3
  -2  -4 -23 0.52699 1.10201   3
   0  -5 -23 13.0433 1.91926   3
  -1  -5 -23 0.81514 1.13922   3
   1   1 -24 159.369 5.53899   1
   0   1 -24 4.76120 1.25575   1
  -1   1 -24 0.80484 0.83503   1
   1   0 -24 0.55319 0.86651   1
   1   0 -24 0.51918 0.82892   3
   0   0 -24 5.40813 1.13073   3
   0   0 -24 11.0041 1.49494   1
  -1   0 -24 7.29411 1.35200   1
  -2   0 -24 1.51011 0.95268   1
   2  -1 -24 1.97000 0.93526   1
   1  -1 -24 0.10776 0.78439   3
   1  -1 -24 -0.4764 0.74323   1
   0  -1 -24 10.1442 1.38127   1
   0  -1 -24 11.3521 1.43782   3
  -1  -1 -24 31.6099 2.11112   1
  -1  -1 -24 31.3611 2.12120   3
  -2  -1 -24 1.93604 0.99200   1
  -2  -1 -24 1.07264 0.99972   3
   2  -2 -24 2.00627 0.96682   1
   1  -2 -24 43.9006 2.62345   3
   1  -2 -24 48.7282 2.44348   1
   0  -2 -24 10.9375 1.53894   3
   0  -2 -24 12.7344 1.45389   1
  -1  -2 -24 1.02939 0.89779   3
  -1  -2 -24 0.36226 0.74836   1
  -2  -2 -24 24.8229 2.09164   1
  -2  -2 -24 23.1090 2.34712   3
   1  -3 -24 1.79449 0.83078   1
   1  -3 -24 1.62084 1.17156   3
   0  -3 -24 98.3945 4.18529   3
   0  -3 -24 107.051 3.71009   1
  -1  -3 -24 28.0647 2.49333   3
  -1  -3 -24 26.7159 1.79579   1
  -2  -3 -24 45.3116 2.93085   3
   1  -4 -24 13.5035 1.76386   3
   0  -4 -24 122.898 4.88997   3
  -1  -4 -24 16.2894 2.06664   3
   1   0 -25 20.3829 1.94072   1
   0   0 -25 11.6905 1.61597   1
  -1   0 -25 31.2263 2.15418   1
   1  -1 -25 10.4315 1.48908   3
   1  -1 -25 14.2700 1.69368   1
   0  -1 -25 6.36507 1.27077   3
   0  -1 -25 6.80669 1.28403   1
  -1  -1 -25 56.1975 2.94454   3
  -1  -1 -25 65.6737 2.97217   1
  -2  -1 -25 14.1590 1.68231   1
  -2  -1 -25 16.2274 1.84437   3
   1  -2 -25 3.08264 1.01758   1
   1  -2 -25 2.28548 1.10031   3
   0  -2 -25 37.6856 2.41563   3
   0  -2 -25 36.4082 2.17214   1
  -1  -2 -25 36.3666 2.19914   1
  -1  -2 -25 31.3210 2.32608   3
  -2  -2 -25 6.53060 1.35453   1
  -2  -2 -25 7.75720 1.48828   3
   0  -3 -25 2.90678 1.22713   3
   0  -3 -25 5.24835 1.00396   1
  -1  -3 -25 3.40614 1.25183   3
  -1  -3 -25 2.70008 0.92244   1
   0   0   0    0.00    0.00   0

 _exptl_absorpt_process_details
)
 SADABS 2016/2: Krause, L., Herbst-Irmer, R., Sheldrick G.M. & Stalke D.,
 J. Appl. Cryst. 48 (2015) 3-10
)
 _exptl_absorpt_correction_type   multi-scan
 _exptl_absorpt_correction_T_max  0.7454
 _exptl_absorpt_correction_T_min  0.7077
 _exptl_special_details
)
 The following wavelength and cell were deduced by SADABS from the
 direction cosines etc. They are given here for emergency use only:
 CELL 0.71091    5.111    7.170   20.767   80.426   86.884   86.456
)
;
_shelx_hkl_checksum              15820
_olex2_submission_special_instructions 'No special instructions were received'
loop_
_space_group_symop_operation_xyz
'x, y, z'
'-x, -y, -z'
loop_
_atom_site_label
_atom_site_type_symbol
_atom_site_fract_x
_atom_site_fract_y
_atom_site_fract_z
_atom_site_U_iso_or_equiv
_atom_site_adp_type
_atom_site_occupancy
_atom_site_site_symmetry_order
_atom_site_calc_flag
_atom_site_refinement_flags_posn
_atom_site_refinement_flags_adp
_atom_site_refinement_flags_occupancy
_atom_site_disorder_assembly
_atom_site_disorder_group
S1 S 0.53847(8) -0.05514(6) 0.75603(2) 0.01669(12) Uani 1 1 d . . . . .
O1 O 0.0124(2) 0.02867(15) 0.61733(5) 0.0137(2) Uani 1 1 d . . . . .
N1 N -0.4532(3) -0.18431(18) 0.53108(6) 0.0128(3) Uani 1 1 d . . . . .
C15 C -0.3199(3) -0.0418(2) 0.54593(7) 0.0120(3) Uani 1 1 d . . . . .
C10 C 0.3385(3) 0.0463(2) 0.69343(7) 0.0143(3) Uani 1 1 d . . . . .
C14 C -0.1310(3) -0.1036(2) 0.59618(7) 0.0131(3) Uani 1 1 d . . . . .
C12 C 0.1323(3) -0.2566(2) 0.67226(8) 0.0164(3) Uani 1 1 d . . . . .
H12 H 0.218644 -0.354043 0.701552 0.020 Uiso 1 1 calc R . . . .
C11 C 0.1721(3) -0.0679(2) 0.66399(7) 0.0139(3) Uani 1 1 d . . . . .
C17 C -0.7746(3) -0.3131(2) 0.47255(8) 0.0161(3) Uani 1 1 d . . . . .
H17A H -0.732359 -0.333206 0.427518 0.024 Uiso 1 1 calc GR . . . .
H17B H -0.964447 -0.287864 0.478532 0.024 Uiso 1 1 calc GR . . . .
H17C H -0.719253 -0.426707 0.502873 0.024 Uiso 1 1 calc GR . . . .
C9 C 0.3615(3) 0.2382(2) 0.67995(8) 0.0168(3) Uani 1 1 d . . . . .
H9 H 0.268486 0.319533 0.647008 0.020 Uiso 1 1 calc R . . . .
C16 C -0.6331(3) -0.1468(2) 0.48594(7) 0.0122(3) Uani 1 1 d . . . . .
C8 C 0.5396(3) 0.3023(2) 0.72061(8) 0.0183(4) Uani 1 1 d . . . . .
H8 H 0.578241 0.431594 0.717186 0.022 Uiso 1 1 calc R . . . .
C7 C 0.6500(3) 0.1626(2) 0.76485(8) 0.0161(3) Uani 1 1 d . . . . .
C13 C -0.0630(3) -0.2793(2) 0.62866(8) 0.0161(3) Uani 1 1 d . . . . .
H13 H -0.133083 -0.395042 0.623168 0.019 Uiso 1 1 calc R . . . .
C6 C 0.8404(3) 0.1760(2) 0.81638(8) 0.0192(4) Uani 1 1 d . . . . .
H6A H 1.011369 0.113979 0.804964 0.023 Uiso 1 1 calc R . . . .
H6B H 0.774100 0.106786 0.858789 0.023 Uiso 1 1 calc R . . . .
C4 C 1.0668(4) 0.3966(3) 0.87710(8) 0.0225(4) Uani 1 1 d . . . . .
H4A H 1.241224 0.338307 0.866420 0.027 Uiso 1 1 calc R . . . .
H4B H 0.999165 0.324932 0.918951 0.027 Uiso 1 1 calc R . . . .
C3 C 1.0979(4) 0.6014(3) 0.88555(9) 0.0258(4) Uani 1 1 d . . . . .
H3A H 1.162646 0.673353 0.843455 0.031 Uiso 1 1 calc R . . . .
H3B H 0.923612 0.658936 0.896802 0.031 Uiso 1 1 calc R . . . .
C5 C 0.8815(3) 0.3803(2) 0.82365(8) 0.0213(4) Uani 1 1 d . . . . .
H5A H 0.952844 0.448079 0.781553 0.026 Uiso 1 1 calc R . . . .
H5B H 0.709320 0.443277 0.833491 0.026 Uiso 1 1 calc R . . . .
C1 C 1.3084(5) 0.8231(3) 0.94892(10) 0.0400(6) Uani 1 1 d . . . . .
H1A H 1.372060 0.899614 0.908194 0.060 Uiso 1 1 calc GR . . . .
H1B H 1.432086 0.825413 0.983208 0.060 Uiso 1 1 calc GR . . . .
H1C H 1.135669 0.875080 0.962248 0.060 Uiso 1 1 calc GR . . . .
C2 C 1.2859(4) 0.6196(3) 0.93821(9) 0.0299(4) Uani 1 1 d . . . . .
H2A H 1.462080 0.567185 0.925924 0.036 Uiso 1 1 calc R . . . .
H2B H 1.225505 0.542800 0.979835 0.036 Uiso 1 1 calc R . . . .
loop_
_atom_site_aniso_label
_atom_site_aniso_U_11
_atom_site_aniso_U_22
_atom_site_aniso_U_33
_atom_site_aniso_U_23
_atom_site_aniso_U_13
_atom_site_aniso_U_12
S1 0.0180(2) 0.0157(2) 0.0169(2) -0.00265(15) -0.00454(15) -0.00155(16)
O1 0.0152(6) 0.0118(5) 0.0152(5) -0.0034(4) -0.0038(4) -0.0023(4)
N1 0.0126(7) 0.0110(6) 0.0154(7) -0.0040(5) 0.0009(5) -0.0019(5)
C15 0.0124(8) 0.0109(7) 0.0137(7) -0.0048(6) 0.0024(6) -0.0018(6)
C10 0.0126(8) 0.0175(8) 0.0133(8) -0.0045(6) 0.0004(6) -0.0005(6)
C14 0.0121(8) 0.0135(8) 0.0156(8) -0.0076(6) 0.0023(6) -0.0051(6)
C12 0.0166(8) 0.0146(8) 0.0177(8) -0.0022(6) -0.0024(6) 0.0003(6)
C11 0.0128(8) 0.0171(8) 0.0121(7) -0.0032(6) -0.0005(6) 0.0001(6)
C17 0.0160(8) 0.0103(8) 0.0230(9) -0.0040(6) -0.0040(7) -0.0027(6)
C9 0.0172(8) 0.0157(8) 0.0175(8) -0.0024(6) -0.0028(6) -0.0004(6)
C16 0.0113(8) 0.0115(7) 0.0148(8) -0.0051(6) 0.0021(6) -0.0024(6)
C8 0.0191(9) 0.0159(8) 0.0209(8) -0.0046(7) -0.0021(7) -0.0031(7)
C7 0.0144(8) 0.0185(8) 0.0170(8) -0.0077(6) 0.0017(6) -0.0024(6)
C13 0.0176(8) 0.0137(8) 0.0176(8) -0.0031(6) -0.0009(6) -0.0038(6)
C6 0.0181(9) 0.0223(9) 0.0185(8) -0.0060(7) -0.0035(7) -0.0019(7)
C4 0.0198(9) 0.0301(10) 0.0195(9) -0.0071(7) -0.0020(7) -0.0068(7)
C3 0.0280(10) 0.0310(10) 0.0205(9) -0.0061(8) -0.0008(7) -0.0137(8)
C5 0.0204(9) 0.0249(9) 0.0196(9) -0.0042(7) -0.0020(7) -0.0075(7)
C1 0.0515(14) 0.0456(13) 0.0282(11) -0.0132(9) -0.0008(10) -0.0258(11)
C2 0.0267(10) 0.0405(12) 0.0271(10) -0.0152(9) -0.0013(8) -0.0120(9)
loop_
_atom_type_symbol
_atom_type_description
_atom_type_scat_dispersion_real
_atom_type_scat_dispersion_imag
_atom_type_scat_source
C C 0.0033 0.0016 'International Tables Vol C Tables 4.2.6.8 and 6.1.1.4'
H H 0.0000 0.0000 'International Tables Vol C Tables 4.2.6.8 and 6.1.1.4'
N N 0.0061 0.0033 'International Tables Vol C Tables 4.2.6.8 and 6.1.1.4'
O O 0.0106 0.0060 'International Tables Vol C Tables 4.2.6.8 and 6.1.1.4'
S S 0.1246 0.1234 'International Tables Vol C Tables 4.2.6.8 and 6.1.1.4'
loop_
_geom_angle_atom_site_label_1
_geom_angle_atom_site_label_2
_geom_angle_atom_site_label_3
_geom_angle
_geom_angle_site_symmetry_1
_geom_angle_site_symmetry_3
_geom_angle_publ_flag
C10 S1 C7 92.35(8) . . ?
C11 O1 C14 106.76(12) . . ?
C16 N1 C15 119.43(13) . . ?
N1 C15 C14 113.32(13) . . ?
N1 C15 C16 121.06(14) . 2_456 ?
C16 C15 C14 125.62(14) 2_456 . ?
C11 C10 S1 120.80(12) . . ?
C9 C10 S1 110.73(12) . . ?
C9 C10 C11 128.44(15) . . ?
O1 C14 C15 119.25(13) . . ?
C13 C14 O1 109.71(14) . . ?
C13 C14 C15 131.04(14) . . ?
C11 C12 H12 126.7 . . ?
C11 C12 C13 106.62(14) . . ?
C13 C12 H12 126.7 . . ?
O1 C11 C10 115.73(13) . . ?
C12 C11 O1 109.99(13) . . ?
C12 C11 C10 134.28(15) . . ?
H17A C17 H17B 109.5 . . ?
H17A C17 H17C 109.5 . . ?
H17B C17 H17C 109.5 . . ?
C16 C17 H17A 109.5 . . ?
C16 C17 H17B 109.5 . . ?
C16 C17 H17C 109.5 . . ?
C10 C9 H9 123.7 . . ?
C10 C9 C8 112.58(15) . . ?
C8 C9 H9 123.7 . . ?
N1 C16 C15 119.51(14) . 2_456 ?
N1 C16 C17 116.19(14) . . ?
C15 C16 C17 124.30(14) 2_456 . ?
C9 C8 H8 122.9 . . ?
C7 C8 C9 114.16(15) . . ?
C7 C8 H8 122.9 . . ?
C8 C7 S1 110.16(12) . . ?
C8 C7 C6 129.42(15) . . ?
C6 C7 S1 120.42(12) . . ?
C14 C13 C12 106.92(14) . . ?
C14 C13 H13 126.5 . . ?
C12 C13 H13 126.5 . . ?
C7 C6 H6A 109.1 . . ?
C7 C6 H6B 109.1 . . ?
C7 C6 C5 112.54(14) . . ?
H6A C6 H6B 107.8 . . ?
C5 C6 H6A 109.1 . . ?
C5 C6 H6B 109.1 . . ?
H4A C4 H4B 107.8 . . ?
C3 C4 H4A 109.0 . . ?
C3 C4 H4B 109.0 . . ?
C5 C4 H4A 109.0 . . ?
C5 C4 H4B 109.0 . . ?
C5 C4 C3 112.73(15) . . ?
C4 C3 H3A 108.9 . . ?
C4 C3 H3B 108.9 . . ?
H3A C3 H3B 107.8 . . ?
C2 C3 C4 113.19(16) . . ?
C2 C3 H3A 108.9 . . ?
C2 C3 H3B 108.9 . . ?
C6 C5 H5A 108.9 . . ?
C6 C5 H5B 108.9 . . ?
C4 C5 C6 113.33(15) . . ?
C4 C5 H5A 108.9 . . ?
C4 C5 H5B 108.9 . . ?
H5A C5 H5B 107.7 . . ?
H1A C1 H1B 109.5 . . ?
H1A C1 H1C 109.5 . . ?
H1B C1 H1C 109.5 . . ?
C2 C1 H1A 109.5 . . ?
C2 C1 H1B 109.5 . . ?
C2 C1 H1C 109.5 . . ?
C3 C2 C1 113.40(18) . . ?
C3 C2 H2A 108.9 . . ?
C3 C2 H2B 108.9 . . ?
C1 C2 H2A 108.9 . . ?
C1 C2 H2B 108.9 . . ?
H2A C2 H2B 107.7 . . ?
loop_
_geom_bond_atom_site_label_1
_geom_bond_atom_site_label_2
_geom_bond_distance
_geom_bond_site_symmetry_2
_geom_bond_publ_flag
S1 C10 1.7325(16) . ?
S1 C7 1.7353(16) . ?
O1 C14 1.3741(18) . ?
O1 C11 1.3702(19) . ?
N1 C15 1.3478(19) . ?
N1 C16 1.332(2) . ?
C15 C14 1.456(2) . ?
C15 C16 1.415(2) 2_456 ?
C10 C11 1.441(2) . ?
C10 C9 1.369(2) . ?
C14 C13 1.360(2) . ?
C12 H12 0.9500 . ?
C12 C11 1.361(2) . ?
C12 C13 1.417(2) . ?
C17 H17A 0.9800 . ?
C17 H17B 0.9800 . ?
C17 H17C 0.9800 . ?
C17 C16 1.503(2) . ?
C9 H9 0.9500 . ?
C9 C8 1.420(2) . ?
C8 H8 0.9500 . ?
C8 C7 1.359(2) . ?
C7 C6 1.503(2) . ?
C13 H13 0.9500 . ?
C6 H6A 0.9900 . ?
C6 H6B 0.9900 . ?
C6 C5 1.525(2) . ?
C4 H4A 0.9900 . ?
C4 H4B 0.9900 . ?
C4 C3 1.526(2) . ?
C4 C5 1.521(2) . ?
C3 H3A 0.9900 . ?
C3 H3B 0.9900 . ?
C3 C2 1.521(2) . ?
C5 H5A 0.9900 . ?
C5 H5B 0.9900 . ?
C1 H1A 0.9800 . ?
C1 H1B 0.9800 . ?
C1 H1C 0.9800 . ?
C1 C2 1.523(3) . ?
C2 H2A 0.9900 . ?
C2 H2B 0.9900 . ?
