#------------------------------------------------------------------------------
#$Date: 2022-09-03 01:42:56 +0300 (Sat, 03 Sep 2022) $
#$Revision: 277606 $
#$URL: file:///home/coder/svn-repositories/cod/cif/7/24/54/7245426.cif $
#------------------------------------------------------------------------------
#
# This file is available in the Crystallography Open Database (COD),
# http://www.crystallography.net/
#
# All data on this site have been placed in the public domain by the
# contributors.
#
data_7245426
loop_
_publ_author_name
'Bazargan, Maryam'
'Mirzaei, Masoud'
'Hamid, Abdul Samad'
'Kafshdar, Zahra Heydaralizadeh'
'Ziaekhodadadian, Hoda'
'Mague, Joel T.'
'Momenzadeh, Elham'
'Gil, Diego Mauricio'
'Gomila, Rosa Maria'
'Frontera, Antonio'
_publ_section_title
;
 On the importance of \p-stacking interactions in Zn and Cu complexes
 bearing pyridine-2,6-dicarboxylic acid N-oxide and N-donor auxiliary
 ligands
;
_journal_name_full               CrystEngComm
_journal_paper_doi               10.1039/D2CE00656A
_journal_year                    2022
_chemical_formula_moiety         'C9 H7 Cu N2 O6, H2 O'
_chemical_formula_sum            'C9 H9 Cu N2 O7'
_chemical_formula_weight         320.72
_space_group_crystal_system      triclinic
_space_group_IT_number           2
_space_group_name_Hall           '-P 1'
_space_group_name_H-M_alt        'P -1'
_atom_sites_solution_hydrogens   mixed
_atom_sites_solution_primary     direct
_atom_sites_solution_secondary   difmap
_audit_creation_method           SHELXL-2018/1
_audit_update_record
;
2019-06-18 deposited with the CCDC.	2022-09-02 downloaded from the CCDC.
;
_cell_angle_alpha                83.570(1)
_cell_angle_beta                 74.962(1)
_cell_angle_gamma                64.832(1)
_cell_formula_units_Z            2
_cell_length_a                   8.1997(8)
_cell_length_b                   8.2594(8)
_cell_length_c                   9.3849(9)
_cell_measurement_reflns_used    6981
_cell_measurement_temperature    150(2)
_cell_measurement_theta_max      29.3280
_cell_measurement_theta_min      2.2470
_cell_volume                     555.55(9)
_computing_cell_refinement       '<i>SAINT</i> (Bruker, 2016)'
_computing_data_collection       '<i>APEX3</i> (Bruker, 2016)'
_computing_data_reduction        '<i>SAINT</i> (Bruker, 2016)'
_computing_molecular_graphics    '<i>DIAMOND</i> (Brandenburg & Putz, 2012)'
_computing_publication_material  '<i>SHELXTL</i> (Bruker, 2016)'
_computing_structure_refinement
'<i>SHELXL-2018/1</i> (Sheldrick, 2015<i>b</i>)'
_computing_structure_solution    '<i>SHELXT</i> (Sheldrick, 2015<i>a</i>)'
_diffrn_ambient_temperature      150(2)
_diffrn_detector_area_resol_mean 8.3333
_diffrn_measured_fraction_theta_full 0.993
_diffrn_measured_fraction_theta_max 0.974
_diffrn_measurement_device_type  'Bruker Smart APEX CCD'
_diffrn_measurement_method       '\f and \w scans'
_diffrn_radiation_monochromator  graphite
_diffrn_radiation_type           MoK\a
_diffrn_radiation_wavelength     0.71073
_diffrn_reflns_av_R_equivalents  0.0265
_diffrn_reflns_av_unetI/netI     0.0256
_diffrn_reflns_Laue_measured_fraction_full 0.993
_diffrn_reflns_Laue_measured_fraction_max 0.974
_diffrn_reflns_limit_h_max       11
_diffrn_reflns_limit_h_min       -11
_diffrn_reflns_limit_k_max       11
_diffrn_reflns_limit_k_min       -11
_diffrn_reflns_limit_l_max       12
_diffrn_reflns_limit_l_min       -12
_diffrn_reflns_number            10786
_diffrn_reflns_point_group_measured_fraction_full 0.993
_diffrn_reflns_point_group_measured_fraction_max 0.974
_diffrn_reflns_theta_full        28.500
_diffrn_reflns_theta_max         29.351
_diffrn_reflns_theta_min         2.247
_diffrn_source                   'fine-focus sealed tube'
_exptl_absorpt_coefficient_mu    2.000
_exptl_absorpt_correction_T_max  0.74
_exptl_absorpt_correction_T_min  0.62
_exptl_absorpt_correction_type   multi-scan
_exptl_absorpt_process_details   '<i>SADABS</i> (Krause <i>et al.</i>, 2015)'
_exptl_crystal_colour            blue
_exptl_crystal_density_diffrn    1.917
_exptl_crystal_density_method    'not measured'
_exptl_crystal_description       prism
_exptl_crystal_F_000             324
_exptl_crystal_size_max          0.340
_exptl_crystal_size_mid          0.261
_exptl_crystal_size_min          0.157
_exptl_transmission_factor_max   0.862
_exptl_transmission_factor_min   0.721
_refine_diff_density_max         0.501
_refine_diff_density_min         -0.355
_refine_diff_density_rms         0.082
_refine_ls_extinction_method     none
_refine_ls_goodness_of_fit_ref   1.161
_refine_ls_hydrogen_treatment    constr
_refine_ls_matrix_type           full
_refine_ls_number_parameters     172
_refine_ls_number_reflns         2976
_refine_ls_number_restraints     0
_refine_ls_restrained_S_all      1.161
_refine_ls_R_factor_all          0.0277
_refine_ls_R_factor_gt           0.0250
_refine_ls_shift/su_max          0.001
_refine_ls_shift/su_mean         0.000
_refine_ls_structure_factor_coef Fsqd
_refine_ls_weighting_details
'w=1/[\s^2^(Fo^2^)+(0.0459P)^2^] where P=(Fo^2^+2Fc^2^)/3'
_refine_ls_weighting_scheme      calc
_refine_ls_wR_factor_gt          0.0740
_refine_ls_wR_factor_ref         0.0746
_reflns_Friedel_coverage         0.000
_reflns_number_gt                2685
_reflns_number_total             2976
_reflns_threshold_expression     'I > 2\s(I)'
_cod_data_source_file            d2ce00656a2.cif
_cod_data_source_block           JTM1148_0m_a
_cod_database_code               7245426
_shelx_shelxl_version_number     2018/1
_shelx_space_group_comment
;
The symmetry employed for this shelxl refinement is uniquely defined
by the following loop, which should always be used as a source of
symmetry information in preference to the above space-group names.
They are only intended as comments.
;
_shelx_estimated_absorpt_t_min   0.550
_shelx_estimated_absorpt_t_max   0.744
_shelx_res_file
;
TITL JTM1148_0m_a.res in P-1
    JTM1148_0m_a.res
    created by SHELXL-2018/1 at 16:14:42 on 30-Apr-2019
REM Old TITL JTM1148_0m in P-1
REM SHELXT solution in P-1
REM R1 0.069,  Rweak 0.007,  Alpha 0.054,  Orientation as input
REM Formula found by SHELXT:  C10 Cu N O7
CELL  0.71073   8.1997   8.2594   9.3849   83.570   74.962   64.832
ZERR    2.000   0.0008   0.0008   0.0009    0.001    0.001    0.001
LATT  1
SFAC C H CU N O
UNIT 18 18 2 4 14
TEMP -123
SIZE 0.157 0.261 0.34
L.S. 5
BOND $H
LIST 4
FMAP 2
PLAN 5
CONF
EQIV $3 -x, -y+1, -z
HTAB C3 O2_$3
EQIV $4 -x, -y+2, -z+1
HTAB C5 O4_$4
EQIV $1 -x+1, -y+1, -z+1
HTAB C8 O5_$1
EQIV $5 -x+1, -y, -z+1
HTAB O6 O7_$5
HTAB O6 O4_$1
EQIV $6 x, y, z+1
HTAB O7 O2_$6
HTAB O7 O4_$1
ACTA 57
MPLA C1 > C6 N1 O3
MPLA Cu1 O1 O3
MPLA 3 O1 O3 N2 Cu1
WGHT    0.045900
FVAR       0.69471
CU1   3    0.625393    0.324901    0.216262    11.00000    0.00888    0.01327 =
         0.01031   -0.00466   -0.00275   -0.00224
O1    5    0.491708    0.335058    0.072901    11.00000    0.01140    0.01903 =
         0.01330   -0.00685   -0.00414   -0.00229
O2    5    0.250929    0.439671   -0.027968    11.00000    0.01471    0.03796 =
         0.01537   -0.01247   -0.00511   -0.00484
O3    5    0.429733    0.543990    0.306349    11.00000    0.00644    0.01557 =
         0.01752   -0.00765   -0.00212   -0.00316
O4    5    0.264050    0.864033    0.485395    11.00000    0.02363    0.01627 =
         0.01749   -0.00166   -0.00708   -0.01099
O5    5    0.227144    0.660424    0.656087    11.00000    0.01147    0.01754 =
         0.01060   -0.00258   -0.00344   -0.00550
N1    4    0.251652    0.582298    0.316853    11.00000    0.00847    0.01030 =
         0.01105   -0.00141   -0.00266   -0.00273
N2    4    0.848989    0.129219    0.090083    11.00000    0.00980    0.01362 =
         0.01219   -0.00409   -0.00196   -0.00249
C1    1    0.321593    0.429197    0.075777    11.00000    0.01354    0.01653 =
         0.01221   -0.00338   -0.00269   -0.00718
C2    1    0.190183    0.535102    0.212846    11.00000    0.01156    0.01357 =
         0.01059   -0.00114   -0.00340   -0.00540
C3    1    0.001198    0.584789    0.234457    11.00000    0.01285    0.01646 =
         0.01493   -0.00077   -0.00671   -0.00612
AFIX  43
H3    2   -0.043698    0.553854    0.162633    11.00000   -1.20000
AFIX   0
C4    1   -0.122986    0.678636    0.358850    11.00000    0.00946    0.01701 =
         0.01714   -0.00098   -0.00457   -0.00419
AFIX  43
H4    2   -0.251702    0.708743    0.374164    11.00000   -1.20000
AFIX   0
C5    1   -0.056957    0.727958    0.460556    11.00000    0.01179    0.01315 =
         0.01288   -0.00163   -0.00149   -0.00343
AFIX  43
H5    2   -0.140183    0.794021    0.545901    11.00000   -1.20000
AFIX   0
C6    1    0.131682    0.680123    0.436811    11.00000    0.01173    0.00968 =
         0.00999   -0.00170   -0.00270   -0.00329
C7    1    0.218316    0.740395    0.533549    11.00000    0.00812    0.01170 =
         0.01217   -0.00619   -0.00168   -0.00079
C8    1    1.022817    0.110627    0.078387    11.00000    0.01343    0.01804 =
         0.01947   -0.00822   -0.00306   -0.00556
AFIX  43
H8    2    1.043002    0.187498    0.133257    11.00000   -1.20000
AFIX   0
C9    1    0.827421    0.017772    0.011642    11.00000    0.01130    0.01901 =
         0.02019   -0.00560   -0.00260   -0.00570
AFIX  43
H9    2    0.706243    0.027045    0.017927    11.00000   -1.20000
AFIX   0
O6    5    0.500253    0.141561    0.353458    11.00000    0.01961    0.02100 =
         0.01936   -0.00256   -0.00431   -0.01157
AFIX   3
H6A   2    0.522034    0.050367    0.301805    11.00000   -1.50000
H6B   2    0.573418    0.096695    0.413660    11.00000   -1.50000
AFIX   0
O7    5    0.511656    0.117779    0.796470    11.00000    0.03562    0.02575 =
         0.01784   -0.00627    0.00099   -0.01919
AFIX   3
H7A   2    0.437401    0.213759    0.848151    11.00000   -1.50000
H7B   2    0.581631    0.153848    0.726316    11.00000   -1.50000

AFIX   0
HKLF 4




REM  JTM1148_0m_a.res in P-1
REM R1 =  0.0250 for    2685 Fo > 4sig(Fo)  and  0.0277 for all    2976 data
REM    172 parameters refined using      0 restraints

END

WGHT      0.0458      0.0000

REM Highest difference peak  0.501,  deepest hole -0.355,  1-sigma level  0.082
Q1    1   0.0901  0.5788  0.2260  11.00000  0.05    0.50
Q2    1   0.2418  0.3597  0.0185  11.00000  0.05    0.45
Q3    1   0.1746  0.7115  0.4854  11.00000  0.05    0.43
Q4    1   0.3120  0.8679  0.5020  11.00000  0.05    0.41
Q5    1   0.1837  0.6650  0.6838  11.00000  0.05    0.41
;
_shelx_res_checksum              23112
_shelx_hkl_file
;
  -1   0   0  802.62   24.20
  -1   0   0  810.82   24.20
  -1   0   0  837.12   24.30
   1   0   0  813.02   24.30
   1   0   0  814.72   24.40
   1   0   0  824.12   24.30
  -2   0   0    7.50    0.70
  -2   0   0    6.70    0.80
  -2   0   0   11.70    1.10
   2   0   0    7.70    0.80
   2   0   0    8.70    1.00
   2   0   0    9.60    1.00
  -3   0   0  127.19    4.20
  -3   0   0  128.29    4.30
  -3   0   0  122.69    4.70
   3   0   0  116.69    4.50
   3   0   0  130.09    4.40
  -4   0   0   34.60    2.10
  -4   0   0   38.80    1.90
  -4   0   0   33.40    2.40
   4   0   0   32.50    2.10
   4   0   0   33.70    2.30
   4   0   0   40.10    2.30
  -5   0   0  193.38    7.60
  -5   0   0  190.78    6.80
  -5   0   0  198.08    7.00
   5   0   0  196.28    7.20
   5   0   0  206.18    7.00
  -6   0   0   14.20    3.30
  -6   0   0   13.80    2.60
  -6   0   0   17.70    2.00
   6   0   0   17.00    2.30
  -7   0   0  152.98    6.30
  -7   0   0  156.68    7.40
   7   0   0  151.98    6.40
  -8   0   0  517.85   18.80
  -8   0   0  546.95   17.50
   8   0   0  515.95   17.10
  -9   0   0   68.49    5.40
  -9   0   0   58.69    6.70
   9   0   0   65.89    4.10
  -9   1   0  127.79    7.20
  -9   1   0  130.29    9.10
   8  -1   0   26.50    2.40
  -8   1   0   30.60    3.50
  -8   1   0   28.30    4.90
   7  -1   0  345.07   11.40
  -7   1   0  336.37   13.20
  -7   1   0  353.76   11.90
   6  -1   0   66.09    3.60
  -6   1   0   62.79    4.20
  -6   1   0   72.09    4.80
  -6   1   0   74.99    3.60
   5  -1   0    1.10    2.00
   5  -1   0    0.70    1.30
  -5   1   0    0.20    1.60
  -5   1   0    0.90    1.70
  -5   1   0    3.10    1.20
   4  -1   0  457.55   14.10
   4  -1   0  437.66   15.10
   4  -1   0  477.55   14.00
   4  -1   0  443.26   14.40
  -4   1   0  463.65   15.00
  -4   1   0  447.76   14.10
  -4   1   0  450.25   14.50
   3  -1   0  400.06   11.80
   3  -1   0  359.26   12.50
   3  -1   0  388.86   11.70
   3  -1   0  393.36   12.00
  -3   1   0  380.56   12.40
  -3   1   0  364.46   12.10
  -3   1   0  381.16   11.80
   2  -1   0 1897.31   56.69
   2  -1   0 1881.11   56.29
   2  -1   0 1971.00   55.99
   2  -1   0 1966.90   56.09
  -2   1   0 1842.72   56.09
  -2   1   0 1806.22   56.29
   1  -1   0 1580.44   46.60
   1  -1   0 1625.04   46.70
   1  -1   0 1529.15   47.00
  -1   1   0 1561.84   46.60
  -1   1   0 1588.84   46.80
   0  -1   0 1752.32   51.99
   0  -1   0 1761.82   52.09
   0  -1   0 1801.92   51.99
   0   1   0 1734.23   51.99
   0   1   0 1761.22   51.99
   0   1   0 1733.53   52.09
  -1  -1   0 3026.10   92.39
  -1  -1   0 3000.20   92.29
  -1  -1   0 3405.76   92.79
  -1  -1   0 2961.10   92.29
   1   1   0 3033.20   92.59
   1   1   0 3309.97   92.69
   1   1   0 3182.78   92.89
  -2  -1   0  103.49    3.70
  -2  -1   0  107.39    3.60
  -2  -1   0  109.19    3.80
  -2  -1   0  112.99    3.50
   2   1   0  106.59    3.90
  -3  -1   0  352.66   11.00
  -3  -1   0  331.67   10.70
  -3  -1   0  350.46   11.10
  -3  -1   0  366.46   10.70
   3   1   0  334.87   11.20
  -4  -1   0   93.59    4.10
  -4  -1   0   96.59    3.60
  -4  -1   0   98.79    3.60
  -4  -1   0   97.89    4.10
   4   1   0   88.29    4.00
   4   1   0   96.59    4.20
  -5  -1   0  913.81   27.30
  -5  -1   0  929.91   27.20
  -5  -1   0  854.11   27.90
   5   1   0  926.61   27.70
   5   1   0  842.42   27.70
  -6  -1   0  909.91   27.50
  -6  -1   0  898.71   28.30
   6   1   0  881.11   28.00
   6   1   0  885.31   27.80
  -7  -1   0  116.19    5.20
  -7  -1   0  113.59    6.10
   7   1   0  118.69    5.80
  -8  -1   0   69.99    5.50
  -8  -1   0   69.59    4.50
   8   1   0   65.99    4.70
  -9  -1   0   19.10    4.50
  -9  -1   0   18.50    3.20
   9   1   0   22.80    3.40
 -10  -1   0   50.99    7.00
 -10  -1   0   63.19    6.70
  10   1   0   65.89    5.00
  -8   2   0  137.09    6.80
  -8   2   0  145.49    8.80
  -7   2   0    7.70    2.20
  -7   2   0    6.60    3.40
   6  -2   0  496.55   15.20
   6  -2   0  490.15   17.70
  -6   2   0  491.65   15.90
  -6   2   0  512.95   17.50
  -6   2   0  484.65   16.60
   5  -2   0   96.49    5.40
   5  -2   0   86.99    3.50
  -5   2   0   80.09    4.50
  -5   2   0   84.99    3.80
  -5   2   0   89.49    5.00
   4  -2   0  120.89    4.40
   4  -2   0  113.39    5.60
   4  -2   0  123.19    4.20
  -4   2   0  115.89    4.30
  -4   2   0  111.59    5.30
  -4   2   0  106.39    4.90
   3  -2   0   92.19    4.40
   3  -2   0   93.39    3.00
   3  -2   0   92.09    3.40
   3  -2   0   92.39    3.30
  -3   2   0   86.39    3.30
  -3   2   0   83.79    3.90
  -3   2   0   82.79    3.00
   2  -2   0  946.31   28.00
   2  -2   0  966.30   28.20
   2  -2   0  943.01   28.90
  -2   2   0  948.81   27.90
  -2   2   0  945.91   28.00
  -2   2   0  900.11   28.50
  -2   2   0  915.61   28.10
   1  -2   0  330.57   11.00
   1  -2   0  353.76   10.40
   1  -2   0  346.27   10.40
  -1   2   0  345.17   10.60
  -1   2   0  332.97   10.40
  -1   2   0  338.17   10.90
  -1   2   0  341.77   10.80
   0  -2   0  223.88    7.60
   0  -2   0  243.58    7.30
   0  -2   0  252.57    7.80
   0   2   0  248.98    7.60
   0   2   0  219.98    7.30
   0   2   0  239.08    7.70
  -1  -2   0   20.50    1.50
  -1  -2   0   21.90    1.30
  -1  -2   0   24.20    1.30
   1   2   0   19.20    1.60
  -2  -2   0  287.07    8.70
  -2  -2   0  284.47    8.90
  -2  -2   0  275.77    9.00
  -2  -2   0  282.37    8.80
   2   2   0  271.67    9.30
   2   2   0  268.47    8.80
  -3  -2   0  615.84   18.60
  -3  -2   0  560.74   18.40
  -3  -2   0  608.34   18.00
  -3  -2   0  613.94   18.20
   3   2   0  562.84   18.80
   3   2   0  600.74   18.60
   3   2   0  604.44   18.30
  -4  -2   0  670.83   20.10
  -4  -2   0  667.03   20.70
  -4  -2   0  655.63   20.30
  -4  -2   0  670.83   20.90
   4   2   0  650.73   20.90
   4   2   0  678.43   20.60
   4   2   0  653.53   21.10
  -5  -2   0   69.59    3.90
  -5  -2   0   70.69    3.10
  -5  -2   0   77.89    3.90
  -5  -2   0   66.09    3.20
   5   2   0   72.19    4.10
   5   2   0   65.99    3.80
  -6  -2   0  769.02   25.00
  -6  -2   0  800.22   24.30
   6   2   0  768.42   24.90
   6   2   0  789.52   25.00
  -7  -2   0  755.92   23.90
  -7  -2   0  779.82   25.00
   7   2   0  771.32   24.70
   7   2   0  743.13   24.50
  -8  -2   0  164.98    8.00
  -8  -2   0  160.28    7.00
   8   2   0  151.58    7.30
  -9  -2   0   -1.60    3.50
  -9  -2   0    0.20    2.60
   9   2   0   -2.70    2.80
 -10  -2   0   17.40    5.90
 -10  -2   0   11.60    3.70
  10   2   0   19.20    3.80
  -8   3   0  113.69    6.70
  -8   3   0  114.89    9.50
   7  -3   0  192.58   10.00
  -7   3   0  181.48    9.80
  -7   3   0  176.98    7.50
   6  -3   0   30.90    4.40
  -6   3   0   23.00    4.00
  -6   3   0   29.20    3.00
  -6   3   0   27.30    3.90
   5  -3   0   40.00    4.50
  -5   3   0   38.10    2.80
  -5   3   0   43.50    4.00
  -5   3   0   38.90    4.10
   4  -3   0  406.36   14.60
  -4   3   0  420.76   13.00
  -4   3   0  393.56   13.70
  -4   3   0  408.96   14.10
   3  -3   0   89.09    3.10
   3  -3   0   74.49    4.40
   3  -3   0   85.29    3.20
  -3   3   0   78.59    4.10
  -3   3   0   82.39    3.30
   2  -3   0  121.49    5.40
   2  -3   0  135.49    4.30
   2  -3   0  128.89    4.30
  -2   3   0  123.19    4.50
  -2   3   0  116.79    4.90
  -2   3   0  118.09    4.30
  -2   3   0  126.39    4.40
   1  -3   0  168.88    5.50
   1  -3   0  173.98    6.50
   1  -3   0  183.38    5.60
  -1   3   0  168.48    5.50
  -1   3   0  165.88    6.00
  -1   3   0  163.38    6.10
   0  -3   0  608.04   18.10
   0  -3   0  583.64   18.60
   0  -3   0  630.04   18.20
   0  -3   0  588.44   18.80
   0   3   0  585.24   18.70
   0   3   0  596.34   18.10
   0   3   0  590.84   18.50
  -1  -3   0    4.80    1.00
  -1  -3   0    3.20    1.00
  -1  -3   0    3.80    0.70
   1   3   0    5.80    1.40
   1   3   0    5.80    0.80
   1   3   0    4.10    0.90
  -2  -3   0    5.00    1.10
  -2  -3   0    4.40    0.90
  -2  -3   0    5.90    1.30
  -2  -3   0    5.70    0.90
   2   3   0    3.60    1.40
   2   3   0    4.40    1.20
   2   3   0    5.10    0.90
  -3  -3   0  490.95   14.60
  -3  -3   0  476.15   14.60
  -3  -3   0  434.46   15.00
  -3  -3   0  444.36   14.80
   3   3   0  487.65   14.70
   3   3   0  486.75   15.10
   3   3   0  464.05   15.50
  -4  -3   0 2257.97   65.39
  -4  -3   0 2202.18   65.89
  -4  -3   0 2125.49   65.49
   4   3   0 2218.08   66.59
   4   3   0 2227.08   65.69
   4   3   0 2144.39   65.99
  -5  -3   0  603.04   18.60
  -5  -3   0  591.14   19.50
  -5  -3   0  621.44   19.40
  -5  -3   0  601.04   18.90
   5   3   0  615.84   19.10
   5   3   0  582.94   19.50
   5   3   0  615.24   20.00
  -6  -3   0   51.29    3.90
  -6  -3   0   46.90    3.20
   6   3   0   48.30    3.90
   6   3   0   59.49    4.50
  -7  -3   0  228.38    8.60
  -7  -3   0  237.28    9.60
   7   3   0  250.97    9.60
   7   3   0  228.78    9.60
  -8  -3   0  463.45   15.60
  -8  -3   0  475.95   17.00
   8   3   0  455.95   16.70
   8   3   0  463.15   16.40
  -9  -3   0   53.79    6.50
  -9  -3   0   60.99    5.20
   9   3   0   59.49    5.60
 -10  -3   0    6.50    3.70
 -10  -3   0    6.90    5.40
  10   3   0    8.80    3.90
   7  -4   0   65.19    7.90
  -7   4   0   66.79    5.30
  -7   4   0   77.99    7.50
   6  -4   0  338.97   14.10
  -6   4   0  334.77   13.10
  -6   4   0  343.07   13.60
  -6   4   0  329.97   11.70
   5  -4   0  313.97   12.80
  -5   4   0  316.17   12.30
  -5   4   0  327.97   10.80
  -5   4   0  298.67   11.90
   4  -4   0   25.10    3.70
  -4   4   0   33.00    3.60
  -4   4   0   31.40    2.50
   3  -4   0   71.19    4.90
  -3   4   0   63.19    3.00
  -3   4   0   70.49    4.30
   2  -4   0  227.48    7.00
   2  -4   0  229.78    7.00
   2  -4   0  194.48    8.40
  -2   4   0  209.18    8.00
  -2   4   0  214.98    7.20
   1  -4   0   42.40    3.30
   1  -4   0   52.89    2.20
   1  -4   0   55.29    2.40
  -1   4   0   45.60    2.90
  -1   4   0   46.10    3.00
  -1   4   0   51.99    2.30
   0  -4   0  943.41   28.70
   0  -4   0 1003.50   28.90
   0  -4   0  958.20   29.70
   0   4   0  957.80   29.30
   0   4   0  956.30   28.70
   0   4   0  901.01   29.40
  -1  -4   0 1602.04   48.70
  -1  -4   0 1565.64   48.30
  -1  -4   0 1663.93   49.10
   1   4   0 1630.74   48.20
   1   4   0 1613.94   49.10
   1   4   0 1615.34   48.60
  -2  -4   0 1298.57   40.30
  -2  -4   0 1347.47   39.80
  -2  -4   0 1279.67   39.90
   2   4   0 1291.97   39.80
   2   4   0 1330.57   39.70
   2   4   0 1366.06   40.10
  -3  -4   0   66.49    3.30
  -3  -4   0   71.39    3.40
  -3  -4   0   67.39    3.20
  -3  -4   0   69.29    3.70
   3   4   0   74.39    3.30
   3   4   0   71.99    3.70
   3   4   0   59.69    4.00
  -4  -4   0   53.09    3.60
  -4  -4   0   59.99    3.10
  -4  -4   0   49.90    3.30
  -4  -4   0   57.69    3.00
   4   4   0   59.69    3.20
   4   4   0   60.29    4.30
   4   4   0   54.99    3.60
  -5  -4   0  161.28    7.00
  -5  -4   0  165.18    6.00
  -5  -4   0  162.18    6.70
  -5  -4   0  167.88    6.20
   5   4   0  153.58    7.30
   5   4   0  151.28    6.70
   5   4   0  166.18    6.40
  -6  -4   0  163.88    7.10
  -6  -4   0  165.08    7.30
  -6  -4   0  181.38    6.60
   6   4   0  152.38    7.20
   6   4   0  164.18    8.00
  -7  -4   0   78.19    4.70
  -7  -4   0   84.69    5.60
   7   4   0   81.19    5.40
   7   4   0   78.49    5.70
  -8  -4   0  541.85   17.70
  -8  -4   0  518.15   18.70
   8   4   0  515.75   19.00
   8   4   0  545.75   18.60
  -9  -4   0  198.28   10.00
   9   4   0  218.08    9.80
 -10  -4   0   79.89    7.80
  10   4   0   87.29    7.40
   6  -5   0   35.50    6.00
  -6   5   0   33.50    5.40
  -6   5   0   29.90    5.40
  -6   5   0   31.40    3.40
   5  -5   0  122.29    7.90
  -5   5   0  119.39    5.60
  -5   5   0  114.59    7.30
  -5   5   0  126.29    7.40
   4  -5   0  372.66   14.40
  -4   5   0  363.36   12.10
  -4   5   0  364.86   13.40
   3  -5   0   10.50    3.10
  -3   5   0   11.10    1.60
  -3   5   0    7.80    2.50
   2  -5   0  359.66   13.00
  -2   5   0  352.76   11.40
  -2   5   0  344.27   12.40
   1  -5   0  807.02   23.30
   1  -5   0  739.53   24.80
   1  -5   0  778.12   23.20
  -1   5   0  740.53   24.30
  -1   5   0  760.22   23.40
   0  -5   0  933.21   27.40
   0  -5   0  894.41   28.40
   0  -5   0  879.11   27.10
   0   5   0  887.81   27.30
   0   5   0  891.71   28.00
   0   5   0  893.01   28.10
  -1  -5   0   35.00    3.30
  -1  -5   0   31.50    2.90
  -1  -5   0   29.90    2.70
  -1  -5   0   29.30    2.00
   1   5   0   31.00    2.50
   1   5   0   31.00    2.10
   1   5   0   28.90    3.10
  -2  -5   0   23.40    2.70
  -2  -5   0   25.60    2.40
  -2  -5   0   21.50    2.00
   2   5   0   19.10    2.30
   2   5   0   21.80    2.00
   2   5   0   24.60    2.20
   2   5   0   23.30    3.00
  -3  -5   0    8.50    1.90
  -3  -5   0    1.80    1.30
  -3  -5   0    3.70    1.80
  -3  -5   0    5.70    1.80
   3   5   0    4.00    2.00
   3   5   0    5.10    1.50
   3   5   0    3.90    1.40
   3   5   0    4.10    2.00
  -4  -5   0   17.10    2.70
  -4  -5   0   12.90    2.10
  -4  -5   0   17.60    2.20
  -4  -5   0   17.80    2.00
   4   5   0   21.30    2.20
   4   5   0   21.00    2.70
   4   5   0   12.00    2.70
  -5  -5   0   21.10    2.40
  -5  -5   0   24.00    2.30
  -5  -5   0   12.60    2.20
  -5  -5   0   21.30    3.10
   5   5   0   18.30    2.80
   5   5   0   19.20    3.30
   5   5   0   18.70    2.40
  -6  -5   0  209.58    8.50
  -6  -5   0  212.58    8.80
   6   5   0  197.88    8.60
   6   5   0  197.18    9.30
  -7  -5   0  575.24   19.80
   7   5   0  590.04   19.40
   7   5   0  521.05   20.00
  -8  -5   0  190.58    9.50
   8   5   0  207.58   10.50
   8   5   0  221.18    9.80
  -9  -5   0    8.50    4.00
   9   5   0   12.80    4.80
   9   5   0   19.20    4.30
 -10  -5   0   67.69    8.40
  10   5   0   73.19    7.70
  -6   6   0   10.30    6.20
   5  -6   0    2.00    4.60
  -5   6   0    1.20    4.00
  -5   6   0    0.90    2.30
  -5   6   0    0.70    4.00
   4  -6   0  538.25   20.40
  -4   6   0  595.64   19.90
  -4   6   0  560.34   18.10
   3  -6   0    6.00    3.40
  -3   6   0   10.20    1.90
  -3   6   0   13.10    3.30
   2  -6   0   20.50    3.90
  -2   6   0   22.90    3.30
  -2   6   0   22.40    2.10
   1  -6   0   55.79    4.70
   1  -6   0   55.19    2.40
  -1   6   0   49.70    3.00
  -1   6   0   55.89    4.10
   0  -6   0  437.26   13.60
   0  -6   0  436.26   15.30
   0   6   0  431.36   13.90
   0   6   0  432.16   15.00
   0   6   0  427.16   14.80
  -1  -6   0  761.32   23.70
  -1  -6   0  749.82   25.10
   1   6   0  777.82   24.60
   1   6   0  783.82   23.90
   1   6   0  787.52   25.20
  -2  -6   0   71.59    3.70
  -2  -6   0   73.39    4.70
  -2  -6   0   70.39    4.20
   2   6   0   71.49    3.60
   2   6   0   69.99    3.90
   2   6   0   69.09    5.00
  -3  -6   0   91.09    5.10
  -3  -6   0   83.49    4.20
  -3  -6   0   86.39    4.60
   3   6   0   89.39    5.50
   3   6   0   94.29    4.30
   3   6   0   93.59    4.50
  -4  -6   0  174.88    7.90
  -4  -6   0  175.88    7.20
  -4  -6   0  185.68    7.20
   4   6   0  178.68    8.40
   4   6   0  188.88    7.10
   4   6   0  180.78    6.90
  -5  -6   0  102.59    5.20
  -5  -6   0  107.69    5.50
  -5  -6   0  115.99    6.20
   5   6   0  106.49    6.60
   5   6   0  116.09    5.40
   5   6   0  109.69    6.10
  -6  -6   0   23.90    3.40
  -6  -6   0   23.70    3.70
   6   6   0   26.10    3.90
   6   6   0   18.00    3.80
  -7  -6   0   63.99    5.60
   7   6   0   72.29    5.90
   7   6   0   71.69    6.90
  -8  -6   0  245.18   11.00
   8   6   0  222.28   11.50
   8   6   0  256.37   10.90
   9   6   0  180.38    9.70
 -10  -6   0   30.20    6.60
  10   6   0   30.60    6.80
  10   6   0   34.70    5.70
  -5   7   0   35.20    6.90
   4  -7   0   33.70    6.80
  -4   7   0   39.90    4.30
  -4   7   0   36.10    5.50
   3  -7   0  160.18    9.30
  -3   7   0  166.38    9.10
  -3   7   0  178.18    7.00
   2  -7   0  127.29    7.70
  -2   7   0  113.19    5.30
  -2   7   0  127.19    6.90
   1  -7   0   80.29    6.50
  -1   7   0   69.09    3.80
  -1   7   0   64.99    5.10
   0  -7   0  195.48    6.80
   0  -7   0  196.78    9.30
   0   7   0  209.88    7.50
   0   7   0  202.98    8.80
  -1  -7   0  255.17    8.70
   1   7   0  251.17   10.30
   1   7   0  252.17    9.00
   1   7   0  256.37    9.90
  -2  -7   0  321.17   12.40
  -2  -7   0  341.37   11.40
  -2  -7   0  336.17   13.00
   2   7   0  334.07   11.60
   2   7   0  354.46   13.20
   2   7   0  356.56   12.40
  -3  -7   0  208.98    9.30
  -3  -7   0  226.08    8.90
  -3  -7   0  237.18    8.30
   3   7   0  213.38    9.70
   3   7   0  212.08    8.20
   3   7   0  225.08    8.60
  -4  -7   0   66.89    4.10
  -4  -7   0   64.99    4.30
  -4  -7   0   61.39    5.20
   4   7   0   56.69    4.00
   4   7   0   51.69    3.80
   4   7   0   50.59    5.70
  -5  -7   0  288.67   10.80
  -5  -7   0  278.07   10.70
  -5  -7   0  290.67   11.60
   5   7   0  300.67   10.60
   5   7   0  290.67   10.60
   5   7   0  281.47   12.30
  -6  -7   0  489.05   16.80
  -6  -7   0  485.35   17.60
   6   7   0  476.55   18.40
  -7  -7   0   -0.50    3.30
  -7  -7   0    0.80    3.30
   7   7   0    1.50    4.10
  -8  -7   0   12.70    4.30
   8   7   0   21.60    5.20
   8   7   0   18.90    5.50
  -9  -7   0   -0.70    4.90
   9   7   0    5.60    5.70
   9   7   0    2.50    4.50
 -10  -7   0  107.39   10.60
  10   7   0  117.79    9.20
  10   7   0  100.09   10.50
   3  -8   0   -1.50    5.10
  -3   8   0    1.30    2.50
  -3   8   0    2.50    4.70
   2  -8   0   33.70    5.60
  -2   8   0   36.90    3.90
  -2   8   0   39.00    5.50
   1  -8   0  180.28    9.80
  -1   8   0  150.88    6.70
  -1   8   0  174.08    8.60
   0  -8   0  125.69    7.60
   0  -8   0  114.49    4.20
   0   8   0  110.89    6.70
   0   8   0  109.69    5.40
  -1  -8   0    7.40    1.80
  -1  -8   0    2.40    3.20
   1   8   0    6.20    3.30
   1   8   0    5.50    1.90
  -2  -8   0  131.79    5.70
  -2  -8   0  140.69    7.90
   2   8   0  135.59    7.20
   2   8   0  138.39    6.10
   2   8   0  142.09    8.10
  -3  -8   0  500.05   17.00
  -3  -8   0  477.35   16.00
  -3  -8   0  474.15   17.60
   3   8   0  502.45   18.20
   3   8   0  460.65   16.60
   3   8   0  480.85   16.10
  -4  -8   0  347.97   12.70
  -4  -8   0  365.76   13.30
  -4  -8   0  346.47   14.00
   4   8   0  366.96   12.80
   4   8   0  375.06   13.10
   4   8   0  375.86   14.70
  -5  -8   0    5.00    2.60
  -5  -8   0    7.20    3.30
  -5  -8   0    3.90    3.10
   5   8   0    1.60    2.40
   5   8   0    3.40    2.80
   5   8   0    8.30    4.20
  -6  -8   0   26.00    4.30
  -6  -8   0   41.70    4.80
   6   8   0   40.30    5.70
  -7  -8   0   26.70    5.10
  -7  -8   0   21.60    3.80
   7   8   0   29.40    5.80
  -8  -8   0   39.40    5.90
  -8  -8   0   38.60    5.50
   8   8   0   47.70    6.90
  -9  -8   0    3.50    5.10
   9   8   0    1.90    5.60
 -10  -8   0    9.00    8.10
  10   8   0    9.60    7.10
   2  -9   0   32.00    6.70
  -2   9   0   34.50    6.10
  -2   9   0   32.50    3.90
   1  -9   0  101.89    8.70
  -1   9   0  111.39    6.10
  -1   9   0  109.59    8.70
   0  -9   0  431.56   17.50
   0   9   0  437.96   14.90
  -1  -9   0   48.10    6.20
  -1  -9   0   44.70    2.80
   1   9   0   37.80    4.80
   1   9   0   47.80    4.30
  -2  -9   0   46.20    3.60
  -2  -9   0   49.90    6.10
   2   9   0   51.59    4.40
   2   9   0   42.60    4.90
  -3  -9   0    8.00    3.80
  -3  -9   0   14.00    2.60
   3   9   0   18.10    3.10
   3   9   0   18.20    3.60
   3   9   0   13.20    4.90
  -4  -9   0  180.88    9.90
  -4  -9   0  176.48    7.70
   4   9   0  172.98    7.90
   4   9   0  178.58    9.90
   4   9   0  180.88    8.40
  -5  -9   0   83.49    5.60
  -5  -9   0   81.19    6.60
  -5  -9   0   79.29    6.80
   5   9   0   81.79    8.00
   5   9   0   79.99    5.70
  -6  -9   0    5.10    4.00
  -6  -9   0    6.30    3.20
   6   9   0    5.30    4.70
  -7  -9   0    1.40    3.40
  -7  -9   0    2.40    4.50
   7   9   0    2.20    4.70
  -8  -9   0  177.08   11.30
  -8  -9   0  184.08   10.20
   8   9   0  178.98   12.50
  -9  -9   0   96.99   10.50
   9   9   0   93.79   11.40
   0 -10   0   21.30    6.50
   0  10   0   20.20    5.50
   0  10   0   16.30    3.70
  -1 -10   0  198.08   11.50
   1  10   0  197.98   10.50
   1  10   0  181.38    8.80
  -2 -10   0   14.10    5.10
  -2 -10   0   26.20    2.90
   2  10   0   22.90    3.70
   2  10   0   20.40    4.60
  -3 -10   0  100.69    5.70
  -3 -10   0   99.69    8.90
   3  10   0   99.59    7.40
   3  10   0  117.69    6.60
  -4 -10   0    9.80    2.90
  -4 -10   0   11.10    5.20
   4  10   0   11.20    4.50
   4  10   0   14.20    3.50
   4  10   0   10.10    4.90
  -5 -10   0   21.40    5.50
  -5 -10   0   32.50    4.40
   5  10   0   37.40    6.30
   5  10   0   37.60    5.10
  -6 -10   0  134.59   10.10
  -6 -10   0  124.89    7.70
   6  10   0  146.49   11.10
  -7 -10   0   22.70    4.40
  -7 -10   0   26.30    6.50
   7  10   0   27.40    6.90
  -8 -10   0   16.30    5.30
  -8 -10   0   15.00    6.50
   8  10   0   15.10    6.80
  -3 -11   0   20.80    3.30
   3  11   0   21.90    6.20
   3  11   0   17.40    4.50
  -4 -11   0   24.00    6.20
  -4 -11   0   31.20    4.00
   4  11   0   32.40    6.20
   4  11   0   31.20    4.70
  -5 -11   0   -1.90    3.20
  -5 -11   0    1.80    5.60
   5  11   0    1.30    6.90
   6  11   0  118.39   11.10
   5  11  -1  138.29   12.40
   4  11  -1    1.50    3.90
   4  11  -1    2.80    4.90
  -4 -11   1    1.70    2.90
  -4 -11   1    2.60    9.00
   3  11  -1    6.70    5.80
   3  11  -1    8.80    4.00
  -8 -10   1    3.80    4.80
  -8 -10   1    2.60    8.40
   7  10  -1  124.79   10.80
  -7 -10   1  124.69    9.90
  -7 -10   1  131.29    8.30
   6  10  -1   10.90    5.90
  -6 -10   1   13.80    3.70
  -6 -10   1   14.70    6.00
   5  10  -1   32.90    4.30
   5  10  -1   40.80    7.20
   5  10  -1   35.00    5.00
  -5 -10   1   36.20    6.10
  -5 -10   1   41.80    5.90
  -5 -10   1   41.10    4.50
   4  10  -1  128.79   10.10
   4  10  -1  131.89    7.90
   4  10  -1  130.39    7.20
  -4 -10   1  109.29    8.70
  -4 -10   1  122.09    6.30
  -4 -10   1  139.49    8.50
   3  10  -1   42.30    5.60
   3  10  -1   38.10    4.20
  -3 -10   1   33.80    5.80
  -3 -10   1   42.00    3.70
   2  10  -1    0.40    4.50
   2  10  -1    0.30    2.80
  -2 -10   1    0.60    4.70
   1  10  -1   48.40    5.40
   1  10  -1   46.90    6.50
  -1 -10   1   42.60    7.40
   0  10  -1  133.39    7.10
   0 -10   1  120.19   10.20
  -9  -9   1   58.99    8.70
  -9  -9   1   56.89    7.30
   8   9  -1   25.10    6.60
  -8  -9   1   26.60    5.90
  -8  -9   1   34.10    5.60
   7   9  -1  191.08   11.60
  -7  -9   1  184.48    9.40
  -7  -9   1  175.68   10.40
   6   9  -1   54.99    7.30
  -6  -9   1   53.49    6.60
  -6  -9   1   64.39    5.50
   5   9  -1    0.70    4.60
   5   9  -1    0.10    2.80
   5   9  -1    1.10    3.40
  -5  -9   1   -0.50    3.70
  -5  -9   1    2.80    2.60
  -5  -9   1    2.10    3.40
   4   9  -1  108.19    8.00
   4   9  -1  103.29    5.90
   4   9  -1   88.99    6.60
  -4  -9   1  101.19    5.70
  -4  -9   1  104.19    7.30
  -4  -9   1   92.69    7.20
   3   9  -1   24.90    3.20
   3   9  -1   36.20    4.50
   3   9  -1   30.70    5.50
  -3  -9   1   19.10    4.40
  -3  -9   1   30.20    3.30
  -3  -9   1   31.90    4.70
   2   9  -1  206.38    9.60
   2   9  -1  205.48    8.50
  -2  -9   1  205.38   10.80
  -2  -9   1  209.38    7.40
   1   9  -1    7.40    3.70
   1   9  -1    8.40    2.50
  -1  -9   1    3.60    4.00
   0   9  -1   25.50    3.20
   0   9  -1   21.40    4.50
   0  -9   1   22.00    5.80
  -1   9  -1  110.29    5.90
  -1   9  -1  108.89    8.20
   1  -9   1  110.99    9.50
  -2   9  -1   53.39    6.80
  -2   9  -1   57.39    5.10
   2  -9   1   51.39    7.30
   9   8  -1   90.69   10.70
  -9  -8   1  109.79    9.20
   8   8  -1  144.49   10.10
  -8  -8   1  139.59   10.00
  -8  -8   1  135.49    8.50
   7   8  -1   82.29    8.00
  -7  -8   1   67.19    6.80
  -7  -8   1   79.09    6.10
   6   8  -1  282.07   13.10
  -6  -8   1  261.67   10.80
  -6  -8   1  264.97   12.10
   5   8  -1  140.19    8.60
   5   8  -1  155.88    7.00
   5   8  -1  144.19    7.00
  -5  -8   1  119.79    7.70
  -5  -8   1  130.09    6.60
  -5  -8   1  143.99    7.40
   4   8  -1    7.90    4.20
   4   8  -1    4.60    2.90
   4   8  -1    4.30    2.30
  -4  -8   1    6.00    2.20
  -4  -8   1    4.30    3.10
  -4  -8   1    2.60    3.20
   3   8  -1   27.00    3.00
   3   8  -1   34.10    3.90
   3   8  -1   40.40    5.50
  -3  -8   1   33.60    4.60
  -3  -8   1   38.40    3.30
  -3  -8   1   33.30    4.20
   2   8  -1    3.20    2.80
   2   8  -1    8.50    3.90
   2   8  -1    6.60    2.10
  -2  -8   1    6.80    3.20
  -2  -8   1    4.60    1.70
  -2  -8   1    1.80    3.30
   1   8  -1  148.59    7.70
   1   8  -1  154.98    6.50
  -1  -8   1  160.78    5.50
  -1  -8   1  152.38    8.30
   0   8  -1  109.09    6.80
   0   8  -1  113.89    5.40
   0  -8   1  119.99    7.90
  -1   8  -1   12.30    2.40
  -1   8  -1   10.10    3.90
   1  -8   1   13.60    4.30
  -2   8  -1   73.29    7.10
  -2   8  -1   68.29    4.40
   2  -8   1   61.49    7.20
  -3   8  -1  408.26   13.80
  -3   8  -1  414.66   16.50
   3  -8   1  367.46   16.70
  10   7  -1    5.60    6.70
  10   7  -1    1.80    5.80
 -10  -7   1   -0.20    6.50
   9   7  -1   13.40    5.70
  -9  -7   1   11.10    5.80
   8   7  -1  139.39    9.30
  -8  -7   1  132.49    8.50
   7   7  -1  242.88   11.80
  -7  -7   1  222.88   10.60
   6   7  -1  190.38   10.40
  -6  -7   1  195.98    9.20
  -6  -7   1  189.28    8.50
   5   7  -1  109.49    5.70
   5   7  -1  101.19    7.50
  -5  -7   1   95.29    6.20
  -5  -7   1  113.99    6.00
  -5  -7   1  108.39    5.70
   4   7  -1  178.28    7.30
   4   7  -1  171.48    9.00
   4   7  -1  178.98    7.60
  -4  -7   1  190.78    7.40
  -4  -7   1  173.18    8.30
  -4  -7   1  184.88    8.00
   3   7  -1  121.69    5.60
   3   7  -1  126.69    7.20
   3   7  -1  125.89    5.90
  -3  -7   1  120.69    5.30
  -3  -7   1  118.99    6.10
  -3  -7   1  116.29    6.50
   2   7  -1  128.79    5.60
   2   7  -1  135.89    6.50
   2   7  -1  121.69    7.30
  -2  -7   1  147.19    7.00
  -2  -7   1  128.29    7.10
  -2  -7   1  130.09    5.20
   1   7  -1    9.50    2.70
   1   7  -1    9.10    1.80
   1   7  -1    6.00    3.00
  -1  -7   1    6.40    2.90
  -1  -7   1    7.90    3.10
  -1  -7   1    8.40    1.40
   0   7  -1  142.39    5.60
   0   7  -1  140.49    6.90
   0  -7   1  131.39    7.30
  -1   7  -1  294.17   10.10
  -1   7  -1  300.87   11.70
   1  -7   1  295.67   12.40
  -2   7  -1   16.00    2.10
  -2   7  -1    8.10    3.30
   2  -7   1   16.30    4.10
  -3   7  -1  155.08    6.30
  -3   7  -1  153.38    8.20
   3  -7   1  145.29    8.90
  -4   7  -1   77.29    4.70
  -4   7  -1   84.39    7.10
   4  -7   1   68.79    7.60
  -5   7  -1   49.40    7.40
  10   6  -1   84.49    9.70
  10   6  -1   82.59    8.70
 -10  -6   1   84.09    8.80
   9   6  -1  134.39   10.10
   9   6  -1  136.89    8.90
  -9  -6   1  127.89    9.40
   8   6  -1   20.80    4.90
   8   6  -1   16.50    4.20
  -8  -6   1   23.70    4.60
   7   6  -1   69.69    6.10
   7   6  -1   56.09    6.70
  -7  -6   1   57.29    5.50
  -7  -6   1   63.29    5.50
   6   6  -1  374.66   15.30
  -6  -6   1  384.86   13.90
  -6  -6   1  403.46   14.70
   5   6  -1  328.07   11.70
   5   6  -1  343.07   13.70
  -5  -6   1  339.47   11.90
  -5  -6   1  341.27   12.60
  -5  -6   1  319.67   11.90
   4   6  -1   19.60    3.50
   4   6  -1   20.60    2.50
  -4  -6   1   23.10    3.00
  -4  -6   1   15.40    2.80
  -4  -6   1   21.30    2.50
   3   6  -1  704.63   23.50
   3   6  -1  711.13   21.80
  -3  -6   1  698.03   22.80
  -3  -6   1  666.23   21.70
  -3  -6   1  678.93   22.30
   2   6  -1  406.66   14.80
   2   6  -1  397.76   13.70
   2   6  -1  418.26   13.20
  -2  -6   1  406.86   14.00
  -2  -6   1  409.06   13.00
  -2  -6   1  374.46   14.20
   1   6  -1  281.07   11.20
   1   6  -1  296.97    9.60
   1   6  -1  274.27   10.30
  -1  -6   1  292.97    9.20
  -1  -6   1  274.67   10.80
  -1  -6   1  278.37   10.60
   0   6  -1    6.20    2.30
   0   6  -1    5.10    2.70
   0   6  -1    6.90    1.40
   0  -6   1    4.00    2.40
   0  -6   1    5.10    0.80
   0  -6   1    6.50    2.40
   0  -6   1    6.90    1.10
  -1   6  -1   99.19    5.40
  -1   6  -1  104.89    4.30
   1  -6   1  107.99    6.10
  -2   6  -1  123.89    5.00
  -2   6  -1  124.99    6.40
   2  -6   1  136.99    7.20
  -3   6  -1   19.60    2.10
  -3   6  -1   15.90    3.30
   3  -6   1   23.80    4.10
  -4   6  -1   15.20    3.70
  -4   6  -1   16.00    2.20
   4  -6   1   11.70    4.20
  -5   6  -1   42.90    4.00
  -5   6  -1   48.00    5.80
  -5   6  -1   42.50    5.60
   5  -6   1   42.30    6.20
  10   5  -1   74.09    8.10
 -10  -5   1   74.29    8.10
   9   5  -1  220.78   10.80
   9   5  -1  214.48   11.60
  -9  -5   1  214.28   11.20
   8   5  -1  148.89    8.40
   8   5  -1  147.79    9.20
  -8  -5   1  137.29    8.40
   7   5  -1    8.40    3.60
   7   5  -1    3.90    3.00
  -7  -5   1    2.30    3.30
   6   5  -1   71.59    5.40
   6   5  -1   91.39    6.20
  -6  -5   1   83.79    5.20
  -6  -5   1   91.89    5.50
   5   5  -1  621.04   19.50
   5   5  -1  607.64   20.10
   5   5  -1  579.54   20.90
  -5  -5   1  601.44   19.70
  -5  -5   1  608.84   19.40
  -5  -5   1  595.14   20.10
   4   5  -1  129.99    5.50
   4   5  -1  136.89    6.30
   4   5  -1  118.59    6.60
  -4  -5   1  136.49    5.80
  -4  -5   1  135.19    5.70
  -4  -5   1  142.59    6.40
   3   5  -1   11.20    1.70
   3   5  -1   12.10    2.50
   3   5  -1   11.40    2.60
  -3  -5   1    8.40    2.00
  -3  -5   1    8.30    1.60
  -3  -5   1    8.40    2.00
   2   5  -1  268.37    9.30
   2   5  -1  272.57   10.70
  -2  -5   1  280.27    9.90
  -2  -5   1  284.47    9.30
  -2  -5   1  284.17   10.20
   1   5  -1 1026.20   32.00
   1   5  -1 1030.80   31.40
   1   5  -1 1054.59   32.80
  -1  -5   1 1066.99   31.50
  -1  -5   1 1034.10   32.50
  -1  -5   1 1029.40   31.20
  -1  -5   1 1011.80   32.20
   0   5  -1  715.03   22.00
   0   5  -1  706.53   22.80
   0   5  -1  719.23   23.20
   0  -5   1  699.13   23.00
   0  -5   1  690.53   23.20
   0  -5   1  759.12   21.80
   0  -5   1  730.13   21.60
  -1   5  -1   31.30    3.10
  -1   5  -1   44.90    2.30
  -1   5  -1   47.10    3.90
   1  -5   1   40.40    3.70
  -2   5  -1    1.80    1.00
  -2   5  -1    0.70    1.90
   2  -5   1    1.80    2.60
  -3   5  -1  169.18    7.30
  -3   5  -1  161.68    6.00
   3  -5   1  178.08    8.00
  -4   5  -1    6.00    1.60
  -4   5  -1    2.90    3.00
   4  -5   1    2.60    3.10
  -5   5  -1   81.59    4.20
  -5   5  -1   77.69    6.50
  -5   5  -1   78.29    6.30
   5  -5   1   87.89    6.70
  -6   5  -1   59.79    4.50
  -6   5  -1   60.79    7.50
   6  -5   1   64.39    7.50
  10   4  -1   19.90    5.20
 -10  -4   1   18.90    5.70
   9   4  -1   39.00    5.20
  -9  -4   1   41.60    5.60
   8   4  -1  262.77   11.10
   8   4  -1  250.17   11.60
  -8  -4   1  263.37   11.30
   7   4  -1  243.18   10.10
   7   4  -1  239.58   10.50
  -7  -4   1  240.38   10.00
   6   4  -1   -0.60    2.30
   6   4  -1    0.50    2.10
  -6  -4   1    1.90    2.30
  -6  -4   1    0.80    2.20
  -6  -4   1    0.20    2.00
   5   4  -1  229.18    9.40
   5   4  -1  266.67    9.00
   5   4  -1  234.48   10.10
  -5  -4   1  256.97    8.70
  -5  -4   1  249.48    9.10
  -5  -4   1  248.08    9.50
  -5  -4   1  233.08    8.60
   4   4  -1   36.70    2.70
   4   4  -1   30.80    3.10
   4   4  -1   35.80    3.80
  -4  -4   1   29.80    2.60
  -4  -4   1   31.60    2.60
  -4  -4   1   35.50    2.80
  -4  -4   1   27.90    2.90
   3   4  -1  415.06   13.70
   3   4  -1  404.16   13.20
   3   4  -1  420.86   14.50
  -3  -4   1  399.36   13.70
  -3  -4   1  416.86   13.40
  -3  -4   1  407.76   13.00
  -3  -4   1  416.76   13.50
   2   4  -1 1039.00   31.70
   2   4  -1 1009.40   32.80
   2   4  -1 1114.49   32.20
  -2  -4   1  990.20   32.10
  -2  -4   1 1069.79   32.40
  -2  -4   1 1052.19   31.70
   1   4  -1    3.90    1.60
   1   4  -1    6.70    1.10
  -1  -4   1    2.70    1.40
  -1  -4   1    5.30    1.30
  -1  -4   1    4.70    0.90
  -1  -4   1    4.70    1.50
   0   4  -1 1250.77   37.70
   0   4  -1 1260.77   36.90
   0   4  -1 1196.48   37.90
   0   4  -1 1200.58   37.00
   0  -4   1 1222.98   37.90
   0  -4   1 1281.57   36.90
   0  -4   1 1240.18   37.80
   0  -4   1 1222.98   36.70
  -1   4  -1 1635.64   50.59
  -1   4  -1 1748.63   51.49
  -1   4  -1 1703.23   50.59
  -1   4  -1 1691.93   51.39
   1  -4   1 1749.62   51.59
   1  -4   1 1674.23   51.79
  -2   4  -1    2.60    1.70
  -2   4  -1    4.50    1.90
  -2   4  -1    2.60    0.90
   2  -4   1    2.70    1.90
  -3   4  -1   42.80    3.60
  -3   4  -1   41.80    2.30
   3  -4   1   36.20    3.70
  -4   4  -1   39.00    3.60
  -4   4  -1   44.00    2.60
   4  -4   1   46.60    4.50
  -5   4  -1  445.16   14.40
  -5   4  -1  463.45   16.40
  -5   4  -1  437.26   15.60
   5  -4   1  456.95   16.80
  -6   4  -1  102.19    7.70
  -6   4  -1  108.69    5.10
  -6   4  -1  105.89    7.40
   6  -4   1  107.09    8.00
  -7   4  -1    1.60    4.90
  -7   4  -1    1.60    2.70
   7  -4   1    3.00    5.30
  10   3  -1   85.49    7.70
 -10  -3   1   85.89    8.40
   9   3  -1  294.87   12.50
  -9  -3   1  308.87   13.00
   8   3  -1    1.40    3.10
  -8  -3   1    2.20    3.10
  -8  -3   1    2.90    2.40
   7   3  -1   80.79    5.40
   7   3  -1   82.99    5.80
  -7  -3   1   83.79    4.60
  -7  -3   1   82.69    5.40
   6   3  -1  232.98    9.50
   6   3  -1  239.08    9.90
  -6  -3   1  242.88    8.60
  -6  -3   1  249.97    9.60
   5   3  -1  139.89    6.40
   5   3  -1  143.99    6.80
   5   3  -1  150.88    6.10
  -5  -3   1  151.78    6.50
  -5  -3   1  147.29    6.30
  -5  -3   1  156.98    5.80
  -5  -3   1  162.88    5.80
   4   3  -1   77.29    3.60
   4   3  -1   59.29    3.70
   4   3  -1   69.29    4.40
  -4  -3   1   63.99    3.20
  -4  -3   1   66.39    3.60
  -4  -3   1   60.19    3.40
  -4  -3   1   72.09    3.20
   3   3  -1  271.57    9.10
   3   3  -1  261.97   10.00
  -3  -3   1  284.97    9.50
  -3  -3   1  272.07    9.10
  -3  -3   1  275.27    9.20
   2   3  -1 1951.20   60.09
   2   3  -1 2068.69   60.39
   2   3  -1 2037.90   61.09
  -2  -3   1 2007.20   60.29
  -2  -3   1 2017.70   60.49
  -2  -3   1 2011.00   60.09
   1   3  -1 4337.47  127.19
   1   3  -1 4252.57  126.29
  -1  -3   1 4294.77  126.29
  -1  -3   1 4144.09  126.79
  -1  -3   1 4339.27  126.79
   0   3  -1  213.98    6.80
   0   3  -1  217.18    7.40
   0   3  -1  207.38    6.70
   0   3  -1  213.58    7.60
   0  -3   1  220.58    7.60
   0  -3   1  224.68    6.60
   0  -3   1  225.88    6.80
   0  -3   1  189.98    7.40
  -1   3  -1  642.64   19.00
  -1   3  -1  624.34   19.00
  -1   3  -1  624.94   19.60
  -1   3  -1  622.84   19.60
   1  -3   1  636.04   20.00
   1  -3   1  635.34   19.80
  -2   3  -1  733.63   21.80
  -2   3  -1  705.73   21.70
  -2   3  -1  710.03   22.50
  -2   3  -1  751.82   22.20
   2  -3   1  719.83   23.00
  -3   3  -1  165.08    6.40
  -3   3  -1  157.48    5.40
   3  -3   1  169.48    6.80
  -4   3  -1   12.10    2.30
  -4   3  -1    8.20    1.20
   4  -3   1    8.90    2.50
  -5   3  -1   61.49    4.30
  -5   3  -1   60.99    3.10
  -5   3  -1   61.49    4.60
   5  -3   1   56.09    4.90
  -6   3  -1  522.45   16.90
  -6   3  -1  555.74   19.90
  -6   3  -1  506.05   18.70
   6  -3   1  541.95   19.30
  -7   3  -1  211.68    8.20
  -7   3  -1  217.28   10.20
   7  -3   1  209.58   10.60
  -8   3  -1    5.10    5.40
  -8   3  -1    2.90    2.70
  10   2  -1    8.70    4.30
 -10  -2   1   10.30    5.90
   9   2  -1  148.19    8.10
  -9  -2   1  137.09    9.10
  -9  -2   1  160.28    7.80
   8   2  -1  208.68    9.70
  -8  -2   1  233.68   10.10
  -8  -2   1  249.97    9.20
   7   2  -1  181.38    8.00
  -7  -2   1  176.98    7.20
  -7  -2   1  180.18    8.20
   6   2  -1   38.70    3.80
   6   2  -1   38.50    3.60
  -6  -2   1   38.00    2.90
  -6  -2   1   33.70    3.00
  -6  -2   1   33.60    3.70
   5   2  -1  190.78    8.00
   5   2  -1  215.88    8.30
  -5  -2   1  218.08    8.00
  -5  -2   1  220.98    7.40
  -5  -2   1  211.08    7.40
  -5  -2   1  211.98    8.00
   4   2  -1   55.79    2.90
   4   2  -1   48.60    3.10
   4   2  -1   44.60    3.30
  -4  -2   1   46.80    2.50
  -4  -2   1   42.80    2.80
  -4  -2   1   47.30    2.90
  -4  -2   1   46.00    2.50
   3   2  -1  245.68    8.10
   3   2  -1  231.78    8.40
   3   2  -1  240.38    8.80
  -3  -2   1  239.58    8.20
  -3  -2   1  247.28    8.20
  -3  -2   1  257.17    8.00
  -3  -2   1  244.48    7.90
   2   2  -1  554.34   17.60
   2   2  -1  579.24   17.90
   2   2  -1  563.84   18.30
  -2  -2   1  595.54   17.50
  -2  -2   1  587.74   17.70
  -2  -2   1  573.04   17.80
   1   2  -1 8894.71  275.47
   1   2  -1 9469.25  277.27
  -1  -2   1 9589.54  275.97
  -1  -2   1 8570.64  276.17
  -1  -2   1 9999.00  276.37
   0   2  -1  407.06   12.30
   0   2  -1  397.66   12.30
   0   2  -1  387.26   12.80
   0  -2   1  397.56   12.80
   0  -2   1  414.46   12.80
   0  -2   1  437.96   12.30
   0  -2   1  414.76   12.20
  -1   2  -1  221.48    6.90
  -1   2  -1  227.88    6.90
  -1   2  -1  231.38    7.50
  -1   2  -1  223.98    7.40
   1  -2   1  229.68    7.60
   1  -2   1  237.88    7.80
   1  -2   1  236.18    7.50
  -2   2  -1    2.60    0.80
  -2   2  -1    2.80    1.00
  -2   2  -1    3.50    0.60
  -2   2  -1    2.80    0.50
   2  -2   1    3.00    1.30
   2  -2   1    3.30    0.90
  -3   2  -1  569.34   17.50
  -3   2  -1  577.64   18.10
  -3   2  -1  561.74   17.60
   3  -2   1  579.14   18.70
   3  -2   1  608.74   17.80
  -4   2  -1 1165.18   35.40
  -4   2  -1 1175.88   34.70
  -4   2  -1 1128.49   35.80
   4  -2   1 1163.28   36.10
  -5   2  -1    9.90    1.40
  -5   2  -1   10.80    2.60
  -5   2  -1    9.00    2.10
   5  -2   1    7.90    2.60
  -6   2  -1   36.20    2.70
  -6   2  -1   28.00    3.70
   6  -2   1   33.00    4.20
  -7   2  -1  365.26   12.40
  -7   2  -1  375.96   14.50
  -8   2  -1   40.90    5.60
  -8   2  -1   52.59    4.30
 -10  -1   1  124.59    8.50
 -10  -1   1  115.49   11.50
   9   1  -1    1.90    3.20
  -9  -1   1    2.30    4.50
  -9  -1   1    1.70    3.20
   8   1  -1   88.39    5.80
  -8  -1   1   90.79    5.30
  -8  -1   1   89.89    6.20
   7   1  -1  278.97   10.70
  -7  -1   1  280.47   10.00
  -7  -1   1  262.07   10.70
   6   1  -1  367.06   13.00
  -6  -1   1  364.36   12.30
  -6  -1   1  377.06   13.10
  -6  -1   1  376.56   12.40
   5   1  -1    5.90    1.80
   5   1  -1    6.00    1.80
  -5  -1   1    4.30    1.80
  -5  -1   1    5.20    1.60
  -5  -1   1    5.60    1.20
   4   1  -1  335.57   10.50
   4   1  -1  305.17   10.60
   4   1  -1  301.27   10.60
  -4  -1   1  304.17   10.10
  -4  -1   1  322.87   10.60
  -4  -1   1  316.37   10.50
  -4  -1   1  309.37   10.00
   3   1  -1 1223.48   37.50
   3   1  -1 1216.88   37.20
   3   1  -1 1228.58   37.60
  -3  -1   1 1258.47   37.10
  -3  -1   1 1204.68   37.30
  -3  -1   1 1283.97   37.30
  -3  -1   1 1238.08   37.00
   2   1  -1   54.39    2.70
   2   1  -1   57.19    2.50
   2   1  -1   50.99    2.20
  -2  -1   1   56.99    2.30
  -2  -1   1   47.40    2.30
  -2  -1   1   56.29    2.20
  -2  -1   1   56.69    2.20
   1   1  -1  588.54   18.20
   1   1  -1  598.94   17.90
  -1  -1   1  614.24   18.00
  -1  -1   1  596.54   17.90
  -1  -1   1  578.34   17.90
   0   1  -1  781.92   24.80
   0   1  -1  840.22   24.40
   0   1  -1  812.02   24.40
   0  -1   1  814.02   24.40
   0  -1   1  844.82   24.70
   0  -1   1  850.51   24.80
   0  -1   1  846.92   24.40
  -1   1  -1  126.09    4.20
   1  -1   1  124.69    4.30
   1  -1   1  122.49    4.40
   1  -1   1  131.39    4.20
  -2   1  -1  153.28    4.70
  -2   1  -1  147.89    5.10
  -2   1  -1  149.99    4.60
   2  -1   1  147.99    5.40
   2  -1   1  158.58    5.00
  -3   1  -1  437.36   13.70
  -3   1  -1  465.95   14.10
  -3   1  -1  444.06   13.90
  -3   1  -1  451.35   14.50
   3  -1   1  450.65   14.70
   3  -1   1  474.05   14.00
  -4   1  -1 1478.25   45.70
  -4   1  -1 1446.06   45.00
  -4   1  -1 1503.45   45.20
  -4   1  -1 1463.25   44.80
   4  -1   1 1491.15   46.00
   4  -1   1 1531.55   44.50
   4  -1   1 1536.85   44.50
   4  -1   1 1582.14   45.10
  -5   1  -1 1519.75   47.10
  -5   1  -1 1553.34   47.90
  -5   1  -1 1576.34   46.80
   5  -1   1 1572.44   46.30
   5  -1   1 1567.34   46.30
   5  -1   1 1594.94   48.20
  -6   1  -1   67.49    3.30
  -6   1  -1   59.09    4.40
  -7   1  -1    9.60    3.20
  -7   1  -1   11.20    1.90
  -8   1  -1   50.19    5.60
  -8   1  -1   50.29    4.10
  -9   1  -1  173.98   10.60
  -9   1  -1  164.98    7.90
   9   0  -1  218.28    9.30
  -9   0   1  239.78    9.90
  -9   0   1  212.48   11.10
   8   0  -1   11.60    3.00
  -8   0   1    9.20    2.70
  -8   0   1    8.70    4.10
   7   0  -1  202.08    8.30
  -7   0   1  200.58    7.90
  -7   0   1  198.38    9.00
   6   0  -1   66.09    4.20
  -6   0   1   65.19    4.40
  -6   0   1   62.19    3.90
  -6   0   1   62.69    3.60
   5   0  -1  627.94   20.10
  -5   0   1  610.94   19.70
  -5   0   1  607.64   20.10
  -5   0   1  650.83   19.50
   4   0  -1   86.79    4.20
   4   0  -1   90.29    3.80
  -4   0   1   93.89    4.20
  -4   0   1   85.99    3.80
  -4   0   1   94.49    4.20
  -4   0   1   87.89    3.60
   3   0  -1   83.29    3.70
   3   0  -1   91.19    3.50
  -3   0   1   86.09    3.60
  -3   0   1   85.39    3.40
  -3   0   1   82.89    3.50
  -3   0   1   86.19    3.20
   2   0  -1  782.82   24.10
   2   0  -1  777.32   24.00
  -2   0   1  828.02   24.00
  -2   0   1  776.82   23.80
  -2   0   1  802.92   24.00
   1   0  -1 1177.78   34.10
   1   0  -1 1147.89   34.20
   1   0  -1 1132.39   34.20
  -1   0   1 1172.48   34.20
  -1   0   1 1124.49   34.10
  -1   0   1 1150.68   34.20
  -1   0   1 1137.69   34.10
   0   0  -1   29.60    1.00
   0   0   1   31.50    1.20
   0   0   1   27.30    1.00
   0   0   1   30.60    1.20
  -1   0  -1  138.49    4.40
  -1   0  -1  134.99    4.10
  -1   0  -1  134.89    4.10
   1   0   1  143.99    4.40
   1   0   1  137.09    4.30
   1   0   1  138.19    4.40
  -2   0  -1   92.89    3.10
  -2   0  -1  103.39    3.30
  -2   0  -1   99.09    3.20
  -2   0  -1   93.19    3.50
   2   0   1  104.99    3.10
   2   0   1  103.39    3.10
   2   0   1   98.69    3.50
   2   0   1  100.09    3.70
  -3   0  -1  500.75   16.00
  -3   0  -1  474.45   15.60
  -3   0  -1  480.95   15.40
  -3   0  -1  536.75   15.60
   3   0   1  544.85   15.90
   3   0   1  531.65   15.40
   3   0   1  510.15   16.20
   3   0   1  521.55   15.50
  -4   0  -1    0.20    0.60
  -4   0  -1   -0.20    1.10
  -4   0  -1    7.20    1.10
   4   0   1    0.30    0.70
   4   0   1    0.00    1.00
   4   0   1   -0.30    0.70
  -5   0  -1  392.06   12.20
  -5   0  -1  374.46   12.10
  -5   0  -1  360.56   12.90
   5   0   1  406.06   12.60
   5   0   1  377.76   11.90
   5   0   1  391.66   12.20
  -6   0  -1 1394.36   42.50
  -6   0  -1 1390.36   43.60
   6   0   1 1444.76   42.40
  -7   0  -1  259.07   10.60
  -7   0  -1  275.57    9.40
   7   0   1  274.77    9.00
  -8   0  -1   -1.10    2.00
  -8   0  -1   -0.20    3.00
   8   0   1    0.40    1.30
  -9   0  -1   24.20    3.30
  -9   0  -1   28.30    5.50
 -10   0  -1   69.59    6.30
   9  -1  -1  246.68    8.90
  -9   1   1  249.08   12.50
  -9   1   1  230.38   10.40
   8  -1  -1  323.47   11.60
  -8   1   1  321.17   12.10
  -8   1   1  340.27   13.90
   7  -1  -1  131.19    6.30
  -7   1   1  150.38    6.40
  -7   1   1  138.69    7.70
   6  -1  -1   32.60    3.20
  -6   1   1   24.90    2.80
  -6   1   1   32.70    3.80
  -6   1   1   23.60    3.00
   5  -1  -1   20.50    2.90
   5  -1  -1   22.90    2.50
  -5   1   1   19.70    2.50
  -5   1   1   17.90    1.90
  -5   1   1   15.80    2.50
   4  -1  -1  172.88    7.20
   4  -1  -1  178.18    6.70
  -4   1   1  179.78    6.70
  -4   1   1  182.78    7.00
  -4   1   1  182.38    6.20
   3  -1  -1 1251.17   36.60
   3  -1  -1 1182.08   37.50
   3  -1  -1 1226.08   37.30
  -3   1   1 1208.58   37.40
  -3   1   1 1157.28   37.20
  -3   1   1 1182.68   36.90
  -3   1   1 1438.26   38.50
   2  -1  -1    6.70    1.20
   2  -1  -1   10.70    1.20
  -2   1   1    7.20    1.10
  -2   1   1    7.60    0.80
   1  -1  -1 3908.51  115.29
   1  -1  -1 3845.82  115.39
  -1   1   1 3833.52  115.09
  -1   1   1 4019.70  115.29
   0  -1  -1 1079.89   31.80
   0  -1  -1 1041.70   31.80
   0  -1  -1 1065.79   31.70
   0   1   1  998.80   31.80
   0   1   1 1073.89   31.70
   0   1   1 1115.69   31.70
   0   1   1 1095.89   31.70
  -1  -1  -1 1604.54   49.00
  -1  -1  -1 1560.34   49.10
   1   1   1 1728.03   49.20
   1   1   1 1698.73   49.00
   1   1   1 1688.23   48.90
  -2  -1  -1  649.74   19.00
  -2  -1  -1  635.94   19.30
   2   1   1  639.64   19.40
   2   1   1  615.64   19.10
  -3  -1  -1  120.79    4.60
  -3  -1  -1  127.59    4.20
  -3  -1  -1  129.49    4.00
   3   1   1  124.99    4.70
   3   1   1  125.39    4.40
  -4  -1  -1   10.70    1.60
  -4  -1  -1   10.50    1.00
  -4  -1  -1    9.40    1.00
   4   1   1   10.80    1.30
   4   1   1   10.20    1.50
   4   1   1   10.20    1.20
  -5  -1  -1  188.78    6.10
  -5  -1  -1  183.88    6.30
  -5  -1  -1  174.78    7.00
   5   1   1  187.78    6.60
   5   1   1  184.18    6.80
   5   1   1  175.48    6.50
  -6  -1  -1  111.99    5.40
  -6  -1  -1  111.59    4.50
   6   1   1  103.69    4.70
   6   1   1  114.09    5.10
  -7  -1  -1  980.60   30.20
  -7  -1  -1  980.20   31.40
   7   1   1  985.10   30.30
  -8  -1  -1  165.08    8.30
  -8  -1  -1  157.18    6.70
   8   1   1  160.38    6.40
  -9  -1  -1    8.20    2.70
  -9  -1  -1    7.70    4.00
   9   1   1    7.60    2.00
 -10  -1  -1   12.10    5.40
 -10  -1  -1    7.80    3.60
  -8   2   1   22.70    3.60
  -8   2   1   23.40    5.10
   7  -2  -1  451.75   15.60
  -7   2   1  487.85   17.60
  -7   2   1  513.45   16.30
   6  -2  -1  250.47   10.70
   6  -2  -1  231.48    8.80
  -6   2   1  232.58   10.10
  -6   2   1  240.18    8.80
  -6   2   1  252.67    9.60
   5  -2  -1   11.50    2.00
   5  -2  -1   13.00    2.90
  -5   2   1   12.10    2.50
  -5   2   1   10.90    2.70
  -5   2   1   11.70    1.80
   4  -2  -1   95.89    5.20
   4  -2  -1  107.89    4.60
  -4   2   1  101.39    4.10
  -4   2   1  103.99    4.90
  -4   2   1  106.49    5.00
   3  -2  -1  659.43   20.30
   3  -2  -1  668.93   20.00
   3  -2  -1  617.84   20.80
  -3   2   1  637.04   19.90
  -3   2   1  674.93   20.50
   2  -2  -1 1937.11   59.29
   2  -2  -1 2026.80   59.89
   2  -2  -1 2028.60   59.59
  -2   2   1 1962.90   59.09
  -2   2   1 1996.30   59.59
   1  -2  -1   31.00    1.60
   1  -2  -1   29.50    1.90
  -1   2   1   28.60    1.70
  -1   2   1   30.70    1.40
   0  -2  -1 1555.84   46.80
   0  -2  -1 1562.74   46.50
   0   2   1 1588.64   46.60
   0   2   1 1488.05   46.30
   0   2   1 1619.64   46.40
  -1  -2  -1 1422.86   42.10
  -1  -2  -1 1366.46   41.90
  -1  -2  -1 1411.26   42.30
   1   2   1 1404.86   42.00
   1   2   1 1439.86   41.90
   1   2   1 1392.96   42.20
   1   2   1 1446.96   42.10
  -2  -2  -1   17.30    1.00
  -2  -2  -1   18.70    1.20
  -2  -2  -1   14.30    1.30
  -2  -2  -1   16.00    1.30
   2   2   1   17.90    1.20
   2   2   1   17.30    0.90
   2   2   1   13.90    1.40
   2   2   1   17.80    1.30
  -3  -2  -1  117.59    4.10
  -3  -2  -1  119.19    4.40
  -3  -2  -1  118.39    3.70
  -3  -2  -1  112.59    4.40
   3   2   1  117.89    4.10
   3   2   1  119.89    4.60
   3   2   1  104.29    4.30
  -4  -2  -1  273.97    9.70
  -4  -2  -1  298.97    9.60
  -4  -2  -1  294.97    8.80
  -4  -2  -1  291.57    9.20
   4   2   1  276.77    9.50
   4   2   1  272.77    9.80
  -5  -2  -1  161.18    5.60
  -5  -2  -1  161.98    5.20
  -5  -2  -1  151.78    6.20
   5   2   1  165.08    6.50
   5   2   1  140.59    5.90
  -6  -2  -1  461.65   15.70
  -6  -2  -1  486.95   14.90
   6   2   1  479.05   15.70
   6   2   1  437.06   15.20
  -7  -2  -1   82.39    4.20
  -7  -2  -1   82.69    5.10
   7   2   1   91.99    4.70
   7   2   1   80.29    5.00
  -8  -2  -1   30.10    4.30
  -8  -2  -1   29.10    3.00
   8   2   1   35.60    3.70
  -9  -2  -1  103.09    5.80
  -9  -2  -1   93.79    6.90
   9   2   1   99.29    5.40
 -10  -2  -1   32.30    4.20
 -10  -2  -1   35.50    6.20
  10   2   1   42.10    4.30
  -8   3   1   42.80    4.50
  -8   3   1   35.30    6.40
  -7   3   1   11.20    3.00
  -7   3   1   12.10    4.60
   6  -3  -1  293.07   12.10
   6  -3  -1  273.07    9.50
  -6   3   1  278.97   11.60
  -6   3   1  289.37   10.20
  -6   3   1  295.97   11.40
   5  -3  -1  482.05   15.40
   5  -3  -1  487.65   17.30
  -5   3   1  486.95   16.40
  -5   3   1  472.45   15.50
  -5   3   1  463.75   16.80
   4  -3  -1  297.17   11.40
   4  -3  -1  294.87   10.10
  -4   3   1  281.47   10.50
  -4   3   1  304.77   11.00
  -4   3   1  301.97    9.90
   3  -3  -1  170.68    7.40
   3  -3  -1  198.38    6.80
  -3   3   1  187.18    7.20
  -3   3   1  192.38    6.50
   2  -3  -1  626.74   19.40
   2  -3  -1  658.03   19.40
   2  -3  -1  608.84   20.20
  -2   3   1  629.64   19.90
  -2   3   1  623.94   19.20
   1  -3  -1 2678.03   81.09
   1  -3  -1 2827.12   81.09
   1  -3  -1 2623.14   81.69
  -1   3   1 2763.22   80.99
  -1   3   1 2894.11   80.79
  -1   3   1 2598.94   81.39
   0  -3  -1  496.85   15.90
   0  -3  -1  501.95   16.40
   0   3   1  529.05   16.00
   0   3   1  524.35   16.20
   0   3   1  538.95   15.80
  -1  -3  -1  163.48    5.80
  -1  -3  -1  157.18    5.30
  -1  -3  -1  163.58    5.40
   1   3   1  168.28    5.50
   1   3   1  161.58    5.80
   1   3   1  159.88    5.50
   1   3   1  142.69    5.20
  -2  -3  -1  143.69    4.90
  -2  -3  -1  142.29    5.30
  -2  -3  -1  133.79    5.10
  -2  -3  -1  140.39    4.90
   2   3   1  141.59    4.80
   2   3   1  151.48    4.90
   2   3   1  141.09    5.50
   2   3   1  143.99    5.20
  -3  -3  -1  650.83   19.50
  -3  -3  -1  644.94   20.00
  -3  -3  -1  629.24   20.10
  -3  -3  -1  641.14   19.60
   3   3   1  646.94   19.40
   3   3   1  625.24   20.00
   3   3   1  642.54   20.40
   3   3   1  655.03   19.70
  -4  -3  -1   56.49    2.80
  -4  -3  -1   64.69    2.60
  -4  -3  -1   59.19    3.30
   4   3   1   67.49    3.70
   4   3   1   61.39    3.10
   4   3   1   57.29    3.20
  -5  -3  -1  266.47    9.50
  -5  -3  -1  267.87    8.20
  -5  -3  -1  249.38    9.20
  -5  -3  -1  269.87    8.80
   5   3   1  261.97    9.30
   5   3   1  248.18    9.20
   5   3   1  241.58    9.50
  -6  -3  -1  544.95   17.10
  -6  -3  -1  523.85   17.90
   6   3   1  520.75   17.60
   6   3   1  563.14   18.20
  -7  -3  -1  241.98    9.00
  -7  -3  -1  240.98    9.90
   7   3   1  259.27    9.60
   7   3   1  254.87   10.10
  -8  -3  -1    2.20    2.30
  -8  -3  -1    2.60    2.80
   8   3   1    3.00    2.50
   8   3   1    2.80    3.10
  -9  -3  -1    7.20    2.90
  -9  -3  -1    8.20    4.10
   9   3   1    4.70    2.60
 -10  -3  -1   19.10    5.60
 -10  -3  -1   35.30    4.60
  10   3   1   24.90    3.80
   7  -4  -1   74.59    9.10
  -7   4   1   69.19    8.20
  -7   4   1   68.79    5.80
   6  -4  -1    5.10    4.60
  -6   4   1    4.90    3.90
  -6   4   1   13.40    4.50
  -6   4   1    5.60    2.40
   5  -4  -1  621.94   22.00
   5  -4  -1  636.24   19.20
  -5   4   1  641.64   21.60
  -5   4   1  627.24   20.10
  -5   4   1  621.44   21.10
   4  -4  -1    7.70    1.70
   4  -4  -1   11.30    3.50
  -4   4   1    8.00    1.70
  -4   4   1    8.20    2.50
   3  -4  -1  120.39    6.20
   3  -4  -1  129.39    5.00
  -3   4   1  121.39    5.70
  -3   4   1  129.19    4.90
   2  -4  -1    6.40    2.20
   2  -4  -1    9.20    1.40
  -2   4   1    7.70    1.90
  -2   4   1    8.40    1.30
   1  -4  -1  169.78    5.90
   1  -4  -1  160.68    6.80
   1  -4  -1  186.28    6.10
  -1   4   1  154.68    6.40
  -1   4   1  175.48    5.90
  -1   4   1  168.88    5.80
   0  -4  -1 1918.61   56.39
   0  -4  -1 1908.51   57.09
   0   4   1 1839.82   56.19
   0   4   1 1894.81   56.59
   0   4   1 1878.31   56.79
  -1  -4  -1  416.66   14.10
  -1  -4  -1  459.95   14.70
   1   4   1  450.95   13.90
   1   4   1  444.06   14.50
   1   4   1  452.85   14.30
   1   4   1  466.55   14.30
  -2  -4  -1  343.97   10.70
  -2  -4  -1  321.07   10.90
  -2  -4  -1  328.97   11.40
  -2  -4  -1  336.97   11.00
   2   4   1  322.87   11.50
   2   4   1  348.87   10.80
   2   4   1  351.56   11.20
   2   4   1  338.67   10.80
  -3  -4  -1  806.92   25.20
  -3  -4  -1  823.02   24.90
  -3  -4  -1  806.82   25.60
  -3  -4  -1  802.82   24.90
   3   4   1  806.12   25.90
   3   4   1  838.22   25.00
   3   4   1  808.22   25.30
   3   4   1  837.32   24.80
  -4  -4  -1  817.72   24.50
  -4  -4  -1  711.03   25.00
  -4  -4  -1  811.22   24.70
  -4  -4  -1  845.52   25.50
   4   4   1  777.82   25.20
   4   4   1  851.91   24.40
   4   4   1  803.02   25.80
   4   4   1  811.72   24.80
  -5  -4  -1  409.56   12.90
  -5  -4  -1  384.06   14.00
  -5  -4  -1  422.36   13.40
  -5  -4  -1  402.26   13.80
   5   4   1  406.06   13.90
   5   4   1  422.86   14.70
   5   4   1  432.36   13.50
  -6  -4  -1    9.60    2.50
  -6  -4  -1   12.20    2.00
   6   4   1    8.10    2.20
   6   4   1   13.30    2.90
  -7  -4  -1  197.38    7.80
  -7  -4  -1  193.08    8.80
   7   4   1  200.78    8.40
   7   4   1  210.88    9.10
  -8  -4  -1  139.99    6.50
  -8  -4  -1  144.69    7.50
   8   4   1  135.39    7.80
   8   4   1  138.99    7.20
  -9  -4  -1   30.60    4.60
  -9  -4  -1   36.20    3.90
   9   4   1   41.60    4.90
   9   4   1   45.80    5.50
 -10  -4  -1   -0.60    4.70
 -10  -4  -1   -0.30    3.50
  10   4   1   -0.50    3.30
   6  -5  -1   29.40    6.50
  -6   5   1   29.20    5.30
  -6   5   1   41.30    6.00
  -6   5   1   30.10    3.60
   5  -5  -1    2.80    3.80
  -5   5   1    0.30    3.50
  -5   5   1   -1.50    3.40
  -5   5   1    0.90    2.20
   4  -5  -1   21.60    4.10
  -4   5   1   25.60    2.60
  -4   5   1   29.00    3.80
   3  -5  -1   81.69    5.60
   3  -5  -1   80.19    3.70
  -3   5   1   81.59    3.90
  -3   5   1   73.59    5.20
   2  -5  -1  477.45   14.80
   2  -5  -1  471.15   16.40
  -2   5   1  475.65   15.80
  -2   5   1  445.36   14.80
   1  -5  -1   98.39    5.40
   1  -5  -1  105.89    4.20
  -1   5   1  102.79    4.20
  -1   5   1  107.29    5.20
   0  -5  -1 1258.27   38.30
   0  -5  -1 1273.07   39.40
   0   5   1 1296.67   38.70
   0   5   1 1258.17   38.90
   0   5   1 1254.07   38.20
  -1  -5  -1  867.01   27.50
  -1  -5  -1  867.21   26.60
   1   5   1  852.41   27.00
   1   5   1  880.61   26.50
   1   5   1  877.11   27.30
  -2  -5  -1  176.18    7.70
  -2  -5  -1  209.98    7.10
  -2  -5  -1  198.98    7.20
   2   5   1  213.98    7.40
   2   5   1  213.08    7.70
   2   5   1  210.18    8.10
   2   5   1  202.68    7.10
  -3  -5  -1   51.69    3.00
  -3  -5  -1   42.10    2.90
  -3  -5  -1   46.20    3.40
  -3  -5  -1   47.50    3.00
   3   5   1   52.19    2.90
   3   5   1   54.59    2.80
   3   5   1   45.80    3.40
   3   5   1   51.09    3.70
  -4  -5  -1   39.70    2.80
  -4  -5  -1   34.70    2.70
  -4  -5  -1   32.80    2.90
  -4  -5  -1   35.30    3.30
   4   5   1   32.10    3.10
   4   5   1   37.10    2.50
   4   5   1   37.50    3.60
   4   5   1   33.40    2.60
  -5  -5  -1  948.81   29.60
  -5  -5  -1  942.31   30.00
  -5  -5  -1  961.90   29.10
  -5  -5  -1  934.81   28.80
   5   5   1  985.80   28.70
   5   5   1  903.91   29.70
   5   5   1  916.01   30.50
   5   5   1  940.21   29.20
  -6  -5  -1  366.36   13.40
  -6  -5  -1  389.46   14.00
  -6  -5  -1  392.46   12.90
   6   5   1  378.46   14.50
   6   5   1  375.96   13.60
  -7  -5  -1   92.69    5.00
  -7  -5  -1   81.49    6.00
   7   5   1   88.09    6.10
   7   5   1   81.89    5.70
  -8  -5  -1   79.29    6.00
  -8  -5  -1   86.39    5.30
   8   5   1   85.49    6.30
   8   5   1   79.89    5.90
  -9  -5  -1  164.48    9.30
   9   5   1  153.18    8.10
   9   5   1  148.29    8.80
 -10  -5  -1    7.60    4.80
  10   5   1    5.20    3.80
  10   5   1    8.90    5.30
   5  -6  -1   68.29    8.60
  -5   6   1   66.59    5.10
  -5   6   1   63.49    7.60
  -5   6   1   56.79    6.60
   4  -6  -1   29.90    5.40
  -4   6   1   17.10    2.60
  -4   6   1   18.30    4.00
   3  -6  -1    3.10    3.20
  -3   6   1    4.10    3.00
  -3   6   1    3.70    1.80
   2  -6  -1  374.76   14.40
   2  -6  -1  362.46   11.90
  -2   6   1  377.36   13.50
  -2   6   1  372.36   12.30
   1  -6  -1  729.93   24.00
   1  -6  -1  714.33   22.30
  -1   6   1  723.33   23.50
  -1   6   1  715.83   22.40
   0  -6  -1    3.10    2.30
   0  -6  -1    3.10    1.50
   0   6   1    1.90    1.40
   0   6   1    2.40    2.00
  -1  -6  -1  361.66   11.90
  -1  -6  -1  384.66   13.30
   1   6   1  348.27   12.70
   1   6   1  349.07   12.40
   1   6   1  360.16   11.80
  -2  -6  -1  355.26   12.70
  -2  -6  -1  339.17   11.60
   2   6   1  351.66   11.50
   2   6   1  342.47   11.90
   2   6   1  342.77   12.60
  -3  -6  -1   98.59    5.30
  -3  -6  -1   93.39    4.80
  -3  -6  -1   90.49    4.50
   3   6   1  103.59    4.50
   3   6   1   92.89    5.70
   3   6   1  100.19    4.70
  -4  -6  -1   86.59    5.00
  -4  -6  -1   83.29    4.30
  -4  -6  -1   69.89    4.40
   4   6   1   79.19    5.60
   4   6   1   82.79    5.00
   4   6   1   83.89    4.20
   4   6   1   78.19    4.10
  -5  -6  -1   12.70    2.30
  -5  -6  -1   18.80    2.50
  -5  -6  -1   16.90    3.10
   5   6   1   13.50    3.00
   5   6   1   14.00    2.40
   5   6   1   15.60    3.30
   5   6   1   21.40    2.30
  -6  -6  -1  406.06   14.60
   6   6   1  404.66   15.30
   6   6   1  377.16   14.20
  -7  -6  -1  677.83   23.40
   7   6   1  679.33   24.00
   7   6   1  692.63   23.00
  -8  -6  -1   40.70    4.90
   8   6   1   29.90    4.90
   8   6   1   27.80    4.30
  -9  -6  -1    0.50    3.90
   9   6   1    2.30    3.50
   9   6   1    1.90    3.90
 -10  -6  -1   26.80    5.80
  10   6   1   23.20    6.40
  10   6   1   18.40    4.60
   4  -7  -1    9.40    5.90
  -4   7   1    8.80    4.70
  -4   7   1   12.10    3.00
   3  -7  -1   91.69    7.50
  -3   7   1   91.69    5.10
  -3   7   1   93.89    7.40
   2  -7  -1   29.70    4.70
  -2   7   1   34.30    4.30
  -2   7   1   30.20    3.30
   1  -7  -1  296.37   12.20
   1  -7  -1  301.87    9.90
  -1   7   1  297.97   10.40
  -1   7   1  287.57   11.50
   0  -7  -1  271.27    9.10
   0  -7  -1  240.48   10.70
   0   7   1  252.97    9.10
   0   7   1  265.27   10.30
  -1  -7  -1  285.17   10.90
  -1  -7  -1  252.27    9.30
   1   7   1  266.17    9.30
   1   7   1  263.07   10.10
  -2  -7  -1   12.00    2.00
  -2  -7  -1   10.30    2.90
   2   7   1   10.20    1.90
   2   7   1   11.20    3.10
   2   7   1   11.90    2.50
  -3  -7  -1  198.08    8.90
  -3  -7  -1  210.58    7.90
   3   7   1  195.38    7.70
   3   7   1  206.98    8.20
   3   7   1  206.28    9.10
  -4  -7  -1    5.90    2.50
  -4  -7  -1   10.30    2.40
  -4  -7  -1    4.80    2.70
   4   7   1   11.60    2.20
   4   7   1    9.40    3.40
   4   7   1    9.10    2.50
  -5  -7  -1   79.79    5.50
  -5  -7  -1   81.19    5.10
   5   7   1   88.89    4.70
   5   7   1   84.99    6.30
   5   7   1   88.09    5.00
  -6  -7  -1   53.69    5.70
  -6  -7  -1   45.50    4.60
   6   7   1   49.90    5.60
  -7  -7  -1  484.45   17.30
  -7  -7  -1  501.35   18.20
   7   7   1  475.85   18.70
   7   7   1  490.35   17.60
  -8  -7  -1  362.26   14.60
   8   7   1  350.06   14.10
  -9  -7  -1  145.79    9.30
   9   7   1  160.28    8.80
   9   7   1  137.29    9.50
 -10  -7  -1   11.60    5.70
  10   7   1   11.10    4.80
  10   7   1   15.10    6.00
   3  -8  -1   61.39    7.90
  -3   8   1   54.79    5.10
  -3   8   1   49.10    6.60
   2  -8  -1  121.09    8.60
  -2   8   1  114.59    6.10
  -2   8   1  118.09    7.90
   1  -8  -1   77.59    6.80
   1  -8  -1   82.09    3.50
  -1   8   1   81.79    4.90
  -1   8   1   78.49    6.10
   0  -8  -1   19.00    2.10
   0  -8  -1   23.50    4.40
   0   8   1   22.80    3.90
   0   8   1   26.20    2.90
  -1  -8  -1    6.70    3.30
  -1  -8  -1    8.30    2.10
   1   8   1    7.50    3.00
   1   8   1    4.70    2.10
  -2  -8  -1  311.57   12.90
  -2  -8  -1  306.97   10.90
   2   8   1  306.37   11.00
   2   8   1  316.87   12.00
  -3  -8  -1    0.90    3.00
  -3  -8  -1   -0.10    1.90
   3   8   1    0.00    2.40
   3   8   1   -1.30    2.00
   3   8   1   -0.10    2.90
  -4  -8  -1  133.89    6.60
  -4  -8  -1  137.39    7.70
   4   8   1  148.09    6.70
   4   8   1  138.99    6.60
   4   8   1  154.28    8.60
  -5  -8  -1  345.57   13.80
  -5  -8  -1  332.87   12.60
   5   8   1  367.76   14.70
   5   8   1  347.27   12.60
   5   8   1  338.07   12.70
  -6  -8  -1   84.09    6.50
  -6  -8  -1   96.19    6.20
   6   8   1   90.59    7.30
  -7  -8  -1  222.88   10.60
   7   8   1  203.78   11.60
  -8  -8  -1  184.98   10.10
   8   8   1  175.08   10.80
  -9  -8  -1   66.39    7.80
   9   8   1   63.59    8.00
   9   8   1   76.49    8.00
 -10  -8  -1   21.70    6.60
  10   8   1   32.20    7.20
  10   8   1   22.10    5.90
   2  -9  -1   43.50   11.50
  -2   9   1   34.80    4.20
   1  -9  -1  188.18   11.50
  -1   9   1  189.98    8.30
  -1   9   1  178.28   10.60
   0  -9  -1   89.69    8.60
   0  -9  -1   82.49    4.00
   0   9   1   80.59    7.40
   0   9   1   79.99    5.40
  -1  -9  -1   -0.70    2.20
  -1  -9  -1   -0.40    4.20
   1   9   1   -0.20    2.60
   1   9   1   -0.10    3.30
  -2  -9  -1   12.30    2.50
  -2  -9  -1    9.20    4.30
   2   9   1   10.50    2.70
   2   9   1    5.90    3.70
  -3  -9  -1  175.48    7.50
  -3  -9  -1  161.48    9.50
   3   9   1  180.88    7.90
   3   9   1  187.58   10.10
   3   9   1  181.68    8.80
  -4  -9  -1   38.80    5.20
  -4  -9  -1   34.90    4.10
   4   9   1   36.60    3.90
   4   9   1   34.30    5.70
   4   9   1   30.60    4.00
  -5  -9  -1   55.09    6.10
  -5  -9  -1   53.59    5.10
   5   9   1   51.99    6.00
   5   9   1   57.59    6.80
  -6  -9  -1  172.88    9.40
  -6  -9  -1  150.48    7.80
   6   9   1  148.99    9.70
  -7  -9  -1  245.88   12.30
   7   9   1  271.37   13.90
  -8  -9  -1    1.40    4.50
  -8  -9  -1    0.40    4.70
   8   9   1    2.00    5.30
  -9  -9  -1    4.00    6.40
   9   9   1    0.40    6.10
   0 -10  -1   53.79    8.20
   0  10   1   56.89    7.30
  -1 -10  -1   49.10    7.10
  -1 -10  -1   53.39    3.80
   1  10   1   54.29    6.40
   1  10   1   62.89    5.50
  -2 -10  -1    4.40    4.80
  -2 -10  -1    2.80    2.70
   2  10   1    2.40    3.10
   2  10   1    4.90    4.70
  -3 -10  -1    2.20    2.80
  -3 -10  -1    2.00    4.40
   3  10   1   -0.60    4.20
   3  10   1    0.30    3.00
  -4 -10  -1   84.39    5.60
  -4 -10  -1   70.89    7.50
   4  10   1   78.89    6.20
   4  10   1   76.69    8.70
   4  10   1   83.49    6.40
  -5 -10  -1  219.48    9.90
  -5 -10  -1  206.38   11.40
   5  10   1  239.38   12.80
  -6 -10  -1    1.50    3.60
  -6 -10  -1    1.70    5.40
   6  10   1    0.50    5.10
  -7 -10  -1   75.39    8.30
  -7 -10  -1   66.49    7.10
   7  10   1   82.19   10.10
  -8 -10  -1    8.80    5.60
  -8 -10  -1    7.30    4.70
   8  10   1   12.20    6.90
   2  11   1   39.20    5.10
  -3 -11  -1  208.98   18.30
  -3 -11  -1  174.28    8.00
   3  11   1  174.88    9.50
  -4 -11  -1    0.70    3.30
  -4 -11  -1   -0.40    5.30
   4  11   1    1.90    5.30
  -5 -11  -1   29.70    7.10
  -5 -11  -1   21.00    4.20
  -6 -11  -1   48.60    5.60
  -6 -11  -1   37.20    7.90
   7  11   1    1.90    7.70
   7  10  -2   50.09    8.30
  -7 -10   2   72.19    8.90
  -7 -10   2   69.19    7.00
   6  10  -2   51.79    7.70
  -6 -10   2   53.39    5.70
  -6 -10   2   47.40    7.40
   5  10  -2   56.99    6.20
   5  10  -2   43.80    6.00
   5  10  -2   53.89    7.80
  -5 -10   2   57.89    5.50
  -5 -10   2   47.40    7.20
  -5 -10   2   64.19    6.90
   4  10  -2  108.39    8.20
   4  10  -2  112.29    7.00
   4  10  -2  130.99   10.40
  -4 -10   2  109.89    5.70
  -4 -10   2  110.49    9.30
  -4 -10   2  129.49    9.10
   3  10  -2    2.20    5.60
   3  10  -2   -2.20    4.60
   3  10  -2    2.00    2.90
  -3 -10   2    0.10    4.90
  -3 -10   2    0.20    4.60
  -3 -10   2    0.10    1.80
   2  10  -2   80.59    8.30
   2  10  -2   97.09    6.10
  -2 -10   2   87.59    8.40
   1  10  -2   37.00    5.90
   1  10  -2   31.00    3.80
  -1 -10   2   33.70    6.60
   0 -10   2   30.00    7.90
   8   9  -2  119.99   10.60
  -8  -9   2  118.19    9.50
  -8  -9   2  111.49    8.40
   7   9  -2  158.68   11.60
  -7  -9   2  154.18    8.80
   6   9  -2    8.00    5.30
  -6  -9   2    5.20    3.20
  -6  -9   2    3.30    4.20
   5   9  -2   16.70    5.70
   5   9  -2   15.90    3.90
   5   9  -2   26.40    4.00
  -5  -9   2   19.60    4.50
  -5  -9   2   18.20    3.10
  -5  -9   2   18.10    4.70
   4   9  -2   92.99    8.60
   4   9  -2   94.29    6.20
   4   9  -2   92.89    5.80
  -4  -9   2   90.59    7.80
  -4  -9   2   86.49    5.20
  -4  -9   2   83.39    6.40
   3   9  -2  134.59    7.80
   3   9  -2  124.89    9.00
   3   9  -2  120.89    6.40
  -3  -9   2  124.69    5.40
  -3  -9   2  120.99    8.00
  -3  -9   2  126.59    8.50
   2   9  -2    0.80    3.40
   2   9  -2    1.90    4.70
   2   9  -2    2.00    2.20
  -2  -9   2    0.30    4.20
  -2  -9   2    2.00    3.70
   1   9  -2  188.58    9.60
   1   9  -2  194.88    8.00
  -1  -9   2  190.18   10.20
   0   9  -2  202.48   10.10
   0   9  -2  189.88    8.00
   0  -9   2  220.28   11.30
  -1   9  -2   17.70    5.00
  -1   9  -2   19.90    3.20
   1  -9   2   27.40    5.90
  -2   9  -2    6.10    3.70
  -2   9  -2    3.30    5.90
   2  -9   2    1.90    5.50
   9   8  -2    3.80    6.10
  -9  -8   2    4.40    6.00
   8   8  -2   -0.40    5.30
  -8  -8   2    1.70    4.30
  -8  -8   2    1.40    5.20
   7   8  -2   70.99    7.80
  -7  -8   2   72.49    7.60
  -7  -8   2   75.89    6.40
   6   8  -2   39.00    5.90
  -6  -8   2   38.70    4.20
  -6  -8   2   46.40    5.60
   5   8  -2  112.89    8.20
   5   8  -2  119.69    6.50
  -5  -8   2  131.09    7.20
  -5  -8   2  119.29    6.10
  -5  -8   2  114.29    7.40
   4   8  -2  123.99    6.30
   4   8  -2  119.19    8.50
   4   8  -2  112.39    6.70
  -4  -8   2  119.29    5.70
  -4  -8   2  131.69    7.80
  -4  -8   2  132.19    7.50
   3   8  -2  211.88    8.90
   3   8  -2  199.68    8.20
   3   8  -2  214.18   10.70
  -3  -8   2  203.98    7.70
  -3  -8   2  195.28    9.60
  -3  -8   2  207.18    9.20
   2   8  -2  562.44   19.30
   2   8  -2  596.44   20.80
   2   8  -2  546.55   18.30
  -2  -8   2  540.15   20.10
  -2  -8   2  565.54   19.70
  -2  -8   2  560.54   17.40
   1   8  -2  151.18    7.90
   1   8  -2  166.18    6.80
   1   8  -2  179.98    9.50
  -1  -8   2  168.38    9.10
  -1  -8   2  161.38    8.30
   0   8  -2  105.39    5.00
   0   8  -2   97.29    6.90
   0  -8   2   92.79    7.00
  -1   8  -2   71.09    6.40
  -1   8  -2   57.29    4.00
   1  -8   2   62.39    6.50
  -2   8  -2    4.00    4.00
  -2   8  -2    4.10    2.10
   2  -8   2    5.60    5.10
  -3   8  -2    0.50    2.40
  -3   8  -2    1.60    5.10
   3  -8   2    0.70    5.40
   9   7  -2   86.89    9.30
  -9  -7   2  107.59    9.90
   8   7  -2   24.10    6.20
  -8  -7   2   29.70    5.40
  -8  -7   2   25.30    4.50
   7   7  -2   71.19    7.20
  -7  -7   2   52.69    5.60
  -7  -7   2   67.09    6.90
   6   7  -2  202.98   10.80
  -6  -7   2  190.28    9.30
  -6  -7   2  193.78    8.60
   5   7  -2   22.40    3.00
   5   7  -2   20.10    4.30
  -5  -7   2   14.80    2.70
  -5  -7   2   17.70    3.50
  -5  -7   2   12.60    3.40
   4   7  -2   11.60    3.60
   4   7  -2   14.20    2.50
  -4  -7   2    9.60    3.10
  -4  -7   2    7.50    2.10
  -4  -7   2   17.20    3.20
   3   7  -2    0.90    3.40
   3   7  -2   -0.10    1.70
  -3  -7   2    0.30    2.50
  -3  -7   2   -0.70    1.50
  -3  -7   2   -0.20    2.80
   2   7  -2  104.99    5.10
   2   7  -2  108.59    5.80
   2   7  -2  112.89    7.40
  -2  -7   2  109.89    6.70
  -2  -7   2  103.69    6.10
  -2  -7   2  123.49    4.50
   1   7  -2  550.14   18.90
   1   7  -2  556.74   17.90
   1   7  -2  584.84   20.00
  -1  -7   2  561.84   19.60
  -1  -7   2  544.75   19.20
   0   7  -2  196.78    7.10
   0   7  -2  193.88    8.40
   0  -7   2  179.18    8.80
   0  -7   2  191.28    8.70
  -1   7  -2   73.09    5.40
  -1   7  -2   65.89    3.60
   1  -7   2   66.89    5.80
  -2   7  -2  198.98    9.30
  -2   7  -2  209.18    7.50
   2  -7   2  202.78   10.30
  -3   7  -2   16.20    2.30
  -3   7  -2   12.60    3.90
   3  -7   2   13.80    4.90
  -4   7  -2  269.07    9.50
  -4   7  -2  293.87   12.60
   4  -7   2  233.28   12.40
  -5   7  -2    4.80    6.10
  10   6  -2   17.20    6.40
 -10  -6   2   17.90    6.30
   9   6  -2   -0.10    5.70
   9   6  -2    1.10    4.80
  -9  -6   2   -1.00    5.20
   8   6  -2   77.79    7.50
  -8  -6   2   67.69    6.60
   7   6  -2   96.19    7.40
  -7  -6   2   77.59    6.30
  -7  -6   2   86.99    6.30
   6   6  -2   62.89    6.10
  -6  -6   2   70.69    5.10
  -6  -6   2   66.59    5.40
  -6  -6   2   56.19    5.60
   5   6  -2   46.80    4.00
   5   6  -2   55.39    5.40
  -5  -6   2   52.39    4.60
  -5  -6   2   59.59    4.30
  -5  -6   2   57.89    4.30
   4   6  -2  379.76   12.90
   4   6  -2  386.76   14.90
  -4  -6   2  377.76   13.40
  -4  -6   2  376.96   12.80
  -4  -6   2  370.06   13.80
   3   6  -2  425.06   16.00
   3   6  -2  448.16   14.30
  -3  -6   2  423.06   14.90
  -3  -6   2  436.76   14.10
  -3  -6   2  426.56   15.20
   2   6  -2   49.10    5.00
   2   6  -2   58.69    3.40
  -2  -6   2   60.79    3.00
  -2  -6   2   53.69    4.10
  -2  -6   2   57.99    4.60
   1   6  -2   77.69    4.60
   1   6  -2   73.99    5.30
   1   6  -2   75.29    3.90
  -1  -6   2   91.59    3.20
  -1  -6   2   89.39    3.50
  -1  -6   2   88.19    5.10
  -1  -6   2   74.89    4.90
   0   6  -2  408.76   15.00
   0   6  -2  414.36   14.40
   0   6  -2  419.96   13.30
   0  -6   2  400.56   14.60
   0  -6   2  418.66   14.90
  -1   6  -2   18.90    2.00
  -1   6  -2   17.70    3.00
   1  -6   2   14.00    3.00
   1  -6   2   15.30    3.30
  -2   6  -2    6.50    2.90
  -2   6  -2    6.30    1.50
   2  -6   2    6.30    3.00
  -3   6  -2  154.98    5.80
  -3   6  -2  144.79    7.40
   3  -6   2  161.38    8.60
  -4   6  -2  445.36   16.30
  -4   6  -2  438.76   14.40
   4  -6   2  467.05   17.40
  -5   6  -2  244.78    8.90
  -5   6  -2  257.37   11.90
  -5   6  -2  263.27   11.50
   5  -6   2  225.58   12.50
  10   5  -2   54.99    7.20
 -10  -5   2   56.39    8.10
   9   5  -2    0.90    5.60
   9   5  -2    3.20    4.40
  -9  -5   2    1.20    4.90
   8   5  -2   30.00    5.00
   8   5  -2   30.40    5.20
  -8  -5   2   24.70    5.00
   7   5  -2  307.07   12.30
   7   5  -2  301.07   13.20
  -7  -5   2  311.37   11.90
  -7  -5   2  284.87   12.00
   6   5  -2  284.57   11.70
   6   5  -2  283.97   11.00
  -6  -5   2  257.37   10.60
  -6  -5   2  261.87   10.00
  -6  -5   2  240.38   10.10
   5   5  -2  442.36   14.50
   5   5  -2  419.66   16.00
  -5  -5   2  435.26   14.70
  -5  -5   2  416.16   14.50
  -5  -5   2  420.16   15.00
   4   5  -2   31.90    4.00
   4   5  -2   33.90    2.90
  -4  -5   2   33.80    3.30
  -4  -5   2   29.90    2.90
  -4  -5   2   28.70    3.30
   3   5  -2  293.67   10.50
   3   5  -2  314.77   12.20
  -3  -5   2  310.97   11.30
  -3  -5   2  320.07   11.10
  -3  -5   2  312.87   10.50
   2   5  -2  513.15   17.60
   2   5  -2  500.65   16.00
  -2  -5   2  481.35   15.80
  -2  -5   2  515.75   16.80
  -2  -5   2  510.25   16.70
   1   5  -2  437.16   15.40
   1   5  -2  430.36   13.90
  -1  -5   2  417.76   14.80
  -1  -5   2  437.36   13.50
  -1  -5   2  428.96   14.90
  -1  -5   2  468.85   13.70
   0   5  -2   30.80    2.10
   0   5  -2   28.90    2.80
   0   5  -2   27.40    3.40
   0  -5   2   31.90    3.10
   0  -5   2   36.10    3.20
  -1   5  -2  475.85   16.30
  -1   5  -2  482.95   16.10
  -1   5  -2  483.55   14.90
   1  -5   2  490.75   16.30
   1  -5   2  470.05   16.50
  -2   5  -2  291.87    9.40
  -2   5  -2  295.87   11.00
   2  -5   2  299.27   11.40
  -3   5  -2   90.09    5.20
  -3   5  -2   88.29    3.60
   3  -5   2   86.69    5.60
  -4   5  -2   13.30    1.60
  -4   5  -2    9.10    2.90
   4  -5   2    8.60    3.40
  -5   5  -2  374.66   13.50
  -5   5  -2  347.57   13.80
  -5   5  -2  356.26   11.70
   5  -5   2  348.07   14.40
  -6   5  -2  176.88   10.00
  -6   5  -2  164.48    6.80
   6  -5   2  172.18   10.70
  10   4  -2  112.99    9.40
 -10  -4   2   98.29    9.90
   9   4  -2  231.18   11.20
  -9  -4   2  220.28   11.00
   8   4  -2  303.77   12.50
   8   4  -2  303.67   13.20
  -8  -4   2  294.87   12.40
   7   4  -2   80.99    5.90
   7   4  -2   68.89    6.40
  -7  -4   2   76.89    6.00
   6   4  -2   60.59    5.60
   6   4  -2   42.50    4.50
  -6  -4   2   55.39    3.90
  -6  -4   2   50.59    4.60
  -6  -4   2   52.69    4.40
   5   4  -2   99.79    5.50
   5   4  -2  108.29    6.10
   5   4  -2  118.69    5.20
  -5  -4   2   90.89    5.00
  -5  -4   2  101.29    5.20
  -5  -4   2   91.79    4.80
   4   4  -2  363.86   12.90
   4   4  -2  292.17   11.70
   4   4  -2  332.67   11.40
  -4  -4   2  356.96   11.90
  -4  -4   2  338.27   11.50
  -4  -4   2  348.27   11.60
   3   4  -2  380.06   12.50
   3   4  -2  368.76   11.90
   3   4  -2  370.76   13.30
  -3  -4   2  352.96   11.90
  -3  -4   2  358.86   12.20
  -3  -4   2  346.97   12.30
   2   4  -2 1713.33   51.79
   2   4  -2 1688.43   53.09
  -2  -4   2 1688.33   52.29
  -2  -4   2 1842.42   52.49
  -2  -4   2 1702.63   51.69
   1   4  -2   12.70    2.30
   1   4  -2   12.00    1.30
  -1  -4   2   13.90    1.70
  -1  -4   2   15.70    2.20
  -1  -4   2    9.90    1.80
  -1  -4   2   16.00    1.30
   0   4  -2  563.24   17.60
   0   4  -2  584.04   18.70
   0   4  -2  576.14   17.50
   0  -4   2  572.74   18.50
   0  -4   2  577.04   18.50
  -1   4  -2   40.50    2.90
  -1   4  -2   42.50    2.00
  -1   4  -2   47.30    2.10
  -1   4  -2   46.50    3.40
   1  -4   2   45.70    3.30
   1  -4   2   46.30    3.20
  -2   4  -2  101.29    3.60
  -2   4  -2  100.09    3.70
  -2   4  -2  101.99    4.80
  -2   4  -2   98.29    4.80
   2  -4   2  115.19    5.30
   2  -4   2  111.29    5.10
  -3   4  -2  259.47    9.50
  -3   4  -2  253.07    8.10
   3  -4   2  258.67   10.10
  -4   4  -2   61.39    4.10
  -4   4  -2   49.60    2.50
   4  -4   2   43.60    4.50
  -5   4  -2    0.50    1.30
  -5   4  -2   -0.60    2.70
  -5   4  -2    1.10    2.70
   5  -4   2   -0.40    3.00
  -6   4  -2  295.27   12.20
  -6   4  -2  292.97   10.00
   6  -4   2  286.47   12.60
  -7   4  -2  185.78   10.70
  -7   4  -2  188.58    7.60
   7  -4   2  185.48   11.20
  10   3  -2   -1.10    4.80
 -10  -3   2    0.70    6.30
   9   3  -2   36.00    5.20
  -9  -3   2   37.80    5.90
   8   3  -2  306.57   12.10
  -8  -3   2  269.97   11.80
   7   3  -2  208.58    9.50
   7   3  -2  194.98    9.00
  -7  -3   2  198.08    8.80
   6   3  -2    1.10    2.70
   6   3  -2    1.90    2.20
  -6  -3   2    1.60    2.50
  -6  -3   2    1.50    2.10
  -6  -3   2    0.70    2.40
  -6  -3   2    1.40    1.80
   5   3  -2   67.49    4.60
   5   3  -2   79.19    4.40
   5   3  -2   68.79    5.20
  -5  -3   2   83.39    4.60
  -5  -3   2   72.89    4.40
  -5  -3   2   79.99    4.10
  -5  -3   2   82.69    3.90
   4   3  -2  406.46   13.40
   4   3  -2  384.96   13.90
   4   3  -2  397.76   12.90
  -4  -3   2  410.56   12.60
  -4  -3   2  393.96   13.00
  -4  -3   2  375.46   13.10
  -4  -3   2  370.96   12.70
   3   3  -2  762.02   23.10
   3   3  -2  734.73   24.10
   3   3  -2  762.32   23.40
  -3  -3   2  737.13   23.10
  -3  -3   2  739.33   23.30
  -3  -3   2  739.23   22.80
  -3  -3   2  744.63   23.10
   2   3  -2  527.55   17.40
   2   3  -2  522.95   16.40
   2   3  -2  534.35   16.70
  -2  -3   2  530.95   16.40
  -2  -3   2  531.45   16.70
  -2  -3   2  514.15   16.70
   1   3  -2   50.39    3.10
   1   3  -2   51.59    2.20
  -1  -3   2   46.80    2.80
  -1  -3   2   47.20    2.10
  -1  -3   2   54.89    2.70
  -1  -3   2   56.69    2.40
   0   3  -2  191.48    6.10
   0   3  -2  192.48    7.00
   0   3  -2  191.38    6.20
   0  -3   2  195.68    7.00
   0  -3   2  198.38    7.00
  -1   3  -2  376.46   11.60
  -1   3  -2  381.06   12.50
  -1   3  -2  381.26   12.50
  -1   3  -2  393.56   11.60
   1  -3   2  379.46   12.70
   1  -3   2  388.06   12.70
  -2   3  -2   44.90    1.90
  -2   3  -2   53.59    1.90
  -2   3  -2   53.19    2.90
  -2   3  -2   49.90    2.90
   2  -3   2   53.39    3.10
   2  -3   2   54.79    3.00
   2  -3   2   49.30    3.30
  -3   3  -2  526.95   16.20
  -3   3  -2  522.55   17.10
  -3   3  -2  527.65   16.80
  -3   3  -2  528.05   16.10
   3  -3   2  563.74   17.00
   3  -3   2  535.45   17.70
  -4   3  -2  247.08    7.90
  -4   3  -2  246.68    9.10
   4  -3   2  249.48    9.90
  -5   3  -2  137.89    6.80
  -5   3  -2  128.89    4.80
  -5   3  -2  123.99    5.80
   5  -3   2  141.89    7.40
  -6   3  -2  104.19    4.40
  -6   3  -2  100.49    6.40
   6  -3   2  103.69    6.80
  -7   3  -2   88.99    4.60
  -7   3  -2   85.29    6.60
   7  -3   2   85.79    7.10
  -8   3  -2  255.57   12.30
  -8   3  -2  241.18    9.40
 -10  -2   2  240.58   12.80
   9   2  -2   27.60    4.70
  -9  -2   2   33.50    5.70
   8   2  -2    6.00    3.20
  -8  -2   2    6.40    3.80
  -8  -2   2    4.30    3.40
   7   2  -2   76.29    5.40
  -7  -2   2   67.29    5.50
  -7  -2   2   73.39    4.60
   6   2  -2  241.78    9.70
   6   2  -2  232.48    9.60
  -6  -2   2  232.48    8.60
  -6  -2   2  241.58    8.80
  -6  -2   2  244.98    9.50
   5   2  -2    1.30    2.10
   5   2  -2    0.50    1.80
  -5  -2   2    1.50    1.60
  -5  -2   2   -0.40    1.30
  -5  -2   2    0.20    1.90
  -5  -2   2   -0.20    1.80
   4   2  -2   80.29    4.00
   4   2  -2   92.19    4.80
   4   2  -2   78.99    4.30
  -4  -2   2   86.49    3.70
  -4  -2   2   84.19    4.10
  -4  -2   2   78.89    3.70
  -4  -2   2   79.89    4.00
   3   2  -2  645.94   19.80
   3   2  -2  620.14   20.70
   3   2  -2  654.43   20.20
  -3  -2   2  618.44   19.80
  -3  -2   2  635.54   20.00
  -3  -2   2  666.33   19.70
   2   2  -2 4210.18  125.49
   2   2  -2 4041.70  124.69
   2   2  -2 4082.09  124.99
  -2  -2   2 4230.68  124.79
  -2  -2   2 4314.47  124.59
  -2  -2   2 4227.18  124.89
  -2  -2   2 4394.56  124.89
   1   2  -2 3709.73  108.99
   1   2  -2 3588.34  108.19
  -1  -2   2 3597.64  108.29
  -1  -2   2 3591.94  108.69
  -1  -2   2 3828.22  108.59
   0   2  -2  525.45   16.00
   0   2  -2  543.25   16.10
   0   2  -2  528.05   16.70
   0  -2   2  532.65   16.80
   0  -2   2  531.75   16.70
   0  -2   2  556.64   16.60
  -1   2  -2  294.37    9.70
   1  -2   2  301.37    9.80
   1  -2   2  308.47    9.90
   1  -2   2  303.77    9.90
  -2   2  -2   49.40    2.60
   2  -2   2   49.30    2.80
   2  -2   2   48.60    2.60
   2  -2   2   52.39    2.70
  -3   2  -2  115.59    4.70
  -3   2  -2  120.89    3.90
  -3   2  -2  121.09    4.00
   3  -2   2  125.99    5.30
   3  -2   2  137.69    4.90
  -4   2  -2  107.89    3.80
  -4   2  -2  108.39    4.70
  -4   2  -2  119.99    4.30
  -4   2  -2  100.79    5.00
   4  -2   2  112.19    5.40
   4  -2   2  122.89    4.70
  -5   2  -2  775.22   24.30
  -5   2  -2  754.82   24.90
  -5   2  -2  780.02   23.50
   5  -2   2  790.22   25.40
  -6   2  -2  268.77    9.10
  -6   2  -2  273.07   10.80
   6  -2   2  282.07   11.20
  -7   2  -2  111.29    4.90
  -7   2  -2  109.59    7.10
  -8   2  -2   -1.00    2.10
  -8   2  -2   -1.10    4.30
  -9   2  -2   71.69    7.30
   9   1  -2   95.09    7.30
  -9  -1   2  104.79    8.60
   8   1  -2  130.99    7.50
  -8  -1   2  131.89    8.00
  -8  -1   2  144.99    6.90
   7   1  -2   28.20    3.70
  -7  -1   2   34.70    4.20
  -7  -1   2   35.60    3.80
   6   1  -2  159.18    7.60
  -6  -1   2  170.88    6.90
  -6  -1   2  177.18    6.80
  -6  -1   2  180.48    7.40
   5   1  -2 1051.89   33.90
   5   1  -2 1104.39   33.70
  -5  -1   2 1093.49   33.10
  -5  -1   2 1079.89   33.30
  -5  -1   2 1097.29   33.70
   4   1  -2 1176.88   37.00
   4   1  -2 1207.08   37.10
   4   1  -2 1261.27   36.70
  -4  -1   2 1181.58   36.40
  -4  -1   2 1232.58   36.80
  -4  -1   2 1206.68   36.80
  -4  -1   2 1168.78   36.50
   3   1  -2   46.90    2.90
   3   1  -2   58.09    3.30
  -3  -1   2   51.09    2.60
  -3  -1   2   49.90    2.80
  -3  -1   2   52.59    2.70
  -3  -1   2   52.79    2.40
   2   1  -2  174.78    6.10
   2   1  -2  167.98    6.30
   2   1  -2  180.78    5.90
  -2  -1   2  174.78    5.90
  -2  -1   2  175.88    5.70
  -2  -1   2  172.68    5.80
  -2  -1   2  171.68    6.00
   1   1  -2   24.60    1.70
   1   1  -2   24.00    1.30
  -1  -1   2   22.60    1.40
  -1  -1   2   22.70    1.30
  -1  -1   2   24.60    1.60
   0   1  -2 3481.65  104.19
   0   1  -2 3519.15  104.19
   0   1  -2 3384.06  103.79
   0  -1   2 3453.35  104.19
   0  -1   2 3538.45  104.29
   0  -1   2 3729.43  104.19
   0  -1   2 3540.45  104.19
   0  -1   2 3510.95  103.89
   1  -1   2 1235.08   36.40
   1  -1   2 1237.08   36.50
   1  -1   2 1170.58   36.40
   2  -1   2  494.35   15.00
   2  -1   2  473.55   15.00
   2  -1   2  478.85   15.10
  -3   1  -2 1165.08   35.60
  -3   1  -2 1181.68   36.10
  -3   1  -2 1229.68   36.50
  -3   1  -2 1196.18   35.70
   3  -1   2 1206.58   36.20
   3  -1   2 1247.18   36.30
   3  -1   2 1201.58   36.70
  -4   1  -2  808.12   25.00
  -4   1  -2  839.52   24.80
  -4   1  -2  814.32   24.60
  -4   1  -2  791.52   25.60
   4  -1   2  840.72   25.20
   4  -1   2  825.62   25.90
  -5   1  -2   65.19    3.40
  -5   1  -2   64.99    4.00
  -5   1  -2   67.39    2.80
   5  -1   2   68.39    3.60
   5  -1   2   64.19    4.20
  -6   1  -2  266.67   10.30
  -6   1  -2  261.77    8.80
  -7   1  -2    5.50    1.60
  -7   1  -2    7.50    3.10
  -8   1  -2   39.10    3.50
  -8   1  -2   46.30    5.50
  -9   1  -2   11.00    4.80
  -9   1  -2   13.10    3.00
   9   0  -2    0.60    3.80
  -9   0   2    3.90    3.90
  -9   0   2    1.70    5.40
   8   0  -2  288.07   12.10
  -8   0   2  316.57   13.20
  -8   0   2  328.07   11.80
   7   0  -2  317.77   12.50
  -7   0   2  340.77   12.00
  -7   0   2  343.67   13.00
   6   0  -2    7.10    2.50
  -6   0   2    4.30    2.30
  -6   0   2    5.30    1.90
  -6   0   2    5.60    2.50
   5   0  -2  103.29    5.10
  -5   0   2   89.79    4.60
  -5   0   2   87.59    4.10
  -5   0   2   92.49    4.80
   4   0  -2  732.33   22.50
   4   0  -2  709.73   22.90
  -4   0   2  762.62   22.80
  -4   0   2  674.73   22.30
  -4   0   2  727.13   22.60
  -4   0   2  754.52   22.80
   3   0  -2  718.43   22.00
   3   0  -2  723.43   21.80
   3   0  -2  688.03   22.10
  -3   0   2  713.83   21.90
  -3   0   2  715.73   21.90
  -3   0   2  668.13   21.90
  -3   0   2  730.23   21.60
   2   0  -2   49.70    2.50
   2   0  -2   48.10    2.50
   2   0  -2   51.49    2.30
  -2   0   2   50.89    2.40
  -2   0   2   48.80    2.20
  -2   0   2   46.10    2.40
  -2   0   2   46.80    2.10
   1   0  -2 1075.99   32.60
   1   0  -2 1106.09   32.70
   1   0  -2 1075.19   32.50
  -1   0   2 1117.29   32.40
  -1   0   2 1084.09   32.60
  -1   0   2 1075.49   32.70
  -1   0   2 1075.39   32.70
  -1   0   2 1101.69   32.40
   0   0  -2  268.77    8.10
   0   0   2  264.17    8.30
   0   0   2  266.57    8.50
  -1   0  -2 2697.03   78.49
  -1   0  -2 2730.73   78.59
  -1   0  -2 2575.04   78.59
   1   0   2 2681.93   78.59
   1   0   2 2583.44   78.49
   1   0   2 2685.63   78.89
  -2   0  -2 1866.01   56.49
  -2   0  -2 1992.40   55.99
  -2   0  -2 1799.22   55.99
   2   0   2 1915.31   56.69
   2   0   2 1899.11   56.59
   2   0   2 1928.51   56.29
  -3   0  -2   52.99    1.90
  -3   0  -2   49.60    2.00
  -3   0  -2   51.29    2.10
  -3   0  -2   53.29    2.60
   3   0   2   53.29    2.60
  -4   0  -2  365.66   11.20
  -4   0  -2  346.67   11.80
  -4   0  -2  359.36   11.10
  -4   0  -2  344.67   11.00
   4   0   2  365.96   11.70
  -5   0  -2 1081.19   33.00
  -5   0  -2 1132.29   33.00
  -5   0  -2 1048.00   33.90
   5   0   2 1126.19   33.60
  -6   0  -2    0.80    1.00
  -6   0  -2    0.60    2.10
   6   0   2    1.00    2.00
  -7   0  -2    1.50    1.50
  -7   0  -2    0.80    2.40
  -8   0  -2   42.30    3.40
  -8   0  -2   37.90    4.70
  -9   0  -2   67.29    5.00
  -9   0  -2   74.79    7.50
 -10   0  -2  125.69   14.70
 -10   0  -2  111.99    7.20
  -9   1   2  105.69    7.80
  -9   1   2   91.29    9.80
   8  -1  -2    2.30    3.00
  -8   1   2    4.20    2.90
  -8   1   2    2.30    4.00
   7  -1  -2  116.59    6.30
  -7   1   2  120.49    6.00
  -7   1   2  120.69    7.30
   6  -1  -2  309.17   11.60
  -6   1   2  323.17   11.60
  -6   1   2  315.27   12.10
  -6   1   2  319.77   11.10
   5  -1  -2  208.98    8.00
  -5   1   2  187.38    7.20
  -5   1   2  197.58    8.10
  -5   1   2  200.88    7.80
   4  -1  -2   70.19    4.00
   4  -1  -2   61.99    4.10
  -4   1   2   66.89    3.60
  -4   1   2   72.59    3.40
  -4   1   2   74.09    4.00
   3  -1  -2  755.42   23.20
   3  -1  -2  761.42   22.70
   3  -1  -2  723.73   23.50
   3  -1  -2  705.93   23.30
  -3   1   2  798.32   23.30
  -3   1   2  783.92   23.30
  -3   1   2  726.23   22.90
   2  -1  -2 2955.10   88.19
   2  -1  -2 2888.21   88.59
   2  -1  -2 2991.70   88.69
  -2   1   2 3085.39   88.49
  -2   1   2 3010.60   88.59
  -2   1   2 2909.51   88.19
  -2   1   2 3015.60   88.49
   1  -1  -2  264.57    8.70
   1  -1  -2  262.37    8.60
   1  -1  -2  271.37    8.50
  -1   1   2  260.67    8.70
  -1   1   2  267.97    8.60
  -1   1   2  278.97    8.50
  -1   1   2  282.97    8.40
   0  -1  -2   46.50    1.80
   0  -1  -2   48.10    1.80
   0  -1  -2   47.80    2.00
   0   1   2   46.90    2.00
   0   1   2   44.90    1.80
   0   1   2   47.10    2.00
   0   1   2   49.60    2.00
  -1  -1  -2  205.28    6.60
  -1  -1  -2  217.38    6.60
   1   1   2  212.78    6.60
   1   1   2  210.68    6.90
  -2  -1  -2 1510.25   44.00
  -2  -1  -2 1400.46   43.70
   2   1   2 1496.45   43.70
   2   1   2 1467.65   44.20
   2   1   2 1494.35   43.60
  -3  -1  -2 1260.67   38.10
  -3  -1  -2 1234.38   38.50
   3   1   2 1288.07   38.10
   3   1   2 1271.27   38.70
   3   1   2 1341.27   38.10
  -4  -1  -2   45.80    2.00
  -4  -1  -2   38.30    2.60
  -4  -1  -2   41.90    1.60
   4   1   2   46.20    2.70
   4   1   2   45.00    2.00
   4   1   2   42.40    2.00
  -5  -1  -2  453.25   14.30
  -5  -1  -2  443.66   15.10
  -5  -1  -2  476.95   14.00
   5   1   2  462.25   15.10
   5   1   2  467.95   14.20
   5   1   2  454.55   14.20
  -6  -1  -2  796.02   25.00
  -6  -1  -2  756.22   23.90
   6   1   2  799.72   23.80
   6   1   2  770.42   24.70
  -7  -1  -2  141.99    5.60
  -7  -1  -2  134.69    6.70
   7   1   2  148.39    6.70
   7   1   2  142.79    5.20
  -8  -1  -2   24.10    4.00
  -8  -1  -2   25.90    2.70
   8   1   2   22.60    2.10
  -9  -1  -2   85.09    5.30
  -9  -1  -2   91.69    6.90
 -10  -1  -2  211.28   11.50
 -10  -1  -2  220.68    9.50
   8  -2  -2  176.88    8.10
  -8   2   2  178.78   10.90
  -8   2   2  195.58    9.00
   7  -2  -2    0.40    2.50
  -7   2   2   -0.20    2.30
  -7   2   2    1.60    3.90
   6  -2  -2   17.20    2.90
  -6   2   2   24.60    3.80
  -6   2   2   21.10    3.90
  -6   2   2   25.10    2.90
   5  -2  -2   62.69    4.30
   5  -2  -2   73.49    5.40
  -5   2   2   70.29    3.80
  -5   2   2   61.39    4.50
  -5   2   2   66.89    4.40
   4  -2  -2  264.97    9.30
   4  -2  -2  249.08    9.70
  -4   2   2  272.07    9.60
  -4   2   2  262.47    8.80
  -4   2   2  236.98    9.30
   3  -2  -2  142.39    5.60
   3  -2  -2  134.09    5.90
  -3   2   2  145.99    5.20
  -3   2   2  147.19    5.70
  -3   2   2  138.19    5.60
   2  -2  -2  534.55   16.30
   2  -2  -2  500.75   16.40
  -2   2   2  526.35   16.20
  -2   2   2  503.95   15.90
  -2   2   2  511.25   16.40
   1  -2  -2 7257.77  218.78
   1  -2  -2 7382.96  219.18
   1  -2  -2 6831.32  218.98
  -1   2   2 7762.12  219.18
  -1   2   2 7553.44  219.08
  -1   2   2 7653.43  218.98
  -1   2   2 7474.65  218.78
   0  -2  -2  771.42   24.20
   0  -2  -2  811.42   23.90
   0  -2  -2  803.52   24.10
   0   2   2  776.32   24.10
   0   2   2  773.12   24.10
   0   2   2  787.52   23.90
   0   2   2  841.22   24.00
  -1  -2  -2   16.90    1.30
  -1  -2  -2   19.50    1.40
  -1  -2  -2   20.70    1.20
   1   2   2   20.50    1.20
   1   2   2   18.90    1.10
   1   2   2   15.20    1.40
   1   2   2   17.90    1.30
  -2  -2  -2   89.19    3.10
  -2  -2  -2   80.19    3.30
  -2  -2  -2   84.49    3.40
   2   2   2   88.59    3.10
   2   2   2   85.99    3.60
   2   2   2   83.19    3.20
   2   2   2   91.99    3.00
  -3  -2  -2    3.90    0.90
  -3  -2  -2    4.10    1.10
  -3  -2  -2    2.90    1.10
   3   2   2    2.30    0.80
   3   2   2    1.70    1.10
  -4  -2  -2  972.10   30.20
  -4  -2  -2  995.80   29.70
   4   2   2  980.20   29.80
   4   2   2  989.80   30.40
  -5  -2  -2   15.10    1.60
  -5  -2  -2   13.00    2.00
   5   2   2   12.70    1.70
   5   2   2   13.70    1.60
   5   2   2   15.10    2.20
  -6  -2  -2  346.97   11.40
  -6  -2  -2  339.27   12.30
   6   2   2  357.86   12.40
   6   2   2  360.36   11.60
  -7  -2  -2  877.51   27.70
  -7  -2  -2  852.31   26.50
   7   2   2  856.81   27.50
   7   2   2  845.72   26.50
  -8  -2  -2  368.76   13.70
  -8  -2  -2  362.16   12.40
   8   2   2  359.06   12.10
  -9  -2  -2   31.00    3.30
  -9  -2  -2   31.40    4.70
   9   2   2   29.10    3.10
 -10  -2  -2   20.60    3.60
 -10  -2  -2   25.60    5.90
  10   2   2   25.60    3.00
   7  -3  -2   12.40    2.80
  -7   3   2   14.70    3.50
  -7   3   2   11.10    4.40
   6  -3  -2   13.80    4.40
   6  -3  -2   12.00    2.70
  -6   3   2   12.50    2.70
  -6   3   2   10.90    3.80
  -6   3   2   19.00    4.30
   5  -3  -2    2.20    3.30
   5  -3  -2    2.10    2.30
  -5   3   2    1.50    2.90
  -5   3   2    1.40    2.60
  -5   3   2    3.30    1.90
   4  -3  -2   56.19    3.80
   4  -3  -2   48.70    4.60
  -4   3   2   52.39    4.30
  -4   3   2   53.29    3.90
  -4   3   2   53.09    3.30
   3  -3  -2 1724.93   52.09
   3  -3  -2 1704.23   52.79
  -3   3   2 1745.53   51.79
  -3   3   2 1729.23   52.49
   2  -3  -2  928.41   29.00
   2  -3  -2  952.10   29.50
  -2   3   2  928.61   29.20
  -2   3   2  975.00   28.70
   1  -3  -2  358.06   11.50
   1  -3  -2  335.17   11.80
  -1   3   2  370.16   10.90
  -1   3   2  349.77   11.20
  -1   3   2  362.66   11.60
  -1   3   2  349.17   11.70
   0  -3  -2  377.66   12.10
   0  -3  -2  370.96   11.60
   0  -3  -2  364.26   11.80
   0   3   2  378.36   11.60
   0   3   2  360.86   11.80
   0   3   2  358.86   11.80
   0   3   2  373.36   11.50
  -1  -3  -2   74.29    3.00
  -1  -3  -2   69.39    2.80
  -1  -3  -2   68.19    3.10
   1   3   2   65.69    3.00
   1   3   2   69.49    3.00
   1   3   2   68.39    2.90
   1   3   2   67.59    2.80
  -2  -3  -2  227.28    7.10
  -2  -3  -2  219.28    7.50
  -2  -3  -2  199.98    7.30
   2   3   2  211.58    7.30
   2   3   2  220.18    7.10
   2   3   2  216.88    7.60
   2   3   2  225.78    7.10
  -3  -3  -2  515.05   17.00
  -3  -3  -2  556.64   16.60
  -3  -3  -2  561.14   16.90
   3   3   2  525.25   16.80
   3   3   2  542.75   16.30
   3   3   2  520.65   17.20
   3   3   2  537.55   16.50
  -4  -3  -2 1659.13   50.09
  -4  -3  -2 1678.23   50.69
  -4  -3  -2 1582.54   50.39
   4   3   2 1666.23   50.29
   4   3   2 1639.44   50.89
   4   3   2 1752.42   49.50
   4   3   2 1722.43   49.99
  -5  -3  -2 2106.79   61.69
  -5  -3  -2 2006.90   61.79
  -5  -3  -2 2014.10   61.19
   5   3   2 2058.29   61.49
   5   3   2 2038.20   62.09
  -6  -3  -2  601.64   18.60
  -6  -3  -2  586.74   19.40
   6   3   2  608.14   19.50
   6   3   2  558.34   18.80
  -7  -3  -2    0.20    1.70
  -7  -3  -2    0.30    2.20
   7   3   2    0.40    1.60
   7   3   2    1.00    2.40
  -8  -3  -2   93.29    5.00
  -8  -3  -2   97.39    6.40
   8   3   2  101.99    6.20
   8   3   2   96.99    5.10
  -9  -3  -2   28.80    4.50
  -9  -3  -2   25.60    3.30
   9   3   2   32.60    3.80
 -10  -3  -2   58.79    7.00
 -10  -3  -2   74.19    5.70
  10   3   2   56.39    4.70
 -11  -3  -2    3.30    4.50
  11   3   2    1.70    2.80
   7  -4  -2   89.79    9.10
  -7   4   2  102.69    8.70
  -7   4   2  118.19    7.20
   6  -4  -2   96.79    7.70
   6  -4  -2  104.29    5.10
  -6   4   2  109.39    7.80
  -6   4   2  105.89    7.40
  -6   4   2  107.99    6.00
   5  -4  -2   78.79    6.80
   5  -4  -2   76.29    4.50
  -5   4   2   71.19    6.10
  -5   4   2   69.89    5.90
  -5   4   2   69.89    4.50
   4  -4  -2  103.99    5.20
   4  -4  -2  104.49    6.30
  -4   4   2  101.69    6.10
  -4   4   2  100.79    4.80
  -4   4   2  101.99    5.80
   3  -4  -2  236.28    8.40
   3  -4  -2  216.68    9.30
  -3   4   2  235.38    9.00
  -3   4   2  236.88    8.10
   2  -4  -2  591.84   19.60
   2  -4  -2  575.94   18.60
  -2   4   2  584.94   18.40
  -2   4   2  610.84   19.30
   1  -4  -2   43.50    3.30
   1  -4  -2   41.60    2.60
  -1   4   2   41.40    2.90
  -1   4   2   51.49    2.60
   0  -4  -2    4.30    1.70
   0  -4  -2    4.30    1.30
   0   4   2    3.10    1.20
   0   4   2    4.30    1.50
   0   4   2    2.30    1.50
   0   4   2    4.40    1.00
  -1  -4  -2   98.29    4.10
  -1  -4  -2   83.29    4.30
  -1  -4  -2  108.19    4.00
   1   4   2   97.89    3.80
   1   4   2  103.89    4.30
   1   4   2   97.79    4.10
   1   4   2  104.19    4.20
  -2  -4  -2  224.58    7.70
  -2  -4  -2  223.08    7.50
  -2  -4  -2  219.78    8.20
   2   4   2  222.88    8.10
   2   4   2  219.18    7.40
   2   4   2  230.78    7.80
   2   4   2  233.18    7.60
  -3  -4  -2  302.17   10.80
  -3  -4  -2  295.37   10.40
  -3  -4  -2  318.97   10.10
   3   4   2  311.07   10.90
   3   4   2  310.07   10.50
   3   4   2  320.17   10.10
   3   4   2  324.77   10.00
  -4  -4  -2    4.70    1.60
  -4  -4  -2    4.70    1.90
  -4  -4  -2    5.80    1.40
   4   4   2    5.80    1.60
   4   4   2    8.40    1.90
   4   4   2    5.40    1.40
   4   4   2    7.10    1.10
  -5  -4  -2  901.61   27.00
  -5  -4  -2  854.31   26.40
  -5  -4  -2  861.51   27.20
   5   4   2  833.12   26.70
   5   4   2  830.32   27.40
  -6  -4  -2  851.91   27.30
  -6  -4  -2  863.51   26.30
   6   4   2  815.02   26.70
   6   4   2  860.61   27.60
  -7  -4  -2   44.20    4.10
  -7  -4  -2   51.39    3.60
   7   4   2   48.10    4.40
   7   4   2   47.40    3.90
  -8  -4  -2   70.69    5.40
  -8  -4  -2   73.19    4.70
   8   4   2   59.89    5.70
   8   4   2   66.39    4.80
  -9  -4  -2   28.00    3.60
  -9  -4  -2   26.70    4.70
   9   4   2   20.70    4.30
   9   4   2   21.50    3.20
 -10  -4  -2  259.37   10.90
 -10  -4  -2  276.17   12.90
  10   4   2  257.37   10.60
 -11  -4  -2   78.59    8.00
  11   4   2   71.69    6.70
   6  -5  -2   12.90    6.30
  -6   5   2   17.60    3.50
  -6   5   2   19.00    5.70
  -6   5   2   14.00    5.70
   5  -5  -2   82.29    7.90
   5  -5  -2   84.39    4.20
  -5   5   2   78.89    6.90
  -5   5   2   76.09    5.20
  -5   5   2   75.99    7.10
   4  -5  -2  333.57   13.50
   4  -5  -2  315.07   11.20
  -4   5   2  328.77   11.40
  -4   5   2  329.67   12.60
   3  -5  -2    7.00    2.00
   3  -5  -2    4.50    3.00
  -3   5   2    7.70    2.00
  -3   5   2    4.60    2.60
   2  -5  -2    7.00    1.80
   2  -5  -2    3.60    2.50
  -2   5   2    2.50    2.20
  -2   5   2    3.00    1.40
   1  -5  -2  178.68    7.60
   1  -5  -2  178.88    6.60
  -1   5   2  183.18    7.30
  -1   5   2  173.18    6.50
   0  -5  -2  249.68    9.90
   0  -5  -2  258.47    9.20
   0   5   2  281.57    9.00
   0   5   2  262.77    9.60
   0   5   2  281.77    9.20
  -1  -5  -2  228.48    9.10
  -1  -5  -2  246.78    8.50
   1   5   2  240.38    8.30
   1   5   2  251.07    8.70
   1   5   2  251.37    8.90
   1   5   2  250.97    8.80
  -2  -5  -2  105.29    5.20
  -2  -5  -2  107.69    4.40
  -2  -5  -2   99.89    4.60
   2   5   2  104.49    4.90
   2   5   2  107.29    4.90
   2   5   2  108.79    4.50
   2   5   2  111.69    4.30
  -3  -5  -2   88.19    4.80
  -3  -5  -2   86.79    4.20
  -3  -5  -2   97.49    4.00
   3   5   2   82.79    4.80
   3   5   2   86.59    4.30
   3   5   2   93.89    4.00
   3   5   2   99.49    4.00
  -4  -5  -2 1394.86   44.50
  -4  -5  -2 1398.66   44.10
  -4  -5  -2 1452.55   43.70
   4   5   2 1437.96   44.80
   4   5   2 1454.95   44.20
   4   5   2 1493.45   43.50
   4   5   2 1474.85   43.70
  -5  -5  -2  116.89    4.90
  -5  -5  -2  105.69    5.30
  -5  -5  -2  102.39    5.80
   5   5   2  107.59    5.80
   5   5   2  107.59    5.20
  -6  -5  -2  478.35   15.60
  -6  -5  -2  488.45   16.70
   6   5   2  472.75   16.20
   6   5   2  465.05   16.90
  -7  -5  -2  183.78    7.40
  -7  -5  -2  176.68    8.30
   7   5   2  177.08    8.90
   7   5   2  173.58    7.80
  -8  -5  -2   38.70    4.20
  -8  -5  -2   43.90    5.00
   8   5   2   38.50    4.50
   8   5   2   38.80    5.20
  -9  -5  -2   33.60    4.00
  -9  -5  -2   33.80    4.90
   9   5   2   36.60    5.00
   9   5   2   29.40    3.90
 -10  -5  -2    7.70    4.60
  10   5   2    7.80    3.60
  10   5   2    5.80    4.90
 -11  -5  -2  318.57   16.30
  11   5   2  317.57   15.10
   5  -6  -2    1.20    5.60
  -5   6   2   -0.30    2.90
  -5   6   2   -0.30    4.50
  -5   6   2   -0.90    4.90
   4  -6  -2   28.10    5.50
   4  -6  -2   30.30    2.90
  -4   6   2   25.40    4.50
  -4   6   2   31.40    3.40
   3  -6  -2  378.26   12.60
   3  -6  -2  382.06   15.00
  -3   6   2  385.56   12.90
  -3   6   2  364.56   14.10
   2  -6  -2  234.58   10.10
   2  -6  -2  226.48    8.30
  -2   6   2  236.98    8.40
  -2   6   2  206.38    9.30
   1  -6  -2   34.80    2.80
   1  -6  -2   40.10    4.40
  -1   6   2   36.90    3.00
  -1   6   2   38.70    4.20
   0  -6  -2   50.49    4.30
   0  -6  -2   55.79    3.50
   0   6   2   57.59    3.20
   0   6   2   59.89    4.00
  -1  -6  -2  656.83   21.50
  -1  -6  -2  644.44   20.50
   1   6   2  645.14   20.80
   1   6   2  622.84   20.80
   1   6   2  661.23   20.30
  -2  -6  -2  216.28    8.10
  -2  -6  -2  222.18    8.90
   2   6   2  220.98    8.80
   2   6   2  223.88    8.20
   2   6   2  222.68    7.80
  -3  -6  -2   94.59    5.40
  -3  -6  -2   94.59    4.70
   3   6   2   99.29    5.20
   3   6   2  108.29    4.60
   3   6   2   99.59    5.60
   3   6   2  111.89    4.80
  -4  -6  -2   84.09    4.60
  -4  -6  -2   87.99    5.10
   4   6   2   80.09    5.20
   4   6   2   95.69    4.50
   4   6   2   81.49    5.00
   4   6   2   87.39    4.20
  -5  -6  -2  394.16   13.40
  -5  -6  -2  385.06   13.80
   5   6   2  397.36   14.30
   5   6   2  358.76   13.30
   5   6   2  350.76   13.90
  -6  -6  -2  267.27   10.40
  -6  -6  -2  279.47   10.90
   6   6   2  265.57   11.30
   6   6   2  250.07   10.20
  -7  -6  -2  806.12   26.40
   7   6   2  772.72   26.90
   7   6   2  776.92   25.80
  -8  -6  -2   28.40    4.70
   8   6   2   24.80    3.80
   8   6   2   36.90    5.30
  -9  -6  -2   68.39    7.20
   9   6   2   59.89    5.80
   9   6   2   68.19    7.40
  10   6   2  124.99   10.00
  10   6   2  122.49    8.00
  11   6   2    2.00    6.50
   4  -7  -2   15.70    6.40
  -4   7   2   11.50    3.30
  -4   7   2   17.30    5.10
   3  -7  -2   72.69    3.70
   3  -7  -2   70.79    7.10
  -3   7   2   64.89    6.30
  -3   7   2   74.39    5.10
   2  -7  -2  760.82   26.30
   2  -7  -2  771.82   23.90
  -2   7   2  751.52   24.20
  -2   7   2  774.52   25.80
   1  -7  -2  387.16   15.30
   1  -7  -2  402.46   13.50
  -1   7   2  425.06   15.10
  -1   7   2  414.06   13.70
   0  -7  -2    5.10    3.10
   0  -7  -2    5.30    2.10
   0   7   2    4.40    2.90
   0   7   2    4.00    1.80
  -1  -7  -2    5.20    1.90
  -1  -7  -2    1.10    2.90
   1   7   2    2.90    2.30
   1   7   2    5.70    1.80
  -2  -7  -2   35.90    3.40
  -2  -7  -2   48.10    4.40
   2   7   2   31.80    4.20
   2   7   2   42.30    3.60
   2   7   2   48.10    3.40
  -3  -7  -2   65.59    4.30
  -3  -7  -2   64.29    5.00
   3   7   2   69.29    5.30
   3   7   2   66.39    4.10
   3   7   2   61.29    3.90
  -4  -7  -2   67.69    4.30
  -4  -7  -2   58.39    5.20
   4   7   2   64.89    4.10
   4   7   2   56.49    5.00
   4   7   2   53.99    3.90
  -5  -7  -2  215.98    9.10
   5   7   2  227.38   10.30
  -6  -7  -2  606.14   19.90
  -6  -7  -2  570.64   20.40
   6   7   2  583.24   19.90
   6   7   2  574.64   21.10
  -7  -7  -2   88.69    6.40
   7   7   2   69.19    6.20
   7   7   2   74.09    5.90
  -8  -7  -2   19.90    4.50
   8   7   2   20.00    4.70
   8   7   2   30.60    4.50
  -9  -7  -2    2.70    4.40
   9   7   2    1.30    3.50
   9   7   2    5.90    5.20
 -10  -7  -2    4.20    6.00
  10   7   2    5.20    5.90
  10   7   2    4.50    4.40
   3  -8  -2   42.40    7.50
  -3   8   2   39.50    6.20
  -3   8   2   37.60    4.30
   2  -8  -2   28.30    3.00
   2  -8  -2   27.20    6.00
  -2   8   2   31.30    5.70
  -2   8   2   29.80    3.40
   1  -8  -2  177.08    9.60
   1  -8  -2  183.08    7.10
  -1   8   2  180.28    9.40
  -1   8   2  179.68    7.70
   0  -8  -2  309.67   11.10
   0   8   2  325.17   12.60
   0   8   2  323.47   11.40
  -1  -8  -2    4.50    2.20
  -1  -8  -2    3.00    3.30
   1   8   2    3.40    2.10
   1   8   2    2.00    2.80
  -2  -8  -2   11.90    3.50
  -2  -8  -2   13.30    2.60
   2   8   2   14.60    3.40
   2   8   2   20.70    2.80
  -3  -8  -2   99.79    5.40
  -3  -8  -2  100.89    7.00
   3   8   2  109.99    5.50
   3   8   2  107.99    7.00
   3   8   2  100.89    5.70
  -4  -8  -2  418.96   15.70
  -4  -8  -2  428.46   14.60
   4   8   2  402.06   14.30
   4   8   2  424.26   16.00
   4   8   2  402.56   14.50
  -5  -8  -2   59.89    4.90
  -5  -8  -2   43.50    5.30
   5   8   2   53.59    6.40
  -6  -8  -2    4.60    3.00
  -6  -8  -2    2.90    3.50
   6   8   2    6.10    4.10
  -7  -8  -2    5.30    3.60
  -7  -8  -2    7.30    3.90
   7   8   2    7.30    4.10
  -8  -8  -2  140.99    8.90
   8   8   2  141.99    9.90
   8   8   2  135.59    8.40
  -9  -8  -2   90.99    8.20
   9   8   2   68.39    8.40
   9   8   2   78.69    7.50
 -10  -8  -2    1.50    6.70
  10   8   2    3.90    5.20
  10   8   2    0.20    5.90
  -2   9   2   24.20    4.00
   1  -9  -2   21.30    2.60
   1  -9  -2   17.50    5.90
  -1   9   2   18.50    3.60
  -1   9   2   17.10    5.60
   0  -9  -2    7.90    5.40
   0  -9  -2    9.40    2.50
   0   9   2    9.90    4.70
   0   9   2   10.80    3.10
  -1  -9  -2  259.97   11.80
  -1  -9  -2  235.28    9.40
   1   9   2  235.08   10.80
   1   9   2  248.88    9.70
  -2  -9  -2  162.98    7.30
  -2  -9  -2  176.78    9.60
   2   9   2  181.78    7.90
   2   9   2  150.68    8.20
  -3  -9  -2   13.80    4.10
  -3  -9  -2   19.70    3.10
   3   9   2   19.60    3.20
   3   9   2   18.70    4.00
  -4  -9  -2  138.09    6.90
  -4  -9  -2  135.09    8.20
   4   9   2  133.19    6.80
   4   9   2  131.49    8.20
   4   9   2  136.09    7.10
  -5  -9  -2  292.67   11.30
  -5  -9  -2  269.87   12.40
   5   9   2  283.77   13.10
  -6  -9  -2  177.28    8.50
  -6  -9  -2  160.58    9.80
   6   9   2  155.28    9.60
  -7  -9  -2   32.50    5.50
  -7  -9  -2   30.60    4.60
   7   9   2   31.90    6.00
  -8  -9  -2   11.70    5.30
   8   9   2   15.60    5.40
  -9  -9  -2  125.19   11.00
   9   9   2  129.19   11.60
  10   9   2   72.49    8.70
   0 -10  -2   93.69    4.80
   0 -10  -2   75.99   10.00
   0  10   2   96.49   13.30
  -1 -10  -2    7.80    6.30
  -1 -10  -2    7.60    2.60
   1  10   2    7.60    4.80
   1  10   2    7.70    3.30
  -2 -10  -2  363.76   13.30
  -2 -10  -2  390.26   16.20
   2  10   2  386.56   13.90
   2  10   2  354.96   15.20
  -3 -10  -2  115.29    6.80
  -3 -10  -2  111.29    8.60
   3  10   2  107.79    8.10
   3  10   2  137.19    7.30
  -4 -10  -2    1.80    3.10
  -4 -10  -2    4.20    4.30
   4  10   2    2.30    3.70
  -5 -10  -2   16.00    5.20
  -5 -10  -2   22.10    4.00
   5  10   2   17.10    4.90
  -6 -10  -2   95.49    7.30
  -6 -10  -2   91.89    8.40
   6  10   2  101.49    9.20
  -7 -10  -2   51.39    5.80
  -7 -10  -2   44.70    7.10
   7  10   2   31.20    6.50
   8  10   2   72.19    9.20
   3  11   2   81.19    9.10
  -4 -11  -2   38.20    4.80
  -4 -11  -2   34.10    7.10
   4  11   2   58.79    7.10
  -5 -11  -2   10.20    4.10
  -5 -11  -2    6.30    5.80
  -6 -11  -2   -0.10    5.80
  -6 -11  -2    0.60    4.20
   6  11   2    0.80    6.20
  -7 -11  -2  148.09    9.70
   6  10  -3   10.60    6.90
  -6 -10   3    8.90    6.50
  -6 -10   3   10.60    3.70
   5  10  -3    1.20    3.80
   5  10  -3    0.20    4.70
   5  10  -3    0.30    5.70
  -5 -10   3    0.30    5.20
  -5 -10   3    2.60    3.20
  -5 -10   3   -0.20    5.70
   4  10  -3   28.50    5.60
   4  10  -3   19.40    4.00
   4  10  -3   27.10    7.10
  -4 -10   3   30.30    6.00
  -4 -10   3   23.70    6.00
  -4 -10   3   27.70    2.90
   3  10  -3   77.49    6.10
   3  10  -3   81.99    8.10
   3  10  -3   89.89   10.00
  -3 -10   3   90.69    8.90
  -3 -10   3   68.69    8.10
   2  10  -3   37.50    4.20
   2  10  -3   55.99    6.90
  -2 -10   3   57.79    7.50
  -2 -10   3   47.00    7.00
   1  10  -3   33.90    6.10
   1  10  -3   32.90    4.00
  -1 -10   3   43.10    7.60
  -8  -9   3    4.20    4.50
  -8  -9   3    1.50    6.20
   7   9  -3   10.10    5.70
  -7  -9   3    7.40    5.70
  -7  -9   3    5.50    4.10
   6   9  -3   52.39    7.50
  -6  -9   3   58.39    6.90
  -6  -9   3   57.79    5.60
   5   9  -3   73.89    6.00
   5   9  -3   71.09    6.50
   5   9  -3   60.79    7.70
  -5  -9   3   71.69    7.20
  -5  -9   3   63.69    5.10
  -5  -9   3   68.89    7.80
   4   9  -3    5.60    3.50
   4   9  -3    8.20    5.20
   4   9  -3    6.60    3.10
  -4  -9   3    6.10    4.00
  -4  -9   3    2.70    4.20
  -4  -9   3    6.00    2.50
   3   9  -3   25.20    5.30
   3   9  -3   17.50    3.20
   3   9  -3   24.40    4.30
  -3  -9   3   22.30    2.50
  -3  -9   3   25.60    5.30
  -3  -9   3   20.90    4.50
   2   9  -3  151.28   10.10
   2   9  -3  142.39    8.20
   2   9  -3  140.39    6.90
  -2  -9   3  152.78    9.20
  -2  -9   3  155.18    9.50
   1   9  -3   57.69    6.20
   1   9  -3   55.49    4.50
  -1  -9   3   61.49    7.60
  -1  -9   3   56.79    6.60
   0   9  -3   29.50    5.60
   0   9  -3   28.30    3.20
   0  -9   3   28.00    6.40
  -1   9  -3    7.70    4.80
  -1   9  -3    6.50    2.80
   1  -9   3    4.10    5.30
   8   8  -3  130.29   11.40
  -8  -8   3  143.89    9.10
  -8  -8   3  140.19    9.90
   7   8  -3   10.10    5.60
  -7  -8   3    6.00    3.70
  -7  -8   3    7.40    4.20
   6   8  -3   16.50    5.10
  -6  -8   3   21.60    4.50
  -6  -8   3   20.80    3.40
   5   8  -3  176.08   10.20
   5   8  -3  187.58    8.30
  -5  -8   3  171.48    9.20
  -5  -8   3  175.58    9.20
  -5  -8   3  185.48    7.90
   4   8  -3  234.28    9.40
   4   8  -3  219.28   11.50
  -4  -8   3  248.88   11.10
  -4  -8   3  254.07   10.70
  -4  -8   3  230.48    8.80
   3   8  -3   58.39    5.00
   3   8  -3   55.09    6.30
   3   8  -3   61.29    4.50
  -3  -8   3   60.99    3.50
  -3  -8   3   49.10    5.30
  -3  -8   3   59.69    5.80
   2   8  -3   42.10    3.90
   2   8  -3   42.50    6.00
   2   8  -3   43.40    4.60
  -2  -8   3   32.00    4.90
  -2  -8   3   38.60    4.90
   1   8  -3  112.29    8.30
   1   8  -3  114.79    5.40
   1   8  -3  107.79    6.90
  -1  -8   3  117.49    7.50
  -1  -8   3   97.69    7.60
   0   8  -3   18.80    2.50
   0   8  -3   14.50    3.70
   0  -8   3   19.40    4.80
   0  -8   3   12.90    4.00
  -1   8  -3    1.70    1.90
  -1   8  -3    2.00    4.10
   1  -8   3    0.50    4.40
  -2   8  -3    9.50    2.40
  -2   8  -3    9.10    4.30
   2  -8   3    4.60    4.90
  -3   8  -3   99.89    5.40
  -3   8  -3  111.29    8.40
   3  -8   3  108.09   10.00
   9   7  -3   47.40    7.80
  -9  -7   3   50.39    8.00
   8   7  -3  185.18   11.70
  -8  -7   3  216.98   10.50
  -8  -7   3  213.08   11.00
   7   7  -3  114.89    9.40
  -7  -7   3  112.89    8.30
  -7  -7   3  107.99    6.90
   6   7  -3   60.89    6.70
  -6  -7   3   63.79    6.10
  -6  -7   3   57.89    6.50
  -6  -7   3   61.29    5.30
   5   7  -3    1.00    2.20
   5   7  -3    1.70    3.60
  -5  -7   3    0.60    3.10
  -5  -7   3    1.80    2.20
  -5  -7   3    2.30    3.40
   4   7  -3   74.79    4.70
   4   7  -3   64.09    7.00
  -4  -7   3   70.59    4.40
  -4  -7   3   74.29    5.80
  -4  -7   3   79.99    6.10
   3   7  -3  422.96   14.40
   3   7  -3  409.76   16.60
  -3  -7   3  431.26   15.80
  -3  -7   3  433.76   14.00
  -3  -7   3  445.46   15.60
   2   7  -3   22.50    2.60
   2   7  -3   28.20    4.80
  -2  -7   3   23.10    2.00
  -2  -7   3   19.30    3.50
  -2  -7   3   18.30    3.40
   1   7  -3   72.59    4.10
   1   7  -3   69.49    5.30
   1   7  -3   73.69    6.50
  -1  -7   3   76.39    5.40
  -1  -7   3   69.99    5.90
   0   7  -3  171.08    8.00
   0   7  -3  164.78    6.60
   0   7  -3  195.88    9.40
   0  -7   3  171.18    8.50
   0  -7   3  181.68    8.40
  -1   7  -3   46.30    4.90
  -1   7  -3   41.60    3.00
   1  -7   3   38.90    5.00
   1  -7   3   42.20    5.00
  -2   7  -3   10.30    1.90
  -2   7  -3    9.60    3.60
   2  -7   3   12.50    4.50
  -3   7  -3    0.20    3.50
  -3   7  -3    0.80    1.70
   3  -7   3   -0.90    4.40
  -4   7  -3   84.09    7.80
  -4   7  -3   86.39    4.60
   4  -7   3   80.69    8.70
  -5   7  -3  130.59   10.10
   9   6  -3  218.98   12.40
  -9  -6   3  206.48   12.30
   8   6  -3   15.20    5.50
  -8  -6   3   16.90    5.20
   7   6  -3  198.48   10.70
  -7  -6   3  193.18    9.20
  -7  -6   3  192.98    9.60
   6   6  -3   96.39    7.50
  -6  -6   3  114.59    6.20
  -6  -6   3  102.89    7.00
  -6  -6   3  116.49    6.50
   5   6  -3  121.29    6.00
   5   6  -3  134.79    7.90
  -5  -6   3  114.39    6.90
  -5  -6   3  126.19    6.10
  -5  -6   3  120.09    6.30
   4   6  -3    1.50    1.80
   4   6  -3    4.50    3.30
  -4  -6   3    1.60    1.90
  -4  -6   3    2.40    2.40
  -4  -6   3    2.50    2.80
   3   6  -3    3.80    3.00
   3   6  -3    2.70    1.60
  -3  -6   3    2.70    2.30
  -3  -6   3    2.20    1.50
  -3  -6   3    3.80    2.60
   2   6  -3   91.79    6.50
   2   6  -3   95.89    4.50
  -2  -6   3   99.99    4.00
  -2  -6   3  102.79    5.50
  -2  -6   3   90.39    5.40
   1   6  -3  810.72   25.60
   1   6  -3  866.51   27.70
  -1  -6   3  803.92   26.80
  -1  -6   3  837.32   27.00
   0   6  -3   37.20    2.60
   0   6  -3   34.30    3.60
   0   6  -3   33.20    4.30
   0  -6   3   38.70    4.10
   0  -6   3   36.40    4.10
  -1   6  -3  130.09    5.00
  -1   6  -3  130.69    7.20
  -1   6  -3  129.09    6.50
   1  -6   3  132.29    7.20
   1  -6   3  139.79    6.90
  -2   6  -3  104.09    4.20
  -2   6  -3  106.49    6.00
   2  -6   3   98.49    6.80
   2  -6   3  118.79    6.50
  -3   6  -3   75.59    3.40
  -3   6  -3   72.09    5.80
   3  -6   3   68.19    6.40
  -4   6  -3   34.10    2.80
  -4   6  -3   32.60    4.70
   4  -6   3   27.70    4.90
  -5   6  -3    6.90    2.00
  -5   6  -3    4.80    4.50
  -5   6  -3   14.80    4.50
   5  -6   3   10.90    5.30
   9   5  -3   55.49    6.60
  -9  -5   3   62.79    7.70
   8   5  -3  122.29    9.30
  -8  -5   3  126.89    8.10
   7   5  -3   11.20    4.20
  -7  -5   3   12.20    3.50
  -7  -5   3    7.80    3.90
   6   5  -3  156.78    9.00
  -6  -5   3  155.78    7.20
  -6  -5   3  147.39    7.30
  -6  -5   3  154.58    7.90
   5   5  -3  300.27   12.50
   5   5  -3  292.77   10.80
  -5  -5   3  287.57   11.30
  -5  -5   3  294.37   10.90
  -5  -5   3  296.17   10.80
   4   5  -3  322.37   11.40
   4   5  -3  328.87   13.20
  -4  -5   3  313.77   11.80
  -4  -5   3  342.07   12.10
  -4  -5   3  341.17   11.60
   3   5  -3  617.14   21.00
   3   5  -3  631.24   19.20
  -3  -5   3  584.94   19.70
  -3  -5   3  583.94   19.80
  -3  -5   3  598.24   19.10
   2   5  -3  143.99    7.50
   2   5  -3  173.78    6.20
  -2  -5   3  160.88    7.00
  -2  -5   3  168.08    7.00
  -2  -5   3  163.98    5.80
   1   5  -3  107.39    6.30
   1   5  -3  118.09    4.60
  -1  -5   3  123.49    5.80
  -1  -5   3  105.19    5.50
  -1  -5   3  115.19    3.90
  -1  -5   3  120.49    4.00
   0   5  -3  663.33   22.50
   0   5  -3  692.23   21.10
   0  -5   3  674.23   22.20
   0  -5   3  711.03   22.50
  -1   5  -3   98.39    5.10
  -1   5  -3  102.99    5.70
  -1   5  -3  103.69    4.00
   1  -5   3  107.89    5.50
   1  -5   3  105.49    5.60
  -2   5  -3  175.78    7.50
  -2   5  -3  169.28    5.80
  -2   5  -3  153.18    7.60
   2  -5   3  179.58    7.80
   2  -5   3  179.28    7.60
  -3   5  -3   61.19    4.90
  -3   5  -3   56.39    2.70
   3  -5   3   65.19    5.00
  -4   5  -3  285.37   11.10
  -4   5  -3  273.57    8.90
   4  -5   3  259.87   11.60
  -5   5  -3  169.58    8.70
  -5   5  -3  159.28    7.80
  -5   5  -3  149.19    5.80
   5  -5   3  156.98    8.80
  -6   5  -3   14.40    4.70
  -6   5  -3   20.00    2.40
   6  -5   3   15.50    5.20
   9   4  -3   51.49    6.30
  -9  -4   3   50.99    6.90
   8   4  -3   48.00    5.70
  -8  -4   3   42.80    5.60
   7   4  -3  258.17   11.30
   7   4  -3  242.08   10.90
  -7  -4   3  246.58   10.80
   6   4  -3  156.68    8.00
   6   4  -3  174.48    8.90
  -6  -4   3  156.18    7.20
  -6  -4   3  159.78    7.80
  -6  -4   3  165.48    7.50
   5   4  -3   11.50    3.20
   5   4  -3    7.60    2.10
   5   4  -3    6.50    2.60
  -5  -4   3   14.70    2.80
  -5  -4   3    6.50    2.30
  -5  -4   3   12.20    2.50
   4   4  -3  195.28    9.00
   4   4  -3  225.18    7.90
  -4  -4   3  203.88    8.00
  -4  -4   3  196.38    7.70
  -4  -4   3  205.98    8.10
   3   4  -3 1048.50   33.90
   3   4  -3 1017.20   32.40
  -3  -4   3 1062.09   32.80
  -3  -4   3 1070.89   32.40
  -3  -4   3 1086.99   32.90
   2   4  -3  538.15   16.40
   2   4  -3  513.85   17.80
  -2  -4   3  502.35   17.00
  -2  -4   3  533.45   17.00
  -2  -4   3  515.15   16.30
   1   4  -3  171.48    6.00
   1   4  -3  166.58    7.30
  -1  -4   3  180.88    6.80
  -1  -4   3  172.78    5.70
  -1  -4   3  171.38    6.90
  -1  -4   3  178.38    5.70
   0   4  -3  629.34   18.60
   0   4  -3  602.14   20.00
   0   4  -3  609.44   18.70
   0  -4   3  626.14   19.70
   0  -4   3  593.64   19.80
  -1   4  -3  187.68    5.90
  -1   4  -3  182.08    5.80
  -1   4  -3  159.58    7.00
   1  -4   3  188.68    7.20
   1  -4   3  176.08    7.20
  -2   4  -3  345.07   11.80
  -2   4  -3  318.27   11.70
  -2   4  -3  330.37   10.40
  -2   4  -3  346.97   10.40
   2  -4   3  348.37   12.10
   2  -4   3  342.17   12.10
  -3   4  -3   87.79    3.10
  -3   4  -3   85.49    4.60
   3  -4   3   86.39    5.10
   3  -4   3   85.19    4.80
  -4   4  -3  174.08    7.30
  -4   4  -3  166.58    5.70
   4  -4   3  176.38    8.30
  -5   4  -3  189.68    8.20
  -5   4  -3  195.78    8.90
  -5   4  -3  185.08    6.40
   5  -4   3  181.28    9.20
  -6   4  -3   95.79    6.60
  -6   4  -3   93.39    4.20
   6  -4   3   87.09    7.00
  -7   4  -3    0.20    2.10
  -7   4  -3    1.10    4.80
   7  -4   3    1.40    5.20
   9   3  -3  126.29    8.70
  -9  -3   3  127.69    9.40
   8   3  -3   26.00    4.40
  -8  -3   3   33.70    5.10
   7   3  -3   10.50    4.00
   7   3  -3    5.50    3.10
  -7  -3   3    6.60    3.10
   6   3  -3  410.06   14.50
   6   3  -3  385.66   14.80
  -6  -3   3  373.16   13.90
  -6  -3   3  390.96   13.90
  -6  -3   3  382.66   13.40
   5   3  -3  397.26   14.10
   5   3  -3  406.86   14.80
   5   3  -3  403.46   13.60
  -5  -3   3  391.76   13.70
  -5  -3   3  387.46   13.40
   4   3  -3    1.60    2.50
   4   3  -3    0.60    2.00
   4   3  -3    1.30    1.50
  -4  -3   3    1.90    1.80
  -4  -3   3    0.20    1.60
  -4  -3   3    0.50    1.70
   3   3  -3   71.99    3.40
   3   3  -3   67.49    4.10
   3   3  -3   70.99    4.70
  -3  -3   3   66.99    3.60
  -3  -3   3   60.49    3.50
  -3  -3   3   67.19    3.40
  -3  -3   3   73.29    3.50
   2   3  -3  678.43   20.20
   2   3  -3  630.94   19.80
   2   3  -3  651.83   20.90
  -2  -3   3  643.84   19.90
  -2  -3   3  629.24   20.10
  -2  -3   3  612.84   20.20
   1   3  -3 1769.02   55.89
   1   3  -3 1923.01   57.09
  -1  -3   3 1867.51   56.69
  -1  -3   3 1902.11   56.39
  -1  -3   3 1949.60   55.89
  -1  -3   3 1860.61   55.79
   0   3  -3  471.85   14.30
   0   3  -3  461.15   14.30
   0   3  -3  454.55   15.30
   0  -3   3  487.15   15.10
   0  -3   3  474.15   15.30
  -1   3  -3    4.60    0.60
  -1   3  -3    3.00    1.50
  -1   3  -3    4.40    0.60
   1  -3   3    4.30    1.50
   1  -3   3    2.70    1.50
   1  -3   3    5.30    1.70
  -2   3  -3  344.87   11.60
  -2   3  -3  341.37   11.60
   2  -3   3  359.46   11.80
   2  -3   3  335.47   11.80
   2  -3   3  346.67   11.80
  -3   3  -3  762.12   24.00
  -3   3  -3  750.12   22.90
  -3   3  -3  770.42   22.90
  -3   3  -3  742.53   24.10
   3  -3   3  793.62   24.70
   3  -3   3  790.32   24.20
   3  -3   3  781.42   24.30
  -4   3  -3  555.94   18.00
  -4   3  -3  550.14   16.70
   4  -3   3  559.64   18.80
  -5   3  -3   97.79    5.70
  -5   3  -3  101.19    3.80
  -5   3  -3  102.19    5.40
   5  -3   3  107.39    6.20
  -6   3  -3   11.20    3.40
  -6   3  -3   14.10    1.70
   6  -3   3   10.30    3.60
  -7   3  -3  266.07   11.60
  -7   3  -3  264.57    9.20
   7  -3   3  255.17   11.90
  -8   3  -3   14.10    2.70
  -8   3  -3   15.00    5.80
   9   2  -3  157.18    9.40
  -9  -2   3  151.28    9.40
   8   2  -3  133.49    7.90
  -8  -2   3  134.39    8.30
   7   2  -3   13.10    3.40
  -7  -2   3   11.70    3.60
   6   2  -3    4.10    3.10
   6   2  -3    1.60    2.60
  -6  -2   3    3.10    2.40
  -6  -2   3    1.90    2.30
   5   2  -3   21.80    3.10
   5   2  -3   29.40    3.70
  -5  -2   3   21.90    2.30
  -5  -2   3   28.60    3.20
  -5  -2   3   27.40    3.00
  -5  -2   3   24.90    2.70
   4   2  -3  368.96   12.20
   4   2  -3  369.76   13.20
   4   2  -3  365.76   12.70
  -4  -2   3  354.36   12.20
  -4  -2   3  368.06   11.90
  -4  -2   3  368.86   12.20
  -4  -2   3  346.37   12.30
   3   2  -3  347.47   12.30
   3   2  -3  339.27   11.70
   3   2  -3  347.97   11.30
  -3  -2   3  346.77   11.50
  -3  -2   3  368.26   11.10
  -3  -2   3  319.67   11.30
  -3  -2   3  342.37   11.30
   2   2  -3   15.40    2.10
   2   2  -3   16.70    2.00
   2   2  -3   22.80    1.70
  -2  -2   3   15.20    1.60
  -2  -2   3   13.10    1.70
  -2  -2   3   14.80    1.80
  -2  -2   3   12.90    1.50
   1   2  -3  628.84   20.40
   1   2  -3  641.24   19.60
  -1  -2   3  653.63   19.80
  -1  -2   3  663.63   19.90
  -1  -2   3  627.44   20.10
  -1  -2   3  664.33   19.70
   0   2  -3 2679.13   79.89
   0   2  -3 2718.63   80.69
   0   2  -3 2710.83   79.89
   0  -2   3 2735.23   80.89
   0  -2   3 2648.94   80.69
   0  -2   3 2729.33   80.29
  -1   2  -3    1.00    1.00
   1  -2   3    1.60    1.00
   1  -2   3    1.30    1.10
   1  -2   3    4.30    1.30
   2  -2   3   51.69    2.90
   2  -2   3   43.40    2.70
   2  -2   3   50.19    2.80
  -3   2  -3   17.80    1.90
   3  -2   3   18.70    2.30
   3  -2   3   18.80    2.40
   3  -2   3   20.10    2.20
  -4   2  -3 1247.98   37.40
  -4   2  -3 1264.47   38.20
  -4   2  -3 1238.58   38.70
  -4   2  -3 1253.67   37.30
   4  -2   3 1234.58   38.90
   4  -2   3 1296.17   38.40
  -5   2  -3  615.24   18.70
  -5   2  -3  606.84   19.60
  -5   2  -3  619.74   20.30
   5  -2   3  623.74   20.70
  -6   2  -3   32.30    4.10
  -6   2  -3   23.40    2.10
   6  -2   3   25.30    4.10
  -7   2  -3   74.09    5.90
  -7   2  -3   81.09    3.80
  -8   2  -3  198.78    7.80
  -8   2  -3  211.48   10.90
  -9   2  -3   84.49    9.90
  -9   2  -3   66.89    6.40
   9   1  -3   58.79    7.00
  -9  -1   3   71.89    7.70
   8   1  -3   36.40    4.70
  -8  -1   3   52.49    5.80
   7   1  -3   82.69    5.90
  -7  -1   3   72.89    5.40
  -7  -1   3   68.19    5.20
   6   1  -3  153.88    7.60
  -6  -1   3  160.58    6.70
  -6  -1   3  160.38    7.40
  -6  -1   3  167.88    7.10
   5   1  -3  462.35   16.10
   5   1  -3  464.75   16.00
  -5  -1   3  477.85   15.20
  -5  -1   3  471.55   15.60
  -5  -1   3  475.15   16.70
  -5  -1   3  469.45   15.70
   4   1  -3  124.29    5.70
   4   1  -3  116.69    5.50
  -4  -1   3   97.89    5.00
  -4  -1   3  111.39    5.00
  -4  -1   3  111.49    4.90
  -4  -1   3  120.89    4.70
   3   1  -3 1283.37   40.10
   3   1  -3 1333.67   39.90
   3   1  -3 1324.87   39.50
  -3  -1   3 1320.17   39.30
  -3  -1   3 1301.37   39.40
  -3  -1   3 1309.77   39.60
  -3  -1   3 1267.07   39.60
   2   1  -3 2191.18   64.09
   2   1  -3 2160.58   64.39
   2   1  -3 2082.69   64.59
  -2  -1   3 2176.38   64.19
  -2  -1   3 2166.58   63.99
  -2  -1   3 2133.59   64.29
  -2  -1   3 2148.78   63.99
   1   1  -3  171.98    6.00
   1   1  -3  177.68    6.20
   1   1  -3  176.48    5.70
  -1  -1   3  168.88    6.10
  -1  -1   3  173.18    5.80
  -1  -1   3  177.48    5.70
  -1  -1   3  169.78    6.30
   0   1  -3  172.48    6.10
   0   1  -3  173.68    5.50
   0  -1   3  179.38    5.60
   0  -1   3  181.58    6.10
   0  -1   3  178.48    5.60
   0  -1   3  171.98    5.60
   0  -1   3  170.78    6.20
  -1   1  -3 1072.19   30.90
  -1   1  -3 1022.20   30.90
   1  -1   3 1035.70   31.60
   1  -1   3 1076.89   31.30
   1  -1   3 1016.70   31.80
   2  -1   3    6.40    1.30
   2  -1   3    5.60    1.20
   2  -1   3    8.00    1.30
  -3   1  -3    0.20    1.00
  -3   1  -3    0.80    0.90
   3  -1   3    0.90    1.10
   3  -1   3    0.20    1.30
   3  -1   3    1.40    1.20
  -4   1  -3  220.48    7.60
  -4   1  -3  223.58    7.00
  -4   1  -3  213.78    8.10
  -4   1  -3  234.68    7.10
   4  -1   3  232.58    8.50
   4  -1   3  222.78    8.00
  -5   1  -3  967.80   30.00
  -5   1  -3  960.10   29.20
  -5   1  -3  945.81   28.70
   5  -1   3  950.40   29.60
   5  -1   3  956.20   30.30
  -6   1  -3  799.72   24.40
  -6   1  -3  802.92   26.00
  -7   1  -3   80.59    3.80
  -7   1  -3   79.89    6.00
  -8   1  -3  104.59    5.10
  -8   1  -3  106.89    7.10
  -9   1  -3  106.39    8.10
  -9   1  -3  103.59    5.80
  -9   0   3  186.28   11.90
   8   0  -3   16.30    3.90
  -8   0   3   15.30    4.90
   7   0  -3    3.40    3.00
  -7   0   3    2.80    2.60
  -7   0   3    4.40    3.50
   6   0  -3   54.19    4.90
  -6   0   3   54.89    4.10
  -6   0   3   50.39    4.80
  -6   0   3   60.29    4.70
   5   0  -3  515.85   17.80
  -5   0   3  535.45   17.40
  -5   0   3  537.65   17.50
  -5   0   3  523.85   17.00
   4   0  -3  780.12   25.20
   4   0  -3  800.82   24.90
  -4   0   3  802.72   25.00
  -4   0   3  760.62   24.80
  -4   0   3  807.62   24.50
  -4   0   3  809.52   24.80
   3   0  -3    7.40    1.80
   3   0  -3    4.70    1.50
   3   0  -3    5.70    1.40
  -3   0   3    6.20    1.50
  -3   0   3    5.30    1.50
  -3   0   3    4.10    1.00
  -3   0   3    9.50    1.50
   2   0  -3 1514.95   46.50
   2   0  -3 1498.75   46.30
   2   0  -3 1551.14   46.60
  -2   0   3 1570.24   46.20
  -2   0   3 1509.55   46.50
  -2   0   3 1614.34   46.20
  -2   0   3 1554.34   46.40
   1   0  -3   26.20    1.50
   1   0  -3   23.60    1.70
   1   0  -3   25.30    1.80
  -1   0   3   24.10    1.70
  -1   0   3   29.90    1.50
  -1   0   3   22.00    1.60
  -1   0   3   27.60    1.30
  -1   0   3   23.90    1.90
   0   0  -3    1.60    0.50
   0   0   3    2.00    0.80
   0   0   3    1.00    0.60
   0   0   3    2.00    0.90
  -1   0  -3    7.40    0.70
  -1   0  -3    8.60    0.70
  -1   0  -3    8.00    0.70
   1   0   3    8.20    1.20
   1   0   3    9.20    1.10
   1   0   3    8.80    0.60
   1   0   3    8.70    0.70
  -2   0  -3  810.02   24.10
  -2   0  -3  819.12   24.50
  -2   0  -3  819.62   24.10
   2   0   3  787.52   24.90
   2   0   3  818.42   24.50
  -3   0  -3 2015.90   58.99
  -3   0  -3 1917.71   58.99
  -3   0  -3 1994.50   59.69
   3   0   3 2017.20   59.99
   3   0   3 2045.70   59.39
  -4   0  -3   54.69    2.40
  -4   0  -3   56.49    3.10
  -4   0  -3   55.69    2.50
  -4   0  -3   54.99    2.20
   4   0   3   65.49    2.60
   4   0   3   58.49    3.10
  -5   0  -3   64.09    2.90
  -5   0  -3   67.99    3.80
  -5   0  -3   65.29    2.70
   5   0   3   70.29    3.90
  -6   0  -3  326.97   12.10
  -6   0  -3  342.57   10.90
   6   0   3  346.67   12.00
  -7   0  -3  257.17    8.70
  -7   0  -3  249.97   10.10
  -8   0  -3   22.00    4.20
  -8   0  -3   21.50    2.50
  -9   0  -3    5.40    4.10
  -9   0  -3    1.70    2.30
 -10   0  -3   25.30    7.30
 -10   0  -3   19.70    3.70
   8  -1  -3   36.30    4.80
  -8   1   3   44.40    4.90
  -8   1   3   63.19    6.90
   7  -1  -3  224.98   10.00
  -7   1   3  232.18   10.50
  -7   1   3  232.48    9.40
   6  -1  -3   43.40    4.70
  -6   1   3   42.90    4.40
  -6   1   3   43.30    4.70
  -6   1   3   41.60    3.80
   5  -1  -3  240.88    9.50
  -5   1   3  239.28    8.80
  -5   1   3  251.17    9.30
  -5   1   3  240.48    9.40
   4  -1  -3 1648.94   51.09
  -4   1   3 1651.03   50.89
  -4   1   3 1677.43   50.89
  -4   1   3 1722.33   50.49
   3  -1  -3  379.76   13.00
   3  -1  -3  395.26   13.00
   3  -1  -3  381.16   12.60
   3  -1  -3  400.26   12.70
  -3   1   3  383.96   12.50
  -3   1   3  401.46   13.00
  -3   1   3  400.76   12.80
  -3   1   3  383.76   12.90
   2  -1  -3    0.30    1.10
   2  -1  -3   -0.10    1.10
   2  -1  -3    1.00    1.10
   2  -1  -3    1.40    1.20
  -2   1   3    0.40    1.10
  -2   1   3    0.70    0.90
  -2   1   3   -0.50    1.20
  -2   1   3    0.80    1.00
   1  -1  -3  155.58    5.10
   1  -1  -3  152.78    5.10
   1  -1  -3  144.39    5.40
  -1   1   3  145.79    5.00
  -1   1   3  143.99    5.20
  -1   1   3  144.69    5.30
  -1   1   3  150.08    5.30
   0  -1  -3   66.79    2.30
   0  -1  -3   61.59    2.50
   0  -1  -3   63.99    2.80
   0   1   3   66.39    2.80
   0   1   3   60.99    2.60
   0   1   3   60.99    2.70
   0   1   3   63.59    2.40
  -1  -1  -3  167.98    5.40
  -1  -1  -3  174.38    5.40
   1   1   3  172.38    5.60
   1   1   3  169.98    5.50
   1   1   3  153.68    5.80
  -2  -1  -3    8.10    0.90
  -2  -1  -3    9.70    1.00
   2   1   3    9.50    1.30
   2   1   3    9.50    1.00
   2   1   3    8.90    0.80
   2   1   3   11.30    1.10
  -3  -1  -3 1273.07   37.80
  -3  -1  -3 1228.58   37.90
  -3  -1  -3 1226.48   38.20
   3   1   3 1299.97   37.80
   3   1   3 1301.37   38.70
   3   1   3 1297.57   37.80
  -4  -1  -3 2801.22   83.59
  -4  -1  -3 2794.32   84.09
  -4  -1  -3 2957.10   83.19
  -4  -1  -3 2627.24   83.49
   4   1   3 2845.32   83.29
   4   1   3 2806.62   84.39
   4   1   3 2907.31   83.29
  -5  -1  -3  170.98    6.00
  -5  -1  -3  172.08    6.80
   5   1   3  180.58    5.60
   5   1   3  189.88    7.20
   5   1   3  184.28    5.60
  -6  -1  -3    7.00    1.30
  -6  -1  -3    3.80    2.00
   6   1   3    6.60    0.70
   6   1   3    5.50    2.20
  -7  -1  -3   26.10    2.60
  -7  -1  -3   29.70    3.70
   7   1   3   30.50    3.90
  -8  -1  -3   56.29    3.70
  -8  -1  -3   48.10    4.90
  -9  -1  -3  267.67   10.10
  -9  -1  -3  281.27   12.00
 -10  -1  -3    1.80    2.90
 -10  -1  -3    4.20    5.40
   8  -2  -3   69.09    6.90
  -8   2   3   66.79    7.00
  -8   2   3   73.09    7.90
   7  -2  -3   63.89    6.00
  -7   2   3   87.19    7.40
  -7   2   3   85.09    5.80
   6  -2  -3  249.78   10.30
  -6   2   3  257.67   10.40
  -6   2   3  260.47   10.90
  -6   2   3  253.17    9.80
   5  -2  -3  355.16   13.00
   5  -2  -3  366.86   13.70
  -5   2   3  356.16   12.50
  -5   2   3  396.06   13.40
  -5   2   3  356.56   13.20
   4  -2  -3  286.37   11.20
   4  -2  -3  325.17   11.10
  -4   2   3  297.97   10.90
  -4   2   3  309.37   11.00
  -4   2   3  299.47   10.30
   3  -2  -3  434.16   14.20
   3  -2  -3  425.46   14.40
  -3   2   3  406.76   14.20
  -3   2   3  431.76   13.60
  -3   2   3  430.96   14.10
   2  -2  -3  144.69    5.80
   2  -2  -3  156.08    5.10
   2  -2  -3  149.39    5.80
   2  -2  -3  150.58    5.50
  -2   2   3  148.79    5.40
  -2   2   3  143.79    5.80
  -2   2   3  146.49    5.80
   1  -2  -3  315.77   10.50
   1  -2  -3  319.07   10.60
   1  -2  -3  323.87   10.30
  -1   2   3  329.77   10.10
  -1   2   3  315.77   10.10
  -1   2   3  336.67   10.60
  -1   2   3  298.27   10.40
   0  -2  -3    2.10    1.00
   0  -2  -3    2.60    0.80
   0  -2  -3    2.20    0.90
   0   2   3    4.50    1.00
   0   2   3    1.60    0.80
   0   2   3    2.40    0.80
   0   2   3    2.30    0.90
  -1  -2  -3  118.19    4.20
  -1  -2  -3  119.39    4.30
  -1  -2  -3  113.29    4.00
   1   2   3  115.89    4.20
   1   2   3  110.89    4.10
   1   2   3  111.29    4.30
  -2  -2  -3 1143.89   36.10
  -2  -2  -3 1201.58   36.30
   2   2   3 1233.48   36.20
   2   2   3 1234.18   36.00
   2   2   3 1222.88   36.60
  -3  -2  -3 1288.87   39.30
  -3  -2  -3 1288.37   39.60
   3   2   3 1343.07   38.90
   3   2   3 1325.07   39.30
   3   2   3 1315.37   39.90
  -4  -2  -3  185.38    6.90
  -4  -2  -3  189.88    6.40
   4   2   3  187.18    6.40
   4   2   3  186.88    7.20
   4   2   3  202.68    6.50
  -5  -2  -3  893.91   27.70
  -5  -2  -3  885.11   28.40
   5   2   3  923.31   28.60
   5   2   3  888.31   27.60
   5   2   3  968.20   27.70
  -6  -2  -3   59.69    3.00
  -6  -2  -3   57.99    4.10
   6   2   3   58.29    2.80
   6   2   3   55.39    4.10
  -7  -2  -3   59.79    4.70
  -7  -2  -3   55.79    3.40
   7   2   3   61.29    3.00
   7   2   3   53.49    4.20
  -8  -2  -3   77.79    5.60
  -8  -2  -3   82.89    4.50
   8   2   3   80.29    5.70
   8   2   3   81.09    3.60
  -9  -2  -3  173.48    7.90
  -9  -2  -3  187.28    9.70
   9   2   3  199.08    6.30
 -10  -2  -3  200.98    8.80
 -10  -2  -3  180.88   10.90
   7  -3  -3    3.10    3.30
  -7   3   3    2.90    3.70
  -7   3   3    1.70    4.90
   6  -3  -3    2.60    4.10
   6  -3  -3    4.60    2.90
  -6   3   3    5.30    2.80
  -6   3   3    7.20    3.80
  -6   3   3    5.80    3.60
   5  -3  -3  275.77   10.80
   5  -3  -3  293.77   12.00
  -5   3   3  292.27   11.20
  -5   3   3  293.67   10.40
  -5   3   3  279.37   11.50
   4  -3  -3  157.88    7.00
   4  -3  -3  168.38    7.70
  -4   3   3  179.38    6.70
  -4   3   3  160.38    7.50
  -4   3   3  164.98    7.30
   3  -3  -3    9.70    2.00
   3  -3  -3    8.10    2.50
  -3   3   3    9.00    2.40
  -3   3   3   10.00    1.70
   2  -3  -3 1166.58   36.10
   2  -3  -3 1112.49   35.70
  -2   3   3 1218.38   35.40
  -2   3   3 1173.38   36.00
   1  -3  -3 1072.49   32.60
   1  -3  -3 1017.40   32.70
   1  -3  -3 1077.39   32.30
  -1   3   3 1095.39   32.00
  -1   3   3 1062.79   32.20
  -1   3   3 1056.29   32.70
  -1   3   3 1078.59   32.60
   0  -3  -3 1005.80   31.30
   0  -3  -3 1037.10   31.00
   0  -3  -3 1026.60   31.20
   0   3   3 1022.80   30.90
   0   3   3 1017.70   30.90
   0   3   3 1026.90   31.30
   0   3   3 1035.50   31.20
  -1  -3  -3    3.60    1.00
  -1  -3  -3    3.20    1.10
  -1  -3  -3    3.70    1.10
   1   3   3    1.80    0.80
   1   3   3    1.90    1.10
   1   3   3    4.40    1.20
   1   3   3    3.10    1.10
  -2  -3  -3  249.68    9.00
  -2  -3  -3  279.47    9.00
  -2  -3  -3  271.37    8.70
   2   3   3  274.37    9.20
   2   3   3  270.37    8.70
   2   3   3  263.57    8.60
   2   3   3  276.47    8.90
  -3  -3  -3 1890.81   55.59
  -3  -3  -3 1773.62   55.69
  -3  -3  -3 1783.92   55.29
   3   3   3 1918.81   54.99
   3   3   3 1841.32   55.19
   3   3   3 1849.02   55.39
   3   3   3 1905.01   55.99
  -4  -3  -3  562.74   18.40
  -4  -3  -3  585.64   18.30
  -4  -3  -3  576.94   17.90
   4   3   3  573.64   17.90
   4   3   3  565.24   18.70
   4   3   3  586.54   17.20
  -5  -3  -3   18.00    1.90
  -5  -3  -3   14.80    2.20
   5   3   3   14.40    2.40
   5   3   3   13.80    1.70
  -6  -3  -3  382.46   12.20
  -6  -3  -3  363.86   13.00
   6   3   3  361.46   13.10
   6   3   3  375.96   12.20
  -7  -3  -3  112.89    5.20
  -7  -3  -3  109.69    5.90
   7   3   3  119.29    4.90
   7   3   3  110.69    6.20
  -8  -3  -3  113.29    6.50
  -8  -3  -3  111.39    5.50
   8   3   3  113.59    6.60
   8   3   3  109.39    5.00
  -9  -3  -3   12.00    3.70
  -9  -3  -3    8.80    2.60
   9   3   3    8.20    3.90
   9   3   3   10.50    2.10
 -10  -3  -3  180.78   10.50
 -10  -3  -3  175.98    8.30
  10   3   3  176.68    6.80
 -11  -3  -3   70.99    7.10
   6  -4  -3    2.00    2.90
   6  -4  -3    3.50    5.20
  -6   4   3    1.70    3.20
  -6   4   3    1.30    4.70
  -6   4   3    1.40    4.70
   5  -4  -3    1.10    2.50
   5  -4  -3    3.10    3.60
  -5   4   3    3.70    3.30
  -5   4   3    3.10    2.50
  -5   4   3    4.00    3.30
   4  -4  -3  691.23   22.90
   4  -4  -3  668.73   21.80
  -4   4   3  659.53   22.30
  -4   4   3  663.33   21.40
  -4   4   3  680.13   22.40
   3  -4  -3  727.73   23.80
   3  -4  -3  778.62   24.70
  -3   4   3  747.63   24.30
  -3   4   3  742.03   23.40
   2  -4  -3   74.39    3.90
   2  -4  -3   56.89    4.20
  -2   4   3   66.69    4.10
  -2   4   3   64.69    3.50
   1  -4  -3  140.09    5.90
   1  -4  -3  139.79    6.00
  -1   4   3  147.89    6.00
  -1   4   3  145.99    5.40
   0  -4  -3  961.50   28.80
   0  -4  -3  892.21   29.30
   0  -4  -3  904.81   29.00
   0   4   3  928.81   29.20
   0   4   3  967.20   28.80
   0   4   3  971.60   29.20
   0   4   3  984.00   28.80
  -1  -4  -3  139.89    6.00
  -1  -4  -3  162.58    5.70
  -1  -4  -3  154.28    6.00
   1   4   3  161.58    5.90
   1   4   3  156.58    6.00
   1   4   3  162.18    5.60
   1   4   3  155.98    6.00
  -2  -4  -3   76.09    3.70
  -2  -4  -3   76.69    3.90
  -2  -4  -3   81.79    3.50
   2   4   3   79.19    4.00
   2   4   3   79.29    3.80
   2   4   3   88.29    3.40
   2   4   3   87.99    3.60
  -3  -4  -3   11.80    1.80
  -3  -4  -3   10.50    1.90
  -3  -4  -3   14.50    1.60
   3   4   3   14.80    1.90
   3   4   3   16.40    1.60
   3   4   3   14.20    1.50
   3   4   3    9.70    1.80
  -4  -4  -3 1211.68   36.20
  -4  -4  -3 1146.69   36.60
   4   4   3 1213.18   36.10
   4   4   3 1238.78   35.80
   4   4   3 1166.48   37.00
   4   4   3 1185.68   36.40
  -5  -4  -3  883.01   28.20
  -5  -4  -3  921.01   27.50
  -5  -4  -3  930.11   28.00
   5   4   3  877.61   28.40
   5   4   3  848.32   27.60
  -6  -4  -3   93.59    5.30
  -6  -4  -3   91.59    4.30
   6   4   3   88.79    4.30
   6   4   3   81.19    5.10
  -7  -4  -3  143.29    7.30
  -7  -4  -3  153.48    6.30
   7   4   3  157.88    6.40
   7   4   3  138.39    7.40
  -8  -4  -3   90.09    6.00
  -8  -4  -3   87.59    5.00
   8   4   3   94.49    6.40
   8   4   3   89.49    4.80
  -9  -4  -3  165.18    7.40
  -9  -4  -3  171.18    8.70
   9   4   3  156.08    7.00
   9   4   3  164.08    8.90
 -10  -4  -3    0.60    3.00
 -10  -4  -3    0.60    4.70
  10   4   3    0.30    2.50
 -11  -4  -3  142.69    8.30
 -11  -4  -3  120.69   10.50
  11   4   3  117.39    6.30
   6  -5  -3   36.40    7.40
   6  -5  -3   25.20    3.40
  -6   5   3   30.20    6.50
  -6   5   3   37.30    6.90
  -6   5   3   25.80    4.40
   5  -5  -3    8.30    3.10
   5  -5  -3    6.60    4.60
  -5   5   3   10.60    4.30
  -5   5   3    6.70    3.10
  -5   5   3    4.10    4.10
   4  -5  -3   30.00    3.40
   4  -5  -3   34.10    4.80
  -4   5   3   27.80    4.20
  -4   5   3   34.70    3.40
  -4   5   3   27.80    4.40
   3  -5  -3  542.85   18.50
   3  -5  -3  612.84   20.00
  -3   5   3  567.84   19.40
  -3   5   3  555.84   18.30
   2  -5  -3  440.16   14.80
   2  -5  -3  451.35   15.70
  -2   5   3  446.46   14.50
  -2   5   3  436.26   15.30
   1  -5  -3  191.18    7.80
   1  -5  -3  173.48    7.00
  -1   5   3  182.08    7.40
  -1   5   3  174.78    6.70
   0  -5  -3   20.10    2.80
   0  -5  -3   26.20    2.60
   0   5   3   24.90    2.40
   0   5   3   27.70    3.10
  -1  -5  -3  151.08    6.20
  -1  -5  -3  153.68    6.70
   1   5   3  164.78    6.30
   1   5   3  164.88    6.60
   1   5   3  160.68    6.40
   1   5   3  160.38    5.90
  -2  -5  -3  553.74   18.30
  -2  -5  -3  585.34   17.90
  -2  -5  -3  553.44   18.70
   2   5   3  563.44   17.90
   2   5   3  566.94   18.10
   2   5   3  569.04   18.50
   2   5   3  600.14   18.40
  -3  -5  -3  184.78    7.50
  -3  -5  -3  205.98    6.80
  -3  -5  -3  170.28    7.00
   3   5   3  189.38    7.20
   3   5   3  182.38    6.70
   3   5   3  189.38    6.70
   3   5   3  184.38    7.60
  -4  -5  -3  426.36   14.90
  -4  -5  -3  439.86   14.10
   4   5   3  458.05   13.90
   4   5   3  408.26   15.00
   4   5   3  436.26   14.50
   4   5   3  448.66   14.10
  -5  -5  -3  474.15   14.60
  -5  -5  -3  467.95   15.20
  -5  -5  -3  416.66   15.30
   5   5   3  434.46   15.60
   5   5   3  431.76   14.80
  -6  -5  -3  181.68    7.30
  -6  -5  -3  192.48    8.30
   6   5   3  193.98    7.60
   6   5   3  185.28    8.50
  -7  -5  -3  339.17   13.10
  -7  -5  -3  356.26   12.00
   7   5   3  345.97   13.50
   7   5   3  337.97   12.30
  -8  -5  -3  116.09    6.10
  -8  -5  -3  120.39    7.10
   8   5   3  126.59    7.40
   8   5   3  122.99    6.30
  -9  -5  -3   16.50    4.10
  -9  -5  -3   13.00    3.20
   9   5   3   19.50    3.30
   9   5   3   24.00    4.80
 -10  -5  -3  312.87   12.60
 -10  -5  -3  331.67   14.30
  10   5   3  316.87   14.40
  10   5   3  335.67   12.50
 -11  -5  -3   14.10    4.60
 -11  -5  -3    7.90    5.70
  11   5   3   10.60    3.70
   5  -6  -3    9.80    6.50
   5  -6  -3   11.20    2.90
  -5   6   3   12.00    5.40
  -5   6   3   10.40    5.90
  -5   6   3   11.40    3.80
   4  -6  -3  115.19    6.10
   4  -6  -3  127.69    9.10
  -4   6   3  118.39    6.50
  -4   6   3  130.49    8.50
   3  -6  -3    7.50    4.00
   3  -6  -3   10.50    2.70
  -3   6   3    8.70    2.50
  -3   6   3    6.60    3.70
   2  -6  -3   30.50    4.30
   2  -6  -3   35.90    3.60
  -2   6   3   38.50    3.50
  -2   6   3   30.70    3.90
   1  -6  -3  105.29    5.00
   1  -6  -3  109.79    6.20
  -1   6   3  113.49    6.10
  -1   6   3   93.49    4.90
   0  -6  -3   21.70    2.60
   0  -6  -3   19.70    3.50
   0   6   3   13.50    2.70
   0   6   3   17.20    2.20
  -1  -6  -3   78.09    4.90
  -1  -6  -3   83.19    4.40
   1   6   3   75.49    4.60
   1   6   3   79.39    6.40
   1   6   3   81.69    4.00
  -2  -6  -3  619.34   20.20
  -2  -6  -3  642.04   21.00
   2   6   3  628.54   20.50
   2   6   3  629.44   20.30
   2   6   3  632.64   19.90
  -3  -6  -3 1812.12   57.09
  -3  -6  -3 1853.71   56.59
   3   6   3 1853.81   57.19
   3   6   3 1867.11   56.19
   3   6   3 1899.31   56.39
   3   6   3 1908.41   56.69
  -4  -6  -3  370.06   13.60
  -4  -6  -3  389.96   13.20
   4   6   3  372.66   13.20
   4   6   3  397.66   12.60
   4   6   3  366.96   13.70
   4   6   3  372.66   12.60
  -5  -6  -3   19.20    3.00
  -5  -6  -3   19.20    2.60
  -5  -6  -3   18.40    3.20
   5   6   3   18.30    3.30
   5   6   3   16.20    2.80
  -6  -6  -3    8.80    2.30
  -6  -6  -3    6.50    3.00
   6   6   3    3.20    3.00
   6   6   3    4.80    2.30
  -7  -6  -3  148.39    7.90
  -7  -6  -3  163.58    7.00
   7   6   3  152.68    7.30
   7   6   3  152.48    8.20
  -8  -6  -3  207.08    8.80
  -8  -6  -3  207.38   10.20
   8   6   3  209.78    9.10
   8   6   3  207.58   10.20
  -9  -6  -3   17.70    4.50
   9   6   3   18.00    5.10
   9   6   3   19.30    3.80
 -10  -6  -3  168.18   10.80
  10   6   3  160.58   10.60
  10   6   3  150.78    8.40
 -11  -6  -3  141.09   15.40
  11   6   3  137.09   11.40
   4  -7  -3   19.90    3.00
   4  -7  -3   22.50    6.80
  -4   7   3   19.40    4.00
  -4   7   3   20.60    5.70
   3  -7  -3  112.69    5.90
   3  -7  -3  122.79    9.10
  -3   7   3  107.29    6.40
  -3   7   3  128.29    8.10
   2  -7  -3   42.20    4.00
   2  -7  -3   35.10    5.00
  -2   7   3   38.90    4.20
  -2   7   3   38.70    4.80
   1  -7  -3   24.30    2.90
   1  -7  -3   22.10    4.10
  -1   7   3   19.80    2.70
  -1   7   3   21.10    3.70
   0  -7  -3  328.07   13.00
   0  -7  -3  333.47   11.80
   0   7   3  344.87   11.60
   0   7   3  321.87   12.50
  -1  -7  -3  112.09    5.50
  -1  -7  -3  114.09    6.80
   1   7   3  103.29    5.80
   1   7   3  112.39    5.20
  -2  -7  -3   89.69    5.00
  -2  -7  -3   87.69    5.70
   2   7   3   97.09    4.70
   2   7   3   93.29    5.50
   2   7   3   89.89    5.30
  -3  -7  -3   21.40    3.00
  -3  -7  -3   19.80    3.50
   3   7   3   20.90    3.50
   3   7   3   20.10    2.90
   3   7   3   22.70    2.80
  -4  -7  -3  715.53   24.40
  -4  -7  -3  735.73   23.50
   4   7   3  732.03   23.20
   4   7   3  715.03   23.10
   4   7   3  735.53   24.50
  -5  -7  -3  513.25   17.40
   5   7   3  458.95   16.40
   5   7   3  453.75   17.20
  -6  -7  -3    1.00    2.80
  -6  -7  -3    2.50    3.10
   6   7   3    2.60    2.90
   6   7   3    5.10    3.30
  -7  -7  -3    5.90    3.50
   7   7   3    5.10    3.20
   7   7   3    5.20    3.50
  -8  -7  -3  446.56   16.60
   8   7   3  403.16   15.50
   8   7   3  423.26   17.00
  -9  -7  -3  107.19    8.60
   9   7   3   84.69    7.80
   9   7   3   78.59    6.50
 -10  -7  -3    3.10    5.90
  10   7   3    7.80    4.30
  10   7   3    3.40    5.20
  11   7   3   -0.20    6.50
   3  -8  -3  109.59    9.50
   3  -8  -3   90.29    5.00
  -3   8   3   91.79    6.80
   2  -8  -3  136.09    6.60
   2  -8  -3  148.39    9.40
  -2   8   3  130.09    8.60
  -2   8   3  143.89    7.40
   1  -8  -3  167.28   10.00
   1  -8  -3  157.88    7.20
  -1   8   3  173.48    7.60
  -1   8   3  167.68    8.90
   0  -8  -3   21.40    3.00
   0  -8  -3   23.70    5.10
   0   8   3   22.10    4.40
   0   8   3   23.20    3.20
  -1  -8  -3  144.09    6.60
  -1  -8  -3  143.49    8.00
   1   8   3  149.39    6.60
   1   8   3  130.99    7.20
  -2  -8  -3    7.20    2.60
  -2  -8  -3    3.30    3.20
   2   8   3    4.10    2.20
   2   8   3    4.90    2.80
  -3  -8  -3  134.89    6.70
  -3  -8  -3  139.99    8.10
   3   8   3  143.59    7.80
   3   8   3  133.89    7.00
   3   8   3  153.78    6.60
  -4  -8  -3    4.80    3.00
  -4  -8  -3    2.40    3.20
   4   8   3    1.70    3.30
   4   8   3    2.40    2.70
  -5  -8  -3  308.77   11.70
  -5  -8  -3  288.67   12.30
  -6  -8  -3  341.17   14.00
  -6  -8  -3  345.57   13.10
   6   8   3  318.07   14.00
  -7  -8  -3   56.89    6.70
   7   8   3   51.49    6.30
   7   8   3   52.29    6.10
  -8  -8  -3   25.20    5.20
   8   8   3   36.80    6.20
   8   8   3   32.90    5.00
  -9  -8  -3   20.90    6.10
   9   8   3   20.10    4.80
   9   8   3   17.30    5.50
 -10  -8  -3  121.59   10.20
  10   8   3  124.29    9.10
  10   8   3  124.39   11.60
   1  -9  -3  167.58    7.50
   1  -9  -3  174.28   11.90
  -1   9   3  176.88   10.20
  -1   9   3  172.98    8.50
   0  -9  -3   70.09    7.80
   0  -9  -3   63.49    4.70
   0   9   3   76.19    7.70
   0   9   3   69.69    5.90
  -1  -9  -3   12.20    3.20
  -1  -9  -3   13.60    4.80
   1   9   3   12.20    3.10
   1   9   3   14.00    4.50
  -2  -9  -3   20.50    4.90
  -2  -9  -3   19.60    3.30
   2   9   3   14.70    3.10
   2   9   3   19.60    4.40
  -3  -9  -3    1.60    2.70
  -3  -9  -3    3.30    3.60
   3   9   3    2.20    3.00
   3   9   3    1.50    3.20
  -4  -9  -3  102.29    6.20
  -4  -9  -3   98.59    7.90
   4   9   3  109.09    6.80
   4   9   3  115.39    8.10
  -5  -9  -3   25.30    4.20
  -5  -9  -3   19.50    4.80
   5   9   3   26.80    5.40
  -6  -9  -3  191.78    9.20
  -6  -9  -3  178.68    9.90
   6   9   3  201.48   11.10
  -7  -9  -3  153.28    9.40
   7   9   3  146.29    9.80
  -8  -9  -3  122.89    8.90
   8   9   3  108.69    9.30
  -9  -9  -3   11.00    6.00
   9   9   3   14.70    5.50
   9   9   3   17.00    7.00
  10   9   3    9.50    5.90
   0  10   3    8.60    4.30
  -1 -10  -3   54.49    8.20
  -1 -10  -3   51.49    5.00
   1  10   3   52.09    6.70
   1  10   3   61.19    6.40
  -2 -10  -3    8.40    3.60
  -2 -10  -3   11.50    5.90
   2  10   3    5.20    4.90
   2  10   3    8.30    3.60
  -3 -10  -3   15.10    3.60
  -3 -10  -3   13.90    5.10
   3  10   3   13.30    4.90
  -4 -10  -3  270.37   13.20
  -4 -10  -3  263.47   11.00
   4  10   3  245.88   11.20
  -5 -10  -3  158.38    9.90
  -5 -10  -3  147.49    8.20
   5  10   3  157.08   10.50
  -6 -10  -3  107.69    7.80
  -6 -10  -3  105.59    8.80
   6  10   3  108.79    9.80
  -7 -10  -3   -0.90    4.90
  -7 -10  -3    0.80    4.30
   7  10   3   -2.50    5.90
  -8 -10  -3    4.70    5.50
   8  10   3    4.90    6.80
   3  11   3  137.39   10.70
  -4 -11  -3    6.10    6.50
  -4 -11  -3    1.80    4.30
  -5 -11  -3   28.20    6.50
  -5 -11  -3   38.40    5.40
  -6 -11  -3   62.79    8.90
  -6 -11  -3   45.20    5.80
   6  11   3   54.99    8.50
  -7 -11  -3    6.90    5.40
   7  11   3    8.50    6.70
   5  10  -4   90.39    7.70
   5  10  -4   88.99   11.10
   5  10  -4   77.79    8.40
  -5 -10   4   83.69    8.70
  -5 -10   4   77.39    8.90
  -5 -10   4   77.99    5.70
   4  10  -4  109.09   11.60
   4  10  -4  107.59    8.90
   4  10  -4  101.09    7.60
  -4 -10   4  118.39    9.80
   3  10  -4   31.00    6.10
   3  10  -4   27.30    4.20
   3  10  -4   26.60    7.60
  -3 -10   4   27.30    6.60
  -3 -10   4   21.70    6.60
   2  10  -4    0.60    3.10
   2  10  -4   -2.60    5.30
  -2 -10   4    0.80    6.30
  -2 -10   4    2.50    6.10
  -1 -10   4   41.60    8.10
  -7  -9   4   54.29    8.10
  -7  -9   4   45.00    5.90
   6   9  -4   18.70    6.20
  -6  -9   4   15.50    6.10
  -6  -9   4   16.10    3.80
   5   9  -4   25.60    4.20
   5   9  -4   16.50    5.80
  -5  -9   4   16.00    5.20
  -5  -9   4   20.30    3.40
  -5  -9   4   17.40    5.70
   4   9  -4   27.00    3.90
   4   9  -4   28.50    6.20
  -4  -9   4   28.70    5.90
  -4  -9   4   35.20    3.60
  -4  -9   4   34.10    5.70
   3   9  -4   13.20    3.20
   3   9  -4   13.20    4.00
   3   9  -4   10.40    5.20
  -3  -9   4   14.30    4.70
  -3  -9   4   10.90    4.60
   2   9  -4  117.99    9.80
   2   9  -4  103.89    6.20
   2   9  -4   96.99    7.80
  -2  -9   4  114.29    8.40
  -2  -9   4  104.79    8.80
   1   9  -4   36.00    3.70
   1   9  -4   37.40    5.40
  -1  -9   4   45.90    6.00
  -1  -9   4   48.30    6.80
   0   9  -4   79.59    5.20
   0   9  -4   92.99    7.60
   0  -9   4   80.39    9.20
   0  -9   4   89.49    8.10
  -1   9  -4   69.39    5.00
  -1   9  -4   84.89    8.00
   1  -9   4   72.99    8.80
   8   8  -4   23.00    7.50
  -8  -8   4   28.20    5.60
   7   8  -4   33.20    6.90
  -7  -8   4   39.10    5.20
  -7  -8   4   33.30    6.20
   6   8  -4   75.89    8.30
  -6  -8   4   84.39    7.90
  -6  -8   4   82.29    5.80
  -6  -8   4   81.39    7.30
   5   8  -4   29.40    4.00
   5   8  -4   27.30    5.80
  -5  -8   4   23.00    4.80
  -5  -8   4   36.90    5.00
  -5  -8   4   24.90    3.40
   4   8  -4    7.20    5.30
   4   8  -4    9.90    2.80
  -4  -8   4    6.10    3.60
  -4  -8   4   10.40    4.40
  -4  -8   4   11.10    2.40
   3   8  -4   83.29    7.60
   3   8  -4   88.49    5.20
  -3  -8   4   82.29    3.90
  -3  -8   4   78.99    6.30
  -3  -8   4   86.79    7.10
   2   8  -4  220.78   10.00
   2   8  -4  223.08    8.90
   2   8  -4  244.88   12.20
  -2  -8   4  218.08   10.50
  -2  -8   4  246.18   10.70
   1   8  -4   29.50    5.80
   1   8  -4   28.20    4.20
   1   8  -4   33.50    3.60
  -1  -8   4   27.40    5.00
  -1  -8   4   24.80    4.30
   0   8  -4   -0.40    2.00
   0   8  -4    3.00    3.50
   0  -8   4    0.60    3.90
   0  -8   4    2.00    3.80
  -1   8  -4   59.79    6.20
  -1   8  -4   58.69    4.00
   1  -8   4   44.60    5.80
   1  -8   4   54.99    6.60
  -2   8  -4  143.19    6.30
  -2   8  -4  173.28    9.40
   2  -8   4  154.38    9.70
  -3   8  -4  108.69    8.70
  -3   8  -4  115.29    5.50
   3  -8   4  111.79    9.60
   8   7  -4   38.40    7.40
  -8  -7   4   39.00    5.50
   7   7  -4    3.50    5.40
  -7  -7   4    3.50    3.40
  -7  -7   4    1.90    4.80
   6   7  -4   16.40    5.40
  -6  -7   4   10.50    3.30
  -6  -7   4    9.00    3.90
  -6  -7   4   13.00    4.30
   5   7  -4   76.79    5.60
   5   7  -4   81.29    7.50
  -5  -7   4   92.59    6.80
  -5  -7   4   84.29    6.80
  -5  -7   4   84.79    5.30
   4   7  -4  269.67   12.50
   4   7  -4  245.48   10.00
  -4  -7   4  260.17   11.20
  -4  -7   4  269.37    9.70
  -4  -7   4  269.87   11.20
   3   7  -4    3.90    2.20
   3   7  -4    2.20    4.00
  -3  -7   4    5.70    3.50
  -3  -7   4    5.10    1.70
  -3  -7   4    3.80    3.50
   2   7  -4  266.47   12.20
   2   7  -4  255.17    9.50
  -2  -7   4  262.47   10.90
  -2  -7   4  255.07   11.00
   1   7  -4  410.36   13.50
   1   7  -4  421.96   16.40
  -1  -7   4  410.96   15.10
  -1  -7   4  379.16   15.00
   0   7  -4   31.60    4.00
   0   7  -4   48.50    5.70
   0   7  -4   40.40    3.20
   0  -7   4   38.50    4.60
   0  -7   4   41.10    5.10
  -1   7  -4    5.50    1.80
  -1   7  -4    6.10    3.20
   1  -7   4    6.70    4.00
   1  -7   4    6.70    3.40
  -2   7  -4    5.50    3.50
  -2   7  -4    7.10    1.70
   2  -7   4    7.50    4.50
   2  -7   4    6.90    3.80
  -3   7  -4  237.58   11.30
  -3   7  -4  245.18    8.50
   3  -7   4  252.87   11.80
  -4   7  -4  135.69    5.70
  -4   7  -4  140.29    8.70
   4  -7   4  131.59    9.50
   9   6  -4    4.60   11.70
   8   6  -4   16.30    5.80
  -8  -6   4   17.60    6.00
  -8  -6   4    9.10    4.40
   7   6  -4   19.60    5.50
  -7  -6   4   23.40    4.30
  -7  -6   4   26.80    5.00
   6   6  -4    6.00    4.00
  -6  -6   4    5.30    4.00
  -6  -6   4    2.00    3.10
  -6  -6   4    2.90    2.70
   5   6  -4   11.90    2.90
   5   6  -4   10.20    4.10
  -5  -6   4    8.20    3.40
  -5  -6   4   13.30    2.80
  -5  -6   4   10.90    3.20
   4   6  -4  383.76   15.40
   4   6  -4  376.26   13.20
  -4  -6   4  380.86   13.00
  -4  -6   4  383.36   14.00
  -4  -6   4  376.56   14.00
   3   6  -4  638.34   22.60
   3   6  -4  630.14   20.40
  -3  -6   4  644.84   21.30
  -3  -6   4  622.84   20.00
  -3  -6   4  646.54   21.40
   2   6  -4  293.07   12.20
   2   6  -4  275.97    9.70
  -2  -6   4  258.17   10.60
  -2  -6   4  270.17    8.80
  -2  -6   4  270.37   10.80
   1   6  -4  444.16   14.40
   1   6  -4  425.26   16.40
  -1  -6   4  446.46   15.70
  -1  -6   4  446.46   15.70
   0   6  -4    1.30    3.30
   0   6  -4    3.60    1.50
   0  -6   4    0.50    2.60
   0  -6   4    0.90    2.80
  -1   6  -4   69.99    5.00
  -1   6  -4   81.19    6.20
  -1   6  -4   76.39    3.60
   1  -6   4   75.69    5.70
   1  -6   4   85.99    6.10
  -2   6  -4   30.90    2.40
  -2   6  -4   31.10    4.00
   2  -6   4   32.10    4.20
   2  -6   4   39.90    4.90
  -3   6  -4    5.10    1.40
  -3   6  -4    8.70    3.70
   3  -6   4    4.80    3.90
  -4   6  -4  185.48    8.90
  -4   6  -4  178.88    6.40
   4  -6   4  177.78   10.00
  -5   6  -4  205.48    7.40
  -5   6  -4  214.08   10.20
  -5   6  -4  213.98   10.50
   5  -6   4  182.38   10.90
   8   5  -4   28.30    6.00
  -8  -5   4   35.80    5.90
   7   5  -4  170.48   10.10
  -7  -5   4  139.09    8.10
  -7  -5   4  140.89    8.00
   6   5  -4   67.79    6.50
  -6  -5   4   72.39    5.30
  -6  -5   4   77.79    6.10
  -6  -5   4   73.09    5.30
   5   5  -4   70.39    4.80
   5   5  -4   61.99    6.60
  -5  -5   4   65.49    5.20
  -5  -5   4   65.29    5.20
  -5  -5   4   64.49    4.60
   4   5  -4  332.47   12.00
   4   5  -4  363.56   14.00
  -4  -5   4  340.97   12.50
  -4  -5   4  343.57   12.60
  -4  -5   4  340.47   12.00
   3   5  -4   60.79    5.70
   3   5  -4   59.39    3.70
  -3  -5   4   58.59    4.60
  -3  -5   4   57.69    4.50
  -3  -5   4   64.39    3.60
   2   5  -4  597.84   18.60
   2   5  -4  576.24   20.40
  -2  -5   4  588.34   19.50
  -2  -5   4  575.54   19.30
  -2  -5   4  591.44   18.20
   1   5  -4   38.10    4.10
   1   5  -4   32.60    2.40
  -1  -5   4   35.30    3.80
  -1  -5   4   28.60    3.10
   0   5  -4   61.59    5.00
   0   5  -4   66.09    3.10
   0  -5   4   58.49    4.30
   0  -5   4   60.39    4.30
  -1   5  -4  245.98    8.00
  -1   5  -4  250.37   10.00
   1  -5   4  241.88    9.70
   1  -5   4  228.78    9.70
  -2   5  -4  350.76   13.00
  -2   5  -4  353.86   11.30
  -2   5  -4  366.36   13.30
   2  -5   4  358.66   13.40
   2  -5   4  372.46   13.30
  -3   5  -4  452.95   15.70
  -3   5  -4  455.25   13.80
   3  -5   4  441.36   16.10
   3  -5   4  443.06   15.90
  -4   5  -4    1.80    1.10
  -4   5  -4    1.60    2.90
   4  -5   4    0.40    3.20
  -5   5  -4    3.50    3.80
  -5   5  -4    1.90    1.40
  -5   5  -4    1.70    3.60
   5  -5   4    3.80    4.20
  -6   5  -4  283.27   12.90
  -6   5  -4  305.27    9.80
   6  -5   4  268.17   13.30
   9   4  -4   89.79    8.90
   8   4  -4   61.39    7.30
  -8  -4   4   76.29    7.60
   7   4  -4    1.10    4.40
  -7  -4   4    3.90    3.60
   6   4  -4    2.50    3.80
  -6  -4   4    1.00    3.10
  -6  -4   4    1.50    2.80
  -6  -4   4    0.60    2.80
   5   4  -4  171.68    9.40
  -5  -4   4  179.18    8.10
  -5  -4   4  196.18    8.00
  -5  -4   4  203.68    8.00
   4   4  -4  337.97   12.00
   4   4  -4  356.46   13.70
  -4  -4   4  335.07   12.20
  -4  -4   4  333.47   12.00
  -4  -4   4  366.66   12.40
   3   4  -4  425.06   15.20
   3   4  -4  391.86   13.40
  -3  -4   4  412.46   13.80
  -3  -4   4  388.76   13.90
  -3  -4   4  418.06   13.50
   2   4  -4    3.90    1.20
   2   4  -4    1.90    2.20
  -2  -4   4    2.70    1.20
  -2  -4   4    3.00    1.70
  -2  -4   4    2.40    1.80
   1   4  -4  577.54   19.90
   1   4  -4  584.04   18.40
  -1  -4   4  602.74   19.20
  -1  -4   4  612.64   18.00
  -1  -4   4  606.54   18.00
  -1  -4   4  583.74   19.50
   0   4  -4    2.20    0.90
   0   4  -4    3.50    2.00
   0  -4   4    4.70    1.90
   0  -4   4    3.80    2.10
  -1   4  -4    2.70    0.90
  -1   4  -4    2.30    0.80
  -1   4  -4    3.70    2.20
   1  -4   4    3.00    2.20
   1  -4   4    4.00    1.90
  -2   4  -4   20.30    1.30
  -2   4  -4   18.60    2.80
  -2   4  -4   20.50    2.70
  -2   4  -4   20.50    1.40
   2  -4   4   26.50    3.10
   2  -4   4   19.20    3.00
   2  -4   4   25.20    3.20
  -3   4  -4 1049.89   31.40
  -3   4  -4 1048.60   33.10
  -3   4  -4 1062.69   33.10
   3  -4   4 1033.10   33.40
   3  -4   4 1055.89   33.30
   3  -4   4 1086.99   33.30
  -4   4  -4  475.15   15.70
  -4   4  -4  447.36   13.70
   4  -4   4  438.16   15.60
   4  -4   4  450.75   16.30
  -5   4  -4   12.40    3.30
  -5   4  -4   11.80    3.30
  -5   4  -4   15.60    1.70
   5  -4   4   14.00    3.70
  -6   4  -4   21.50    2.00
  -6   4  -4   23.30    4.60
   6  -4   4   17.80    4.80
  -7   4  -4  127.79    5.60
  -7   4  -4  135.89    9.40
   7  -4   4  121.29    9.80
   9   3  -4   11.40    5.20
   8   3  -4   58.69    6.90
  -8  -3   4   63.59    6.90
   7   3  -4   93.89    7.20
  -7  -3   4  103.29    6.80
   6   3  -4  844.42   29.20
   6   3  -4  897.11   29.10
  -6  -3   4  903.51   28.60
  -6  -3   4  882.41   28.20
  -6  -3   4  882.61   28.50
   5   3  -4    4.20    3.20
   5   3  -4    5.10    3.00
  -5  -3   4    4.10    2.60
  -5  -3   4    3.40    2.30
  -5  -3   4    2.90    2.30
   4   3  -4  169.58    6.70
   4   3  -4  167.18    7.90
  -4  -3   4  163.48    6.80
  -4  -3   4  169.78    6.80
  -4  -3   4  153.18    6.80
   3   3  -4  350.46   13.00
   3   3  -4  351.36   11.70
  -3  -3   4  360.16   11.80
  -3  -3   4  343.27   11.80
  -3  -3   4  350.76   12.20
   2   3  -4   14.30    2.60
   2   3  -4   15.20    1.70
  -2  -3   4   13.10    2.10
  -2  -3   4   13.40    1.90
  -2  -3   4   12.70    1.50
   1   3  -4   18.40    2.60
   1   3  -4   20.30    1.70
  -1  -3   4   16.50    2.20
  -1  -3   4   21.70    1.50
  -1  -3   4   22.80    1.80
  -1  -3   4   19.30    2.20
   0   3  -4  386.76   12.20
   0   3  -4  389.36   13.40
   0   3  -4  401.76   12.20
   0  -3   4  399.26   12.90
   0  -3   4  399.46   13.30
   0  -3   4  391.56   13.60
  -1   3  -4  397.06   11.90
  -1   3  -4  384.96   13.20
  -1   3  -4  373.76   11.80
   1  -3   4  409.56   13.00
   1  -3   4  398.36   13.50
   1  -3   4  380.96   13.20
  -2   3  -4  714.43   23.50
   2  -3   4  767.92   23.50
   2  -3   4  724.83   23.60
   2  -3   4  759.62   23.70
  -3   3  -4    0.10    1.80
  -3   3  -4    0.00    1.50
   3  -3   4    0.00    1.80
   3  -3   4   -0.40    1.90
   3  -3   4   -0.10    1.90
  -4   3  -4  398.86   13.80
  -4   3  -4  399.26   12.20
  -4   3  -4  390.26   13.90
  -4   3  -4  409.06   12.10
  -4   3  -4  389.36   13.60
   4  -3   4  426.06   14.00
   4  -3   4  412.36   13.90
   4  -3   4  395.26   14.30
  -5   3  -4  297.77   10.90
  -5   3  -4  307.07   11.50
  -5   3  -4  299.07    9.40
   5  -3   4  296.47   11.80
  -6   3  -4   19.60    2.10
  -6   3  -4   25.10    4.30
   6  -3   4   21.80    4.50
  -7   3  -4   64.09    6.70
  -7   3  -4   70.19    3.60
   7  -3   4   63.49    7.20
  -8   3  -4   33.10    6.50
  -8   3  -4   35.70    3.40
   9   2  -4   78.89    8.40
   8   2  -4   76.09    7.10
  -8  -2   4   82.79    7.50
   7   2  -4   49.40    5.90
  -7  -2   4   62.99    5.90
   6   2  -4  346.17   13.60
  -6  -2   4  361.46   13.00
  -6  -2   4  359.76   13.10
   5   2  -4  573.84   20.10
   5   2  -4  609.74   20.60
  -5  -2   4  599.04   19.70
  -5  -2   4  610.24   19.70
  -5  -2   4  598.34   19.80
   4   2  -4   18.40    3.10
   4   2  -4   14.70    2.30
   4   2  -4   27.50    3.60
  -4  -2   4   10.10    2.20
  -4  -2   4   16.60    2.30
  -4  -2   4   11.40    2.20
   3   2  -4  818.22   26.50
   3   2  -4  877.71   26.10
   3   2  -4  824.22   25.50
  -3  -2   4  799.72   25.40
  -3  -2   4  824.52   25.90
  -3  -2   4  804.92   25.60
   2   2  -4  259.67    9.20
   2   2  -4  274.37    9.70
   2   2  -4  269.57    8.80
  -2  -2   4  250.57    9.10
  -2  -2   4  259.17    8.80
  -2  -2   4  260.57    8.70
   1   2  -4  314.17   11.00
   1   2  -4  310.97   10.10
  -1  -2   4  299.67   10.70
  -1  -2   4  325.77   10.20
  -1  -2   4  331.47   10.20
  -1  -2   4  318.87   10.20
   0   2  -4  780.02   23.90
   0   2  -4  807.72   24.90
   0   2  -4  798.72   23.90
   0  -2   4  804.82   24.20
   0  -2   4  778.32   23.60
   0  -2   4  803.32   24.80
   0  -2   4  793.22   23.60
   0  -2   4  798.52   25.10
  -1   2  -4    8.80    1.70
  -1   2  -4   10.20    0.90
  -1   2  -4    9.30    0.70
   1  -2   4    6.70    1.60
   1  -2   4   13.00    1.50
   1  -2   4    8.40    1.70
   2  -2   4  294.07    9.90
   2  -2   4  298.17   10.30
   2  -2   4  286.67   10.10
   3  -2   4  311.57   10.80
   3  -2   4  309.47   10.80
   3  -2   4  304.17   10.50
  -4   2  -4    0.40    1.60
  -4   2  -4   -0.50    1.70
   4  -2   4   -0.30    1.80
   4  -2   4    0.60    2.00
   4  -2   4   -0.20    1.80
  -5   2  -4  266.67    8.20
  -5   2  -4  255.07    9.30
  -5   2  -4  261.97   10.10
   5  -2   4  262.17   10.40
   5  -2   4  262.07    9.80
  -6   2  -4  340.87   12.80
  -6   2  -4  342.87   10.80
   6  -2   4  340.67   13.10
  -7   2  -4    4.60    3.20
  -7   2  -4    2.00    1.40
  -8   2  -4   27.70    2.70
  -8   2  -4   28.40    5.10
  -9   2  -4    1.90    6.20
   8   1  -4  134.69    8.60
  -8  -1   4  132.79    8.80
   7   1  -4    7.50    3.50
  -7  -1   4    6.40    3.80
   6   1  -4  169.18    8.60
  -6  -1   4  188.38    8.10
  -6  -1   4  177.38    8.10
   5   1  -4  749.92   23.90
  -5  -1   4  698.73   23.20
  -5  -1   4  739.83   23.40
  -5  -1   4  718.03   23.50
   4   1  -4  622.74   20.00
   4   1  -4  625.84   20.80
   4   1  -4  613.74   20.50
  -4  -1   4  643.84   20.30
  -4  -1   4  630.64   20.20
  -4  -1   4  623.04   19.70
  -4  -1   4  627.84   20.00
   3   1  -4  688.53   21.60
   3   1  -4  658.73   21.00
   3   1  -4  670.83   21.80
  -3  -1   4  672.23   20.80
  -3  -1   4  663.23   21.30
  -3  -1   4  662.03   21.20
  -3  -1   4  692.83   20.90
   2   1  -4   39.20    2.40
   2   1  -4   43.00    3.00
   2   1  -4   42.70    3.10
  -2  -1   4   34.70    2.50
  -2  -1   4   40.80    2.30
  -2  -1   4   38.20    2.60
  -2  -1   4   41.00    2.20
   1   1  -4  397.26   12.20
   1   1  -4  378.56   11.80
   1   1  -4  384.86   12.50
  -1  -1   4  376.56   12.00
  -1  -1   4  355.36   12.30
  -1  -1   4  377.46   11.60
  -1  -1   4  365.96   12.60
   0   1  -4   39.40    2.50
   0   1  -4   37.50    1.80
   0  -1   4   39.40    1.90
   0  -1   4   38.40    1.80
   0  -1   4   39.60    1.70
   0  -1   4   37.10    2.60
   0  -1   4   37.50    2.30
  -1   1  -4  135.09    4.30
  -1   1  -4  125.99    4.30
   1  -1   4  134.99    5.10
   1  -1   4  128.79    5.30
   1  -1   4  140.99    4.60
  -2   1  -4   19.30    0.80
  -2   1  -4   18.30    1.60
  -2   1  -4   19.30    0.80
   2  -1   4   20.90    1.70
   2  -1   4   17.60    2.00
   2  -1   4   20.00    2.00
  -3   1  -4  786.62   24.20
   3  -1   4  794.32   24.40
   3  -1   4  749.82   24.60
   3  -1   4  814.22   24.30
  -4   1  -4  538.85   16.30
  -4   1  -4  556.14   16.40
  -4   1  -4  543.45   17.10
  -4   1  -4  532.55   17.50
   4  -1   4  560.74   17.30
   4  -1   4  538.85   17.70
   4  -1   4  558.64   17.80
  -5   1  -4  352.66   12.20
  -5   1  -4  344.67   10.70
  -5   1  -4  332.77   11.80
   5  -1   4  356.66   12.40
   5  -1   4  345.47   12.10
  -6   1  -4    0.30    1.00
  -6   1  -4    0.00    2.20
   6  -1   4    0.90    2.80
  -7   1  -4  172.68    8.00
  -7   1  -4  155.58    5.90
  -8   1  -4  136.59    5.80
  -8   1  -4  153.28    8.20
  -9   1  -4   -0.10    2.30
  -9   1  -4    0.50    4.50
   8   0  -4   14.40    4.50
  -8   0   4   12.30    5.20
   7   0  -4   85.39    6.70
  -7   0   4   96.19    6.90
   6   0  -4  149.09    7.70
  -6   0   4  134.59    6.90
  -6   0   4  140.59    6.90
   5   0  -4  171.88    8.10
  -5   0   4  187.68    7.20
  -5   0   4  179.08    7.70
  -5   0   4  181.68    7.50
   4   0  -4    5.40    2.20
  -4   0   4    6.60    2.00
  -4   0   4    5.40    2.20
  -4   0   4    5.40    1.60
  -4   0   4    6.90    2.10
   3   0  -4 1302.27   40.20
   3   0  -4 1334.57   40.10
   3   0  -4 1329.17   39.80
  -3   0   4 1310.27   39.50
  -3   0   4 1230.98   39.90
  -3   0   4 1308.07   39.60
  -3   0   4 1339.37   40.00
   2   0  -4 1958.00   61.89
   2   0  -4 2024.20   61.59
   2   0  -4 2068.59   61.89
  -2   0   4 2165.98   61.29
  -2   0   4 2063.29   61.89
  -2   0   4 2102.09   61.79
  -2   0   4 2028.00   61.39
   1   0  -4    0.10    1.00
   1   0  -4   -0.10    1.00
   1   0  -4    0.20    0.80
  -1   0   4    0.10    0.70
  -1   0   4   -0.10    0.90
  -1   0   4    0.10    1.20
  -1   0   4    0.30    1.00
  -1   0   4    0.30    1.00
   0   0  -4  741.73   22.80
   0   0   4  748.83   22.90
   0   0   4  764.32   23.50
   0   0   4  770.72   23.30
  -1   0  -4  271.37    8.60
  -1   0  -4  272.57    8.40
   1   0   4  283.87    9.10
   1   0   4  278.27    8.60
   1   0   4  283.87    8.60
   1   0   4  268.87    9.40
  -2   0  -4  873.21   26.90
  -2   0  -4  920.91   26.90
  -2   0  -4  924.91   27.20
   2   0   4  901.21   27.50
   2   0   4  902.31   27.90
  -3   0  -4   10.90    1.40
  -3   0  -4    9.50    0.90
  -3   0  -4   10.60    0.90
   3   0   4    8.80    1.80
   3   0   4   13.20    1.50
  -4   0  -4  272.77    8.60
  -4   0  -4  276.27    8.60
  -4   0  -4  265.47    9.40
   4   0   4  268.67    9.70
   4   0   4  298.37    9.10
  -5   0  -4  372.26   12.80
  -5   0  -4  369.56   11.80
   5   0   4  403.96   13.20
  -6   0  -4  519.25   16.10
  -6   0  -4  513.35   17.50
   6   0   4  529.35   17.40
  -7   0  -4    4.20    2.90
  -7   0  -4    2.20    1.40
  -8   0  -4   54.99    3.60
  -8   0  -4   53.89    5.70
  -9   0  -4  131.79    6.30
  -9   0  -4  137.99    8.50
 -10   0  -4   19.90    4.90
 -10   0  -4   26.60    6.30
   8  -1  -4    0.90    4.00
   7  -1  -4   17.30    4.00
  -7   1   4   20.90    4.90
   6  -1  -4  258.17   10.70
  -6   1   4  243.08   10.30
  -6   1   4  264.07    9.90
  -6   1   4  245.48   10.50
   5  -1  -4  294.37   11.70
  -5   1   4  303.97   11.50
  -5   1   4  313.47   11.50
  -5   1   4  326.07   11.10
   4  -1  -4  173.58    7.40
  -4   1   4  176.68    6.70
  -4   1   4  168.78    6.90
  -4   1   4  166.08    7.30
   3  -1  -4   72.79    4.20
   3  -1  -4   74.69    4.50
  -3   1   4   63.69    4.10
  -3   1   4   69.79    4.20
  -3   1   4   73.99    3.70
  -3   1   4   78.49    3.80
   2  -1  -4  208.28    7.50
   2  -1  -4  208.88    7.90
   2  -1  -4  219.48    7.60
   2  -1  -4  221.28    7.60
  -2   1   4  215.48    7.90
  -2   1   4  204.38    7.70
  -2   1   4  223.48    7.40
  -2   1   4  233.38    7.50
   1  -1  -4 1291.77   38.90
   1  -1  -4 1311.97   39.20
   1  -1  -4 1330.97   38.70
  -1   1   4 1226.58   39.00
  -1   1   4 1299.57   38.50
  -1   1   4 1274.67   39.20
  -1   1   4 1265.07   39.10
  -1   1   4 1327.27   38.80
   0  -1  -4  239.88    7.10
   0  -1  -4  229.28    7.50
   0  -1  -4  236.78    7.80
   0   1   4  212.28    7.60
   0   1   4  232.48    7.80
   0   1   4  235.68    7.40
   0   1   4  214.08    7.90
  -1  -1  -4  391.16   11.60
  -1  -1  -4  384.06   11.90
   1   1   4  388.16   12.00
   1   1   4  387.96   12.20
   1   1   4  373.06   12.50
  -2  -1  -4 4575.34  140.29
  -2  -1  -4 4764.42  140.39
   2   1   4 4691.03  140.19
   2   1   4 4840.12  140.49
   2   1   4 4830.12  141.09
   2   1   4 4812.22  140.39
  -3  -1  -4 1740.73   53.19
  -3  -1  -4 1727.03   52.89
  -3  -1  -4 1794.42   52.79
   3   1   4 1797.32   52.99
   3   1   4 1802.92   52.69
   3   1   4 1741.63   53.79
   3   1   4 1849.81   52.69
  -4  -1  -4  549.65   16.70
  -4  -1  -4  528.85   17.20
  -4  -1  -4  527.15   16.70
   4   1   4  545.55   17.70
   4   1   4  578.54   16.70
  -5  -1  -4   10.20    1.30
  -5  -1  -4    5.40    1.80
   5   1   4    9.50    2.10
  -6  -1  -4   15.80    2.70
  -6  -1  -4   18.80    2.00
   6   1   4   13.30    2.50
  -7  -1  -4  156.88    6.10
  -7  -1  -4  162.38    7.40
   7   1   4  173.58    7.50
  -8  -1  -4    1.20    1.70
  -8  -1  -4    0.60    2.90
  -9  -1  -4   66.59    6.20
  -9  -1  -4   62.29    4.40
 -10  -1  -4  140.29    7.50
 -10  -1  -4  155.68   10.50
   7  -2  -4   40.50    5.10
  -7   2   4   41.50    5.50
   6  -2  -4    2.70    3.20
  -6   2   4    4.80    3.80
  -6   2   4    4.60    3.90
  -6   2   4    0.90    2.50
   5  -2  -4  390.96   14.70
  -5   2   4  414.66   14.00
  -5   2   4  403.66   14.70
  -5   2   4  428.86   14.90
   4  -2  -4  204.98    8.50
   4  -2  -4  198.78    8.30
  -4   2   4  207.28    8.30
  -4   2   4  193.48    7.60
  -4   2   4  200.68    8.00
   3  -2  -4   26.80    3.00
   3  -2  -4   25.40    3.20
  -3   2   4   30.70    3.10
  -3   2   4   26.20    2.80
  -3   2   4   24.70    2.60
   2  -2  -4   50.79    3.10
   2  -2  -4   50.49    3.20
   2  -2  -4   53.99    2.70
   2  -2  -4   41.20    3.20
  -2   2   4   45.80    3.30
  -2   2   4   50.69    3.40
  -2   2   4   39.90    3.80
  -2   2   4   48.40    2.90
  -2   2   4   55.29    2.90
   1  -2  -4  394.16   12.80
   1  -2  -4  406.26   12.80
   1  -2  -4  400.96   13.20
  -1   2   4  400.86   12.80
  -1   2   4  406.76   13.00
  -1   2   4  384.26   13.10
  -1   2   4  402.06   12.70
   0  -2  -4  754.72   23.10
   0  -2  -4  722.83   22.70
   0  -2  -4  743.13   22.80
   0   2   4  762.12   23.00
   0   2   4  727.23   23.10
   0   2   4  750.62   22.70
   0   2   4  771.82   23.00
  -1  -2  -4 1097.69   32.00
  -1  -2  -4 1057.19   32.10
  -1  -2  -4 1088.29   32.40
   1   2   4 1052.69   32.50
   1   2   4 1016.30   32.20
   1   2   4 1065.89   32.20
   1   2   4 1077.69   32.00
  -2  -2  -4    1.00    1.10
  -2  -2  -4    1.70    1.10
  -2  -2  -4    1.20    0.70
   2   2   4    1.20    0.80
   2   2   4    1.90    0.90
   2   2   4    1.70    1.20
  -3  -2  -4 2371.16   72.49
  -3  -2  -4 2401.56   72.79
   3   2   4 2379.06   73.29
   3   2   4 2521.55   72.69
   3   2   4 2526.85   72.39
  -4  -2  -4  553.64   17.60
  -4  -2  -4  576.34   18.10
   4   2   4  572.84   18.60
   4   2   4  563.64   17.50
   4   2   4  585.84   17.60
   4   2   4  576.34   17.20
  -5  -2  -4    4.90    1.70
  -5  -2  -4    6.50    1.30
   5   2   4   11.50    1.20
   5   2   4    5.40    1.90
   5   2   4    8.90    1.20
  -6  -2  -4  241.98    9.40
  -6  -2  -4  250.17    8.60
   6   2   4  255.77    8.00
   6   2   4  247.78    9.60
  -7  -2  -4  147.69    6.90
  -7  -2  -4  136.29    5.50
   7   2   4  132.59    6.80
   7   2   4  130.29    4.50
  -8  -2  -4  375.26   14.40
  -8  -2  -4  372.26   12.90
   8   2   4  407.06   14.50
  -9  -2  -4  161.98    8.80
  -9  -2  -4  146.39    6.90
 -10  -2  -4   -0.20    4.30
 -10  -2  -4   -0.20    2.90
   7  -3  -4  100.59    8.90
  -7   3   4  108.19    9.40
   6  -3  -4   52.89    5.80
  -6   3   4   51.79    5.90
  -6   3   4   45.70    5.80
  -6   3   4   45.30    4.50
   5  -3  -4    6.90    4.00
   5  -3  -4   10.60    3.20
  -5   3   4   11.10    3.80
  -5   3   4   11.10    2.80
  -5   3   4    8.80    3.80
   4  -3  -4  190.88    9.00
   4  -3  -4  198.58    8.50
  -4   3   4  200.08    8.90
  -4   3   4  215.48    8.10
  -4   3   4  215.88    8.70
   3  -3  -4  236.48    8.90
   3  -3  -4  220.58    9.10
  -3   3   4  231.68    9.00
  -3   3   4  224.78    8.80
  -3   3   4  232.48    8.30
   2  -3  -4  165.38    6.60
   2  -3  -4  147.89    6.40
  -2   3   4  159.38    6.50
  -2   3   4  150.78    5.90
   1  -3  -4   23.00    2.50
   1  -3  -4   23.70    2.40
   1  -3  -4   19.60    2.40
  -1   3   4   27.70    2.70
  -1   3   4   22.70    2.10
  -1   3   4   20.10    2.10
  -1   3   4   16.30    2.20
   0  -3  -4    4.70    1.20
   0  -3  -4    5.80    1.50
   0  -3  -4    5.90    1.60
   0   3   4    6.60    1.40
   0   3   4    6.90    1.60
   0   3   4    5.80    1.20
   0   3   4    5.20    1.40
  -1  -3  -4  776.32   24.80
  -1  -3  -4  820.12   24.70
  -1  -3  -4  802.92   24.50
   1   3   4  807.12   24.40
   1   3   4  809.42   24.80
   1   3   4  793.82   24.70
   1   3   4  794.32   24.70
  -2  -3  -4  710.83   23.30
  -2  -3  -4  768.92   23.10
  -2  -3  -4  765.22   23.40
   2   3   4  734.23   23.60
   2   3   4  770.82   23.20
   2   3   4  765.82   23.10
   2   3   4  761.72   23.00
  -3  -3  -4   65.09    2.80
  -3  -3  -4   52.99    3.20
   3   3   4   54.59    2.80
   3   3   4   60.09    2.60
   3   3   4   51.19    3.30
  -4  -3  -4  373.86   12.20
  -4  -3  -4  405.06   12.80
  -4  -3  -4  394.06   12.80
   4   3   4  366.26   13.00
   4   3   4  362.96   12.20
   4   3   4  391.66   11.70
  -5  -3  -4  617.64   20.50
  -5  -3  -4  633.84   19.80
   5   3   4  646.14   19.80
   5   3   4  648.14   20.90
  -6  -3  -4  672.93   20.60
  -6  -3  -4  629.54   21.30
   6   3   4  662.73   20.40
   6   3   4  659.13   21.70
  -7  -3  -4   88.39    5.30
  -7  -3  -4   90.49    4.40
   7   3   4   86.29    4.00
   7   3   4   90.89    5.40
  -8  -3  -4   54.99    5.40
  -8  -3  -4   59.09    3.90
   8   3   4   52.29    5.40
   8   3   4   56.59    3.30
  -9  -3  -4  508.55   17.10
  -9  -3  -4  516.95   18.60
   9   3   4  517.35   18.60
   9   3   4  499.45   15.90
 -10  -3  -4   84.89    8.30
 -10  -3  -4   91.19    6.10
 -11  -3  -4    1.60    3.90
   6  -4  -4    2.80    3.80
   6  -4  -4    5.30    5.00
  -6   4   4    0.80    4.80
  -6   4   4    2.30    3.80
  -6   4   4    0.10    4.70
   5  -4  -4  312.57   13.40
   5  -4  -4  293.87   12.20
  -5   4   4  310.57   13.00
  -5   4   4  334.87   13.10
  -5   4   4  311.97   11.80
   4  -4  -4  220.58   10.20
   4  -4  -4  215.18    9.10
  -4   4   4  216.58    8.60
  -4   4   4  224.78    9.80
  -4   4   4  211.68    9.50
   3  -4  -4   23.00    3.00
   3  -4  -4   25.10    3.60
  -3   4   4   22.10    2.60
  -3   4   4   27.70    3.60
   2  -4  -4  201.68    8.20
   2  -4  -4  207.48    8.70
  -2   4   4  221.88    7.80
  -2   4   4  217.58    8.50
   1  -4  -4  147.39    6.50
   1  -4  -4  148.09    6.60
  -1   4   4  159.68    6.00
  -1   4   4  160.58    6.70
   0  -4  -4   67.29    3.90
   0  -4  -4   67.09    3.90
   0   4   4   64.89    3.70
   0   4   4   76.29    3.40
   0   4   4   70.99    3.90
   0   4   4   72.39    3.50
  -1  -4  -4   69.49    3.80
  -1  -4  -4   74.69    3.90
  -1  -4  -4   74.89    3.50
   1   4   4   87.19    3.50
   1   4   4   73.79    3.90
   1   4   4   73.09    3.80
   1   4   4   73.59    3.70
  -2  -4  -4  580.64   18.00
  -2  -4  -4  590.94   18.40
  -2  -4  -4  591.94   18.40
   2   4   4  551.74   18.20
   2   4   4  560.84   17.90
   2   4   4  585.24   18.10
   2   4   4  560.14   18.50
  -3  -4  -4  323.17   10.50
  -3  -4  -4  310.17   11.00
  -3  -4  -4  330.97   10.90
   3   4   4  302.57   10.70
   3   4   4  313.57   10.40
   3   4   4  330.07   10.40
   3   4   4  329.57   11.30
  -4  -4  -4  386.56   13.40
  -4  -4  -4  387.06   13.30
  -4  -4  -4  417.96   12.90
   4   4   4  420.46   12.40
   4   4   4  375.56   12.90
   4   4   4  380.46   13.60
  -5  -4  -4   42.40    3.50
  -5  -4  -4   55.79    3.20
   5   4   4   46.50    3.00
   5   4   4   48.30    3.80
  -6  -4  -4  955.00   30.00
  -6  -4  -4  955.50   29.10
   6   4   4  924.11   29.00
   6   4   4  924.21   30.20
  -7  -4  -4  639.14   20.40
  -7  -4  -4  621.54   21.40
   7   4   4  631.04   20.20
   7   4   4  654.93   21.70
  -8  -4  -4    6.50    2.40
  -8  -4  -4    3.70    2.90
   8   4   4    7.10    2.00
   8   4   4    7.60    3.50
  -9  -4  -4   52.59    5.60
  -9  -4  -4   51.09    4.60
   9   4   4   47.60    5.70
   9   4   4   50.39    3.80
 -10  -4  -4   53.39    6.60
 -10  -4  -4   53.69    5.50
  10   4   4   52.49    4.10
  10   4   4   53.99    6.50
 -11  -4  -4  144.59   10.20
 -11  -4  -4  136.89    8.50
  11   4   4  139.59    5.70
   5  -5  -4   38.10    4.60
   5  -5  -4   52.99    6.80
  -5   5   4   37.90    4.20
  -5   5   4   48.00    6.00
  -5   5   4   40.40    5.40
   4  -5  -4  509.85   18.30
   4  -5  -4  565.34   19.90
  -4   5   4  527.75   18.00
  -4   5   4  566.24   19.30
  -4   5   4  517.65   19.10
   3  -5  -4  466.85   16.90
   3  -5  -4  528.35   18.20
  -3   5   4  491.85   17.50
  -3   5   4  507.85   16.60
   2  -5  -4    3.60    3.10
   2  -5  -4    4.90    2.30
  -2   5   4    8.30    2.20
  -2   5   4    3.90    2.80
   1  -5  -4  171.68    7.80
   1  -5  -4  179.68    7.20
  -1   5   4  171.08    6.80
  -1   5   4  175.48    7.50
   0  -5  -4    2.80    2.20
   0  -5  -4    7.80    2.20
   0   5   4    1.80    1.80
   0   5   4    1.30    1.40
  -1  -5  -4   46.10    3.80
  -1  -5  -4   53.19    3.50
   1   5   4   52.19    3.60
   1   5   4   51.39    4.00
   1   5   4   53.99    3.10
   1   5   4   52.79    3.60
  -2  -5  -4    3.80    1.50
  -2  -5  -4    4.80    2.10
  -2  -5  -4    3.20    1.60
   2   5   4    2.40    1.80
   2   5   4    3.90    1.70
   2   5   4    4.00    1.50
   2   5   4    4.80    2.00
  -3  -5  -4  742.63   23.70
  -3  -5  -4  747.03   24.40
  -3  -5  -4  757.92   24.10
   3   5   4  784.12   23.60
   3   5   4  775.92   23.70
   3   5   4  772.22   24.50
   3   5   4  765.92   24.10
  -4  -5  -4  847.12   26.80
  -4  -5  -4  772.22   26.40
  -4  -5  -4  866.51   26.00
   4   5   4  840.42   27.00
   4   5   4  883.11   25.80
   4   5   4  822.72   26.30
  -5  -5  -4  309.07   10.10
  -5  -5  -4  281.57   11.00
   5   5   4  284.57   10.20
   5   5   4  281.67   11.00
  -6  -5  -4  155.28    6.50
  -6  -5  -4  144.79    7.30
   6   5   4  154.18    7.50
   6   5   4  169.08    6.70
  -7  -5  -4  587.64   19.00
  -7  -5  -4  595.74   20.30
   7   5   4  569.64   20.30
   7   5   4  579.54   19.00
  -8  -5  -4   11.10    3.50
  -8  -5  -4   10.30    2.60
   8   5   4   10.30    2.60
   8   5   4    8.20    3.70
  -9  -5  -4   27.90    5.00
  -9  -5  -4   28.40    3.50
   9   5   4   32.10    5.20
   9   5   4   33.30    3.60
 -10  -5  -4    0.40    4.30
 -10  -5  -4    0.50    3.20
  10   5   4   -0.70    2.80
  10   5   4   -0.50    4.60
 -11  -5  -4   90.09    7.70
 -11  -5  -4   83.69    9.90
  11   5   4   80.39    5.80
   4  -6  -4   47.30    5.40
   4  -6  -4   43.50    6.50
  -4   6   4   46.70    6.00
  -4   6   4   65.69    5.60
  -4   6   4   62.69    7.30
   3  -6  -4  195.38    8.40
   3  -6  -4  191.38    9.60
  -3   6   4  195.28    8.20
  -3   6   4  172.28    9.10
   2  -6  -4  368.26   14.30
   2  -6  -4  352.36   13.00
  -2   6   4  359.16   13.70
  -2   6   4  380.56   12.80
   1  -6  -4    0.30    1.90
   1  -6  -4    2.80    3.20
  -1   6   4    2.70    2.50
  -1   6   4    2.70    2.00
   0  -6  -4   38.20    3.70
   0  -6  -4   40.60    4.40
   0   6   4   36.60    3.40
   0   6   4   34.20    3.70
  -1  -6  -4   37.30    3.80
  -1  -6  -4   40.00    3.60
   1   6   4   34.80    3.20
   1   6   4   36.70    3.40
  -2  -6  -4  673.03   22.30
  -2  -6  -4  689.23   22.90
   2   6   4  700.23   22.30
   2   6   4  699.83   21.80
   2   6   4  708.13   22.50
  -3  -6  -4   56.09    4.60
  -3  -6  -4   58.99    4.20
   3   6   4   52.29    3.50
   3   6   4   52.99    4.10
   3   6   4   56.79    4.10
   3   6   4   60.89    3.90
  -4  -6  -4  145.89    6.90
  -4  -6  -4  129.39    6.20
   4   6   4  137.79    6.80
   4   6   4  133.79    5.70
   4   6   4  112.99    6.00
  -5  -6  -4  118.49    5.60
  -5  -6  -4  116.99    6.50
  -5  -6  -4  110.39    6.20
   5   6   4  114.79    5.70
   5   6   4  112.49    6.30
  -6  -6  -4    9.80    3.20
  -6  -6  -4    9.30    2.50
   6   6   4    8.20    2.50
   6   6   4   10.10    3.40
  -7  -6  -4   43.20    4.90
  -7  -6  -4   42.50    4.10
   7   6   4   36.20    4.20
   7   6   4   39.70    4.80
  -8  -6  -4   15.90    4.40
  -8  -6  -4   15.70    3.30
   8   6   4   16.40    3.20
   8   6   4   12.90    3.80
  -9  -6  -4  424.76   16.30
  -9  -6  -4  409.56   14.40
   9   6   4  374.26   14.30
   9   6   4  377.76   16.00
 -10  -6  -4  201.58   11.60
 -10  -6  -4  151.58    9.10
  10   6   4  196.88   11.30
  10   6   4  183.48    8.70
 -11  -6  -4   21.50    7.60
  11   6   4   22.40    6.60
   3  -7  -4   -0.50    5.20
   3  -7  -4   -0.10    3.10
  -3   7   4   -0.70    4.90
  -3   7   4   -0.20    3.30
   2  -7  -4   80.49    6.90
   2  -7  -4   81.09    5.60
  -2   7   4   77.59    5.60
  -2   7   4   87.19    6.70
   1  -7  -4  106.89    7.50
   1  -7  -4   99.19    5.40
  -1   7   4   97.49    6.80
  -1   7   4   94.49    5.40
   0  -7  -4  237.78    9.50
   0  -7  -4  247.58   10.60
   0   7   4  227.28    9.80
   0   7   4  243.48    9.20
  -1  -7  -4    3.90    3.30
  -1  -7  -4    1.50    2.20
   1   7   4    1.60    2.50
   1   7   4    4.20    2.20
  -2  -7  -4   12.50    3.20
  -2  -7  -4   20.30    3.00
   2   7   4   18.80    3.10
   2   7   4   13.50    2.30
  -3  -7  -4  979.40   32.90
  -3  -7  -4 1046.10   32.30
   3   7   4 1034.10   32.80
   3   7   4 1033.50   32.20
  -4  -7  -4   93.89    5.50
  -4  -7  -4   80.39    6.00
   4   7   4   89.19    5.00
   4   7   4   84.49    5.70
   4   7   4   89.39    6.10
  -5  -7  -4   29.30    4.00
  -5  -7  -4   32.80    3.70
   5   7   4   39.10    4.60
   5   7   4   40.10    4.40
  -6  -7  -4    2.40    3.20
   6   7   4    0.60    3.00
   6   7   4    1.30    2.80
  -7  -7  -4   32.40    4.80
   7   7   4   23.90    4.50
   7   7   4   33.10    4.20
  -8  -7  -4  162.68    9.10
   8   7   4  164.88    8.10
   8   7   4  162.38    9.40
  -9  -7  -4    6.50    4.60
   9   7   4    7.10    3.80
   9   7   4   11.80    4.80
 -10  -7  -4  329.57   15.30
  10   7   4  335.27   13.70
  10   7   4  334.57   15.50
   2  -8  -4    1.70    3.30
   2  -8  -4   -0.20    5.60
  -2   8   4    0.10    5.30
  -2   8   4    1.40    3.50
   1  -8  -4   18.40    3.40
   1  -8  -4   13.40    4.90
  -1   8   4   21.70    4.50
  -1   8   4   16.20    3.20
   0  -8  -4   71.89    7.40
   0  -8  -4   68.09    5.10
   0   8   4   79.29    5.50
   0   8   4   67.19    6.40
  -1  -8  -4  224.78    9.40
  -1  -8  -4  214.48   10.80
   1   8   4  241.68    9.30
   1   8   4  247.78   10.40
  -2  -8  -4  243.68   11.50
  -2  -8  -4  272.57   10.60
   2   8   4  279.57   10.90
   2   8   4  264.97   10.10
  -3  -8  -4  326.17   13.30
  -3  -8  -4  335.67   12.50
   3   8   4  341.17   12.50
  -4  -8  -4  341.67   13.70
  -4  -8  -4  333.87   12.60
   4   8   4  319.27   13.10
   4   8   4  337.37   12.40
  -5  -8  -4  147.69    7.80
  -5  -8  -4  157.38    8.70
   5   8   4  144.09    8.60
  -6  -8  -4    3.10    3.70
   6   8   4    4.50    3.60
   6   8   4    2.50    3.40
  -7  -8  -4    6.90    4.00
   7   8   4    5.40    4.00
   7   8   4    3.80    3.50
  -8  -8  -4   84.39    7.50
   8   8   4   79.39    7.60
   8   8   4   83.39    6.70
  -9  -8  -4   89.59    8.30
   9   8   4   79.99    8.30
   9   8   4   78.09    7.40
 -10  -8  -4    8.50    6.40
  10   8   4    9.00    6.00
  10   8   4   18.20    5.40
   1  -9  -4    6.20    6.50
   1  -9  -4    6.50    3.80
  -1   9   4    4.70    3.90
   0  -9  -4    3.40    5.00
   0  -9  -4    3.90    2.80
   0   9   4    1.80    3.30
   0   9   4    1.90    4.80
  -1  -9  -4   57.39    6.60
  -1  -9  -4   47.90    5.50
   1   9   4   55.49    6.10
   1   9   4   46.10    5.10
  -2  -9  -4  359.76   15.00
  -2  -9  -4  370.96   13.30
   2   9   4  325.97   13.80
  -3  -9  -4   87.49    7.60
  -3  -9  -4   92.89    6.20
   3   9   4   96.39    7.00
  -4  -9  -4  112.09    7.80
  -4  -9  -4  119.29    6.90
   4   9   4  112.79    7.20
  -5  -9  -4  235.68   11.40
  -5  -9  -4  214.88   10.20
  -6  -9  -4   96.19    7.20
  -6  -9  -4   98.99    7.70
   6   9   4  103.69    7.90
  -7  -9  -4   33.50    5.50
   7   9   4   41.30    6.50
  -8  -9  -4    2.80    4.50
   8   9   4    4.10    5.20
   8   9   4    2.90    4.70
  -9  -9  -4   23.50    7.20
   9   9   4   17.00    5.40
   9   9   4   22.10    6.70
  10   9   4   46.10    7.00
  -1 -10  -4   -2.90    6.00
  -1 -10  -4    1.00    5.00
   1  10   4    0.80    5.50
  -2 -10  -4   60.39    6.50
  -2 -10  -4   78.59    8.30
   2  10   4   69.59    7.30
  -3 -10  -4  327.87   13.30
  -3 -10  -4  332.57   15.40
   3  10   4  353.96   14.60
  -4 -10  -4   57.99    6.20
  -4 -10  -4   68.29    8.30
  -5 -10  -4    4.10    3.60
  -5 -10  -4    0.70    4.80
  -6 -10  -4    0.80    4.60
  -6 -10  -4    0.10    5.50
   6  10   4   -0.20    5.50
  -7 -10  -4  133.79   10.00
  -8 -10  -4   30.70    6.60
   8  10   4   33.70    7.90
  -4 -11  -4   16.10    7.40
  -5 -11  -4  110.89   11.00
  -5 -11  -4  116.19    8.70
  -6 -11  -4   79.19    8.00
  -6 -11  -4   68.29    9.70
  -6  -9   5    6.70    6.20
   5   9  -5  150.78    8.50
   5   9  -5  138.89   11.30
  -5  -9   5  150.78   10.40
  -5  -9   5  142.79    6.80
   4   9  -5   61.19    8.40
   4   9  -5   51.39    5.10
  -4  -9   5   55.59    7.00
  -4  -9   5   54.49    3.40
   3   9  -5    7.60    6.50
   3   9  -5    9.90    3.40
  -3  -9   5    8.50    4.90
   2   9  -5  127.69    6.90
   2   9  -5  115.69    8.10
   2   9  -5  134.29   11.30
  -2  -9   5  124.69    9.80
  -2  -9   5  135.29    9.00
   1   9  -5    8.30    4.60
   1   9  -5    6.10    3.00
  -1  -9   5    7.30    5.00
  -1  -9   5    6.20    5.20
   0   9  -5    7.40    2.90
   0   9  -5    3.60    5.00
   0  -9   5    6.20    5.30
   0  -9   5    6.00    6.00
   1  -9   5    4.50    6.10
   7   8  -5   11.10    7.10
  -7  -8   5   11.90    4.60
   6   8  -5    6.90    5.50
  -6  -8   5    3.80    3.50
  -6  -8   5    4.40    4.80
   5   8  -5    4.80    5.90
   5   8  -5    4.80    3.40
  -5  -8   5    7.70    2.90
  -5  -8   5    6.70    4.10
   4   8  -5  115.89    6.80
   4   8  -5  121.69    9.50
  -4  -8   5  131.69    8.50
  -4  -8   5  107.49    5.30
   3   8  -5   84.49    8.20
   3   8  -5   93.19    5.70
  -3  -8   5  101.89    7.70
  -3  -8   5   86.99    7.60
   2   8  -5   75.19    8.60
   2   8  -5   74.09    5.00
  -2  -8   5   75.89    6.60
  -2  -8   5   83.19    7.40
   1   8  -5    9.50    2.50
   1   8  -5    9.40    5.30
   1   8  -5    8.30    3.80
  -1  -8   5   10.20    4.80
  -1  -8   5    5.90    4.10
   0   8  -5  143.69    8.80
   0   8  -5  144.19    6.50
   0  -8   5  144.89    9.20
   0  -8   5  156.78    9.70
  -1   8  -5   58.79    4.20
  -1   8  -5   52.09    6.00
   1  -8   5   61.09    6.80
   1  -8   5   59.09    7.00
  -2   8  -5    4.80    5.30
  -2   8  -5    2.60    2.20
   2  -8   5    4.90    5.60
   2  -8   5    1.00    4.80
  -3   8  -5   60.69    7.40
   3  -8   5   55.19    8.40
   8   7  -5    9.50    6.50
  -8  -7   5    9.80    5.00
   7   7  -5   73.79    8.80
   6   7  -5  159.38   11.20
  -6  -7   5  152.48    8.10
  -6  -7   5  173.08    9.40
   5   7  -5  199.08    9.10
   5   7  -5  213.28   11.70
  -5  -7   5  218.88   10.20
  -5  -7   5  199.88    8.60
   4   7  -5   15.40    4.70
   4   7  -5   18.30    3.20
  -4  -7   5   13.00    5.80
  -4  -7   5   18.10    2.70
  -4  -7   5   12.80    4.40
   3   7  -5   53.29    6.70
   3   7  -5   44.90    4.20
  -3  -7   5   51.29    3.00
  -3  -7   5   47.40    5.10
  -3  -7   5   51.39    5.80
   2   7  -5    0.90    1.80
   2   7  -5    5.00    4.30
  -2  -7   5    0.60    3.50
  -2  -7   5    1.70    3.10
   1   7  -5    9.70    2.20
   1   7  -5    7.20    4.00
  -1  -7   5   11.80    4.10
  -1  -7   5    9.80    3.90
   0   7  -5    1.70    2.90
   0   7  -5    0.60    1.70
   0   7  -5    0.50    4.20
   0  -7   5   -2.00    3.60
   0  -7   5   -0.10    3.30
  -1   7  -5  171.58    8.60
  -1   7  -5  170.78    6.70
   1  -7   5  182.78    9.60
   1  -7   5  186.78    9.10
  -2   7  -5  343.67   11.30
  -2   7  -5  354.06   13.70
   2  -7   5  330.17   13.90
   2  -7   5  332.47   14.40
  -3   7  -5    5.40    4.80
  -3   7  -5    5.80    1.80
   3  -7   5    5.70    4.60
  -4   7  -5   14.10    5.10
  -4   7  -5   14.40    2.30
   4  -7   5   13.20    6.40
   8   6  -5   30.70    6.90
  -8  -6   5   38.90    6.00
   7   6  -5   87.09    9.20
  -7  -6   5   80.49    6.70
   6   6  -5  130.59    9.20
  -6  -6   5  125.89    7.10
  -6  -6   5  130.89    8.00
   5   6  -5  248.68   10.00
   5   6  -5  241.48   12.40
  -5  -6   5  246.18   10.50
  -5  -6   5  236.98    9.60
   4   6  -5  199.98   10.30
   4   6  -5  170.28    7.90
  -4  -6   5  198.78    9.00
  -4  -6   5  193.48    7.70
   3   6  -5   34.20    5.20
   3   6  -5   36.00    3.60
  -3  -6   5   32.60    3.00
  -3  -6   5   34.40    4.10
  -3  -6   5   36.00    4.50
   2   6  -5  151.68    8.90
   2   6  -5  156.28    6.30
  -2  -6   5  140.39    7.50
  -2  -6   5  145.69    7.40
  -2  -6   5  150.08    5.00
   1   6  -5   11.30    4.10
   1   6  -5    8.20    1.90
  -1  -6   5    5.90    3.00
  -1  -6   5   10.10    3.30
   0   6  -5  246.18   10.80
   0   6  -5  237.68    8.40
   0  -6   5  228.28   10.10
   0  -6   5  252.57   10.60
  -1   6  -5   65.79    3.50
  -1   6  -5   66.39    5.90
  -1   6  -5   69.29    5.20
   1  -6   5   73.09    6.00
   1  -6   5   74.09    5.70
  -2   6  -5  287.47   11.50
  -2   6  -5  294.47    9.50
   2  -6   5  282.17   12.10
   2  -6   5  279.57   11.70
  -3   6  -5  152.88    5.50
  -3   6  -5  170.88    8.50
   3  -6   5  155.38    9.00
   3  -6   5  155.68    8.80
  -4   6  -5   14.70    4.60
  -4   6  -5   10.80    1.60
   4  -6   5   11.80    5.10
  -5   6  -5   28.40    2.40
  -5   6  -5   17.40    5.50
   5  -6   5   20.10    6.20
   7   5  -5  227.68   12.20
  -7  -5   5  212.78   10.10
   6   5  -5    2.00    4.70
  -6  -5   5    0.40    3.50
  -6  -5   5    0.50    2.60
   5   5  -5   74.79    5.50
   5   5  -5   62.99    7.20
  -5  -5   5   70.29    5.40
  -5  -5   5   65.09    4.80
   4   5  -5  462.95   17.60
   4   5  -5  451.75   15.60
  -4  -5   5  452.55   16.00
  -4  -5   5  459.35   15.40
  -4  -5   5  465.55   16.30
   3   5  -5  306.77   12.80
   3   5  -5  297.07   10.50
  -3  -5   5  292.97   11.10
  -3  -5   5  291.57   10.20
  -3  -5   5  286.07   11.30
   2   5  -5    2.20    2.90
   2   5  -5    0.40    1.40
  -2  -5   5    2.20    1.30
  -2  -5   5    1.20    2.40
  -2  -5   5    0.90    2.30
   1   5  -5   55.69    5.00
   1   5  -5   49.40    3.10
  -1  -5   5   58.19    4.30
  -1  -5   5   53.59    4.90
   0   5  -5  133.79    5.10
   0   5  -5  128.99    7.00
   0  -5   5  126.69    6.50
   0  -5   5  134.99    6.40
  -1   5  -5  240.58    7.80
  -1   5  -5  235.68   10.00
   1  -5   5  214.58    9.50
   1  -5   5  238.38    9.60
  -2   5  -5   73.29    5.30
  -2   5  -5   71.89    3.10
  -2   5  -5   72.69    5.80
   2  -5   5   70.39    5.70
   2  -5   5   77.09    5.50
  -3   5  -5   59.69    5.20
  -3   5  -5   55.79    2.60
   3  -5   5   53.49    5.50
   3  -5   5   61.89    5.60
  -4   5  -5  149.88    5.10
  -4   5  -5  167.18    8.10
   4  -5   5  156.98    7.90
   4  -5   5  148.99    8.20
  -5   5  -5    8.30    1.40
  -5   5  -5    3.20    3.60
  -5   5  -5    5.50    4.60
   5  -5   5    4.40    4.00
  -6   5  -5   -0.40    1.70
  -6   5  -5    2.00    4.40
   6  -5   5    2.60    4.90
   7   4  -5   98.49    8.70
  -7  -4   5  105.19    7.60
   6   4  -5  159.68    9.90
  -6  -4   5  168.38    8.20
  -6  -4   5  158.28    7.90
   5   4  -5   32.70    5.20
   5   4  -5   36.50    3.80
  -5  -4   5   31.70    3.80
  -5  -4   5   35.40    3.80
   4   4  -5    6.20    2.10
   4   4  -5    1.90    3.00
  -4  -4   5    2.40    2.60
  -4  -4   5    5.30    2.80
  -4  -4   5    5.70    2.10
   3   4  -5  208.38    7.80
   3   4  -5  220.58    9.80
  -3  -4   5  185.78    8.10
  -3  -4   5  209.78    7.70
  -3  -4   5  216.88    8.60
   2   4  -5  713.03   24.00
   2   4  -5  713.43   22.30
  -2  -4   5  723.93   23.20
  -2  -4   5  712.23   22.60
  -2  -4   5  700.03   22.00
   1   4  -5  177.88    8.20
   1   4  -5  184.58    6.60
  -1  -4   5  187.58    5.90
  -1  -4   5  176.08    7.30
  -1  -4   5  184.28    7.80
  -1  -4   5  190.88    5.90
   0   4  -5  136.99    6.90
   0   4  -5  144.99    5.30
   0  -4   5  151.88    6.90
   0  -4   5  162.38    6.40
  -1   4  -5   87.79    3.30
  -1   4  -5   80.79    5.00
   1  -4   5   84.39    4.80
   1  -4   5   83.39    4.90
  -2   4  -5  327.97   11.90
  -2   4  -5  330.37   10.00
   2  -4   5  321.97   12.10
   2  -4   5  306.57   11.60
   2  -4   5  329.37   12.10
  -3   4  -5  210.98    8.60
  -3   4  -5  205.88    8.10
   3  -4   5  190.58    8.30
   3  -4   5  193.98    8.70
   3  -4   5  185.58    8.20
  -4   4  -5   11.10    3.20
   4  -4   5   10.30    3.50
   4  -4   5   10.60    3.50
  -5   4  -5  130.59    7.70
  -5   4  -5  127.49    7.00
  -5   4  -5  133.79    4.40
   5  -4   5  110.39    7.80
  -6   4  -5    5.30    1.40
  -6   4  -5    3.50    4.10
   6  -4   5    6.70    4.70
  -7   4  -5  130.99    5.30
  -7   4  -5  121.79    9.60
   7  -4   5  130.19   10.20
   8   3  -5   -0.10    4.60
   6   3  -5  118.99    8.00
  -6  -3   5  116.79    7.20
  -6  -3   5  123.19    7.00
   5   3  -5  110.69    7.40
  -5  -3   5  111.39    6.10
  -5  -3   5  115.99    6.30
   4   3  -5  827.42   27.90
   4   3  -5  849.61   26.50
  -4  -3   5  861.51   26.60
  -4  -3   5  813.72   26.80
   3   3  -5  120.59    5.30
   3   3  -5  115.79    6.50
  -3  -3   5  122.19    6.00
  -3  -3   5  125.59    5.50
  -3  -3   5  121.29    5.40
   2   3  -5  219.08    7.70
   2   3  -5  223.68    9.20
  -2  -3   5  224.08    7.80
  -2  -3   5  207.78    7.60
  -2  -3   5  205.08    8.30
   1   3  -5  155.68    5.80
   1   3  -5  168.58    7.20
  -1  -3   5  166.78    5.70
  -1  -3   5  163.78    6.20
  -1  -3   5  152.38    6.70
  -1  -3   5  166.48    5.60
   0   3  -5  359.26   13.10
   0   3  -5  362.56   11.80
   0  -3   5  397.96   12.40
   0  -3   5  365.26   13.00
   0  -3   5  398.86   13.60
  -1   3  -5   17.30    2.50
  -1   3  -5   16.90    1.30
  -1   3  -5   18.20    1.50
   1  -3   5   20.00    2.80
   1  -3   5   22.40    2.80
   1  -3   5   18.30    2.20
  -2   3  -5  410.06   12.40
  -2   3  -5  416.56   12.40
  -2   3  -5  408.76   14.20
   2  -3   5  413.96   13.90
   2  -3   5  405.26   14.20
   2  -3   5  424.36   14.40
  -3   3  -5  559.34   18.40
   3  -3   5  533.15   18.20
   3  -3   5  550.34   18.60
   3  -3   5  580.54   18.50
  -4   3  -5  546.35   17.50
  -4   3  -5  529.05   17.60
  -4   3  -5  520.25   17.80
   4  -3   5  542.45   18.00
   4  -3   5  503.55   17.50
   4  -3   5  517.25   17.90
  -5   3  -5   34.20    4.20
  -5   3  -5   38.00    5.60
  -5   3  -5   39.20    1.80
   5  -3   5   38.30    4.40
   5  -3   5   40.80    4.20
  -6   3  -5   53.49    5.20
  -6   3  -5   58.49    2.80
   6  -3   5   60.99    5.60
  -7   3  -5   30.40    2.70
  -7   3  -5   36.80    5.40
   7  -3   5   29.80    5.60
  -8   3  -5   69.99    4.40
  -8   3  -5   66.69    7.70
   8   2  -5  177.18   10.50
   7   2  -5  179.58    9.60
  -7  -2   5  166.68    9.80
   6   2  -5    7.30    4.00
  -6  -2   5    7.20    3.50
   5   2  -5  197.28    9.50
   5   2  -5  186.38    9.10
  -5  -2   5  197.38    8.40
  -5  -2   5  207.58    8.70
   4   2  -5  460.35   15.10
   4   2  -5  434.56   16.20
  -4  -2   5  437.36   15.20
  -4  -2   5  454.95   15.50
  -4  -2   5  454.75   15.30
   3   2  -5  304.37   10.50
   3   2  -5  310.27   11.70
  -3  -2   5  305.57   10.60
  -3  -2   5  309.27   10.40
  -3  -2   5  291.37   10.90
   2   2  -5   24.30    3.00
   2   2  -5   22.80    2.30
  -2  -2   5   26.50    2.40
  -2  -2   5   22.70    2.60
  -2  -2   5   23.10    2.40
   1   2  -5  498.05   16.00
   1   2  -5  530.35   17.00
  -1  -2   5  494.45   16.70
  -1  -2   5  509.45   17.20
  -1  -2   5  503.75   16.00
  -1  -2   5  526.05   15.90
  -1  -2   5  513.65   16.10
   0   2  -5  329.27   10.60
   0   2  -5  328.77   11.60
   0  -2   5  312.17   11.70
   0  -2   5  334.07   10.10
   0  -2   5  328.57   10.10
   0  -2   5  354.06   10.60
   0  -2   5  316.17   11.30
  -1   2  -5 2786.52   80.29
  -1   2  -5 2599.64   81.49
  -1   2  -5 2693.73   80.29
   1  -2   5 2730.63   81.79
   1  -2   5 2791.92   80.79
   1  -2   5 2673.53   81.39
  -2   2  -5  252.87    7.90
  -2   2  -5  262.17    7.90
   2  -2   5  278.27    9.50
   2  -2   5  258.17    8.90
   2  -2   5  251.97    9.60
  -3   2  -5   94.09    4.50
   3  -2   5   97.49    4.70
   3  -2   5   98.69    4.90
   3  -2   5  104.39    5.20
  -4   2  -5  356.46   12.10
  -4   2  -5  350.76   12.40
   4  -2   5  376.36   12.40
   4  -2   5  351.76   12.50
   4  -2   5  359.76   12.80
  -5   2  -5  132.29    4.30
  -5   2  -5  134.99    6.50
   5  -2   5  134.69    6.50
   5  -2   5  129.09    6.50
  -6   2  -5   -0.30    1.10
  -6   2  -5    2.30    2.70
   6  -2   5   -1.80    2.80
  -7   2  -5    2.80    1.50
  -7   2  -5    2.40    3.50
  -8   2  -5  109.99    5.10
  -8   2  -5  107.39    7.80
  -9   2  -5  164.68   12.40
   8   1  -5    0.70    4.70
   7   1  -5   71.19    7.10
  -7  -1   5   63.09    5.80
   6   1  -5  309.67   12.70
  -6  -1   5  308.37   12.10
   5   1  -5   96.99    6.50
  -5  -1   5  109.49    5.80
  -5  -1   5  115.29    6.30
   4   1  -5    0.30    2.50
   4   1  -5    0.40    2.70
  -4  -1   5    0.20    2.00
  -4  -1   5   -0.10    1.90
  -4  -1   5    0.20    2.00
   3   1  -5  237.48    8.40
   3   1  -5  220.98    8.90
   3   1  -5  239.58    9.20
  -3  -1   5  239.18    8.10
  -3  -1   5  221.78    8.50
  -3  -1   5  217.08    8.70
   2   1  -5  592.84   18.50
   2   1  -5  573.84   18.70
   2   1  -5  581.74   18.00
  -2  -1   5  579.74   17.70
  -2  -1   5  540.65   18.10
  -2  -1   5  561.94   18.50
   1   1  -5  152.18    5.80
   1   1  -5  130.49    5.70
   1   1  -5  146.09    5.10
  -1  -1   5  124.69    5.80
  -1  -1   5  139.69    4.70
  -1  -1   5  132.09    5.10
  -1  -1   5  136.49    5.70
   0   1  -5    0.70    1.40
   0   1  -5    1.00    0.80
   0  -1   5    0.70    0.80
   0  -1   5    1.70    1.00
   0  -1   5    2.10    1.50
   0  -1   5    1.40    1.50
   0  -1   5    2.20    0.70
  -1   1  -5  725.13   22.30
  -1   1  -5  738.93   22.30
   1  -1   5  762.42   22.30
   1  -1   5  761.22   23.20
   1  -1   5  717.63   23.50
  -2   1  -5 1590.94   46.30
  -2   1  -5 1577.64   46.70
  -2   1  -5 1524.35   46.30
   2  -1   5 1618.64   46.80
   2  -1   5 1491.85   47.60
   2  -1   5 1560.44   47.30
  -3   1  -5  720.03   21.10
  -3   1  -5  694.53   22.00
  -3   1  -5  699.33   21.20
   3  -1   5  741.73   22.40
   3  -1   5  722.23   22.20
   3  -1   5  690.83   22.80
  -4   1  -5  115.89    5.30
  -4   1  -5  123.89    4.00
  -4   1  -5  124.69    4.00
   4  -1   5  129.89    6.00
   4  -1   5  127.49    5.40
   4  -1   5  131.29    5.60
  -5   1  -5   35.20    1.80
  -5   1  -5   33.60    3.50
   5  -1   5   31.50    3.60
  -6   1  -5  339.37   12.20
  -6   1  -5  317.47   10.40
   6  -1   5  341.97   12.40
  -7   1  -5   58.09    5.50
  -7   1  -5   61.39    3.20
  -8   1  -5   10.10    3.90
  -8   1  -5   14.00    2.20
  -9   1  -5   68.29    8.20
  -9   1  -5   64.49    4.80
   8   0  -5   65.39    7.20
   7   0  -5   17.50    4.80
  -7   0   5   24.70    5.00
   6   0  -5   33.80    4.60
  -6   0   5   27.60    4.40
   5   0  -5  146.49    7.80
  -5   0   5  153.28    7.40
   4   0  -5  342.97   13.20
  -4   0   5  349.47   13.00
  -4   0   5  390.46   12.60
  -4   0   5  384.56   13.20
   3   0  -5    8.60    2.00
   3   0  -5    8.80    2.50
   3   0  -5   10.60    2.60
  -3   0   5    6.20    1.80
  -3   0   5    6.50    2.20
  -3   0   5    6.60    2.00
   2   0  -5  269.27    8.90
   2   0  -5  277.37    9.50
   2   0  -5  251.67    9.30
  -2   0   5  267.77    8.50
  -2   0   5  237.58    9.20
  -2   0   5  258.97    9.10
  -2   0   5  239.58    8.90
   1   0  -5  317.87   10.50
   1   0  -5  340.07   11.10
   1   0  -5  332.47   11.00
  -1   0   5  342.87   10.40
  -1   0   5  331.17    9.90
  -1   0   5  314.27   10.90
  -1   0   5  297.37   10.60
  -1   0   5  304.87   11.10
   0   0  -5  158.28    6.10
   0   0  -5  160.78    5.60
   0   0   5  165.18    6.10
   0   0   5  159.08    5.70
   0   0   5  171.28    6.50
  -1   0  -5   67.19    2.70
   1   0   5   65.69    2.60
   1   0   5   73.19    3.50
   1   0   5   60.09    3.70
   1   0   5   74.19    2.80
  -2   0  -5  187.78    6.30
  -2   0  -5  203.78    6.40
  -2   0  -5  191.68    6.30
   2   0   5  197.58    7.50
   2   0   5  199.98    7.00
  -3   0  -5  227.18    7.80
  -3   0  -5  226.58    7.40
  -3   0  -5  235.98    7.30
   3   0   5  237.58    8.70
   3   0   5  245.48    8.10
  -4   0  -5  595.24   18.20
  -4   0  -5  601.94   18.10
  -4   0  -5  594.84   19.00
   4   0   5  589.64   19.60
   4   0   5  622.24   18.80
  -5   0  -5  142.29    4.70
  -5   0  -5  130.49    5.60
   5   0   5  120.59    6.10
  -6   0  -5  412.86   14.20
  -6   0  -5  412.76   12.90
   6   0   5  406.26   14.40
  -7   0  -5  399.66   14.40
  -7   0  -5  384.36   12.80
   7   0   5  420.46   14.70
  -8   0  -5  205.48    9.90
  -8   0  -5  210.78    7.70
  -9   0  -5   34.00    5.30
  -9   0  -5   28.60    3.20
 -10   0  -5   33.10    7.20
   7  -1  -5    4.10    4.50
  -7   1   5    1.10    5.00
   6  -1  -5  102.49    7.10
  -6   1   5  112.29    7.40
   5  -1  -5    4.50    3.00
  -5   1   5    2.90    2.90
   4  -1  -5  324.47   12.30
  -4   1   5  330.47   12.20
  -4   1   5  343.47   11.70
   3  -1  -5 1035.60   32.40
  -3   1   5 1003.70   32.20
  -3   1   5 1023.90   31.60
  -3   1   5 1041.80   31.60
  -3   1   5 1042.40   32.10
   2  -1  -5  275.77    9.70
   2  -1  -5  290.77   10.10
   2  -1  -5  289.97    9.60
  -2   1   5  269.77    9.80
  -2   1   5  271.07    9.80
  -2   1   5  257.17    9.90
  -2   1   5  281.17    9.40
  -2   1   5  294.67    9.20
   1  -1  -5    1.90    1.50
   1  -1  -5    1.80    1.20
   1  -1  -5    1.90    1.50
  -1   1   5    0.60    0.90
  -1   1   5    2.10    1.20
  -1   1   5    1.20    1.50
  -1   1   5    0.40    1.10
  -1   1   5    1.80    1.60
   0  -1  -5  173.28    6.00
   0  -1  -5  181.88    6.50
   0   1   5  161.98    6.30
   0   1   5  182.88    6.00
   0   1   5  178.68    5.30
   0   1   5  150.28    6.10
   0   1   5  173.68    6.60
  -1  -1  -5   20.40    2.00
  -1  -1  -5   13.50    1.40
   1   1   5   13.00    1.70
   1   1   5    8.50    1.10
   1   1   5    7.20    1.60
  -2  -1  -5    4.70    0.90
  -2  -1  -5    4.40    1.00
   2   1   5    8.10    1.20
   2   1   5    4.60    1.20
   2   1   5    4.30    1.60
   2   1   5    6.10    0.90
  -3  -1  -5   18.00    1.60
  -3  -1  -5   17.20    1.50
  -3  -1  -5   16.90    1.80
   3   1   5   19.20    1.10
   3   1   5   20.40    1.20
   3   1   5   21.10    2.60
   3   1   5   16.20    1.70
  -4  -1  -5  792.52   24.50
  -4  -1  -5  827.32   25.00
   4   1   5  834.22   24.70
   4   1   5  784.12   25.70
  -5  -1  -5 1430.96   44.30
  -5  -1  -5 1432.66   43.60
   5   1   5 1504.25   45.00
  -6  -1  -5   71.39    3.40
  -6  -1  -5   73.69    4.50
   6   1   5   60.99    4.70
  -7  -1  -5  100.99    4.50
  -7  -1  -5  105.39    6.00
   7   1   5  100.79    6.20
  -8  -1  -5  371.26   13.00
  -8  -1  -5  397.46   14.80
   8   1   5  408.36   14.80
  -9  -1  -5   56.99    4.60
  -9  -1  -5   59.29    6.20
 -10  -1  -5   53.79    5.40
 -10  -1  -5   49.90    6.80
   7  -2  -5   38.80    6.00
  -7   2   5   64.69    7.60
   6  -2  -5  386.56   15.30
  -6   2   5  412.46   15.70
   5  -2  -5  481.15   17.30
  -5   2   5  484.05   17.20
   4  -2  -5  114.89    6.30
  -4   2   5  109.79    7.10
  -4   2   5  101.89    6.00
  -4   2   5  109.59    5.80
   3  -2  -5   20.70    3.00
   3  -2  -5   18.30    3.00
  -3   2   5   24.80    2.70
  -3   2   5   20.40    3.00
  -3   2   5   27.40    2.70
   2  -2  -5  376.66   12.50
   2  -2  -5  368.26   12.80
  -2   2   5  376.36   12.90
  -2   2   5  379.16   12.20
  -2   2   5  351.16   12.20
  -2   2   5  371.36   12.70
   1  -2  -5   50.59    3.00
   1  -2  -5   41.10    2.70
   1  -2  -5   44.00    3.60
  -1   2   5   43.10    3.00
  -1   2   5   36.70    2.90
  -1   2   5   39.70    3.00
  -1   2   5   41.60    2.70
   0  -2  -5   11.80    1.60
   0  -2  -5   12.00    1.40
   0  -2  -5   11.90    2.10
   0   2   5   10.90    1.50
   0   2   5    6.60    1.70
   0   2   5    9.70    1.60
   0   2   5   10.80    1.80
  -1  -2  -5  648.04   19.80
  -1  -2  -5  663.93   19.50
  -1  -2  -5  664.73   20.20
   1   2   5  619.14   19.90
   1   2   5  648.84   20.40
   1   2   5  603.14   20.00
  -2  -2  -5  710.53   22.00
  -2  -2  -5  716.43   21.60
  -2  -2  -5  677.53   21.60
   2   2   5  690.43   22.40
   2   2   5  739.93   21.80
   2   2   5  704.13   21.70
  -3  -2  -5 1435.86   43.80
  -3  -2  -5 1400.16   43.50
   3   2   5 1484.05   43.50
   3   2   5 1511.05   43.70
   3   2   5 1434.46   44.50
   3   2   5 1452.45   43.60
  -4  -2  -5   12.80    1.50
  -4  -2  -5   12.10    2.00
   4   2   5   11.30    1.30
   4   2   5   14.00    1.50
   4   2   5   16.50    1.60
   4   2   5   11.30    2.10
  -5  -2  -5  166.78    6.00
  -5  -2  -5  153.28    6.60
   5   2   5  164.58    5.40
   5   2   5  158.88    7.00
   5   2   5  174.78    5.50
  -6  -2  -5  258.67    8.50
  -6  -2  -5  233.68    9.30
   6   2   5  243.98    9.70
  -7  -2  -5   19.50    2.20
  -7  -2  -5   20.20    3.20
   7   2   5   14.60    3.30
  -8  -2  -5    1.30    3.20
  -8  -2  -5    0.60    1.80
   8   2   5    0.50    3.00
  -9  -2  -5  145.79    8.50
  -9  -2  -5  126.29    6.40
 -10  -2  -5  379.46   14.10
 -10  -2  -5  411.06   16.30
   6  -3  -5  101.19    7.90
  -6   3   5  132.09    9.00
   5  -3  -5  363.16   14.40
  -5   3   5  402.46   15.00
   4  -3  -5  332.67   13.30
   4  -3  -5  353.66   14.60
  -4   3   5  381.06   13.90
  -4   3   5  370.76   12.90
  -4   3   5  365.06   13.20
   3  -3  -5   37.10    3.80
   3  -3  -5   28.60    3.70
  -3   3   5   31.60    3.70
  -3   3   5   31.10    3.50
  -3   3   5   28.40    3.30
   2  -3  -5   10.80    2.50
   2  -3  -5    8.00    2.40
  -2   3   5    8.50    2.40
  -2   3   5    9.60    2.10
   1  -3  -5   55.09    4.10
   1  -3  -5   51.39    3.60
  -1   3   5   49.60    3.70
  -1   3   5   51.09    3.50
   0  -3  -5  918.71   28.80
   0  -3  -5  940.21   28.80
   0  -3  -5  899.91   29.10
   0   3   5  974.60   29.20
   0   3   5  967.20   29.00
   0   3   5  967.60   28.60
   0   3   5  896.11   29.00
  -1  -3  -5  331.87   11.00
  -1  -3  -5  347.27   11.10
  -1  -3  -5  344.57   11.50
   1   3   5  338.67   11.30
   1   3   5  339.37   11.30
   1   3   5  340.07   11.50
   1   3   5  335.67   11.00
  -2  -3  -5  582.64   18.60
  -2  -3  -5  609.14   19.10
  -2  -3  -5  596.14   18.70
   2   3   5  617.74   18.80
   2   3   5  596.84   18.80
   2   3   5  594.64   18.50
   2   3   5  602.34   19.30
  -3  -3  -5  599.84   18.90
  -3  -3  -5  571.74   18.50
  -3  -3  -5  600.14   18.80
   3   3   5  587.54   19.30
   3   3   5  616.74   18.40
   3   3   5  591.24   18.60
  -4  -3  -5  307.07   10.20
  -4  -3  -5  296.47   10.70
   4   3   5  325.37    9.90
   4   3   5  312.87   11.30
   4   3   5  299.77   10.10
  -5  -3  -5   65.39    4.20
  -5  -3  -5   78.19    3.60
   5   3   5   73.59    3.30
   5   3   5   68.39    4.60
  -6  -3  -5  144.09    5.80
  -6  -3  -5  141.69    6.60
   6   3   5  150.68    5.40
   6   3   5  141.59    6.90
  -7  -3  -5   64.09    4.70
  -7  -3  -5   66.59    3.80
   7   3   5   63.29    5.30
   7   3   5   63.79    3.10
  -8  -3  -5  362.66   13.70
  -8  -3  -5  350.66   12.30
   8   3   5  346.97   11.10
   8   3   5  353.66   13.90
  -9  -3  -5  103.89    7.50
  -9  -3  -5  103.49    5.70
   9   3   5  105.09    7.60
 -10  -3  -5   79.39    5.90
 -10  -3  -5   75.59    7.40
  -6   4   5   55.19    7.00
   5  -4  -5   51.99    6.10
  -5   4   5   49.90    6.30
   4  -4  -5   81.59    5.90
  -4   4   5   64.39    5.20
  -4   4   5   69.49    5.80
  -4   4   5   68.29    6.40
   3  -4  -5  233.18    9.70
   3  -4  -5  251.07   10.40
  -3   4   5  235.48    9.60
  -3   4   5  224.88    9.80
  -3   4   5  244.98    9.20
   2  -4  -5    0.90    2.20
   2  -4  -5    1.40    2.50
  -2   4   5    0.20    2.60
  -2   4   5    1.60    2.00
   1  -4  -5    3.60    2.20
   1  -4  -5    5.40    2.20
  -1   4   5    4.30    1.80
  -1   4   5    8.70    2.30
   0  -4  -5  151.38    6.30
   0  -4  -5  154.48    6.40
   0   4   5  138.99    6.30
   0   4   5  149.49    5.90
   0   4   5  154.88    6.40
   0   4   5  146.49    6.50
  -1  -4  -5 2177.48   64.49
  -1  -4  -5 2077.59   64.29
  -1  -4  -5 2041.30   64.59
   1   4   5 2129.69   64.59
   1   4   5 2183.68   64.19
   1   4   5 2222.98   64.69
   1   4   5 2174.58   64.59
  -2  -4  -5 1258.67   38.60
  -2  -4  -5 1242.68   38.50
  -2  -4  -5 1275.87   38.20
   2   4   5 1252.87   38.80
   2   4   5 1237.28   38.30
   2   4   5 1298.27   38.10
   2   4   5 1237.68   38.40
  -3  -4  -5    1.10    1.20
  -3  -4  -5    2.20    1.70
  -3  -4  -5    0.00    1.60
   3   4   5    0.50    1.30
   3   4   5    0.40    1.60
   3   4   5    1.00    1.60
  -4  -4  -5   38.00    3.50
  -4  -4  -5   44.10    2.90
   4   4   5   44.50    2.90
   4   4   5   44.00    2.50
   4   4   5   38.30    3.40
  -5  -4  -5    4.90    1.70
  -5  -4  -5    2.40    2.20
   5   4   5    4.70    1.50
   5   4   5    4.60    2.20
  -6  -4  -5  121.99    6.30
  -6  -4  -5  120.79    5.30
   6   4   5  114.69    5.00
   6   4   5  118.49    6.50
  -7  -4  -5    3.60    2.00
  -7  -4  -5    1.60    2.80
   7   4   5    2.20    2.70
   7   4   5    1.20    1.60
  -8  -4  -5  220.38    9.70
  -8  -4  -5  212.58    8.40
   8   4   5  207.48    9.80
   8   4   5  222.88    7.90
  -9  -4  -5  329.07   13.40
  -9  -4  -5  314.07   11.70
   9   4   5  312.67   10.70
   9   4   5  328.47   13.30
 -10  -4  -5  169.28   10.20
 -10  -4  -5  163.98    8.00
  10   4   5  154.58    5.90
  10   4   5  156.38   10.10
 -11  -4  -5   19.90    4.50
 -11  -4  -5   23.10    7.10
   5  -5  -5    3.40    4.30
  -5   5   5    6.50    5.40
   4  -5  -5    9.60    3.70
  -4   5   5    9.50    4.20
   3  -5  -5  162.38    8.70
   3  -5  -5  138.79    7.30
  -3   5   5  156.08    7.90
  -3   5   5  149.88    7.10
   2  -5  -5  281.07   10.80
   2  -5  -5  283.87   11.30
  -2   5   5  277.87   10.30
  -2   5   5  274.57   11.10
   1  -5  -5  322.57   11.60
   1  -5  -5  316.07   11.90
  -1   5   5  305.17   11.70
   0  -5  -5   49.50    4.30
   0  -5  -5   47.20    4.00
   0   5   5   47.00    3.50
   0   5   5   51.69    4.20
  -1  -5  -5   56.09    4.10
  -1  -5  -5   61.69    4.20
   1   5   5   65.19    4.20
   1   5   5   61.59    3.70
   1   5   5   65.29    3.90
  -2  -5  -5 1534.55   46.80
  -2  -5  -5 1531.75   46.30
  -2  -5  -5 1495.75   46.70
   2   5   5 1505.85   46.60
   2   5   5 1531.25   46.50
   2   5   5 1560.24   46.90
  -3  -5  -5  403.96   13.30
  -3  -5  -5  401.96   13.90
  -3  -5  -5  412.06   13.90
   3   5   5  402.66   14.10
   3   5   5  403.06   13.30
   3   5   5  385.66   13.50
  -4  -5  -5   11.10    2.10
  -4  -5  -5    8.90    2.40
   4   5   5    9.60    2.00
   4   5   5    7.90    2.40
   4   5   5   12.00    2.00
  -5  -5  -5   59.79    3.80
  -5  -5  -5   60.89    4.80
   5   5   5   61.39    3.80
   5   5   5   57.79    4.50
  -6  -5  -5  291.87   11.20
  -6  -5  -5  293.37   10.40
   6   5   5  287.67   11.60
   6   5   5  283.17   10.30
  -7  -5  -5  518.35   17.80
  -7  -5  -5  495.35   16.60
   7   5   5  474.15   16.40
   7   5   5  505.85   18.10
  -8  -5  -5    1.80    2.50
  -8  -5  -5    0.80    3.50
   8   5   5    2.80    3.30
   8   5   5    2.20    2.10
  -9  -5  -5   68.59    5.50
  -9  -5  -5   66.59    6.30
   9   5   5   74.29    4.70
   9   5   5   75.49    6.60
 -10  -5  -5   67.09    5.90
 -10  -5  -5   64.59    7.20
  10   5   5   62.89    8.00
  10   5   5   61.19    4.60
 -11  -5  -5    1.60    5.70
 -11  -5  -5    5.30    4.20
  11   5   5    2.40    6.60
  11   5   5    5.40    2.70
   4  -6  -5  164.98    8.90
  -4   6   5  185.58   10.30
   3  -6  -5   68.49    6.00
   3  -6  -5   63.19    7.10
  -3   6   5   63.99    7.10
  -3   6   5   56.89    6.30
   2  -6  -5   12.40    4.40
   2  -6  -5   14.20    3.20
  -2   6   5   11.00    3.70
  -2   6   5   11.70    3.00
   1  -6  -5   29.20    3.40
   1  -6  -5   35.60    4.60
  -1   6   5   29.90    3.30
  -1   6   5   30.90    3.90
   0  -6  -5  268.67   10.40
   0  -6  -5  281.07   11.00
   0   6   5  252.77   10.40
   0   6   5  273.07    9.80
  -1  -6  -5   63.99    4.70
  -1  -6  -5   64.69    5.00
   1   6   5   62.29    4.40
   1   6   5   69.69    4.20
  -2  -6  -5  239.48    9.70
  -2  -6  -5  250.17    9.40
   2   6   5  238.88    9.20
   2   6   5  229.98    9.40
   2   6   5  246.28    9.60
  -3  -6  -5  563.64   19.00
  -3  -6  -5  580.84   18.70
   3   6   5  561.44   18.30
   3   6   5  550.84   18.50
   3   6   5  539.65   18.80
  -4  -6  -5  757.02   25.30
  -4  -6  -5  772.52   25.00
   4   6   5  805.52   24.40
   4   6   5  770.32   24.80
   4   6   5  768.72   25.40
  -5  -6  -5  182.58    7.30
  -5  -6  -5  158.78    7.70
   5   6   5  172.08    7.30
   5   6   5  172.58    8.30
  -6  -6  -5    3.20    2.40
  -6  -6  -5    2.90    3.20
   6   6   5    1.60    2.20
   6   6   5    1.40    3.00
  -7  -6  -5   65.19    5.70
  -7  -6  -5   66.59    5.00
   7   6   5   64.99    4.80
   7   6   5   73.09    6.30
  -8  -6  -5  288.27   11.10
  -8  -6  -5  305.17   12.80
   8   6   5  270.97   12.40
   8   6   5  295.37   11.10
  -9  -6  -5    8.70    4.30
  -9  -6  -5   16.10    3.80
   9   6   5   19.90    4.90
   9   6   5   18.80    3.40
 -10  -6  -5   44.80    7.00
 -10  -6  -5   36.00    4.70
  10   6   5   37.40    6.40
  10   6   5   44.30    4.50
 -11  -6  -5    2.40    6.80
 -11  -6  -5    0.80    4.50
  11   6   5    0.40    6.60
   3  -7  -5   62.39    6.40
  -3   7   5   75.69    8.00
   2  -7  -5    4.10    3.30
   2  -7  -5    3.40    4.80
  -2   7   5    3.60    4.10
   1  -7  -5   42.10    4.40
   1  -7  -5   54.59    6.00
  -1   7   5   52.89    5.50
  -1   7   5   37.80    5.10
   0  -7  -5  100.09    7.20
   0  -7  -5  115.59    6.50
   0   7   5  109.69    6.60
  -1  -7  -5  642.04   21.50
  -1  -7  -5  663.03   22.30
   1   7   5  635.64   21.70
  -2  -7  -5   43.20    4.30
   2   7   5   42.90    4.60
  -3  -7  -5  105.59    5.90
  -3  -7  -5   94.69    6.00
   3   7   5   89.89    5.50
   3   7   5  103.49    6.20
  -4  -7  -5   79.59    6.10
  -4  -7  -5   83.29    5.60
   4   7   5   80.49    5.60
   4   7   5   80.19    5.50
   4   7   5   84.89    5.00
   5   7   5  143.49    7.00
   5   7   5  127.59    7.30
  -6  -7  -5  375.36   14.30
   6   7   5  353.16   13.30
   6   7   5  356.46   14.30
  -7  -7  -5   87.79    7.10
   7   7   5   67.69    5.60
   7   7   5   73.59    6.30
  -8  -7  -5   60.69    6.40
   8   7   5   62.19    6.50
   8   7   5   60.79    5.40
  -9  -7  -5  300.07   13.60
   9   7   5  260.57   11.40
   9   7   5  273.07   13.20
 -10  -7  -5  115.69    9.50
  10   7   5  110.99    7.60
  10   7   5   95.79   10.10
   2  -8  -5    3.00    7.40
   1  -8  -5   16.20    3.90
   1  -8  -5   12.10    5.60
  -1   8   5   10.90    5.00
   0  -8  -5   28.30    5.00
   0  -8  -5   16.40    3.40
   0   8   5   39.70    5.50
  -1  -8  -5  116.19    6.90
  -1  -8  -5  124.89    8.20
   1   8   5  112.69    7.50
  -2  -8  -5  894.11   29.30
  -2  -8  -5  913.81   30.10
   2   8   5  904.61   29.40
  -3  -8  -5   55.69    5.10
  -3  -8  -5   51.29    5.40
   3   8   5   50.89    4.70
  -4  -8  -5   63.89    6.40
  -4  -8  -5   64.49    5.50
   4   8   5   60.59    5.30
   4   8   5   71.89    6.20
  -5  -8  -5   82.59    6.70
   5   8   5   75.39    6.70
  -6  -8  -5   64.79    6.70
   6   8   5   58.09    5.90
   6   8   5   68.09    6.30
  -7  -8  -5  150.08    9.20
   7   8   5  174.98    8.60
   7   8   5  141.99    9.00
  -8  -8  -5   66.99    7.20
   8   8   5   57.39    6.40
   8   8   5   67.39    7.20
  -9  -8  -5  174.38   11.30
   9   8   5  163.08   11.40
   9   8   5  170.28    9.40
 -10  -8  -5  412.16   18.00
  10   8   5  412.06   16.30
  10   8   5  408.36   19.00
   0  -9  -5  114.99    7.20
   0  -9  -5  127.19   10.30
   0   9   5  121.59    9.50
  -1  -9  -5  204.48    9.90
  -1  -9  -5  217.68   11.30
   1   9   5  203.68   10.40
  -2  -9  -5   21.70    4.10
  -2  -9  -5   21.50    5.40
   2   9   5   22.50    4.90
  -3  -9  -5    7.50    4.60
  -3  -9  -5    9.60    3.70
   3   9   5   10.20    4.10
  -4  -9  -5  177.98    9.00
  -4  -9  -5  174.68   10.10
  -5  -9  -5    1.50    4.60
  -5  -9  -5    1.20    3.50
   5   9   5    4.40    4.00
  -6  -9  -5    2.00    4.70
   6   9   5    1.70    4.70
  -7  -9  -5  262.67   12.80
   7   9   5  230.78   12.30
  -8  -9  -5  172.68   10.70
   8   9   5  184.28   10.20
   8   9   5  176.28   11.70
  -9  -9  -5  208.38   12.40
   9   9   5  215.98   11.40
   9   9   5  192.38   13.20
  -2 -10  -5  159.18    9.20
  -2 -10  -5  166.58   11.80
   2  10   5  156.98   10.50
  -3 -10  -5    1.10    4.00
  -3 -10  -5    1.60    5.00
   3  10   5    3.90    4.90
  -4 -10  -5   47.20    7.10
  -4 -10  -5   52.89    5.90
  -5 -10  -5  120.29    8.30
  -5 -10  -5  101.29    8.90
  -6 -10  -5   53.09    6.30
  -6 -10  -5   56.19    7.30
   6  10   5   49.40    7.50
  -7 -10  -5   12.00    5.90
   7  10   5    8.50    6.50
  -8 -10  -5   26.00    6.80
   8  10   5   22.70    7.60
   5   9  -6   -2.20    4.40
   4   9  -6   30.70    8.50
   4   9  -6   26.70    4.60
  -4  -9   6   28.00    6.40
   3   9  -6   61.59    6.00
   3   9  -6   51.79    8.50
  -3  -9   6   44.30    6.70
   2   9  -6   33.60    4.20
   2   9  -6   36.70    5.90
   2   9  -6   32.00    7.50
  -2  -9   6   35.40    6.50
   1   9  -6    6.40    5.10
   1   9  -6    6.60    3.60
   1   9  -6    6.10    7.50
  -1  -9   6   11.90    6.70
   6   8  -6   68.39    9.60
  -6  -8   6   61.59    5.80
  -6  -8   6   78.69    8.60
   5   8  -6  147.49   11.50
   5   8  -6  150.58    8.40
  -5  -8   6  149.49    9.60
  -5  -8   6  142.89    7.10
   4   8  -6   22.20    6.50
   4   8  -6   17.10    3.60
  -4  -8   6   20.30    5.00
  -4  -8   6   21.10    2.50
   3   8  -6    7.80    3.10
   3   8  -6    9.40    5.70
  -3  -8   6    6.00    4.90
   2   8  -6   57.59    5.10
   2   8  -6   64.39    8.10
  -2  -8   6   61.59    6.90
   1   8  -6  156.28   11.20
   1   8  -6  150.68    7.10
  -1  -8   6  161.18    9.40
   0   8  -6    0.00    5.20
   0   8  -6   -1.00    4.30
   0   8  -6    0.90    2.40
   0  -8   6   -1.60    4.80
  -1   8  -6   83.49    5.00
  -1   8  -6   88.49    8.40
   1  -8   6   76.29    8.70
  -2   8  -6   18.60    2.80
  -2   8  -6   20.70    5.60
   2  -8   6   19.10    5.90
   7   7  -6   11.40    7.40
  -7  -7   6   11.80    4.40
   6   7  -6   -3.70    6.20
  -6  -7   6    1.30    3.50
  -6  -7   6   -1.60    4.50
   5   7  -6   14.20    3.70
   5   7  -6   18.20    6.00
  -5  -7   6   14.60    4.60
  -5  -7   6   17.90    3.30
   4   7  -6   50.59    7.20
   4   7  -6   46.40    5.00
  -4  -7   6   46.40    5.60
  -4  -7   6   47.50    4.00
   3   7  -6   13.70    5.40
   3   7  -6   11.30    2.80
  -3  -7   6   11.50    4.30
  -3  -7   6   13.30    1.70
   2   7  -6   14.90    2.70
   2   7  -6   14.10    4.90
  -2  -7   6    9.50    4.10
   1   7  -6  314.37   11.30
   1   7  -6  327.87   14.80
  -1  -7   6  316.27   13.40
   0   7  -6  215.78   11.80
   0   7  -6  220.98    8.20
   0  -7   6  199.88   10.50
  -1   7  -6  122.79    5.50
  -1   7  -6  119.29    7.90
  -1   7  -6  134.89    9.70
   1  -7   6  119.69    8.60
  -2   7  -6   -0.20    1.80
  -2   7  -6    0.40    3.90
   2  -7   6   -0.80    4.20
   2  -7   6    1.10    4.50
  -3   7  -6    2.60    4.50
  -3   7  -6    4.40    1.80
   3  -7   6    3.40    4.90
   3  -7   6    3.00    5.50
  -4   7  -6   21.90    6.00
  -4   7  -6   18.80    2.30
   4  -7   6   14.00    7.10
   7   6  -6   27.10    6.90
  -7  -6   6   45.40    5.70
   6   6  -6    7.80    5.40
  -6  -6   6   13.70    3.70
  -6  -6   6   14.20    4.90
   5   6  -6    5.10    3.10
   5   6  -6    1.60    5.00
  -5  -6   6    5.50    3.70
  -5  -6   6    2.30    2.50
   4   6  -6   28.80    3.60
   4   6  -6   27.50    5.40
  -4  -6   6   34.80    3.70
  -4  -6   6   31.20    4.50
   3   6  -6  189.98   10.70
   3   6  -6  219.58    8.60
  -3  -6   6  192.88    9.40
  -3  -6   6  209.28    7.50
   2   6  -6   67.89    4.40
   2   6  -6   64.29    7.20
  -2  -6   6   65.59    5.60
   1   6  -6    0.40    1.70
   1   6  -6    1.50    4.10
  -1  -6   6    0.00    3.10
   0   6  -6   20.10    4.50
   0   6  -6   27.10    2.80
   0  -6   6   18.00    3.80
  -1   6  -6  336.17   14.20
  -1   6  -6  319.97   11.00
   1  -6   6  361.36   14.40
   1  -6   6  318.17   13.40
  -2   6  -6  242.88   11.60
  -2   6  -6  225.68    7.90
  -2   6  -6  241.28   10.10
   2  -6   6  236.38   10.40
   2  -6   6  221.88   10.40
  -3   6  -6    9.40    1.60
  -3   6  -6   12.80    4.30
   3  -6   6   10.20    4.60
   3  -6   6    4.90    4.40
  -4   6  -6   81.29    7.60
  -4   6  -6   91.19    3.80
   4  -6   6   81.09    8.10
   4  -6   6   80.19    7.60
  -5   6  -6   15.80    5.80
  -5   6  -6   14.80    1.90
   5  -6   6   10.10    6.30
  -8  -5   6   20.20    5.90
   7   5  -6    1.40    5.70
  -7  -5   6   -1.00    3.80
   6   5  -6   13.20    5.20
  -6  -5   6   10.30    3.30
  -6  -5   6    9.50    3.90
   5   5  -6  432.36   18.10
   5   5  -6  467.95   16.30
  -5  -5   6  462.95   16.00
   4   5  -6    0.50    2.20
   4   5  -6    1.60    3.80
  -4  -5   6    1.40    2.10
  -4  -5   6   -0.40    3.00
   3   5  -6  100.99    7.70
   3   5  -6   85.49    5.00
  -3  -5   6   87.09    4.40
  -3  -5   6   81.09    5.80
   2   5  -6   54.19    3.70
   2   5  -6   66.69    5.90
  -2  -5   6   64.99    5.50
  -2  -5   6   60.29    3.00
   1   5  -6  241.78    8.80
   1   5  -6  267.17   11.50
  -1  -5   6  248.18   10.30
   0   5  -6   75.29    3.60
   0   5  -6   74.19    6.30
   0  -5   6   78.59    5.60
  -1   5  -6    6.00    3.60
  -1   5  -6    6.90    1.50
   1  -5   6    3.30    2.90
   1  -5   6    3.50    2.90
  -2   5  -6  278.27    9.00
  -2   5  -6  275.97   11.60
   2  -5   6  266.27   11.20
   2  -5   6  281.67   11.10
  -3   5  -6  349.37   13.40
  -3   5  -6  371.56   14.30
  -3   5  -6  356.56   11.30
   3  -5   6  377.76   14.00
   3  -5   6  354.36   13.80
  -4   5  -6    0.60    3.50
  -4   5  -6    0.50    1.00
   4  -5   6   -0.20    3.50
   4  -5   6    1.80    4.00
  -5   5  -6   96.39    3.60
  -5   5  -6   99.99    7.60
   5  -5   6  108.99    8.70
  -6   5  -6   19.80    1.90
  -6   5  -6   17.80    5.60
   6  -5   6   20.20    5.90
  -7  -4   6   27.50    8.70
  -7  -4   6   37.00    5.40
   6   4  -6  236.58   12.50
  -6  -4   6  245.08   10.50
  -6  -4   6  227.18   10.30
   5   4  -6  375.46   15.50
  -5  -4   6  363.86   13.60
  -5  -4   6  388.26   14.40
   4   4  -6  378.26   13.10
   4   4  -6  358.16   15.00
  -4  -4   6  367.96   13.10
   3   4  -6   21.40    2.60
   3   4  -6   20.90    4.40
  -3  -4   6   27.40    3.80
  -3  -4   6   25.30    2.90
   2   4  -6   56.09    3.60
   2   4  -6   48.90    5.10
  -2  -4   6   54.99    3.10
  -2  -4   6   55.49    4.50
   1   4  -6    1.00    2.50
   1   4  -6    2.20    1.40
  -1  -4   6    1.00    2.60
   0   4  -6  484.75   17.20
   0   4  -6  484.05   15.30
   0  -4   6  489.45   16.90
  -1   4  -6   29.30    3.70
  -1   4  -6   27.10    2.00
   1  -4   6   31.30    4.30
   1  -4   6   26.80    3.60
   1  -4   6   27.30    3.40
  -2   4  -6    1.00    0.90
  -2   4  -6    0.80    2.50
   2  -4   6   -0.40    2.70
   2  -4   6    1.80    2.50
   2  -4   6    1.40    3.00
  -3   4  -6  276.77   10.80
   3  -4   6  267.17   10.60
   3  -4   6  272.67   10.70
   3  -4   6  255.17   10.90
  -4   4  -6  221.28    9.40
  -4   4  -6  217.98    9.40
  -4   4  -6  212.08   12.50
   4  -4   6  230.58   10.00
   4  -4   6  231.28    9.80
   4  -4   6  219.18   10.10
  -5   4  -6   73.89    6.30
   5  -4   6   89.19    7.10
  -6   4  -6   -0.10    3.80
  -6   4  -6   -0.10    1.30
   6  -4   6   -0.60    4.60
  -7   4  -6   45.00    6.70
  -7   4  -6   38.40    3.20
   7  -4   6   49.60    7.40
  -7  -3   6  137.99    8.80
  -6  -3   6  201.38    9.60
  -6  -3   6  194.68    9.40
   5   3  -6  422.36   16.50
  -5  -3   6  416.36   14.90
  -5  -3   6  401.96   15.00
   4   3  -6   48.70    5.80
   4   3  -6   50.29    4.30
  -4  -3   6   45.60    4.30
  -4  -3   6   49.50    4.90
   3   3  -6  276.37    9.90
   3   3  -6  274.27   11.40
  -3  -3   6  278.87   10.60
  -3  -3   6  261.07    9.80
   2   3  -6   33.10    4.20
   2   3  -6   22.10    2.30
  -2  -3   6   23.20    2.50
  -2  -3   6   23.80    3.10
   1   3  -6    1.70    1.30
   1   3  -6    2.60    2.30
  -1  -3   6    2.20    1.10
  -1  -3   6    2.00    2.00
   0   3  -6  114.19    5.90
   0   3  -6  115.09    4.30
   0  -3   6  104.69    6.00
   0  -3   6  109.89    5.80
  -1   3  -6  536.55   18.40
  -1   3  -6  532.75   16.60
   1  -3   6  573.04   18.30
   1  -3   6  536.15   18.60
  -2   3  -6  346.77   10.50
  -2   3  -6  347.07   12.60
   2  -3   6  345.67   11.80
   2  -3   6  329.27   12.40
  -3   3  -6   62.99    4.70
   3  -3   6   48.00    4.40
   3  -3   6   50.99    4.20
   3  -3   6   51.99    4.80
  -4   3  -6    6.30    2.70
  -4   3  -6    9.70    2.80
  -4   3  -6   13.50    3.30
   4  -3   6    7.60    3.50
   4  -3   6    5.50    2.90
   4  -3   6   10.20    3.10
  -5   3  -6  267.77   10.60
   5  -3   6  249.97   10.90
  -6   3  -6   98.99    7.00
  -6   3  -6  102.89    3.80
   6  -3   6  113.79    7.70
  -7   3  -6    3.50    4.50
  -7   3  -6    4.70    1.70
  -8   3  -6   80.69    9.20
  -8   3  -6   67.39    4.40
   8   2  -6    4.10    5.90
  -7  -2   6   -0.70    4.60
  -6  -2   6   59.09    8.30
  -6  -2   6   60.29    5.60
   5   2  -6  385.76   15.40
  -5  -2   6  390.36   14.50
  -5  -2   6  399.56   14.40
   4   2  -6  200.08    9.70
   4   2  -6  213.48    8.60
  -4  -2   6  209.58    8.80
  -4  -2   6  215.28    8.70
   3   2  -6    5.30    2.10
   3   2  -6    8.80    3.20
  -3  -2   6    8.30    2.50
  -3  -2   6    9.10    2.30
   2   2  -6  214.78    9.00
   2   2  -6  202.48    7.60
  -2  -2   6  217.58    8.40
  -2  -2   6  209.18    7.70
   1   2  -6  304.57    9.90
   1   2  -6  301.77   11.10
  -1  -2   6  280.57   11.10
  -1  -2   6  277.87   10.60
  -1  -2   6  298.37    9.80
   0   2  -6  165.98    7.20
   0  -2   6  162.68    5.40
   0  -2   6  164.68    5.40
   0  -2   6  157.08    7.40
   0  -2   6  175.48    6.90
  -1   2  -6   20.50    1.60
  -1   2  -6   16.50    2.50
   1  -2   6   23.50    3.00
   1  -2   6   27.80    3.10
  -2   2  -6   77.09    2.90
  -2   2  -6   81.89    3.10
   2  -2   6   71.39    4.60
   2  -2   6   80.89    4.00
   2  -2   6   87.19    4.70
  -3   2  -6  556.44   16.70
  -3   2  -6  560.44   16.70
  -3   2  -6  554.34   17.80
   3  -2   6  556.84   18.50
   3  -2   6  537.65   18.80
   3  -2   6  587.84   18.20
  -4   2  -6   48.90    3.80
   4  -2   6   51.29    4.10
   4  -2   6   48.90    4.20
   4  -2   6   54.49    4.10
  -5   2  -6   99.59    5.70
   5  -2   6  101.29    6.20
   5  -2   6  100.49    5.70
  -6   2  -6   96.59    3.70
  -6   2  -6  101.09    6.00
  -7   2  -6  251.67    8.60
  -7   2  -6  269.07   11.40
  -8   2  -6   60.49    4.00
  -8   2  -6   66.89    7.00
   7   1  -6  232.58   12.10
  -7  -1   6  244.98   11.70
   6   1  -6   59.89    7.10
  -6  -1   6   66.59    5.80
  -5  -1   6  181.38    8.70
  -5  -1   6  184.18    8.40
   4   1  -6  283.17   11.30
  -4  -1   6  267.07   10.70
  -4  -1   6  267.17   10.40
   3   1  -6  132.39    7.00
   3   1  -6  126.39    6.00
  -3  -1   6  145.99    6.70
  -3  -1   6  136.79    6.10
   2   1  -6   17.90    2.20
   2   1  -6   32.80    3.30
  -2  -1   6   14.80    2.50
  -2  -1   6   12.30    2.00
   1   1  -6  115.99    5.40
   1   1  -6  103.59    4.30
  -1  -1   6   99.29    5.50
  -1  -1   6  102.89    5.00
  -1  -1   6   96.59    4.30
   0   1  -6  726.83   22.20
   0   1  -6  709.03   23.20
   0  -1   6  720.13   23.00
   0  -1   6  713.83   23.40
   0  -1   6  744.83   22.10
  -1   1  -6 1199.18   36.50
   1  -1   6 1189.48   37.90
   1  -1   6 1264.77   37.50
  -2   1  -6  409.56   13.10
   2  -1   6  436.96   14.80
   2  -1   6  453.55   14.30
   2  -1   6  415.76   13.50
  -3   1  -6  424.76   13.40
  -3   1  -6  448.36   14.10
  -3   1  -6  442.26   13.40
   3  -1   6  441.16   14.20
   3  -1   6  432.26   15.20
   3  -1   6  453.15   14.70
  -4   1  -6  257.47    9.40
  -4   1  -6  255.07    8.30
  -4   1  -6  275.57    8.30
   4  -1   6  275.07   10.40
   4  -1   6  261.37    9.50
  -5   1  -6   49.40    2.30
  -5   1  -6   44.10    3.80
   5  -1   6   47.90    4.20
  -6   1  -6   23.50    3.60
  -6   1  -6   21.40    2.10
   6  -1   6   22.10    3.50
  -7   1  -6   43.90    4.80
  -7   1  -6   40.50    2.90
  -8   1  -6  161.98    6.50
  -8   1  -6  161.98    8.70
  -9   1  -6  331.17   11.90
  -9   1  -6  331.27   14.60
   7   0  -6  176.78   10.90
  -7   0   6  188.68   10.60
   6   0  -6  253.37   12.00
  -6   0   6  276.67   11.50
   5   0  -6   52.99    5.80
  -5   0   6   49.70    5.00
   4   0  -6  159.18    8.10
  -4   0   6  154.18    7.30
  -4   0   6  157.38    7.30
   3   0  -6  409.56   14.20
   3   0  -6  385.56   13.50
   3   0  -6  392.46   14.30
  -3   0   6  391.26   13.90
  -3   0   6  402.96   13.70
   2   0  -6   88.59    4.30
   2   0  -6   81.99    4.70
  -2   0   6   83.39    5.00
  -2   0   6   81.79    4.40
  -2   0   6   84.39    4.60
   1   0  -6  577.54   18.40
   1   0  -6  609.84   19.10
  -1   0   6  588.84   18.90
  -1   0   6  561.34   18.40
  -1   0   6  577.54   19.20
   0   0  -6    0.50    1.00
   0   0   6   -0.10    1.00
   0   0   6    1.00    1.60
   0   0   6    0.20    1.40
  -1   0  -6  590.04   18.20
   1   0   6  618.94   18.20
   1   0   6  574.84   18.00
   1   0   6  573.94   19.30
   1   0   6  588.14   18.90
  -2   0  -6 1760.82   52.89
   2   0   6 1781.92   53.59
   2   0   6 1784.52   54.39
  -3   0  -6    0.70    1.20
  -3   0  -6    1.40    0.80
   3   0   6    0.60    1.70
   3   0   6    1.80    1.70
  -4   0  -6  210.08    7.40
  -4   0  -6  205.28    6.70
   4   0   6  196.88    8.40
   4   0   6  211.58    7.70
  -5   0  -6  160.68    6.70
  -5   0  -6  168.38    5.60
   5   0   6  161.38    7.20
  -6   0  -6   30.40    3.50
  -6   0  -6   25.70    2.20
   6   0   6   31.20    4.00
  -7   0  -6  445.26   16.10
  -7   0  -6  457.65   14.40
   7   0   6  444.26   16.30
  -8   0  -6   -0.30    3.30
  -8   0  -6    0.60    2.00
  -9   0  -6  196.78    8.50
  -9   0  -6  254.17   11.70
   7  -1  -6   27.20    6.20
  -7   1   6   50.39    7.10
   6  -1  -6   94.79    7.70
   5  -1  -6  324.77   13.00
  -5   1   6  316.87   12.80
   4  -1  -6  101.49    6.50
  -4   1   6   92.49    5.80
   3  -1  -6   14.00    3.10
  -3   1   6   14.40    2.90
  -3   1   6   17.60    3.20
   2  -1  -6  120.69    5.40
   2  -1  -6  122.99    5.60
   2  -1  -6  127.79    6.10
  -2   1   6  113.19    5.70
  -2   1   6  121.89    5.60
  -2   1   6  125.19    6.00
   1  -1  -6  362.76   12.20
   1  -1  -6  369.96   12.10
   1  -1  -6  349.17   11.60
  -1   1   6  352.56   12.10
  -1   1   6  307.37   11.60
  -1   1   6  349.67   12.20
   0  -1  -6  379.76   11.90
   0   1   6  354.66   12.60
   0   1   6  380.56   12.50
   0   1   6  353.86   12.00
  -1  -1  -6    1.60    1.00
   1   1   6    1.40    1.00
   1   1   6    0.70    1.70
   1   1   6    2.40    1.40
  -2  -1  -6  240.68    8.10
   2   1   6  221.48    9.00
   2   1   6  259.57    8.70
   2   1   6  259.67    8.20
   2   1   6  249.88    8.00
  -3  -1  -6 1570.44   46.30
  -3  -1  -6 1511.95   46.20
   3   1   6 1541.15   45.80
   3   1   6 1576.54   45.80
   3   1   6 1461.15   47.40
   3   1   6 1594.24   46.60
  -4  -1  -6  329.27   11.00
  -4  -1  -6  311.47   10.40
   4   1   6  345.17   10.90
   4   1   6  327.27   11.90
  -5  -1  -6    0.30    1.10
  -5  -1  -6    0.70    1.80
   5   1   6   -0.70    1.90
  -6  -1  -6   43.40    4.00
  -6  -1  -6   53.19    2.90
   6   1   6   49.40    4.60
  -7  -1  -6  467.75   14.90
  -7  -1  -6  479.55   16.30
   7   1   6  442.66   16.60
  -8  -1  -6  181.78    7.10
  -8  -1  -6  179.78    8.70
   8   1   6  187.68    9.20
  -9  -1  -6    7.40    2.60
  -9  -1  -6    7.70    4.40
 -10  -1  -6  140.19    7.40
 -10  -1  -6  155.88   10.90
   6  -2  -6    1.30    4.30
  -6   2   6    0.60    4.60
   5  -2  -6   11.40    4.00
  -5   2   6    3.70    4.20
   4  -2  -6  371.06   13.90
  -4   2   6  366.16   13.80
   3  -2  -6   75.49    5.60
  -3   2   6   80.49    5.50
   2  -2  -6    3.40    2.50
  -2   2   6    3.80    2.30
  -2   2   6    3.70    2.40
   1  -2  -6  283.87    9.80
   1  -2  -6  277.07   10.30
  -1   2   6  260.27    9.90
  -1   2   6  299.07   10.10
  -1   2   6  277.47   10.20
   0  -2  -6  741.33   22.70
   0  -2  -6  707.23   22.20
   0   2   6  705.73   22.70
   0   2   6  725.63   22.60
   0   2   6  681.83   22.30
  -1  -2  -6  954.50   28.40
  -1  -2  -6  892.51   30.70
   1   2   6  944.81   28.80
   1   2   6  917.81   28.50
   1   2   6  924.91   29.10
  -2  -2  -6  153.58    5.60
   2   2   6  154.78    5.90
   2   2   6  141.19    6.50
   2   2   6  157.08    5.60
  -3  -2  -6    0.50    1.00
  -3  -2  -6    0.20    1.40
   3   2   6    0.50    0.90
   3   2   6    0.40    1.60
   3   2   6    0.70    1.40
  -4  -2  -6  397.66   12.90
  -4  -2  -6  380.76   12.50
   4   2   6  401.36   12.80
   4   2   6  392.46   12.20
   4   2   6  375.16   13.70
   4   2   6  396.26   12.60
  -5  -2  -6  802.22   24.50
  -5  -2  -6  767.82   25.10
   5   2   6  805.42   23.70
   5   2   6  798.92   23.70
   5   2   6  797.42   25.90
  -6  -2  -6   25.80    2.60
  -6  -2  -6   22.70    3.10
   6   2   6   21.20    3.30
  -7  -2  -6   97.99    4.60
  -7  -2  -6  112.39    6.20
   7   2   6   94.79    6.40
  -8  -2  -6  309.57   10.50
  -8  -2  -6  284.07   11.70
   8   2   6  283.57   12.20
  -9  -2  -6  193.98    8.30
  -9  -2  -6  201.38   10.40
   9   2   6  221.68   10.60
 -10  -2  -6    3.60    3.00
 -10  -2  -6    4.50    5.50
   6  -3  -6   40.00    6.20
  -6   3   6   53.49    7.60
   5  -3  -6  237.18   11.20
  -5   3   6  241.98   11.20
   4  -3  -6    0.50    3.10
  -4   3   6    0.00    3.60
   3  -3  -6  147.09    7.40
  -3   3   6  135.79    7.20
   2  -3  -6  179.78    7.60
  -2   3   6  149.69    7.30
   1  -3  -6   30.40    3.60
  -1   3   6   25.40    3.10
  -1   3   6   30.50    3.60
   0  -3  -6   12.60    2.60
   0  -3  -6   10.40    1.80
   0   3   6   13.80    2.40
   0   3   6   12.70    2.30
   0   3   6   17.30    2.50
  -1  -3  -6 1833.92   55.79
  -1  -3  -6 1849.11   55.29
   1   3   6 1818.12   55.69
   1   3   6 1817.52   55.49
   1   3   6 1873.01   55.89
  -2  -3  -6  628.34   19.20
  -2  -3  -6  622.84   19.20
   2   3   6  613.14   19.30
   2   3   6  570.74   19.90
   2   3   6  625.74   19.40
  -3  -3  -6  246.38    8.10
  -3  -3  -6  235.68    8.30
   3   3   6  221.38    8.90
   3   3   6  235.18    8.10
   3   3   6  230.58    8.10
  -4  -3  -6   10.20    1.70
  -4  -3  -6    8.10    2.10
   4   3   6    8.00    2.30
   4   3   6    7.10    1.40
   4   3   6    7.20    1.60
  -5  -3  -6  163.98    6.10
  -5  -3  -6  159.18    6.80
   5   3   6  162.18    5.80
   5   3   6  153.98    7.20
  -6  -3  -6  512.35   16.00
  -6  -3  -6  494.75   16.80
   6   3   6  480.35   15.40
   6   3   6  497.05   17.30
  -7  -3  -6   50.09    3.60
  -7  -3  -6   54.39    4.50
   7   3   6   53.09    5.20
   7   3   6   48.50    2.40
  -8  -3  -6   46.90    3.80
  -8  -3  -6   41.70    5.00
   8   3   6   38.90    5.00
  -9  -3  -6  149.39    7.00
  -9  -3  -6  168.38    9.10
   9   3   6  148.29    8.90
 -10  -3  -6  114.79    8.60
 -10  -3  -6  108.19    6.50
  10   3   6   98.59    8.90
   5  -4  -6   91.49    8.10
  -5   4   6  102.79    8.40
   4  -4  -6   96.29    7.10
  -4   4   6  100.99    7.70
   3  -4  -6   10.10    3.40
  -3   4   6   17.90    3.80
   2  -4  -6    9.60    3.00
  -2   4   6    9.00    3.30
   1  -4  -6  558.14   18.50
  -1   4   6  532.35   18.40
   0  -4  -6  239.58    9.50
   0   4   6  248.68    9.40
   0   4   6  243.38    9.50
  -1  -4  -6   21.70    2.40
  -1  -4  -6   18.00    2.90
   1   4   6   19.50    2.70
   1   4   6   20.00    2.60
   1   4   6   22.90    2.80
  -2  -4  -6  438.76   14.20
  -2  -4  -6  432.66   14.30
  -2  -4  -6  429.66   14.70
   2   4   6  429.06   14.40
   2   4   6  437.56   14.40
   2   4   6  436.66   14.90
  -3  -4  -6  402.96   13.30
  -3  -4  -6  397.96   13.00
   3   4   6  400.16   13.10
   3   4   6  388.26   13.10
   3   4   6  387.56   13.90
  -4  -4  -6    6.30    1.70
  -4  -4  -6    4.00    2.20
   4   4   6    6.30    1.70
   4   4   6    4.00    1.70
   4   4   6    4.30    2.30
  -5  -4  -6    0.60    2.40
  -5  -4  -6    0.70    1.70
   5   4   6   -0.20    2.30
  -6  -4  -6   18.00    3.10
  -6  -4  -6   21.90    2.50
   6   4   6   13.70    3.20
   6   4   6   17.40    2.10
  -7  -4  -6  952.70   30.10
  -7  -4  -6  921.91   29.10
   7   4   6  922.91   30.60
   7   4   6  921.41   28.50
  -8  -4  -6  297.27   11.10
  -8  -4  -6  310.87   12.30
   8   4   6  298.67   12.60
  -9  -4  -6   36.00    3.80
  -9  -4  -6   32.70    4.80
   9   4   6   33.40    2.50
   9   4   6   32.70    5.10
 -10  -4  -6    9.70    3.30
 -10  -4  -6    6.90    4.60
  10   4   6   11.80    5.40
 -11  -4  -6  102.49    9.40
   4  -5  -6   13.30    4.50
  -4   5   6   14.10    5.70
   3  -5  -6   35.20    4.50
  -3   5   6   27.00    4.70
   2  -5  -6  199.08    9.20
  -2   5   6  225.28    9.60
   1  -5  -6   17.70    3.30
  -1   5   6   19.10    3.60
   0  -5  -6  537.45   18.00
   0   5   6  519.75   17.90
  -1  -5  -6  160.38    7.90
  -1  -5  -6  161.08    7.30
   1   5   6  169.58    7.30
   1   5   6  167.98    7.10
  -2  -5  -6   12.10    2.60
  -2  -5  -6   11.80    2.70
   2   5   6    8.70    2.30
   2   5   6    7.40    2.60
   2   5   6   11.40    2.50
  -3  -5  -6    4.30    2.40
  -3  -5  -6    4.70    1.90
   3   5   6    7.00    2.40
   3   5   6    5.50    2.10
   3   5   6    5.50    2.20
  -4  -5  -6  144.19    6.90
  -4  -5  -6  157.48    6.30
   4   5   6  158.08    7.50
   4   5   6  156.48    6.30
   4   5   6  152.98    6.50
  -5  -5  -6  245.58   10.10
  -5  -5  -6  268.47    9.50
   5   5   6  249.58   10.40
   5   5   6  266.47    9.50
  -6  -5  -6   33.10    3.60
  -6  -5  -6   42.40    4.50
   6   5   6   35.90    4.30
   6   5   6   34.90    3.40
  -7  -5  -6    9.80    2.70
  -7  -5  -6    3.70    3.50
   7   5   6    8.30    3.30
   7   5   6    6.60    2.00
  -8  -5  -6  583.34   19.70
  -8  -5  -6  526.85   18.00
   8   5   6  518.65   19.70
   8   5   6  524.35   17.40
  -9  -5  -6  389.66   13.70
  -9  -5  -6  369.46   15.30
   9   5   6  373.26   12.70
   9   5   6  357.36   15.50
 -10  -5  -6   12.50    5.00
 -10  -5  -6   17.50    4.10
  10   5   6   20.10    6.20
  10   5   6   18.40    2.70
 -11  -5  -6   -0.80    6.60
 -11  -5  -6    2.90    4.20
  11   5   6    0.30    6.50
   3  -6  -6   14.70    4.40
  -3   6   6   12.70    4.80
   2  -6  -6   80.09    6.30
  -2   6   6   68.09    6.20
   1  -6  -6  157.58    7.80
  -1   6   6  170.98    8.30
   0  -6  -6    6.10    3.30
   0   6   6    5.40    3.00
  -1  -6  -6  396.76   14.40
  -1  -6  -6  396.06   14.10
   1   6   6  380.26   14.00
  -2  -6  -6   14.60    3.00
  -2  -6  -6    8.60    3.00
   2   6   6    9.80    2.70
   2   6   6   12.90    3.10
  -3  -6  -6  702.63   23.70
  -3  -6  -6  737.53   23.90
   3   6   6  740.93   23.40
   3   6   6  718.93   24.00
  -4  -6  -6   24.10    3.60
   4   6   6   22.40    3.50
   4   6   6   22.20    3.30
   4   6   6   22.30    3.20
  -5  -6  -6  296.77   11.20
   5   6   6  324.67   11.50
   5   6   6  318.87   12.60
  -6  -6  -6  303.07   12.30
  -6  -6  -6  301.47   11.30
   6   6   6  309.07   12.50
   6   6   6  308.37   11.20
  -7  -6  -6   23.80    3.40
  -7  -6  -6   30.90    4.50
   7   6   6   21.60    4.20
   7   6   6   23.60    3.10
  -8  -6  -6   29.60    4.00
  -8  -6  -6   31.10    5.40
   8   6   6   38.10    3.70
   8   6   6   34.40    5.20
  -9  -6  -6  206.48    9.10
  -9  -6  -6  212.68   11.20
   9   6   6  192.28   11.10
   9   6   6  190.68    8.30
 -10  -6  -6   82.29    9.20
 -10  -6  -6   70.09    6.80
  10   6   6   73.89    5.40
  10   6   6   76.29    9.10
   2  -7  -6   25.20    4.70
  -2   7   6   19.90    5.70
   1  -7  -6  122.99    7.10
  -1   7   6  124.79    8.00
   0  -7  -6  169.38    8.70
   0   7   6  177.68    8.70
  -1  -7  -6   46.30    5.20
   1   7   6   45.10    4.90
  -2  -7  -6    1.60    3.30
  -2  -7  -6    0.80    2.90
   2   7   6   -0.20    2.60
  -3  -7  -6  421.46   15.10
  -3  -7  -6  388.76   14.60
   3   7   6  385.66   14.90
   3   7   6  409.16   14.40
  -4  -7  -6  183.88    8.90
   4   7   6  187.58    8.40
   4   7   6  170.58    8.50
  -5  -7  -6   53.99    5.90
   5   7   6   55.39    5.00
   5   7   6   48.50    5.30
   6   7   6  228.58    9.50
   6   7   6  225.98   10.50
  -7  -7  -6   81.49    7.50
   7   7   6   90.79    5.80
   7   7   6   88.99    7.30
  -8  -7  -6   83.19    7.80
   8   7   6   74.09    7.00
   8   7   6   68.29    5.60
  -9  -7  -6   51.19    6.70
   9   7   6   51.09    7.20
   9   7   6   57.19    5.50
 -10  -7  -6    1.70    5.60
  10   7   6    0.60    3.60
  10   7   6    3.00    6.20
   1  -8  -6    8.20    4.20
  -1   8   6    6.10    4.90
   0  -8  -6   82.79    6.60
   0   8   6   88.19    7.20
  -1  -8  -6  379.46   14.40
   1   8   6  370.96   14.60
  -2  -8  -6   64.49    5.90
  -2  -8  -6   60.49    6.70
   2   8   6   58.59    6.10
  -3  -8  -6    0.10    3.90
  -3  -8  -6    1.30    3.40
   3   8   6    2.10    3.50
  -4  -8  -6   44.90    5.50
  -4  -8  -6   49.10    5.30
   4   8   6   47.10    5.70
  -5  -8  -6   52.29    5.90
   5   8   6   56.29    5.90
   5   8   6   55.19    5.90
  -6  -8  -6   49.60    6.10
   6   8   6   41.60    4.60
   6   8   6   40.80    5.40
  -7  -8  -6    0.50    4.10
   7   8   6   -0.90    3.20
   7   8   6    0.60    4.10
  -8  -8  -6  176.08   10.20
   8   8   6  181.38    9.10
   8   8   6  170.78   10.40
  -9  -8  -6  117.59    9.50
   9   8   6  122.49    7.90
   9   8   6  115.59    9.70
 -10  -8  -6   13.30    7.60
  10   8   6   21.00    7.50
  -1  -9  -6  136.59    8.90
   1   9   6  129.99    8.90
  -2  -9  -6  298.27   12.30
   2   9   6  268.17   12.40
  -3  -9  -6   63.39    6.70
  -3  -9  -6   59.89    7.50
   3   9   6   69.89    7.10
  -4  -9  -6   28.30    5.60
  -4  -9  -6   31.40    5.10
  -5  -9  -6    3.40    4.80
   5   9   6    3.00    4.60
  -6  -9  -6   56.89    7.10
   6   9   6   47.20    6.80
  -7  -9  -6  324.57   14.90
   7   9   6  313.97   13.40
   7   9   6  306.87   15.00
  -8  -9  -6    0.60    5.70
   8   9   6    1.90    6.10
   8   9   6    0.10    4.30
  -9  -9  -6   87.29   10.80
   9   9   6   98.19   10.80
   9   9   6   83.19    8.50
  -3 -10  -6  200.58   13.00
  -3 -10  -6  199.48   10.70
   3  10   6  199.48   11.00
  -4 -10  -6   55.59    7.90
  -4 -10  -6   61.09    6.50
  -5 -10  -6   60.89    6.70
  -5 -10  -6   51.59    7.50
  -6 -10  -6    8.30    6.60
   6  10   6    5.10    5.70
  -7 -10  -6  171.08   12.50
   7  10   6  179.48   12.50
  -8 -10  -6  215.88   13.90
   8  10   6  187.88   14.10
   5   8  -7    5.90    4.40
  -5  -8   7    5.10    3.20
  -5  -8   7   10.40    6.20
   4   8  -7  128.79    8.10
   4   8  -7  130.59   11.60
  -4  -8   7  116.49   10.40
   3   8  -7   36.70    4.40
   3   8  -7   42.00    7.90
  -3  -8   7   38.90    6.80
   2   8  -7   11.30    7.00
   2   8  -7   14.40    3.30
  -2  -8   7   11.60    5.70
   1   8  -7    0.10    6.70
   1   8  -7    0.30    2.90
  -1  -8   7    1.80    5.40
   0   8  -7   20.70    5.80
   0   8  -7   20.80    3.40
   0   8  -7   17.70    7.50
   0  -8   7   22.70    6.30
  -1   8  -7   82.69    7.80
  -1   8  -7   74.99    5.40
   1  -8   7   68.69    8.40
   6   7  -7  338.67   17.30
   5   7  -7   33.60    7.30
   5   7  -7   36.80    5.00
  -5  -7   7   40.40    6.60
  -5  -7   7   30.40    3.90
   4   7  -7   14.80    3.70
   4   7  -7   16.70    6.10
  -4  -7   7    9.50    4.80
  -4  -7   7   12.50    2.60
   3   7  -7   38.80    7.20
   3   7  -7   33.80    4.00
  -3  -7   7   38.10    5.70
   2   7  -7   89.29    8.80
   2   7  -7   83.09    5.40
  -2  -7   7   80.09    7.80
   1   7  -7   10.60    2.70
   1   7  -7   14.80    6.10
  -1  -7   7    3.90    4.20
   0   7  -7    0.40    2.10
   0   7  -7    2.60    5.50
   0  -7   7    1.70    4.70
  -1   7  -7   32.60    3.10
  -1   7  -7   22.20    6.40
  -1   7  -7   27.40    5.00
   1  -7   7   21.80    5.20
  -2   7  -7  138.19    8.60
  -2   7  -7  134.59    5.80
   2  -7   7  124.89    8.80
  -3   7  -7   12.90    2.20
  -3   7  -7   12.00    5.30
   3  -7   7    7.40    5.50
   7   6  -7  101.89   11.00
   6   6  -7   41.30    7.60
  -6  -6   7   32.00    4.60
   5   6  -7   68.89    8.70
   5   6  -7   71.59    6.60
  -5  -6   7   59.79    5.30
  -5  -6   7   74.89    7.80
   4   6  -7   35.60    4.00
   4   6  -7   32.40    6.20
  -4  -6   7   40.50    4.00
  -4  -6   7   36.60    5.20
   3   6  -7    1.60    2.20
   3   6  -7    5.40    5.00
  -3  -6   7    4.90    3.70
  -3  -6   7    4.30    1.80
   2   6  -7    1.20    4.20
   2   6  -7    1.40    2.10
  -2  -6   7    1.30    3.80
   1   6  -7  310.17   11.00
   1   6  -7  314.87   14.00
  -1  -6   7  300.77   13.20
   0   6  -7   36.60    3.20
   0   6  -7   42.20    6.10
   0  -6   7   32.30    5.00
  -1   6  -7   33.10    5.50
  -1   6  -7   31.50    3.10
   1  -6   7   25.30    4.90
  -2   6  -7    1.90    1.70
  -2   6  -7    2.10    3.50
  -2   6  -7    3.10    4.70
   2  -6   7    3.80    4.00
  -3   6  -7   24.90    2.20
  -3   6  -7   22.10    4.60
   3  -6   7   21.60    5.20
  -4   6  -7   51.99    2.80
  -4   6  -7   66.59    6.90
   4  -6   7   53.19    7.10
   7   5  -7  116.09   11.80
  -7  -5   7  125.19    8.80
   6   5  -7  203.48   12.40
  -6  -5   7  221.48   10.90
  -6  -5   7  204.08    9.90
   5   5  -7   38.00    6.80
  -5  -5   7   31.60    4.00
  -5  -5   7   29.20    5.40
   4   5  -7   24.10    5.80
   4   5  -7   23.30    3.70
  -4  -5   7   24.10    3.10
  -4  -5   7   16.70    4.20
   3   5  -7    4.40    4.10
   3   5  -7    3.20    2.30
  -3  -5   7    4.10    2.10
  -3  -5   7    4.70    3.50
   2   5  -7  141.19    6.40
   2   5  -7  146.09    8.80
  -2  -5   7  156.68    8.20
  -2  -5   7  146.39    5.20
   1   5  -7    7.80    4.10
   1   5  -7    3.70    1.80
  -1  -5   7    5.80    3.60
   0   5  -7  233.88   11.10
   0   5  -7  236.78    8.30
   0  -5   7  216.48   10.10
  -1   5  -7  239.08    8.00
  -1   5  -7  219.78   10.60
   1  -5   7  226.18   10.10
  -2   5  -7  128.79    4.90
  -2   5  -7  133.79    8.30
   2  -5   7  120.79    7.80
  -3   5  -7    1.70    3.10
  -3   5  -7    1.30    4.30
  -3   5  -7    2.40    1.30
   3  -5   7    1.50    3.90
  -4   5  -7   76.49    6.70
   4  -5   7   75.79    7.10
  -7  -4   7    8.50    5.60
  -7  -4   7   19.20    5.20
   6   4  -7  182.68   11.90
  -6  -4   7  169.78    9.20
  -6  -4   7  187.88   10.30
   5   4  -7   13.40    5.30
  -5  -4   7   10.30    4.30
  -5  -4   7   16.60    3.30
   4   4  -7   20.30    4.80
   4   4  -7   23.90    3.60
  -4  -4   7   23.50    3.20
  -4  -4   7   14.90    3.80
   3   4  -7   89.19    6.90
  -3  -4   7   86.99    5.90
  -3  -4   7   81.39    4.60
   2   4  -7  216.18    8.40
   2   4  -7  207.58   10.60
  -2  -4   7  217.78    7.70
  -2  -4   7  233.08    9.60
   1   4  -7  521.95   19.20
   1   4  -7  521.45   17.00
  -1  -4   7  542.45   18.60
   0   4  -7  490.25   15.50
   0   4  -7  467.25   17.60
   0  -4   7  495.35   17.40
  -1   4  -7   32.80    2.50
  -1   4  -7   44.60    5.20
   1  -4   7   36.70    4.50
   1  -4   7   40.90    5.00
  -2   4  -7  435.26   13.30
  -2   4  -7  436.06   15.80
   2  -4   7  397.36   15.30
   2  -4   7  432.86   16.00
  -3   4  -7   12.50    3.80
  -3   4  -7    9.90    1.20
   3  -4   7   12.40    3.80
   3  -4   7    8.90    3.70
  -4   4  -7   57.19    6.10
  -4   4  -7   48.00    4.80
   4  -4   7   54.99    6.40
   4  -4   7   54.89    5.90
  -7  -3   7   52.49    7.10
  -6  -3   7  120.09    8.10
  -6  -3   7  123.59    7.90
   5   3  -7  148.59    9.90
  -5  -3   7  143.59    8.40
  -5  -3   7  147.99    7.70
   4   3  -7  217.68   11.00
   4   3  -7  246.78    9.70
  -4  -3   7  231.38   10.00
   3   3  -7   14.90    3.90
   3   3  -7   17.30    2.70
  -3  -3   7   16.90    3.40
  -3  -3   7   14.30    2.60
   2   3  -7    1.80    1.80
   2   3  -7    1.40    2.90
  -2  -3   7    2.40    1.60
  -2  -3   7    3.50    2.70
   1   3  -7  227.78    8.10
   1   3  -7  221.28   10.00
  -1  -3   7  233.98    7.60
  -1  -3   7  210.38    9.20
   0   3  -7  427.66   15.60
   0   3  -7  425.76   13.70
   0  -3   7  413.36   15.10
   0  -3   7  437.46   15.90
  -1   3  -7  453.55   14.40
  -1   3  -7  491.25   16.60
   1  -3   7  441.96   16.10
   1  -3   7  465.85   16.70
  -2   3  -7  259.87   10.60
  -2   3  -7  256.67    8.20
   2  -3   7  245.98   10.70
   2  -3   7  247.08   10.00
  -3   3  -7  205.18    6.60
  -3   3  -7  206.08    9.10
   3  -3   7  221.58    9.10
  -4   3  -7   26.20    4.30
   4  -3   7   24.50    3.70
   4  -3   7   17.30    4.10
  -5   3  -7   43.90    5.20
   5  -3   7   39.90    5.10
  -7   3  -7   93.09    4.20
  -7  -2   7  111.19    9.60
  -6  -2   7  192.28   10.30
  -6  -2   7  192.48    9.90
  -5  -2   7   19.70    4.40
  -5  -2   7   17.10    3.80
   4   2  -7   95.99    7.40
  -4  -2   7  109.79    6.80
  -4  -2   7  110.89    6.10
   3   2  -7  125.19    6.20
   3   2  -7  122.69    7.60
  -3  -2   7  129.49    6.00
  -3  -2   7  124.19    6.60
   2   2  -7  229.28    8.50
   2   2  -7  226.48    9.80
  -2  -2   7  223.68    9.20
  -2  -2   7  227.18    8.40
   1   2  -7   52.39    4.50
   1   2  -7   56.09    3.50
  -1  -2   7   57.49    3.20
  -1  -2   7   54.49    4.80
  -1  -2   7   58.99    4.60
   0   2  -7  221.78    7.60
   0   2  -7  219.98    9.10
   0  -2   7  216.08    7.00
   0  -2   7  222.78    8.80
   0  -2   7  224.48    7.50
   0  -2   7  197.88    9.10
  -1   2  -7  548.75   17.20
  -1   2  -7  549.54   18.90
   1  -2   7  551.14   18.50
   1  -2   7  565.64   19.10
  -2   2  -7  162.48    5.50
  -2   2  -7  153.08    7.30
   2  -2   7  176.18    7.50
   2  -2   7  157.18    7.50
  -3   2  -7   10.90    1.10
   3  -2   7   11.30    3.20
   3  -2   7   11.20    3.00
  -4   2  -7   55.59    2.20
   4  -2   7   51.89    4.70
   4  -2   7   55.89    4.70
  -5   2  -7   22.10    1.60
   5  -2   7   20.10    4.00
  -6   2  -7  841.02   25.80
   6  -2   7  881.11   28.70
  -7   2  -7    4.60    1.80
  -8   2  -7  118.39   10.30
  -8   2  -7  121.59    5.60
  -7  -1   7    3.20    5.80
  -6  -1   7   91.89    7.90
  -5  -1   7  237.28   10.90
  -5  -1   7  256.57   10.90
  -4  -1   7   13.70    3.20
  -4  -1   7   10.40    3.20
   3   1  -7   15.30    3.90
   3   1  -7   13.70    2.60
  -3  -1   7   20.70    3.60
  -3  -1   7   19.10    3.00
   2   1  -7  154.68    6.40
   2   1  -7  148.69    7.20
  -2  -1   7  142.79    6.30
  -2  -1   7  154.68    7.00
   1   1  -7  226.68    9.20
   1   1  -7  229.68    8.20
  -1  -1   7  218.98    9.40
  -1  -1   7  232.68    8.20
  -1  -1   7  227.38    9.00
   0   1  -7    2.10    1.30
   0   1  -7    1.80    2.10
   0  -1   7    0.90    1.90
   0  -1   7    1.70    1.20
   0  -1   7   -0.20    2.20
  -1   1  -7  136.69    5.20
   1  -1   7  130.89    6.60
   1  -1   7  142.59    4.50
   1  -1   7  142.99    4.60
   1  -1   7  160.98    6.60
  -2   1  -7  821.72   24.80
   2  -1   7  813.32   26.50
   2  -1   7  813.52   26.00
  -3   1  -7  205.78    6.90
   3  -1   7  209.78    8.80
   3  -1   7  220.98    8.50
  -4   1  -7  166.08    5.70
   4  -1   7  178.18    7.40
   4  -1   7  173.28    8.00
  -5   1  -7   23.50    1.80
   5  -1   7   20.60    3.80
  -6   1  -7  582.24   18.30
   6  -1   7  616.64   20.90
  -7   1  -7  335.07   11.00
  -7   1  -7  336.37   13.30
   7  -1   7  340.47   14.70
  -8   1  -7    1.10    4.50
  -8   1  -7    1.60    2.00
  -9   1  -7   47.10    4.40
  -9   1  -7   62.39    7.90
   7   0  -7   80.59    8.80
  -7   0   7   62.69    7.40
   6   0  -7  154.28   11.50
  -6   0   7  174.38   10.00
  -5   0   7   71.79    6.60
  -4   0   7   12.30    3.40
  -4   0   7   13.50    3.50
  -3   0   7   12.60    2.80
  -3   0   7   12.10    3.10
   2   0  -7   62.19    4.20
   2   0  -7   59.49    4.70
  -2   0   7   67.89    4.10
  -2   0   7   54.79    4.30
   1   0  -7  341.17   12.20
  -1   0   7  321.67   11.90
  -1   0   7  335.97   11.40
  -1   0   7  335.47   12.50
   0   0  -7 1737.73   52.39
   0   0  -7 1737.63   51.49
   0   0   7 1698.73   52.59
   0   0   7 1701.53   52.19
   0   0   7 1670.53   51.39
  -1   0  -7  378.56   12.40
   1   0   7  397.56   12.30
   1   0   7  369.66   13.60
   1   0   7  394.36   13.30
  -2   0  -7    1.00    1.10
   2   0   7    0.10    1.90
   2   0   7    0.40    1.80
  -3   0  -7  192.98    6.60
   3   0   7  199.78    8.40
   3   0   7  196.58    7.60
  -4   0  -7   85.59    3.50
   4   0   7   90.29    4.70
   4   0   7   87.59    5.20
  -5   0  -7   10.50    1.50
   5   0   7   10.00    2.80
  -6   0  -7    9.80    1.60
   6   0   7    8.10    3.30
  -7   0  -7  349.67   12.10
  -7   0  -7  387.36   14.00
   7   0   7  395.26   14.60
  -8   0  -7  524.55   17.30
  -8   0  -7  560.74   19.50
  -9   0  -7   40.40    6.40
  -9   0  -7   37.20    3.60
  -6   1   7  250.97   12.50
   5  -1  -7    2.70    4.10
  -5   1   7    0.60    4.30
  -4   1   7  110.39    7.10
  -3   1   7   68.79    5.10
  -3   1   7   70.09    5.30
   2  -1  -7  318.87   11.30
   2  -1  -7  303.17   10.80
  -2   1   7  288.77   10.90
  -2   1   7  297.57   12.20
  -2   1   7  290.57   11.20
   1  -1  -7  158.08    6.40
   1  -1  -7  154.78    6.90
  -1   1   7  164.58    6.60
  -1   1   7  150.58    7.10
  -1   1   7  164.18    7.00
   0  -1  -7  233.58    8.50
   0   1   7  247.38    9.60
   0   1   7  252.17    8.70
   0   1   7  235.68    9.10
  -1  -1  -7  484.75   15.30
   1   1   7  464.95   16.40
   1   1   7  492.05   16.00
   1   1   7  483.55   15.30
  -2  -1  -7  170.88    6.10
   2   1   7  180.28    6.90
   2   1   7  164.78    5.90
   2   1   7  157.38    7.30
  -3  -1  -7   83.09    3.70
   3   1   7   93.49    3.30
   3   1   7   81.19    4.90
   3   1   7   88.59    3.10
   3   1   7   85.09    4.40
  -4  -1  -7  239.48    8.20
   4   1   7  250.17   10.00
   4   1   7  251.37    8.90
  -5  -1  -7  168.68    6.10
   5   1   7  172.78    7.90
  -6  -1  -7  259.97    8.80
   6   1   7  251.47   10.70
  -7  -1  -7   35.10    4.30
  -7  -1  -7   29.60    3.00
   7   1   7   28.90    4.60
  -8  -1  -7   27.20    2.80
  -8  -1  -7   28.10    4.40
   8   1   7   26.40    5.10
  -9  -1  -7  248.18    9.70
  -9  -1  -7  261.57   12.10
 -10  -1  -7  170.08   11.70
   6  -2  -7  147.79   10.80
  -6   2   7  151.58   10.10
   5  -2  -7  178.08   10.40
  -5   2   7  209.78   10.20
   4  -2  -7   47.90    5.50
  -4   2   7   35.90    4.90
   3  -2  -7   13.30    3.90
  -3   2   7    8.60    3.30
  -2   2   7  256.47    9.90
  -2   2   7  237.68    9.90
   1  -2  -7  200.98    7.90
   1  -2  -7  206.78    8.10
  -1   2   7  202.98    8.30
  -1   2   7  201.78    8.00
  -1   2   7  188.98    8.20
   0  -2  -7  244.98    8.80
   0   2   7  254.17    9.10
   0   2   7  241.18    9.50
   0   2   7  245.38    9.30
  -1  -2  -7    2.50    1.30
   1   2   7    3.90    2.30
   1   2   7    4.30    1.60
   1   2   7    4.10    1.90
  -2  -2  -7  231.08    7.90
   2   2   7  221.48    8.30
   2   2   7  213.78    8.80
   2   2   7  231.48    7.80
  -3  -2  -7   54.29    2.90
   3   2   7   52.09    2.70
   3   2   7   46.50    3.30
   3   2   7   52.89    4.40
  -4  -2  -7   26.00    2.20
   4   2   7   24.60    1.80
   4   2   7   24.00    2.60
   4   2   7   25.70    3.30
  -5  -2  -7   34.80    2.70
   5   2   7   31.80    3.90
  -6  -2  -7  664.63   24.80
  -6  -2  -7  702.13   21.70
   6   2   7  701.33   23.40
  -7  -2  -7  208.58    8.00
  -7  -2  -7  222.48    9.30
   7   2   7  216.28   10.00
  -8  -2  -7  158.08    8.30
  -8  -2  -7  144.79    6.40
   8   2   7  135.19    8.00
  -9  -2  -7    5.00    2.60
  -9  -2  -7    6.30    4.20
   9   2   7    6.10    4.40
 -10  -2  -7  116.99    9.00
 -10  -2  -7   95.19    6.30
   5  -3  -7   73.09    8.10
  -5   3   7   86.99    8.20
   4  -3  -7  247.18   11.40
  -4   3   7  258.67   11.50
   3  -3  -7  307.97   12.70
  -3   3   7  315.27   12.50
   2  -3  -7   17.90    3.80
  -2   3   7   13.40    3.60
   1  -3  -7   47.20    4.70
  -1   3   7   55.49    4.80
  -1   3   7   52.89    4.40
   0  -3  -7   26.50    2.70
   0   3   7   35.80    3.80
   0   3   7   25.10    3.20
   0   3   7   34.60    3.50
  -1  -3  -7  287.27   10.40
   1   3   7  318.47   11.00
   1   3   7  300.77   11.10
   1   3   7  303.07   10.70
  -2  -3  -7  276.17    9.60
   2   3   7  272.37    9.90
   2   3   7  280.37    9.70
   2   3   7  274.07   10.50
  -3  -3  -7  316.27   10.80
   3   3   7  327.67   11.90
   3   3   7  313.07   11.00
   3   3   7  331.37   10.90
  -4  -3  -7  672.43   20.80
   4   3   7  646.34   20.60
   4   3   7  674.63   22.30
  -5  -3  -7  171.98    6.50
   5   3   7  164.38    8.00
   5   3   7  164.38    5.90
  -6  -3  -7   15.20    2.20
  -6  -3  -7    8.30    3.40
   6   3   7   13.70    1.40
   6   3   7   10.80    3.20
  -7  -3  -7  405.06   14.30
  -7  -3  -7  372.16   13.00
   7   3   7  386.16   15.00
  -8  -3  -7  138.09    7.50
  -8  -3  -7  128.89    6.30
   8   3   7  139.29    8.40
  -9  -3  -7    6.20    2.80
  -9  -3  -7    8.20    4.60
   9   3   7    7.80    4.20
 -10  -3  -7    1.40    5.60
 -10  -3  -7    1.20    3.20
  10   3   7   -1.20    5.20
   4  -4  -7    0.20    4.40
  -4   4   7   -0.50    4.40
   3  -4  -7  125.09    7.90
  -3   4   7  130.19    8.30
   2  -4  -7  175.98    8.50
  -2   4   7  166.58    8.60
   1  -4  -7    1.00    2.60
  -1   4   7   -0.60    2.60
   0  -4  -7  247.68   10.30
   0   4   7  258.67    9.90
   0   4   7  258.57   10.00
  -1  -4  -7   92.99    4.80
   1   4   7   87.59    5.00
   1   4   7   71.89    4.90
   1   4   7   80.49    4.80
  -2  -4  -7 2344.57   70.59
   2   4   7 2319.17   70.79
   2   4   7 2381.06   71.39
   2   4   7 2343.57   70.79
  -3  -4  -7  147.59    6.30
   3   4   7  158.08    7.40
   3   4   7  157.28    6.50
   3   4   7  163.88    6.50
  -4  -4  -7   22.60    2.50
   4   4   7   14.60    2.10
   4   4   7   18.80    3.30
  -5  -4  -7   98.29    4.80
   5   4   7   93.59    4.40
   5   4   7   93.99    6.10
  -6  -4  -7   17.40    2.60
  -6  -4  -7   12.40    3.80
   6   4   7   14.10    1.90
   6   4   7   16.70    3.60
  -7  -4  -7   17.00    2.70
  -7  -4  -7   16.60    4.00
   7   4   7   16.40    1.90
   7   4   7   13.60    3.70
  -8  -4  -7  244.18   10.60
  -8  -4  -7  212.68    8.80
   8   4   7  218.08    7.40
   8   4   7  218.08   10.70
  -9  -4  -7   98.79    7.90
  -9  -4  -7  103.59    6.40
   9   4   7  107.79    7.70
 -10  -4  -7  113.59    7.10
 -10  -4  -7  117.29    8.70
  10   4   7  102.19    9.40
   4  -5  -7   -0.80    5.10
   3  -5  -7    8.60    4.10
  -3   5   7    9.80    5.10
   2  -5  -7  196.88    9.60
  -2   5   7  206.18    9.80
   1  -5  -7  460.15   16.60
  -1   5   7  458.95   16.70
   0  -5  -7  439.26   15.30
   0   5   7  395.36   15.00
  -1  -5  -7    7.40    3.10
   1   5   7   10.40    3.20
   1   5   7    9.00    3.00
   2   5   7  329.27   11.60
   2   5   7  318.77   11.70
   2   5   7  305.27   11.90
  -3  -5  -7  139.39    6.00
   3   5   7  124.29    5.90
   3   5   7  124.39    6.00
   3   5   7  131.09    6.60
  -4  -5  -7   49.30    3.80
   4   5   7   44.10    3.70
   4   5   7   43.90    4.70
  -5  -5  -7   13.60    2.50
   5   5   7    9.70    2.30
   5   5   7   11.80    3.20
  -6  -5  -7   17.80    2.90
  -6  -5  -7   24.30    4.90
   6   5   7   16.00    2.50
   6   5   7   20.90    3.90
  -7  -5  -7  358.36   12.70
  -7  -5  -7  369.26   14.10
   7   5   7  340.97   14.10
  -8  -5  -7  146.29    7.20
  -8  -5  -7  156.58    8.90
   8   5   7  151.68    6.30
   8   5   7  146.59    9.10
  -9  -5  -7   13.50    5.20
  -9  -5  -7   13.70    3.40
   9   5   7   17.90    5.40
   9   5   7   12.70    2.30
 -10  -5  -7  134.79    7.90
  10   5   7  130.19    4.90
  10   5   7  123.59   10.00
   3  -6  -7    0.00    4.80
   2  -6  -7    3.30    4.00
  -2   6   7    1.80    4.40
  -1   6   7   74.29    6.30
   0  -6  -7  674.23   22.90
   0   6   7  667.33   22.90
  -1  -6  -7  409.56   14.50
   1   6   7  363.86   14.30
   2   6   7    7.40    2.80
   2   6   7    4.00    2.90
   3   6   7   46.80    4.50
   3   6   7   38.90    4.20
   3   6   7   41.50    4.90
   4   6   7   22.00    3.30
   4   6   7   19.60    4.00
  -5  -6  -7  134.39    6.40
   5   6   7  113.89    7.40
  -6  -6  -7   72.79    5.20
  -6  -6  -7   78.79    9.10
   6   6   7   83.89    5.20
   6   6   7   87.09    6.80
  -7  -6  -7  117.69    7.90
  -7  -6  -7  114.89    6.50
   7   6   7  113.29    6.00
   7   6   7  113.49    7.50
  -8  -6  -7  372.86   14.80
  -8  -6  -7  349.57   13.00
   8   6   7  345.27   12.50
   8   6   7  326.57   14.50
  -9  -6  -7  238.48   12.10
  -9  -6  -7  229.28   10.00
   9   6   7  213.68    9.00
   9   6   7  236.28   12.00
 -10  -6  -7   46.40    5.40
 -10  -6  -7   59.39    8.00
  10   6   7   55.19    8.10
   2  -7  -7  198.48   13.90
   1  -7  -7   16.90    4.50
  -1   7   7   19.00    5.20
   0  -7  -7   -0.50    3.40
   0   7   7    0.50    3.80
  -1  -7  -7  163.28    8.70
   1   7   7  146.39    8.00
  -2  -7  -7  239.78   10.40
   2   7   7  227.78   10.30
   3   7   7   10.30    3.50
   3   7   7   11.10    3.70
   4   7   7   39.40    5.10
   4   7   7   40.30    4.50
   5   7   7  314.97   11.90
   5   7   7  289.47   12.50
   6   7   7  725.13   24.10
   6   7   7  737.83   25.50
  -7  -7  -7   65.69    7.40
   7   7   7   71.39    5.60
   7   7   7   66.19    7.20
  -8  -7  -7   -0.70    4.80
   8   7   7   -2.30    4.60
   8   7   7    1.00    3.10
  -9  -7  -7   19.90    6.30
   9   7   7   20.70    6.10
   9   7   7   19.60    4.00
 -10  -7  -7  118.99   10.10
  10   7   7  106.69    8.00
  10   7   7  103.39    9.70
   0  -8  -7   23.10    4.80
   0   8   7   30.80    5.70
  -1  -8  -7   16.20    4.80
   1   8   7   17.40    5.00
  -2  -8  -7  156.48    8.90
   2   8   7  170.88    9.40
  -3  -8  -7  226.38   10.80
   3   8   7  219.38   10.40
   5   8   7    0.40    3.90
   5   8   7    0.10    3.80
   6   8   7  170.28    8.90
   6   8   7  170.08    9.60
   7   8   7  205.38   11.60
   7   8   7  220.48   10.10
  -8  -8  -7    1.90    5.50
   8   8   7    2.50    3.60
   8   8   7    1.40    4.90
  -9  -8  -7   43.10    7.80
   9   8   7   26.40    6.60
   9   8   7   30.10    4.80
  -1  -9  -7   26.30    6.20
   1   9   7   20.00    6.00
  -2  -9  -7   27.80    5.70
   2   9   7   20.20    5.50
  -3  -9  -7   17.10    5.10
   3   9   7   18.10    5.50
   6   9   7   29.70    5.90
   6   9   7   25.70    5.70
   7   9   7  151.48    9.70
   7   9   7  164.18   11.40
  -8  -9  -7  215.98   13.00
   8   9   7  200.18   10.90
   8   9   7  196.88   13.20
  -4 -10  -7    6.00    5.90
   1   8  -8   25.50    7.90
   5   7  -8    6.10    4.80
  -5  -7   8    3.30    6.60
   4   7  -8   21.00    7.10
   4   7  -8   28.40    4.70
  -4  -7   8   38.40    7.00
  -4  -7   8   36.00    3.60
   3   7  -8   90.99    6.80
   3   7  -8   95.99   11.40
  -3  -7   8  103.79    8.90
   2   7  -8    7.10    5.80
   2   7  -8    3.90    3.10
  -2  -7   8    2.90    5.60
   1   7  -8   11.20    6.70
   1   7  -8   11.10    3.00
  -1  -7   8   12.60    5.50
   0   7  -8   80.69    5.40
   0   7  -8   75.39    9.30
   0  -7   8   87.89    8.80
  -1   7  -8  201.58    8.10
   1  -7   8  185.48   11.70
  -2   7  -8    5.30    5.40
  -2   7  -8   10.30    2.70
   2  -7   8    5.60    5.50
   5   6  -8   36.80    7.70
  -5  -6   8   28.70    3.90
  -5  -6   8   41.10    7.00
   4   6  -8   16.50    3.80
   4   6  -8   23.60    7.10
  -4  -6   8   19.60    5.20
  -4  -6   8   23.60    3.30
   3   6  -8  123.29    9.80
   3   6  -8   98.29    6.60
  -3  -6   8  108.09    4.40
   2   6  -8  148.49    7.30
   2   6  -8  159.58   11.20
   1   6  -8   56.59    4.50
   1   6  -8   56.39    7.60
  -1  -6   8   47.30    6.00
   0   6  -8   21.30    2.80
   0   6  -8   26.00    5.80
   0  -6   8   28.80    5.30
  -1   6  -8  139.19   10.30
  -1   6  -8  134.49    5.90
   1  -6   8  134.79    8.50
  -2   6  -8   44.00    3.60
  -2   6  -8   44.90    7.30
   2  -6   8   51.29    6.50
  -3   6  -8   30.90    3.20
  -3   6  -8   28.40    5.70
   3  -6   8   37.00    6.40
  -4   6  -8    1.00    6.80
   4  -6   8   -2.30    6.20
   6   5  -8    3.80    7.50
  -6  -5   8    1.50    4.00
  -6  -5   8    2.00    6.20
   5   5  -8   83.89   10.20
  -5  -5   8   86.49    6.30
  -5  -5   8   78.99    7.70
   4   5  -8   30.00    4.20
   4   5  -8   32.40    6.50
  -4  -5   8   39.70    6.10
  -4  -5   8   27.30    3.50
   3   5  -8    8.40    5.00
   3   5  -8    5.90    2.80
  -3  -5   8    3.30    4.00
  -3  -5   8    5.70    2.20
   2   5  -8  255.67    9.80
   2   5  -8  243.08   12.40
  -2  -5   8  253.27   11.30
   1   5  -8  160.88    9.40
   1   5  -8  143.39    6.60
  -1  -5   8  146.59    8.30
   0   5  -8  240.58    8.70
   0   5  -8  229.68   11.40
   0  -5   8  217.98   10.50
  -1   5  -8   40.70    6.00
  -1   5  -8   41.90    3.30
   1  -5   8   33.10    5.00
  -2   5  -8    0.30    3.80
  -2   5  -8    0.20    1.60
   2  -5   8   -0.50    3.90
  -3   5  -8   17.00    2.00
  -3   5  -8   20.80    5.00
   3  -5   8   18.80    4.90
  -4   5  -8   75.59    7.30
   4  -5   8   84.59    8.00
  -6  -4   8    2.80    4.20
  -6  -4   8    2.40    5.70
   5   4  -8    2.70    5.30
  -5  -4   8    2.00    3.40
  -5  -4   8    1.50    4.30
   4   4  -8   68.99    8.40
   4   4  -8   72.69    6.00
  -4  -4   8   69.39    6.40
  -4  -4   8   73.69    5.10
   3   4  -8  193.58   11.20
   3   4  -8  212.38    8.70
  -3  -4   8  187.88    7.80
  -3  -4   8  190.48    9.40
   2   4  -8    3.30    3.80
   2   4  -8    5.40    2.40
  -2  -4   8    4.80    3.70
  -2  -4   8   10.70    1.90
   1   4  -8    3.60    3.90
   1   4  -8    3.70    2.00
  -1  -4   8    3.50    3.30
   0   4  -8  124.89    7.70
   0   4  -8  128.09    5.50
   0  -4   8  120.69    7.20
  -1   4  -8  152.38    8.20
  -1   4  -8  140.99    5.60
   1  -4   8  147.09    8.90
   1  -4   8  137.29    8.00
  -2   4  -8    0.40    1.30
  -2   4  -8    1.80    3.30
   2  -4   8   -0.30    3.40
   2  -4   8    1.90    3.70
  -3   4  -8   28.40    2.20
  -3   4  -8   23.20    4.80
   3  -4   8   27.60    4.90
   3  -4   8   26.30    4.60
  -4   4  -8   39.70    5.50
   4  -4   8   47.00    6.20
   4  -4   8   45.20    5.20
  -6  -3   8  179.38   10.10
  -6  -3   8  155.58    9.90
   5   3  -8   -0.70    5.30
  -5  -3   8    1.60    4.00
  -5  -3   8    0.80    3.60
   4   3  -8    7.00    3.30
   4   3  -8    3.30    4.90
  -4  -3   8    9.60    3.20
  -4  -3   8    7.30    4.10
   3   3  -8   28.10    5.40
   3   3  -8   17.80    3.20
  -3  -3   8   17.30    2.70
  -3  -3   8   16.60    3.90
   2   3  -8  213.88   10.10
   2   3  -8  213.18    8.30
  -2  -3   8  189.78    9.10
  -2  -3   8  198.68    7.70
   1   3  -8  265.97   11.10
   1   3  -8  245.78    9.00
  -1  -3   8  245.48    8.20
  -1  -3   8  232.78   10.20
   0   3  -8    2.80    3.30
   0   3  -8    1.40    1.60
   0  -3   8    0.20    2.80
   0  -3   8    2.70    3.20
  -1   3  -8  232.78    8.20
  -1   3  -8  226.88   10.40
   1  -3   8  238.98   10.30
   1  -3   8  260.67   11.10
  -2   3  -8  109.59    7.10
   2  -3   8  124.49    7.10
   2  -3   8  116.79    7.10
  -3   3  -8   42.90    5.10
  -3   3  -8   43.10    2.40
   3  -3   8   45.00    5.40
   3  -3   8   42.20    4.90
  -4   3  -8   25.80    4.30
  -4   3  -8   25.60    1.80
   4  -3   8   20.70    4.30
   4  -3   8   21.60    4.30
  -5   3  -8  285.57   12.40
   5  -3   8  274.77   12.60
  -6  -2   8  124.19    9.00
  -6  -2   8  118.09    9.50
  -5  -2   8  109.09    7.40
  -5  -2   8  101.49    8.10
   4   2  -8   59.19    6.90
  -4  -2   8   51.89    5.10
  -4  -2   8   50.19    5.50
   3   2  -8   13.60    3.10
   3   2  -8   19.80    4.90
  -3  -2   8   24.20    4.30
  -3  -2   8   17.20    3.10
   2   2  -8    1.30    3.60
   2   2  -8    0.90    1.90
  -2  -2   8    0.60    2.80
  -2  -2   8    0.50    2.10
   1   2  -8  488.55   15.80
   1   2  -8  477.25   17.40
  -1  -2   8  473.25   15.40
  -1  -2   8  470.15   16.80
  -1  -2   8  487.75   17.70
   0   2  -8  225.38    8.00
   0   2  -8  230.38    9.90
   0  -2   8  224.18   10.20
   0  -2   8  214.28    7.10
   0  -2   8  222.48    9.50
  -1   2  -8   18.90    3.40
  -1   2  -8   16.30    1.90
   1  -2   8   14.70    3.40
   1  -2   8   13.80    3.40
  -2   2  -8  117.69    4.50
  -2   2  -8  109.79    6.50
   2  -2   8  120.29    6.80
   2  -2   8  116.89    6.30
  -3   2  -8  147.89    5.30
   3  -2   8  159.68    7.70
   3  -2   8  160.18    8.20
  -4   2  -8   84.29    3.40
   4  -2   8   81.19    5.70
   4  -2   8   87.09    6.10
  -5   2  -8    5.00    1.20
   5  -2   8    2.60    3.80
  -6   2  -8   85.69    3.50
   6  -2   8   87.99    7.40
  -7   2  -8  117.89    4.70
  -8   2  -8   32.30    3.60
  -6  -1   8   39.00    6.40
  -5  -1   8   25.00    4.90
  -5  -1   8   21.60    4.90
  -4  -1   8  120.59    7.80
  -4  -1   8  117.99    7.20
   3   1  -8  282.07   12.30
   3   1  -8  257.87   10.60
  -3  -1   8  282.77   10.80
  -3  -1   8  276.37   11.50
   2   1  -8   34.20    4.60
  -2  -1   8   30.20    3.90
  -2  -1   8   34.60    3.50
   1   1  -8    3.70    3.10
   1   1  -8    2.90    1.70
  -1  -1   8    3.40    1.90
  -1  -1   8    7.10    3.40
  -1  -1   8    3.50    2.60
   0   1  -8  140.99    7.40
   0   1  -8  153.08    6.00
   0  -1   8  153.88    7.20
   0  -1   8  148.39    5.70
   0  -1   8  143.39    7.80
  -1   1  -8  248.98    8.50
  -1   1  -8  248.08   10.10
   1  -1   8  236.18   10.30
   1  -1   8  237.18    9.60
  -2   1  -8   85.59    3.80
   2  -1   8   93.39    5.70
   2  -1   8   82.89    5.30
  -3   1  -8    3.80    1.30
   3  -1   8    9.00    3.00
   3  -1   8    4.40    2.80
  -4   1  -8   53.89    2.60
   4  -1   8   43.70    5.10
   4  -1   8   49.40    4.70
  -5   1  -8  356.16   11.20
   5  -1   8  348.97   13.70
  -6   1  -8    2.70    1.40
   6  -1   8    2.80    3.80
  -7   1  -8    3.00    1.80
   7  -1   8    2.90    4.40
  -8   1  -8  176.78    6.90
  -6   0   8  142.49    9.90
  -5   0   8   69.59    6.80
  -4   0   8    0.20    3.70
  -4   0   8    2.00    3.60
  -3   0   8  204.38    9.40
  -3   0   8  201.28    8.70
   2   0  -8  244.48   10.50
   2   0  -8  264.87    9.70
  -2   0   8  238.88    9.60
  -2   0   8  249.78   10.20
   1   0  -8  328.47   12.50
   1   0  -8  329.77   11.60
  -1   0   8  321.67   11.50
  -1   0   8  343.57   13.00
  -1   0   8  339.57   12.40
   0   0  -8  114.49    5.20
   0   0  -8  120.19    6.50
   0   0   8  115.89    6.30
   0   0   8  115.99    5.10
   0   0   8  126.29    6.90
  -1   0  -8   30.00    2.60
   1   0   8   31.20    4.00
   1   0   8   30.80    2.40
   1   0   8   30.80    3.50
  -2   0  -8   74.49    3.50
   2   0   8   67.29    4.90
   2   0   8   80.89    4.90
  -3   0  -8  255.67    8.70
   3   0   8  274.87   10.00
   3   0   8  255.87   10.60
  -4   0  -8   12.70    1.60
   4   0   8    7.00    2.90
   4   0   8   15.20    3.10
  -5   0  -8  217.58    7.40
   5   0   8  216.98    9.90
  -6   0  -8  284.17    9.40
   6   0   8  280.37   12.20
  -7   0  -8  204.98    7.40
   7   0   8  210.48   10.50
  -8   0  -8    5.10    2.20
   8   0   8    3.60    4.80
  -9   0  -8   46.00    4.60
  -5   1   8   57.99    6.60
  -4   1   8  151.98    8.50
  -3   1   8   -0.60    3.00
  -3   1   8    2.20    3.10
  -2   1   8    0.70    2.40
  -2   1   8    2.70    2.80
   1  -1  -8  394.46   13.40
   1  -1  -8  387.96   14.10
  -1   1   8  391.26   13.50
  -1   1   8  389.96   14.40
  -1   1   8  386.06   14.20
   0  -1  -8  928.61   29.60
   0   1   8  966.30   30.30
   0   1   8  960.10   29.60
   0   1   8  959.70   30.80
  -1  -1  -8  448.76   14.20
   1   1   8  444.96   15.60
   1   1   8  416.96   14.90
   1   1   8  429.86   14.20
  -2  -1  -8  384.16   12.50
   2   1   8  374.96   14.00
   2   1   8  386.96   12.30
   2   1   8  382.46   13.30
  -3  -1  -8   86.39    4.00
   3   1   8   77.39    5.40
   3   1   8  104.19    4.00
   3   1   8   87.69    3.20
   3   1   8   83.29    4.90
  -4  -1  -8   86.99    3.90
   4   1   8   85.29    5.50
  -5  -1  -8  165.38    6.20
   5   1   8  177.08    8.50
  -6  -1  -8   71.69    3.60
   6   1   8   60.69    5.40
  -7  -1  -8  170.48    6.60
   7   1   8  170.28    8.80
  -8  -1  -8  139.19    6.20
   8   1   8  137.69    8.40
  -9  -1  -8   29.50    3.50
   5  -2  -8   11.20    5.80
  -5   2   8    3.00    5.20
  -4   2   8   48.30    5.80
  -3   2   8  134.99    8.50
  -3   2   8  131.99    7.60
  -2   2   8  100.19    6.40
  -2   2   8  107.69    6.40
  -1   2   8   13.00    3.40
  -1   2   8   18.50    3.10
   0  -2  -8  258.97    9.50
   0   2   8  257.67    9.60
   0   2   8  264.87   10.40
   0   2   8  246.08   10.10
  -1  -2  -8 2242.68   67.29
   1   2   8 2176.68   67.79
   1   2   8 2261.17   68.49
   1   2   8 2268.37   67.39
  -2  -2  -8   25.40    2.40
   2   2   8   22.90    2.50
   2   2   8   18.80    3.40
   2   2   8   18.40    2.70
  -3  -2  -8  111.09    4.80
   3   2   8  102.09    4.40
   3   2   8  116.59    6.40
   3   2   8  110.59    5.50
  -4  -2  -8   22.90    2.50
   4   2   8   24.30    1.90
   4   2   8   26.50    3.70
  -5  -2  -8  106.79    4.60
   5   2   8   95.79    6.20
  -6  -2  -8  697.93   22.10
   6   2   8  716.03   24.20
  -7  -2  -8    2.40    1.90
   7   2   8    2.00    3.20
  -8  -2  -8   34.40    3.80
   8   2   8   36.70    5.50
  -9  -2  -8  119.09    6.60
   9   2   8  124.49    9.30
   4  -3  -8    3.00    4.60
  -4   3   8    5.70    4.90
  -3   3   8   43.20    5.80
  -2   3   8  154.48    8.60
  -2   3   8  161.88    8.40
  -1   3   8  530.55   18.40
  -1   3   8  542.75   18.70
   0   3   8    7.30    2.60
   0   3   8    8.80    2.90
  -1  -3  -8  157.98    6.80
   1   3   8  173.58    7.80
   1   3   8  168.68    6.90
   1   3   8  147.29    7.00
  -2  -3  -8  336.27   11.60
   2   3   8  326.27   12.00
   2   3   8  335.67   11.60
   2   3   8  344.27   12.70
  -3  -3  -8   64.19    3.90
   3   3   8   62.99    4.30
   3   3   8   76.39    5.50
   3   3   8   65.39    3.70
  -4  -3  -8    2.00    1.60
   4   3   8    2.40    2.70
   4   3   8    4.10    1.50
  -5  -3  -8    0.10    1.70
   5   3   8    1.30    2.90
   5   3   8    0.80    1.30
  -6  -3  -8  441.56   14.40
   6   3   8  412.56   16.00
   6   3   8  432.26   13.10
  -7  -3  -8  552.84   17.90
   7   3   8  540.45   19.80
  -8  -3  -8   40.70    4.30
   8   3   8   28.60    4.90
  -9  -3  -8   46.80    4.80
   9   3   8   40.60    6.10
 -10  -3  -8   17.00    4.70
  10   3   8   11.30    5.60
   4  -4  -8   -0.80    5.40
   3  -4  -8   42.40    6.00
  -3   4   8   47.60    6.10
   2  -4  -8    6.10    4.10
  -2   4   8    4.00    3.90
  -1   4   8  152.38    8.10
  -1   4   8  151.58    7.90
   0   4   8  312.77   11.90
   0   4   8  285.07   11.40
   1   4   8   55.79    4.70
   1   4   8   49.30    4.40
   1   4   8   56.19    5.70
  -2  -4  -8    2.60    2.20
   2   4   8    5.50    2.50
   2   4   8    2.20    2.10
   2   4   8    2.20    3.00
  -3  -4  -8  107.19    5.20
   3   4   8  103.09    6.00
   3   4   8   92.59    5.00
   3   4   8  102.19    5.40
  -4  -4  -8  539.65   17.30
   4   4   8  513.15   18.60
   4   4   8  526.65   17.10
  -5  -4  -8  180.88    7.30
   5   4   8  184.58    6.90
   5   4   8  174.08    8.60
  -6  -4  -8  158.98    6.70
   6   4   8  148.79    8.40
   6   4   8  153.18    6.00
  -7  -4  -8  242.78    9.50
   7   4   8  247.48    8.30
   7   4   8  244.68   11.10
  -8  -4  -8  293.17   11.10
   8   4   8  299.07   13.10
  -9  -4  -8   73.19    5.90
   9   4   8   76.59    8.20
 -10  -4  -8    5.40    3.60
  10   4   8    2.10    5.30
   3  -5  -8  145.99    9.70
  -3   5   8  126.89    9.20
   2  -5  -8   40.30    5.70
  -2   5   8   31.00    5.30
   1  -5  -8   32.10    4.70
  -1   5   8   25.80    4.50
   0   5   8   58.79    5.80
   1   5   8  348.87   13.40
   1   5   8  357.26   13.20
   2   5   8   30.00    3.90
   2   5   8   30.30    4.40
   2   5   8   22.20    3.50
  -3  -5  -8   41.00    4.00
   3   5   8   37.70    4.00
   3   5   8   30.50    4.00
   3   5   8   31.10    3.50
  -4  -5  -8  201.98    8.20
   4   5   8  208.18    9.60
   4   5   8  197.08    8.10
  -5  -5  -8  659.03   21.30
   5   5   8  649.54   21.10
   5   5   8  662.03   22.80
  -6  -5  -8  117.79    5.90
   6   5   8  113.79    5.40
   6   5   8  106.19    7.40
  -7  -5  -8    9.50    3.20
   7   5   8   13.20    4.30
   7   5   8   11.70    2.30
  -8  -5  -8   71.29    5.50
   8   5   8   63.29    3.90
   8   5   8   64.19    6.50
  -9  -5  -8  241.78   10.20
   9   5   8  230.28   12.50
   9   5   8  241.58    8.10
 -10  -5  -8   31.30    4.90
  10   5   8   31.40    6.60
   2  -6  -8  264.87   12.50
  -2   6   8  229.18   11.90
   1  -6  -8  146.59    8.60
  -1   6   8  137.49    9.20
   0  -6  -8   15.90    5.00
   0   6   8   23.40    4.60
   1   6   8   26.90    4.60
   2   6   8  106.29    6.40
   2   6   8  120.29    7.00
   3   6   8   69.99    5.30
   3   6   8   72.09    6.10
   3   6   8   62.39    5.40
   4   6   8    2.40    3.60
   4   6   8   -0.20    2.40
  -5  -6  -8    9.10    3.00
   5   6   8    4.90    3.40
   5   6   8    7.20    2.60
  -6  -6  -8  397.76   13.80
   6   6   8  372.86   13.40
   6   6   8  364.76   14.90
  -7  -6  -8  187.48    8.60
   7   6   8  196.98    8.00
   7   6   8  176.88   10.10
  -8  -6  -8   93.79    6.60
   8   6   8   96.99    7.80
   8   6   8   93.79    5.40
  -9  -6  -8  117.99    7.80
   9   6   8  126.69    9.20
   9   6   8  107.69    5.80
 -10  -6  -8   19.70    4.90
  10   6   8   26.50    3.10
   1  -7  -8  154.58   10.10
  -1   7   8  156.58   15.70
   0  -7  -8  127.49    8.60
   0   7   8  129.19    8.60
  -1  -7  -8  136.39    9.00
   1   7   8  138.49    8.30
   2   7   8   -0.80    3.50
   3   7   8    0.50    3.80
   3   7   8    2.70    3.50
   4   7   8   45.80    5.60
   4   7   8   29.40    3.90
   5   7   8   87.89    7.30
   5   7   8   86.29    6.00
   6   7   8    2.20    3.90
   6   7   8    1.30    2.90
   7   7   8  169.88   10.50
   7   7   8  175.38    8.20
   8   7   8  189.88   11.60
   9   7   8   90.49    9.20
   9   7   8   92.79    6.30
  -1  -8  -8   31.50    6.20
   1   8   8   30.50    5.80
   2   8   8  252.27   12.20
   3   8   8   15.80    5.00
   4   8   8    0.30    4.10
   5   8   8  327.07   13.30
   5   8   8  332.47   14.40
   6   8   8   97.09    7.10
   6   8   8   95.89    8.90
   7   8   8    3.80    5.60
   8   8   8   15.20    4.40
   8   8   8   32.50    6.80
   6   9   8  113.19   10.50
   7   9   8   98.09    9.70
   8   9   8    0.30    6.10
   1   7  -9  117.59   12.90
   0   7  -9    0.20    7.80
   4   6  -9   77.29    7.60
   4   6  -9   53.29    9.10
  -4  -6   9   61.29    8.10
  -4  -6   9   73.29    4.90
   3   6  -9   10.60    7.20
   3   6  -9   12.30    3.80
  -3  -6   9   18.60    6.40
   2   6  -9   78.99    6.20
   2   6  -9   59.79    8.40
  -2  -6   9   76.89    8.00
   1   6  -9    1.90    6.40
   1   6  -9    0.30    2.80
  -1  -6   9    0.30    4.80
   0   6  -9  138.09   10.60
   0   6  -9  128.79    6.70
   0  -6   9  108.19    8.90
  -1   6  -9   10.70    2.70
  -1   6  -9   13.70    6.80
   1  -6   9   10.00    5.10
  -2   6  -9    3.80    2.60
  -2   6  -9    6.20    6.70
   2  -6   9    6.70    5.40
  -3   6  -9   90.89    8.40
  -3   6  -9   92.89    5.00
   3  -6   9   93.19    9.20
   5   5  -9   47.20    8.60
   4   5  -9   14.50    7.30
   4   5  -9   19.80    4.60
  -4  -5   9   13.20    3.30
  -4  -5   9   15.80    6.20
   3   5  -9   71.89    9.00
   3   5  -9   72.89    6.10
  -3  -5   9   79.49    7.70
  -3  -5   9   69.89    4.30
   2   5  -9   64.09    5.30
   2   5  -9   48.00    7.10
  -2  -5   9   49.70    6.10
   1   5  -9    3.80    4.80
   1   5  -9    8.90    2.80
  -1  -5   9    6.20    4.70
   0   5  -9    9.40    5.40
   0   5  -9   10.10    2.60
   0  -5   9   13.40    4.90
  -1   5  -9  116.59    5.60
  -1   5  -9  107.89    8.80
   1  -5   9  109.69    8.20
  -2   5  -9  134.29    6.00
  -2   5  -9  154.98   10.40
   2  -5   9  133.29    9.30
  -3   5  -9    4.40    5.80
  -3   5  -9    1.00    1.90
   3  -5   9    1.80    5.20
  -4   5  -9   41.80    3.20
   5   4  -9   45.10    8.90
  -5  -4   9   45.20    5.20
   4   4  -9   42.90    5.30
   4   4  -9   43.60    7.80
  -4  -4   9   34.50    4.10
  -4  -4   9   39.70    6.00
   3   4  -9   32.70    4.20
   3   4  -9   34.10    6.90
  -3  -4   9   31.00    5.20
  -3  -4   9   30.30    3.30
   2   4  -9  237.68   13.20
   2   4  -9  265.57   10.40
  -2  -4   9  263.87   11.90
  -2  -4   9  266.87    9.00
   1   4  -9  148.39    6.70
   1   4  -9  135.69    9.00
  -1  -4   9  137.49    8.80
   0   4  -9   67.09    7.30
   0   4  -9   54.49    4.10
   0  -4   9   57.69    6.40
  -1   4  -9   15.10    4.50
  -1   4  -9   14.90    2.30
   1  -4   9   14.60    4.10
  -2   4  -9   24.00    5.20
  -2   4  -9   17.60    2.20
   2  -4   9   22.00    5.40
   2  -4   9   24.20    4.70
  -3   4  -9   76.29    3.80
  -3   4  -9   75.79    7.70
   3  -4   9   66.19    7.00
   3  -4   9   67.59    7.90
  -4   4  -9   34.20    2.60
  -4   4  -9   28.70    5.50
   4  -4   9   20.60    5.60
  -5  -3   9   61.09    7.00
  -5  -3   9   47.20    7.10
   4   3  -9  141.89   10.90
  -4  -3   9  123.29    9.20
  -4  -3   9  123.59    7.30
   3   3  -9   55.29    6.90
   3   3  -9   67.69    5.80
  -3  -3   9   58.79    6.30
  -3  -3   9   61.49    4.80
   2   3  -9   32.50    3.60
   2   3  -9   46.10    6.00
  -2  -3   9   34.00    5.00
  -2  -3   9   33.40    3.30
   1   3  -9   83.69    7.00
   1   3  -9   79.69    4.80
  -1  -3   9   72.29    6.50
  -1  -3   9   81.19    3.50
   0   3  -9  220.28   10.70
   0   3  -9  221.98    8.30
   0  -3   9  198.38    9.70
   0  -3   9  216.98   10.70
  -1   3  -9   91.19    6.70
  -1   3  -9   87.79    4.40
   1  -3   9   97.69    6.50
   1  -3   9   96.39    7.10
  -2   3  -9   38.70    2.80
  -2   3  -9   31.20    5.10
   2  -3   9   38.20    5.50
   2  -3   9   31.90    4.90
  -3   3  -9   18.70    4.70
  -3   3  -9   21.20    2.00
   3  -3   9   24.00    5.20
   3  -3   9   14.20    4.10
  -4   3  -9  211.18    7.10
  -4   3  -9  225.08   10.60
   4  -3   9  204.48   10.60
  -5   3  -9   24.60    5.20
  -5   3  -9   38.70    2.40
  -5  -2   9    1.40    4.60
  -5  -2   9   -0.70    5.00
  -4  -2   9   65.19    6.20
  -4  -2   9   66.09    7.50
   3   2  -9   88.29    6.20
   3   2  -9   74.39    8.10
  -3  -2   9   90.39    6.70
  -3  -2   9   78.39    5.70
   2   2  -9  483.25   18.60
   2   2  -9  511.55   16.90
  -2  -2   9  489.65   16.50
  -2  -2   9  481.65   17.80
   1   2  -9  401.76   13.90
   1   2  -9  402.56   15.70
  -1  -2   9  404.06   13.30
  -1  -2   9  399.16   15.10
   0   2  -9    5.40    3.60
   0   2  -9    7.70    2.00
   0  -2   9   10.50    4.20
   0  -2   9    9.00    1.20
   0  -2   9    9.00    3.60
  -1   2  -9  214.88    9.80
   1  -2   9  215.98    9.50
   1  -2   9  211.08   10.40
  -2   2  -9  115.09    7.00
  -2   2  -9  121.69    4.90
   2  -2   9  119.09    6.90
   2  -2   9  109.49    7.20
  -3   2  -9    4.20    3.40
  -3   2  -9    5.80    1.50
   3  -2   9    6.00    3.50
   3  -2   9    2.70    3.20
  -4   2  -9   32.40    2.40
   4  -2   9   31.20    5.20
  -5   2  -9  161.48    5.60
   5  -2   9  152.58    9.30
  -6   2  -9  282.17    9.20
   6  -2   9  294.37   13.50
  -7   2  -9   94.89    4.30
  -5  -1   9  107.09    9.90
  -5  -1   9  134.09    9.40
  -4  -1   9   21.00    5.00
  -4  -1   9   28.80    4.80
   3   1  -9   99.49    8.20
  -3  -1   9   76.99    6.60
  -3  -1   9   88.49    6.20
   2   1  -9   53.09    6.70
   2   1  -9   59.59    5.10
  -2  -1   9   56.19    4.60
  -2  -1   9   58.69    5.40
   1   1  -9  350.66   12.80
   1   1  -9  361.26   14.40
  -1  -1   9  373.66   14.70
  -1  -1   9  383.26   12.60
  -1  -1   9  357.66   13.80
   0   1  -9  286.37   11.60
   0  -1   9  249.68   11.60
   0  -1   9  266.97   11.00
   0  -1   9  263.27    9.20
  -1   1  -9  482.45   15.80
  -1   1  -9  492.55   17.50
   1  -1   9  489.45   18.00
   1  -1   9  486.25   17.30
  -2   1  -9  118.69    5.00
   2  -1   9  119.49    7.30
   2  -1   9  120.79    6.50
  -3   1  -9  299.47    9.70
   3  -1   9  274.57   12.00
   3  -1   9  288.67   11.60
  -4   1  -9  237.88    8.00
   4  -1   9  219.68   10.70
  -5   1  -9   12.30    1.70
   5  -1   9    9.00    3.80
  -6   1  -9   23.80    2.50
   6  -1   9   19.20    5.00
  -7   1  -9  102.99    4.70
   7  -1   9  111.39    8.20
  -8   1  -9   68.49    4.40
  -5   0   9    3.70    5.80
  -4   0   9   62.89    6.80
  -4   0   9   60.79    6.80
  -3   0   9   44.00    5.20
  -3   0   9   32.90    4.80
   2   0  -9   49.10    6.20
   2   0  -9   51.59    5.10
  -2   0   9   44.80    5.20
  -2   0   9   50.99    4.60
   1   0  -9  149.49    6.70
   1   0  -9  145.29    8.00
  -1   0   9  136.79    6.40
  -1   0   9  147.99    7.60
  -1   0   9  145.29    8.50
   0   0  -9  665.53   22.40
   0   0  -9  634.54   21.00
   0   0   9  651.23   22.10
   0   0   9  681.03   22.90
   0   0   9  646.64   20.80
  -1   0  -9    6.60    1.80
  -1   0  -9    3.90    2.80
   1   0   9    4.20    3.10
   1   0   9    4.00    3.10
   1   0   9    6.30    1.70
  -2   0  -9   18.70    2.20
   2   0   9   24.10    3.70
   2   0   9   17.60    3.60
  -3   0  -9    0.90    1.50
   3   0   9    1.70    2.80
   3   0   9    0.90    2.80
  -4   0  -9  268.77    9.10
   4   0   9  264.37   11.40
  -5   0  -9  656.23   20.20
   5   0   9  640.14   22.80
  -6   0  -9    1.30    1.50
   6   0   9    2.30    3.90
  -7   0  -9   33.80    3.30
   7   0   9   24.80    5.00
  -8   0  -9   81.39    4.70
   8   0   9   65.29    8.40
  -4   1   9    0.80    4.30
  -4   1   9    1.10    5.10
  -3   1   9   96.99    7.60
  -3   1   9   88.09    6.40
  -2   1   9  248.78   10.80
  -2   1   9  253.67   10.30
   1  -1  -9   13.20    3.90
   1  -1  -9   11.30    2.90
  -1   1   9   13.50    4.20
  -1   1   9   14.00    3.40
  -1   1   9   14.30    2.90
   0  -1  -9    6.90    2.30
   0  -1  -9    5.50    3.00
   0   1   9    6.20    2.20
   0   1   9    7.00    2.90
   0   1   9    9.50    3.70
  -1  -1  -9   57.69    3.90
   1   1   9   51.89    4.60
   1   1   9   55.39    5.10
   1   1   9   61.09    3.60
  -2  -1  -9   62.69    3.70
   2   1   9   62.29    3.30
   2   1   9   59.89    5.00
   2   1   9   61.79    5.10
  -3  -1  -9  194.98    7.50
   3   1   9  212.58    9.60
   3   1   9  203.38    8.60
  -4  -1  -9   22.20    2.30
   4   1   9   14.50    3.60
  -5  -1  -9  574.94   18.40
   5   1   9  590.74   20.80
  -6  -1  -9  546.05   17.00
   6   1   9  514.45   19.40
  -7  -1  -9    1.30    2.00
   7   1   9    3.50    3.80
  -8  -1  -9   17.10    2.70
   8   1   9   18.10    5.60
  -9  -1  -9   11.40    4.60
   9   1   9   16.90    6.60
  -4   2   9   97.49    9.40
  -3   2   9   11.90    4.50
  -3   2   9   16.50    4.60
  -2   2   9  104.19    6.90
  -2   2   9  108.29    7.50
  -1   2   9  512.15   18.20
  -1   2   9  515.15   17.70
   0  -2  -9  194.28    8.20
   0   2   9  203.08    8.20
   0   2   9  196.48    8.80
   0   2   9  204.78    9.40
  -1  -2  -9   29.70    3.00
   1   2   9   19.80    3.30
   1   2   9   26.20    3.00
   1   2   9   24.30    3.90
  -2  -2  -9   11.30    2.20
   2   2   9   12.70    2.10
   2   2   9    6.90    3.10
   2   2   9    6.10    2.60
  -3  -2  -9  180.28    7.20
   3   2   9  189.38    6.70
   3   2   9  184.28    9.10
   3   2   9  184.88    8.00
  -4  -2  -9  116.09    5.10
   4   2   9  107.09    4.00
   4   2   9  106.19    6.50
  -5  -2  -9   31.10    3.10
   5   2   9   34.40    4.50
  -6  -2  -9  206.68    7.60
   6   2   9  183.78    9.50
  -7  -2  -9  620.24   19.50
   7   2   9  584.74   21.70
  -8  -2  -9   68.39    4.80
   8   2   9   81.49    7.30
  -9  -2  -9    2.10    3.10
   9   2   9    6.50    5.90
  -3   3   9  268.47   13.00
  -2   3   9  428.26   16.20
  -2   3   9  439.76   16.80
  -1   3   9    4.90    3.50
  -1   3   9    4.10    3.20
   0   3   9  352.06   12.90
   0   3   9  346.27   13.40
  -1  -3  -9    2.70    2.30
   1   3   9    0.80    2.20
   1   3   9    4.30    3.40
   1   3   9    4.80    2.90
  -2  -3  -9   14.00    2.50
   2   3   9   14.90    2.50
   2   3   9   10.80    2.90
   2   3   9   15.60    3.50
  -3  -3  -9  144.99    6.40
   3   3   9  145.89    6.20
   3   3   9  150.08    7.00
   3   3   9  155.28    8.00
  -4  -3  -9  197.48    8.10
   4   3   9  213.98    9.70
   4   3   9  219.18    7.60
  -5  -3  -9  319.17   11.20
   5   3   9  321.87   10.30
   5   3   9  305.47   12.90
  -6  -3  -9   98.59    5.10
   6   3   9   90.59    7.20
  -7  -3  -9    4.90    2.50
   7   3   9    3.80    4.30
  -8  -3  -9  248.88    9.60
   8   3   9  240.38   11.90
  -9  -3  -9    1.30    3.00
   9   3   9    2.60    5.70
  -3   4   9   99.29    9.90
  -2   4   9  168.18   10.30
  -1   4   9  225.78   10.70
  -1   4   9  237.08   10.80
   0   4   9    5.70    3.50
   0   4   9    8.50    3.40
   1   4   9  209.68    8.90
   1   4   9  225.18    9.50
  -2  -4  -9   42.90    4.30
   2   4   9   42.80    5.20
   2   4   9   44.30    4.40
   2   4   9   38.00    4.40
  -3  -4  -9   64.29    4.70
   3   4   9   58.89    5.30
   3   4   9   56.39    4.30
   3   4   9   55.39    4.90
  -4  -4  -9   49.10    4.30
   4   4   9   49.30    5.80
   4   4   9   49.60    3.90
  -5  -4  -9  163.58    7.00
   5   4   9  159.48    8.80
   5   4   9  160.48    6.50
  -6  -4  -9  186.58    7.90
   6   4   9  195.78    7.00
   6   4   9  188.28    9.80
  -7  -4  -9  146.49    7.00
   7   4   9  149.29    5.10
   7   4   9  144.59    8.70
  -8  -4  -9   12.30    3.20
   8   4   9    9.60    5.10
  -9  -4  -9    2.90    3.30
   9   4   9    2.90    5.40
  -2   5   9    2.40    5.10
  -1   5   9   71.39    7.80
   0   5   9  240.28   11.40
   0   5   9  256.67   11.30
   1   5   9   62.89    5.90
   1   5   9   77.19    6.00
   2   5   9   19.00    4.20
   2   5   9   23.40    3.70
   3   5   9  254.97   10.60
   3   5   9  280.07   11.40
   3   5   9  247.98   10.10
  -4  -5  -9  433.36   15.20
   4   5   9  420.76   16.40
   4   5   9  456.25   15.20
  -5  -5  -9   67.09    5.10
   5   5   9   75.59    6.70
   5   5   9   74.59    4.70
  -6  -5  -9   40.20    3.90
   6   5   9   36.40    5.20
   6   5   9   37.30    3.70
  -7  -5  -9   85.69    5.70
   7   5   9   71.39    7.50
   7   5   9   79.29    4.40
  -8  -5  -9   28.70    4.20
   8   5   9   26.50    5.90
   8   5   9   27.00    3.00
  -9  -5  -9    1.40    3.60
   9   5   9   -1.10    4.90
  -1   6   9    3.80    5.10
   0   6   9   72.49    7.20
   1   6   9  581.74   20.80
   2   6   9  139.49    7.90
   2   6   9  140.29    7.90
   3   6   9    6.30    3.10
   3   6   9   12.80    4.10
   4   6   9  304.47   11.60
   4   6   9  290.97   12.80
   5   6   9  152.28    9.10
   5   6   9  155.58    7.40
  -6  -6  -9   63.99    5.90
   6   6   9   56.99    7.00
   6   6   9   65.79    4.90
  -7  -6  -9   53.29    4.90
   7   6   9   40.30    5.90
   7   6   9   49.40    4.50
  -8  -6  -9   33.10    4.50
   8   6   9   36.40    6.60
   8   6   9   30.80    3.50
  -9  -6  -9   83.39    7.70
   9   6   9   78.89    5.00
   9   6   9   78.09    9.40
   0   7   9    8.20    5.50
   1   7   9   82.89    7.60
   2   7   9   64.69    6.70
   3   7   9   25.10    4.80
   4   7   9    3.30    3.50
   5   7   9  148.89    9.60
   5   7   9  149.39    7.90
   6   7   9  299.57   13.80
   6   7   9  324.27   12.20
   7   7   9  202.28    8.90
   7   7   9  190.28   11.40
   8   7   9   43.20    6.90
   8   7   9   54.89    5.30
   2   8   9    9.90    5.40
   4   8   9  114.59    8.50
   5   8   9   18.50    4.40
   6   8   9    2.90    3.90
   6   8   9    1.70    5.60
   7   8   9  166.68   10.80
   7   8   9  161.08    9.00
   3   5 -10   78.29   10.40
   3   5 -10   70.49    7.20
  -3  -5  10   67.59    4.00
   2   5 -10    1.90    6.20
   2   5 -10    1.10    3.40
  -2  -5  10   -2.10    5.60
   1   5 -10   75.69    9.60
   1   5 -10   79.49    6.10
  -1  -5  10   71.09    7.90
   0   5 -10  136.89   11.40
   0   5 -10  137.29    7.20
   0  -5  10  137.79   10.10
  -1   5 -10   46.00    8.10
  -1   5 -10   35.80    3.80
   1  -5  10   27.20    6.10
  -2   5 -10   63.99    8.40
  -2   5 -10   80.49    5.20
   2  -5  10   77.69    8.00
  -3   5 -10   88.59    9.80
  -3   5 -10   88.99    5.20
   3  -5  10   76.89    8.70
   4   4 -10   -1.70    6.60
   3   4 -10  139.39    8.60
   3   4 -10  141.29   12.20
  -3  -4  10  125.39    6.40
  -3  -4  10  133.09    9.60
   2   4 -10  122.49    7.20
   2   4 -10  128.99   11.10
  -2  -4  10  114.49    4.70
  -2  -4  10  125.79    8.90
   1   4 -10    0.10    2.70
   1   4 -10   -0.70    4.90
  -1  -4  10    0.50    4.40
   0   4 -10  133.09   10.30
   0   4 -10  120.59    6.40
   0  -4  10  127.19    8.50
  -1   4 -10   87.39    8.10
  -1   4 -10   81.69    5.00
   1  -4  10   82.09    7.50
  -2   4 -10   21.00    2.70
  -2   4 -10   31.40    6.30
   2  -4  10   21.30    5.90
   2  -4  10   25.90    5.50
  -3   4 -10    0.20    4.90
  -3   4 -10    0.00    2.00
   3  -4  10    2.40    4.80
   3  -4  10   -0.90    4.90
  -4   4 -10   69.89    4.00
  -4   4 -10   76.29    9.50
   4  -4  10   64.79    8.40
   4   3 -10   27.90    8.10
  -4  -3  10   25.80    6.20
  -4  -3  10   28.90    4.50
   3   3 -10   30.10    4.70
   3   3 -10   28.30    6.70
  -3  -3  10   29.90    5.70
  -3  -3  10   27.80    3.80
   2   3 -10  123.69    9.50
   2   3 -10  131.69    7.40
  -2  -3  10  119.49    5.70
  -2  -3  10  115.69    8.30
   1   3 -10   95.29    8.30
   1   3 -10   90.49    5.90
  -1  -3  10   96.89    7.30
   0   3 -10   86.89    8.30
   0   3 -10   86.79    5.30
   0  -3  10   90.99    7.20
  -1   3 -10    8.30    4.40
  -1   3 -10   15.40    2.60
   1  -3  10   11.90    4.70
   1  -3  10   13.70    4.70
  -2   3 -10  107.79    8.30
  -2   3 -10   91.59    4.70
   2  -3  10   96.79    8.00
  -3   3 -10  140.29    8.90
   3  -3  10  128.19    8.90
   3  -3  10  125.89    9.00
  -4   3 -10   33.50    6.30
  -4   3 -10   38.30    3.10
   4  -3  10   41.70    6.90
  -5   3 -10   41.90    7.10
  -5   3 -10   38.00    3.00
   5  -3  10   47.50    7.50
  -4  -2  10  113.49    8.20
  -4  -2  10   92.59    8.80
   3   2 -10  153.28   11.10
  -3  -2  10  140.89    9.00
  -3  -2  10  136.89    7.70
   2   2 -10   21.30    3.90
   2   2 -10   21.40    5.50
  -2  -2  10   25.70    3.40
  -2  -2  10   29.80    5.00
   1   2 -10   32.60    3.70
   1   2 -10   54.39    6.50
  -1  -2  10   44.80    5.40
  -1  -2  10   53.79    3.60
   0   2 -10    2.20    3.80
   0   2 -10    0.80    2.20
   0  -2  10    1.30    4.00
   0  -2  10    2.50    4.00
  -1   2 -10   45.90    5.80
  -1   2 -10   49.60    3.80
   1  -2  10   41.30    5.00
   1  -2  10   52.49    6.30
  -2   2 -10    7.40    3.90
  -2   2 -10    5.00    1.90
   2  -2  10    3.60    4.10
   2  -2  10    6.60    4.30
  -3   2 -10  112.19    5.10
  -3   2 -10  123.29    8.40
   3  -2  10  128.79    8.20
   3  -2  10  113.59    8.60
  -4   2 -10  362.36   12.00
  -4   2 -10  388.96   15.40
   4  -2  10  362.96   15.40
  -5   2 -10   65.69    8.10
  -5   2 -10   61.09    3.50
   5  -2  10   51.29    7.00
  -6   2 -10    5.30    5.30
  -6   2 -10    2.90    1.80
   6  -2  10    4.10    5.20
  -4  -1  10   20.00    5.10
  -4  -1  10   17.80    5.70
  -3  -1  10  208.08    9.70
  -3  -1  10  199.78   10.60
   2   1 -10  202.08   11.20
  -2  -1  10  190.68    8.50
  -2  -1  10  189.48    9.80
   1   1 -10   45.10    4.70
   1   1 -10   48.10    6.00
  -1  -1  10   56.49    4.40
  -1  -1  10   49.80    5.60
  -1  -1  10   44.90    6.40
   0   1 -10   13.60    4.00
   0   1 -10   19.00    2.90
   0  -1  10   16.00    2.30
   0  -1  10   14.00    4.40
   0  -1  10   16.00    3.90
  -1   1 -10   65.89    6.00
  -1   1 -10   65.59    4.30
   1  -1  10   65.79    6.30
   1  -1  10   63.69    5.70
  -2   1 -10  125.49    5.60
  -2   1 -10  121.39    7.60
   2  -1  10  126.29    7.80
   2  -1  10  128.39    7.20
  -3   1 -10    8.30    1.90
   3  -1  10   11.10    4.20
   3  -1  10    7.90    4.30
  -4   1 -10  172.28    6.40
   4  -1  10  161.58    9.70
  -5   1 -10  164.28    6.20
   5  -1  10  146.39    9.20
  -6   1 -10   71.79    4.00
   6  -1  10   62.69    7.30
  -7   1 -10    7.90    2.30
   7  -1  10    5.40    6.10
  -4   0  10   80.19    8.20
  -4   0  10   84.89    9.50
  -3   0  10    0.70    3.70
  -3   0  10    2.40    4.60
  -2   0  10  179.28   10.10
  -2   0  10  195.88    8.90
   1   0 -10  273.47   12.30
   1   0 -10  281.27   10.80
  -1   0  10  271.57   12.00
  -1   0  10  274.97   10.50
  -1   0  10  262.27   12.60
   0   0 -10   61.09    6.40
   0   0  10   52.39    6.00
   0   0  10   54.79    5.90
   0   0  10   51.69    4.10
  -1   0 -10    2.70    3.70
  -1   0 -10    0.40    2.00
   1   0  10    1.70    1.80
   1   0  10    3.30    3.60
   1   0  10    0.20    3.40
  -2   0 -10  390.96   13.00
   2   0  10  375.36   15.20
   2   0  10  372.66   14.20
  -3   0 -10   78.59    4.30
   3   0  10   92.89    6.60
   3   0  10   84.99    6.40
  -4   0 -10   23.30    2.50
   4   0  10   22.30    4.40
  -5   0 -10    2.30    1.80
   5   0  10    1.20    3.70
  -6   0 -10  123.59    5.40
   6   0  10  122.59    9.00
  -7   0 -10   22.80    2.80
   7   0  10   23.80    6.20
   8   0  10    1.20    5.70
  -4   1  10  184.68   11.40
  -3   1  10  220.48   12.00
  -3   1  10  224.48   10.70
  -2   1  10    4.10    3.30
  -2   1  10    0.40    4.10
  -1   1  10   75.59    5.30
  -1   1  10   72.39    6.20
   0  -1 -10   27.30    4.80
   0  -1 -10   24.90    3.50
   0   1  10   22.60    4.50
   0   1  10   23.20    5.00
   0   1  10   24.10    3.10
  -1  -1 -10  276.07   10.30
   1   1  10  264.67    9.80
   1   1  10  282.07   11.50
   1   1  10  277.57   11.90
  -2  -1 -10    5.70    2.10
   2   1  10    5.10    3.10
   2   1  10    6.10    1.80
   2   1  10    3.20    3.60
  -3  -1 -10   87.09    4.60
   3   1  10   88.69    6.90
   3   1  10   89.39    6.20
  -4  -1 -10  303.07   10.50
   4   1  10  295.77   12.80
  -5  -1 -10   94.69    4.70
   5   1  10   89.29    7.00
  -6  -1 -10   41.20    3.60
   6   1  10   36.70    5.60
  -7  -1 -10   98.19    5.20
   7   1  10   99.19    8.90
  -8  -1 -10    7.10    2.90
   8   1  10    5.30    6.10
  -3   2  10   76.59    7.90
  -3   2  10   59.89    7.10
  -2   2  10  168.28    9.10
  -2   2  10  156.78    9.90
  -1   2  10   12.90    3.60
  -1   2  10    7.40    3.90
   0  -2 -10   57.19    6.30
   0  -2 -10   69.89    5.40
   0   2  10   53.29    5.50
   0   2  10   56.69    4.90
  -1  -2 -10   11.00    2.80
   1   2  10   15.20    4.40
   1   2  10   15.50    4.00
   1   2  10   14.20    2.80
  -2  -2 -10  461.55   15.80
   2   2  10  464.55   17.40
   2   2  10  468.45   15.50
   2   2  10  482.75   16.90
  -3  -2 -10  200.28    7.90
   3   2  10  195.28    7.20
   3   2  10  203.98   10.00
   3   2  10  203.38    9.00
  -4  -2 -10  114.49    5.60
   4   2  10  119.29    8.00
  -5  -2 -10  244.28    9.00
   5   2  10  235.88   11.10
  -6  -2 -10  145.29    6.30
   6   2  10  131.09    8.90
  -7  -2 -10    5.40    2.50
   7   2  10    7.40    5.10
  -8  -2 -10    1.80    2.80
   8   2  10    3.10    5.60
  -2   3  10  144.79   10.00
  -2   3  10  144.49    9.30
  -1   3  10  285.47   11.80
  -1   3  10  266.87   12.10
   0   3  10   79.59    7.00
   0   3  10   92.59    6.20
  -1  -3 -10   24.20    3.70
   1   3  10   20.90    3.40
   1   3  10   23.50    4.30
   1   3  10   28.70    5.10
  -2  -3 -10   68.19    5.00
   2   3  10   70.19    4.70
   2   3  10   70.39    5.90
   2   3  10   69.29    6.00
  -3  -3 -10  413.16   14.70
   3   3  10  433.46   14.40
   3   3  10  426.16   16.60
   3   3  10  444.16   15.50
  -4  -3 -10  226.18    9.10
   4   3  10  244.98   10.90
   4   3  10  233.58    8.30
  -5  -3 -10    7.40    2.40
   5   3  10    5.20    1.40
   5   3  10    3.00    3.60
  -6  -3 -10  219.98    8.70
   6   3  10  218.08   10.80
  -7  -3 -10   87.89    5.50
   7   3  10   78.79    7.40
  -8  -3 -10   47.30    5.00
   8   3  10   46.90    6.70
   9   3  10   18.00    7.70
  -1   4  10   93.09    7.60
  -1   4  10   79.69    8.40
   0   4  10  384.96   15.60
   0   4  10  393.16   14.90
   1   4  10    6.90    4.10
   1   4  10    5.60    3.10
   2   4  10   14.40    3.10
   2   4  10   12.70    4.30
   2   4  10   20.40    4.30
  -3  -4 -10   75.09    5.30
   3   4  10   75.89    6.10
   3   4  10   73.59    4.90
   3   4  10   64.69    5.90
  -4  -4 -10  193.58    8.20
   4   4  10  193.48   10.10
   4   4  10  195.18    7.80
  -5  -4 -10  491.25   16.50
   5   4  10  472.45   15.80
   5   4  10  495.25   18.70
  -6  -4 -10    8.30    2.70
   6   4  10    8.70    1.80
   6   4  10   11.10    4.50
  -7  -4 -10   30.20    3.60
   7   4  10   32.60    5.60
  -8  -4 -10   95.19    6.30
   8   4  10   92.79    8.50
  -1   5  10   14.50    5.70
   0   5  10   62.09    7.10
   0   5  10   62.69    7.10
   1   5  10   19.90    4.20
   1   5  10   15.00    4.60
   2   5  10   15.20    3.90
   2   5  10   17.60    4.60
   3   5  10   10.60    4.40
   3   5  10    5.10    3.00
  -4  -5 -10   36.30    4.20
   4   5  10   32.20    3.80
   4   5  10   36.20    5.70
  -5  -5 -10  189.08    8.60
   5   5  10  183.88    8.00
   5   5  10  187.48   10.40
  -6  -5 -10  410.76   14.80
   6   5  10  427.16   16.80
   6   5  10  396.66   13.90
  -7  -5 -10   63.59    5.80
   7   5  10   67.19    7.40
   7   5  10   66.09    4.20
  -8  -5 -10    6.30    3.70
   8   5  10    1.10    5.50
  -9  -5 -10   69.79    7.00
   0   6  10    1.20    5.50
   1   6  10    4.90    4.90
   1   6  10    8.60    5.60
   2   6  10   44.30    5.90
   2   6  10   48.20    5.40
   3   6  10  220.58   10.00
   4   6  10  144.89    9.50
   4   6  10  128.69    7.30
   5   6  10   11.40    3.30
   5   6  10   14.10    5.40
  -6  -6 -10  116.39    7.40
   6   6  10  126.49    8.70
   6   6  10  103.39    6.30
  -7  -6 -10  157.98    8.80
   7   6  10  173.18   11.10
   7   6  10  160.08    7.40
  -8  -6 -10    5.40    3.90
   8   6  10    6.10    6.10
   8   6  10    3.30    2.70
   2   7  10  110.19    8.70
   2   7  10   99.29    9.40
   4   7  10   79.49    7.00
   5   7  10  235.28   10.80
   5   7  10  256.67   12.90
   6   7  10    0.80    5.70
   6   7  10    0.80    3.70
   7   7  10   61.59    6.00
   7   7  10   67.49    8.40
   4   8  10    0.50    5.00
   5   8  10   75.89    8.00
   6   8  10  109.89   11.00
   2   4 -11    7.60    4.50
   1   4 -11   42.20    4.70
   1   4 -11   48.60    8.10
  -1  -4  11   44.90    6.90
   0   4 -11  109.19    6.90
   0   4 -11  131.29   10.60
   0  -4  11  102.89    9.70
  -1   4 -11    0.90    2.90
  -1   4 -11    0.40    6.30
   1  -4  11   -1.00    5.90
  -2   4 -11   54.29    4.80
  -2   4 -11   58.69    8.60
   2  -4  11   46.20    7.10
  -3   4 -11   94.99   14.00
   3  -4  11   91.79    9.80
   2   3 -11   44.40    5.30
   2   3 -11   51.89    8.90
  -2  -3  11   43.50    4.20
  -2  -3  11   36.50    6.90
   1   3 -11    3.60    5.80
   1   3 -11    1.80    3.30
  -1  -3  11    5.50    5.00
   0   3 -11  157.68   11.20
   0   3 -11  144.09    7.40
   0  -3  11  133.69   10.00
  -1   3 -11  317.47   15.00
  -1   3 -11  315.07   11.60
   1  -3  11  295.27   15.40
   1  -3  11  304.27   14.20
  -2   3 -11   37.50    3.50
  -2   3 -11   34.70    7.00
   2  -3  11   35.80    6.00
   2  -3  11   30.10    7.00
  -3   3 -11    5.20    2.40
  -3   3 -11    4.50    5.90
   3  -3  11    4.30    5.20
   3  -3  11    3.50    5.50
  -4   3 -11    4.50    6.20
   4  -3  11    5.90    6.70
   2   2 -11  143.09    8.40
   2   2 -11  136.69   10.50
  -2  -2  11  131.39    9.40
  -2  -2  11  123.79    6.70
   1   2 -11   64.59    8.00
   1   2 -11   68.79    6.00
  -1  -2  11   53.29    6.40
  -1  -2  11   60.19    4.00
   0   2 -11   50.69    5.20
   0   2 -11   45.80    6.80
   0  -2  11   55.69    7.20
   0  -2  11   46.80    5.90
  -1   2 -11  156.68   10.30
  -1   2 -11  157.98    7.20
   1  -2  11  164.48   10.80
   1  -2  11  161.78    9.80
  -2   2 -11   14.40    5.50
   2  -2  11   19.90    5.00
   2  -2  11   16.80    5.40
  -3   2 -11  130.99    5.90
  -3   2 -11  126.49    9.00
   3  -2  11  123.39    9.20
   3  -2  11  119.79    9.20
  -4   2 -11    9.70    5.30
  -4   2 -11    9.50    2.40
   4  -2  11   12.60    5.50
  -5   2 -11   67.39    4.30
  -5   2 -11   67.69    8.60
   5  -2  11   60.09    7.70
   2   1 -11    2.30    6.20
  -2  -1  11    2.40    4.90
  -2  -1  11   -0.10    3.50
   1   1 -11   32.80    4.30
   1   1 -11   30.30    6.40
  -1  -1  11   29.80    3.70
  -1  -1  11   37.80    6.10
   0   1 -11  122.49    9.20
   0   1 -11  130.39    6.80
   0  -1  11  120.49    8.80
   0  -1  11  133.59    9.80
   0  -1  11  119.09    5.30
  -1   1 -11    0.90    4.10
   1  -1  11    0.00    4.10
   1  -1  11    2.80    5.10
  -2   1 -11   15.60    2.80
  -2   1 -11   16.50    5.20
   2  -1  11   11.70    4.30
   2  -1  11    9.90    5.30
  -3   1 -11  167.18    6.90
  -3   1 -11  169.68    9.70
   3  -1  11  165.68    9.50
   3  -1  11  144.59    9.50
  -4   1 -11  256.47    9.20
   4  -1  11  239.28   12.20
  -5   1 -11  157.38    6.50
   5  -1  11  148.69   10.70
  -6   1 -11   53.69    4.30
   6  -1  11   47.10    7.80
  -2   0  11   78.29    8.80
  -2   0  11   82.19    7.10
   1   0 -11    4.70    3.50
   1   0 -11    1.10    5.10
  -1   0  11    1.90    4.30
  -1   0  11   -0.50    3.20
  -1   0  11    3.00    5.70
   0   0 -11   20.50    4.90
   0   0 -11   20.10    3.50
   0   0  11   27.10    5.30
   0   0  11   26.00    3.30
   0   0  11   24.10    5.90
  -1   0 -11  220.28   11.60
  -1   0 -11  245.98    9.60
   1   0  11  237.68    8.50
   1   0  11  255.97   12.40
   1   0  11  253.47   11.00
  -2   0 -11   21.60    4.80
  -2   0 -11   17.80    2.80
   2   0  11   18.50    4.80
   2   0  11   22.40    4.80
  -3   0 -11   19.60    2.80
   3   0  11   17.40    4.70
   3   0  11   15.80    4.90
  -4   0 -11   68.49    4.50
   4   0  11   82.99    7.40
  -5   0 -11  327.47   11.30
   5   0  11  313.47   14.40
  -6   0 -11  171.18    7.10
   6   0  11  162.58   10.50
   7   0  11    0.10    5.50
  -2   1  11  127.79    8.30
  -2   1  11  107.09    8.90
  -1   1  11   64.19    7.10
  -1   1  11   72.79    6.10
   0  -1 -11   65.89    7.50
   0   1  11   58.99    7.20
   0   1  11   49.99    5.90
   0   1  11   65.09    5.10
  -1  -1 -11  115.29    6.30
  -1  -1 -11  100.69    7.60
   1   1  11  114.59    5.60
   1   1  11  101.89    7.90
   1   1  11  103.49    7.70
  -2  -1 -11  298.07   11.00
   2   1  11  308.77   13.30
   2   1  11  296.57    9.90
   2   1  11  276.07   12.00
  -3  -1 -11  214.48    8.40
   3   1  11  199.08   10.50
   3   1  11  196.08   10.00
  -4  -1 -11   29.40    3.20
   4   1  11   34.10    5.70
  -5  -1 -11   18.60    2.80
   5   1  11   17.30    5.00
  -6  -1 -11   32.60    3.40
   6   1  11   27.40    6.30
  -7  -1 -11  110.59    5.90
   7   1  11  110.99    9.30
  -2   2  11   19.70    4.90
  -1   2  11  156.08    9.60
  -1   2  11  164.08    8.60
   0   2  11   27.10    5.40
   0   2  11   25.00    3.80
  -1  -2 -11   18.60    4.60
  -1  -2 -11   12.30    3.40
   1   2  11   14.50    4.80
   1   2  11    9.50    2.80
   1   2  11   16.70    4.80
  -2  -2 -11    2.10    2.60
   2   2  11    5.50    2.20
   2   2  11    4.40    4.10
   2   2  11    5.20    3.70
  -3  -2 -11  137.69    6.60
   3   2  11  137.09    8.50
   3   2  11  136.89    5.50
  -4  -2 -11  223.58    9.00
   4   2  11  236.58   11.40
  -5  -2 -11    1.40    2.40
   5   2  11    2.80    4.20
  -6  -2 -11   24.00    3.30
   6   2  11   26.60    5.70
  -7  -2 -11   32.80    3.70
   7   2  11   32.80    6.40
  -1   3  11    0.70    5.60
  -1   3  11    7.10    4.60
   0   3  11   13.70    4.00
   0   3  11   18.70    5.10
   1   3  11   98.59    6.40
   1   3  11  108.09    7.50
  -2  -3 -11  140.69    7.40
   2   3  11  143.79    8.70
   2   3  11  145.69    7.00
   2   3  11  142.89    8.50
  -3  -3 -11   12.40    3.00
   3   3  11   12.40    4.90
   3   3  11   12.60    2.70
  -4  -3 -11  109.59    6.30
   4   3  11  118.79    8.90
   4   3  11  112.89    5.10
  -5  -3 -11  320.07   12.00
   5   3  11  324.27   14.60
  -6  -3 -11    4.50    2.80
   6   3  11    7.70    5.30
  -7  -3 -11    2.20    2.80
   7   3  11    3.70    5.20
   0   4  11   90.89    8.90
   0   4  11   95.19    8.00
   1   4  11   12.70    4.00
   1   4  11   10.50    5.10
   2   4  11  174.48    9.70
   2   4  11  165.88    8.20
  -3  -4 -11  222.18    9.70
   3   4  11  220.58    9.20
   3   4  11  225.28   11.70
  -4  -4 -11   75.09    6.00
   4   4  11   75.69    4.80
   4   4  11   73.19    7.20
  -5  -4 -11  100.29    6.50
   5   4  11  103.49    5.20
   5   4  11  107.29    8.70
  -6  -4 -11  152.68    7.80
   6   4  11  172.38   10.30
   6   4  11  161.38    5.70
  -7  -4 -11   11.90    3.50
   7   4  11   13.90    6.20
   1   5  11   79.29    7.80
   1   5  11   77.79    7.90
   2   5  11   33.10    6.00
   2   5  11   28.80    4.70
   3   5  11   56.19    5.80
   4   5  11  560.84   19.30
   4   5  11  581.34   21.70
  -5  -5 -11  111.19    7.30
   5   5  11  101.99    9.30
   5   5  11  107.69    6.10
  -6  -5 -11    4.30    3.70
   6   5  11    7.00    2.60
   6   5  11    8.20    5.30
  -7  -5 -11   57.39    6.30
   7   5  11   51.99    7.60
   7   5  11   47.30    3.60
  -8  -5 -11    8.80    5.20
   2   6  11  109.79    8.50
   2   6  11  123.19   10.20
   3   6  11   59.79    6.10
   4   6  11    2.80    3.70
   5   6  11  189.18   11.70
   5   6  11  175.98    8.70
   6   6  11   67.89    8.70
   6   6  11   54.09    5.30
  -7  -6 -11    6.90    4.50
   1  -3  12   11.90    6.90
   1   2 -12   21.40    7.50
   0   2 -12  139.49   11.00
   0   2 -12  151.28    8.50
   0  -2  12  157.48   10.10
  -1   2 -12   22.00    6.40
  -1   2 -12   29.90    4.10
   1  -2  12   23.20    6.20
   1  -2  12   25.40    7.00
  -2   2 -12   17.40    6.50
  -2   2 -12   13.80    3.20
   2  -2  12   18.20    6.50
   2  -2  12   12.10    7.00
   1   1 -12    0.60    7.00
   1   1 -12   -0.30    4.30
  -1  -1  12    2.00    3.80
   0   1 -12   -0.10    3.60
   0   1 -12    0.90    6.10
   0  -1  12    0.00    6.80
   0  -1  12   -0.60    5.00
   0  -1  12    0.30    1.90
  -1   1 -12   35.20    4.10
  -1   1 -12   37.00    7.10
   1  -1  12   42.10    6.10
   1  -1  12   49.00    8.00
  -2   1 -12  177.08   11.00
  -2   1 -12  182.48    8.20
   2  -1  12  173.58   11.40
   2  -1  12  183.28   11.10
  -3   1 -12   51.19    7.20
  -3   1 -12   57.79    5.00
   3  -1  12   48.00    7.30
  -4   1 -12   10.40    6.00
  -4   1 -12   11.40    2.90
   4  -1  12    6.50    5.60
   0   0 -12   50.89    7.70
   0   0 -12   48.90    5.20
   0   0  12   63.99    8.50
   0   0  12   49.70    7.10
   0   0  12   49.80    5.00
  -1   0 -12   94.49    9.40
   1   0  12   89.49    8.80
   1   0  12  102.39   10.10
   1   0  12   86.69    4.00
  -2   0 -12   20.00    3.50
  -2   0 -12   21.90    5.70
   2   0  12   26.10    6.80
   2   0  12   23.50    5.20
  -3   0 -12  170.78    7.70
  -3   0 -12  154.18   10.20
   3   0  12  154.98   11.30
  -4   0 -12   66.89    5.20
   4   0  12   73.39    9.20
  -5   0 -12    0.50    2.60
   5   0  12    3.10    6.20
   0  -1 -12  130.49   16.10
   0  -1 -12   92.59    9.40
   0   1  12  118.19    9.00
   0   1  12  129.49    7.30
  -1  -1 -12   66.09    6.20
  -1  -1 -12   56.39    7.50
   1   1  12   61.09    5.00
   1   1  12   67.09    8.30
   1   1  12   69.79    7.20
  -2  -1 -12  100.29    8.40
  -2  -1 -12   86.99    6.20
   2   1  12   79.29    7.50
   2   1  12   94.79    9.60
   2   1  12   95.19    4.40
  -3  -1 -12    2.30    2.80
   3   1  12    0.70    5.50
  -4  -1 -12  193.48    8.20
   4   1  12  162.48   10.70
  -5  -1 -12   66.39    5.20
   5   1  12   59.89    8.10
   0   2  12    2.40    5.90
   0   2  12    1.90    4.80
  -1  -2 -12  316.87   14.60
  -1  -2 -12  311.07   12.50
   1   2  12  293.47   11.70
   1   2  12  300.87   14.00
   1   2  12  297.47   15.40
  -2  -2 -12  112.79    7.30
   2   2  12  114.89    8.90
   2   2  12  111.79    5.90
   2   2  12  127.29    9.30
  -3  -2 -12  239.08   10.00
   3   2  12  247.78   12.90
   3   2  12  227.38    8.10
  -4  -2 -12    3.20    2.90
   4   2  12    1.40    5.50
  -5  -2 -12   11.10    3.30
   5   2  12   18.70    5.90
  -6  -2 -12   46.70    5.10
   6   2  12   43.10    7.80
   1   3  12    1.90    3.70
   1   3  12    3.20    5.10
  -2  -3 -12   46.90    5.40
   2   3  12   49.60    7.50
   2   3  12   40.60    6.60
   2   3  12   47.20    5.20
  -3  -3 -12  344.27   12.70
   3   3  12  314.47   14.60
   3   3  12  312.67   11.40
  -4  -3 -12   74.69    6.10
   4   3  12   78.29    4.30
   4   3  12   78.99    9.00
  -5  -3 -12   35.60    4.40
   5   3  12   41.10    7.30
  -6  -3 -12    5.70    3.40
   6   3  12    3.60    5.50
   2   4  12  158.18    9.90
   2   4  12  158.58    9.30
   3   4  12    5.00    3.40
   3   4  12    2.80    5.30
  -4  -4 -12  210.08    9.70
   4   4  12  212.98   12.50
   4   4  12  192.78    8.40
  -5  -4 -12    4.80    3.80
   5   4  12    4.90    5.50
   5   4  12    5.80    2.50
  -6  -4 -12   16.40    4.10
   6   4  12   14.20    6.40
   4   5  12   33.10    7.50
  -5  -5 -12   28.80    5.20
   5   5  12   24.80    6.90
   0   0   0    0.00    0.00

_computing_structure_solution     'SHELXT 2014/5 (Sheldrick, 2014)'
;
_shelx_hkl_checksum              354
loop_
_space_group_symop_operation_xyz
'x, y, z'
'-x, -y, -z'
loop_
_atom_site_label
_atom_site_type_symbol
_atom_site_fract_x
_atom_site_fract_y
_atom_site_fract_z
_atom_site_U_iso_or_equiv
_atom_site_adp_type
_atom_site_occupancy
_atom_site_site_symmetry_order
_atom_site_calc_flag
_atom_site_refinement_flags_posn
_atom_site_refinement_flags_adp
_atom_site_refinement_flags_occupancy
_atom_site_disorder_assembly
_atom_site_disorder_group
Cu1 Cu 0.62539(2) 0.32490(2) 0.21626(2) 0.01116(8) Uani 1 1 d . . . . .
O1 O 0.49171(16) 0.33506(15) 0.07290(12) 0.0152(2) Uani 1 1 d . . . . .
O2 O 0.25093(17) 0.43967(18) -0.02797(13) 0.0234(3) Uani 1 1 d . . . . .
O3 O 0.42973(15) 0.54399(14) 0.30635(12) 0.0132(2) Uani 1 1 d . . . . .
O4 O 0.26405(17) 0.86403(15) 0.48539(13) 0.0176(2) Uani 1 1 d . . . . .
O5 O 0.22714(15) 0.66042(14) 0.65609(12) 0.0130(2) Uani 1 1 d . . . . .
N1 N 0.25165(17) 0.58230(16) 0.31685(14) 0.0102(2) Uani 1 1 d . . . . .
N2 N 0.84899(18) 0.12922(17) 0.09008(14) 0.0125(3) Uani 1 1 d . . . . .
C1 C 0.3216(2) 0.4292(2) 0.07578(17) 0.0135(3) Uani 1 1 d . . . . .
C2 C 0.1902(2) 0.5351(2) 0.21285(16) 0.0116(3) Uani 1 1 d . . . . .
C3 C 0.0012(2) 0.5848(2) 0.23446(17) 0.0140(3) Uani 1 1 d . . . . .
H3 H -0.043698 0.553854 0.162633 0.017 Uiso 1 1 calc R U . . .
C4 C -0.1230(2) 0.6786(2) 0.35885(18) 0.0146(3) Uani 1 1 d . . . . .
H4 H -0.251702 0.708743 0.374164 0.018 Uiso 1 1 calc R U . . .
C5 C -0.0570(2) 0.7280(2) 0.46056(17) 0.0134(3) Uani 1 1 d . . . . .
H5 H -0.140183 0.794021 0.545901 0.016 Uiso 1 1 calc R U . . .
C6 C 0.1317(2) 0.68012(19) 0.43681(17) 0.0107(3) Uani 1 1 d . . . . .
C7 C 0.2183(2) 0.74040(19) 0.53355(17) 0.0115(3) Uani 1 1 d . . . . .
C8 C 1.0228(2) 0.1106(2) 0.07839(19) 0.0168(3) Uani 1 1 d . . . . .
H8 H 1.043002 0.187498 0.133257 0.020 Uiso 1 1 calc R U . . .
C9 C 0.8274(2) 0.0178(2) 0.01164(19) 0.0168(3) Uani 1 1 d . . . . .
H9 H 0.706243 0.027045 0.017927 0.020 Uiso 1 1 calc R U . . .
O6 O 0.50025(17) 0.14156(16) 0.35346(13) 0.0187(2) Uani 1 1 d . . . . .
H6A H 0.522034 0.050367 0.301805 0.028 Uiso 1 1 d R U . . .
H6B H 0.573418 0.096695 0.413660 0.028 Uiso 1 1 d R U . . .
O7 O 0.5117(2) 0.11778(17) 0.79647(14) 0.0250(3) Uani 1 1 d . . . . .
H7A H 0.437401 0.213759 0.848151 0.038 Uiso 1 1 d R U . . .
H7B H 0.581631 0.153848 0.726316 0.038 Uiso 1 1 d R U . . .
loop_
_atom_site_aniso_label
_atom_site_aniso_U_11
_atom_site_aniso_U_22
_atom_site_aniso_U_33
_atom_site_aniso_U_23
_atom_site_aniso_U_13
_atom_site_aniso_U_12
Cu1 0.00888(11) 0.01327(11) 0.01031(11) -0.00466(7) -0.00275(8) -0.00224(8)
O1 0.0114(5) 0.0190(5) 0.0133(5) -0.0069(4) -0.0041(4) -0.0023(4)
O2 0.0147(6) 0.0380(7) 0.0154(6) -0.0125(5) -0.0051(5) -0.0048(5)
O3 0.0064(5) 0.0156(5) 0.0175(6) -0.0077(4) -0.0021(4) -0.0032(4)
O4 0.0236(6) 0.0163(5) 0.0175(6) -0.0017(4) -0.0071(5) -0.0110(5)
O5 0.0115(5) 0.0175(5) 0.0106(5) -0.0026(4) -0.0034(4) -0.0055(4)
N1 0.0085(6) 0.0103(5) 0.0111(6) -0.0014(5) -0.0027(5) -0.0027(5)
N2 0.0098(6) 0.0136(6) 0.0122(6) -0.0041(5) -0.0020(5) -0.0025(5)
C1 0.0135(7) 0.0165(7) 0.0122(7) -0.0034(6) -0.0027(6) -0.0072(6)
C2 0.0116(7) 0.0136(7) 0.0106(7) -0.0011(5) -0.0034(6) -0.0054(6)
C3 0.0128(7) 0.0165(7) 0.0149(7) -0.0008(6) -0.0067(6) -0.0061(6)
C4 0.0095(7) 0.0170(7) 0.0171(7) -0.0010(6) -0.0046(6) -0.0042(6)
C5 0.0118(7) 0.0132(7) 0.0129(7) -0.0016(6) -0.0015(6) -0.0034(6)
C6 0.0117(7) 0.0097(6) 0.0100(7) -0.0017(5) -0.0027(6) -0.0033(5)
C7 0.0081(7) 0.0117(6) 0.0122(7) -0.0062(5) -0.0017(6) -0.0008(5)
C8 0.0134(8) 0.0180(7) 0.0195(8) -0.0082(6) -0.0031(6) -0.0056(6)
C9 0.0113(7) 0.0190(7) 0.0202(8) -0.0056(6) -0.0026(6) -0.0057(6)
O6 0.0196(6) 0.0210(6) 0.0194(6) -0.0026(5) -0.0043(5) -0.0116(5)
O7 0.0356(8) 0.0258(6) 0.0178(6) -0.0063(5) 0.0010(6) -0.0192(6)
loop_
_atom_type_symbol
_atom_type_description
_atom_type_scat_dispersion_real
_atom_type_scat_dispersion_imag
_atom_type_scat_source
C C 0.0033 0.0016 'International Tables Vol C Tables 4.2.6.8 and 6.1.1.4'
H H 0.0000 0.0000 'International Tables Vol C Tables 4.2.6.8 and 6.1.1.4'
Cu Cu 0.3201 1.2651 'International Tables Vol C Tables 4.2.6.8 and 6.1.1.4'
N N 0.0061 0.0033 'International Tables Vol C Tables 4.2.6.8 and 6.1.1.4'
O O 0.0106 0.0060 'International Tables Vol C Tables 4.2.6.8 and 6.1.1.4'
loop_
_geom_angle_atom_site_label_1
_geom_angle_atom_site_label_2
_geom_angle_atom_site_label_3
_geom_angle
_geom_angle_site_symmetry_1
_geom_angle_site_symmetry_3
_geom_angle_publ_flag
O1 Cu1 O3 91.13(5) . . ?
O1 Cu1 O5 171.65(5) . 2_666 ?
O3 Cu1 O5 87.56(5) . 2_666 ?
O1 Cu1 N2 87.13(5) . . ?
O3 Cu1 N2 167.87(5) . . ?
O5 Cu1 N2 92.43(5) 2_666 . ?
O1 Cu1 O6 87.81(5) . . ?
O3 Cu1 O6 95.28(5) . . ?
O5 Cu1 O6 100.52(5) 2_666 . ?
N2 Cu1 O6 96.65(5) . . ?
C1 O1 Cu1 128.23(10) . . ?
N1 O3 Cu1 121.51(9) . . ?
C7 O5 Cu1 123.40(10) . 2_666 ?
O3 N1 C6 115.03(12) . . ?
O3 N1 C2 123.59(13) . . ?
C6 N1 C2 121.32(13) . . ?
C9 N2 C8 117.23(14) . . ?
C9 N2 Cu1 120.95(11) . . ?
C8 N2 Cu1 121.78(11) . . ?
O2 C1 O1 123.72(15) . . ?
O2 C1 C2 115.64(14) . . ?
O1 C1 C2 120.63(13) . . ?
N1 C2 C3 118.49(14) . . ?
N1 C2 C1 122.28(13) . . ?
C3 C2 C1 119.23(14) . . ?
C4 C3 C2 121.12(14) . . ?
C4 C3 H3 119.4 . . ?
C2 C3 H3 119.4 . . ?
C5 C4 C3 119.03(15) . . ?
C5 C4 H4 120.5 . . ?
C3 C4 H4 120.5 . . ?
C4 C5 C6 119.38(15) . . ?
C4 C5 H5 120.3 . . ?
C6 C5 H5 120.3 . . ?
N1 C6 C5 120.58(14) . . ?
N1 C6 C7 115.30(13) . . ?
C5 C6 C7 124.01(14) . . ?
O4 C7 O5 128.61(14) . . ?
O4 C7 C6 116.46(13) . . ?
O5 C7 C6 114.88(13) . . ?
N2 C8 C9 121.34(15) . 2_755 ?
N2 C8 H8 119.3 . . ?
C9 C8 H8 119.3 2_755 . ?
N2 C9 C8 121.43(15) . 2_755 ?
N2 C9 H9 119.3 . . ?
C8 C9 H9 119.3 2_755 . ?
Cu1 O6 H6A 110.9 . . ?
Cu1 O6 H6B 100.1 . . ?
H6A O6 H6B 104.1 . . ?
H7A O7 H7B 103.9 . . ?
loop_
_geom_bond_atom_site_label_1
_geom_bond_atom_site_label_2
_geom_bond_distance
_geom_bond_site_symmetry_2
_geom_bond_publ_flag
Cu1 O1 1.9185(11) . ?
Cu1 O3 1.9320(11) . ?
Cu1 O5 1.9547(11) 2_666 ?
Cu1 N2 2.0390(13) . ?
Cu1 O6 2.2810(12) . ?
O1 C1 1.2703(19) . ?
O2 C1 1.2339(19) . ?
O3 N1 1.3347(16) . ?
O4 C7 1.2337(19) . ?
O5 C7 1.2635(18) . ?
N1 C6 1.357(2) . ?
N1 C2 1.3662(19) . ?
N2 C9 1.334(2) . ?
N2 C8 1.343(2) . ?
C1 C2 1.521(2) . ?
C2 C3 1.388(2) . ?
C3 C4 1.384(2) . ?
C3 H3 0.9500 . ?
C4 C5 1.383(2) . ?
C4 H4 0.9500 . ?
C5 C6 1.385(2) . ?
C5 H5 0.9500 . ?
C6 C7 1.521(2) . ?
C8 C9 1.379(2) 2_755 ?
C8 H8 0.9500 . ?
C9 H9 0.9500 . ?
O6 H6A 0.8699 . ?
O6 H6B 0.8697 . ?
O7 H7A 0.8699 . ?
O7 H7B 0.8700 . ?
loop_
_geom_hbond_atom_site_label_D
_geom_hbond_atom_site_label_H
_geom_hbond_atom_site_label_A
_geom_hbond_distance_DH
_geom_hbond_distance_HA
_geom_hbond_distance_DA
_geom_hbond_angle_DHA
_geom_hbond_site_symmetry_A
_geom_hbond_publ_flag
C3 H3 O2 0.95 2.35 3.2545(19) 160 2_565 yes
O6 H6A O7 0.87 1.90 2.7389(17) 162 2_656 yes
O6 H6B O4 0.87 1.97 2.7294(17) 146 2_666 yes
O7 H7A O2 0.87 2.08 2.9449(18) 178 1_556 yes
O7 H7B O4 0.87 2.04 2.8327(17) 150 2_666 yes
loop_
_geom_torsion_atom_site_label_1
_geom_torsion_atom_site_label_2
_geom_torsion_atom_site_label_3
_geom_torsion_atom_site_label_4
_geom_torsion
_geom_torsion_site_symmetry_1
_geom_torsion_site_symmetry_2
_geom_torsion_site_symmetry_3
_geom_torsion_site_symmetry_4
_geom_torsion_publ_flag
Cu1 O3 N1 C6 148.38(10) . . . . ?
Cu1 O3 N1 C2 -34.45(17) . . . . ?
Cu1 O1 C1 O2 173.01(12) . . . . ?
Cu1 O1 C1 C2 -8.2(2) . . . . ?
O3 N1 C2 C3 -178.96(13) . . . . ?
C6 N1 C2 C3 -2.0(2) . . . . ?
O3 N1 C2 C1 1.6(2) . . . . ?
C6 N1 C2 C1 178.58(13) . . . . ?
O2 C1 C2 N1 -159.54(15) . . . . ?
O1 C1 C2 N1 21.6(2) . . . . ?
O2 C1 C2 C3 21.0(2) . . . . ?
O1 C1 C2 C3 -157.90(14) . . . . ?
N1 C2 C3 C4 -0.6(2) . . . . ?
C1 C2 C3 C4 178.91(14) . . . . ?
C2 C3 C4 C5 2.0(2) . . . . ?
C3 C4 C5 C6 -1.0(2) . . . . ?
O3 N1 C6 C5 -179.74(13) . . . . ?
C2 N1 C6 C5 3.0(2) . . . . ?
O3 N1 C6 C7 3.95(18) . . . . ?
C2 N1 C6 C7 -173.29(12) . . . . ?
C4 C5 C6 N1 -1.5(2) . . . . ?
C4 C5 C6 C7 174.47(14) . . . . ?
Cu1 O5 C7 O4 -15.8(2) 2_666 . . . ?
Cu1 O5 C7 C6 167.20(9) 2_666 . . . ?
N1 C6 C7 O4 74.72(18) . . . . ?
C5 C6 C7 O4 -101.44(18) . . . . ?
N1 C6 C7 O5 -107.86(16) . . . . ?
C5 C6 C7 O5 75.98(19) . . . . ?
C9 N2 C8 C9 0.3(3) . . . 2_755 ?
Cu1 N2 C8 C9 -177.49(13) . . . 2_755 ?
C8 N2 C9 C8 -0.3(3) . . . 2_755 ?
Cu1 N2 C9 C8 177.51(13) . . . 2_755 ?
