#------------------------------------------------------------------------------
#$Date: 2022-07-29 03:51:23 +0300 (Fri, 29 Jul 2022) $
#$Revision: 276993 $
#$URL: file:///home/coder/svn-repositories/cod/cif/7/24/52/7245227.cif $
#------------------------------------------------------------------------------
#
# This file is available in the Crystallography Open Database (COD),
# http://www.crystallography.net/
#
# All data on this site have been placed in the public domain by the
# contributors.
#
data_7245227
loop_
_publ_author_name
'Hossain, Muhammad Saddam'
'Ahmed, Fiaz'
'Karakalos, Stavros G.'
'Smith, Mark D.'
'Pant, Namrata'
'Garashchuk, Sophya'
'Greytak, Andrew B.'
'Docampo, Pablo'
'Shimizu, Linda S.'
_publ_section_title
;
 Structure--property investigations in urea tethered iodinated
 triphenylamines
;
_journal_name_full               'Physical Chemistry Chemical Physics'
_journal_paper_doi               10.1039/D2CP01856J
_journal_year                    2022
_chemical_absolute_configuration ad
_chemical_formula_moiety         'C19 H13 I2 N O1'
_chemical_formula_sum            'C19 H13 I2 N O'
_chemical_formula_weight         525.10
_space_group_crystal_system      monoclinic
_space_group_IT_number           7
_space_group_name_Hall           'P -2yc'
_space_group_name_H-M_alt        'P 1 c 1'
_atom_sites_solution_hydrogens   geom
_atom_sites_solution_primary     dual
_audit_creation_date             2020-08-11
_audit_creation_method
;
Olex2 1.2
(compiled 2018.05.29 svn.r3508 for OlexSys, GUI svn.r5506)
;
_audit_update_record
;
2022-04-11 deposited with the CCDC.	2022-07-18 downloaded from the CCDC.
;
_cell_angle_alpha                90
_cell_angle_beta                 107.3914(9)
_cell_angle_gamma                90
_cell_formula_units_Z            2
_cell_length_a                   9.7182(3)
_cell_length_b                   8.0639(2)
_cell_length_c                   11.5611(3)
_cell_measurement_reflns_used    9954
_cell_measurement_temperature    100(2)
_cell_measurement_theta_max      28.249
_cell_measurement_theta_min      2.196
_cell_volume                     864.59(4)
_computing_cell_refinement       'SAINT V8.40A (Bruker, 2016)'
_computing_data_collection       'Bruker APEX3 v2019.1-0 (Bruker, 2019)'
_computing_data_reduction        'SAINT V8.40A (Bruker, 2016)'
_computing_molecular_graphics    'OLEX2 (Dolomanov et al., 2009)'
_computing_publication_material  'OLEX2 (Dolomanov et al., 2009)'
_computing_structure_refinement  'XL (Sheldrick, 2015)'
_computing_structure_solution    'XT (Sheldrick, 2015)'
_diffrn_ambient_temperature      100(2)
_diffrn_detector                 PHOTON-II
_diffrn_detector_area_resol_mean 7.39
_diffrn_detector_type            'area detector'
_diffrn_measured_fraction_theta_full 0.998
_diffrn_measured_fraction_theta_max 0.999
_diffrn_measurement_device       'three-circle diffractometer'
_diffrn_measurement_device_type  'Bruker D8 Quest'
_diffrn_measurement_method       '\w and \f scans'
_diffrn_radiation_monochromator  'mirror optics'
_diffrn_radiation_probe          x-ray
_diffrn_radiation_type           MoK\a
_diffrn_radiation_wavelength     0.71073
_diffrn_reflns_av_R_equivalents  0.0280
_diffrn_reflns_av_unetI/netI     0.0213
_diffrn_reflns_Laue_measured_fraction_full 0.998
_diffrn_reflns_Laue_measured_fraction_max 0.999
_diffrn_reflns_limit_h_max       12
_diffrn_reflns_limit_h_min       -12
_diffrn_reflns_limit_k_max       10
_diffrn_reflns_limit_k_min       -10
_diffrn_reflns_limit_l_max       15
_diffrn_reflns_limit_l_min       -15
_diffrn_reflns_number            24434
_diffrn_reflns_point_group_measured_fraction_full 0.988
_diffrn_reflns_point_group_measured_fraction_max 0.980
_diffrn_reflns_theta_full        25.242
_diffrn_reflns_theta_max         28.288
_diffrn_reflns_theta_min         2.196
_diffrn_source                   'microfocus sealed X-ray tube'
_diffrn_source_type              'Incoatec I\ms'
_diffrn_standards_number         0
_exptl_absorpt_coefficient_mu    3.641
_exptl_absorpt_correction_T_max  0.4920
_exptl_absorpt_correction_T_min  0.4318
_exptl_absorpt_correction_type   multi-scan
_exptl_absorpt_process_details
;
SADABS-2016/2 (Bruker,2016/2) was used for absorption correction. 
wR2(int) was 0.0533 before and 0.0466 after correction. 
The Ratio of minimum to maximum transmission is 0.8776.
 The \l/2 correction factor is Not present.
;
_exptl_crystal_colour            yellow
_exptl_crystal_colour_primary    yellow
_exptl_crystal_density_diffrn    2.017
_exptl_crystal_description       plate
_exptl_crystal_F_000             496
_exptl_crystal_size_max          0.12
_exptl_crystal_size_mid          0.07
_exptl_crystal_size_min          0.05
_refine_diff_density_max         0.946
_refine_diff_density_min         -0.760
_refine_diff_density_rms         0.091
_refine_ls_abs_structure_details
;
 Flack x determined using 1867 quotients [(I+)-(I-)]/[(I+)+(I-)]
 (Parsons, Flack and Wagner, Acta Cryst. B69 (2013) 249-259).
;
_refine_ls_abs_structure_Flack   0.019(11)
_refine_ls_extinction_method     none
_refine_ls_goodness_of_fit_ref   1.160
_refine_ls_hydrogen_treatment    constr
_refine_ls_matrix_type           full
_refine_ls_number_parameters     225
_refine_ls_number_reflns         4193
_refine_ls_number_restraints     11
_refine_ls_restrained_S_all      1.166
_refine_ls_R_factor_all          0.0296
_refine_ls_R_factor_gt           0.0275
_refine_ls_shift/su_max          0.003
_refine_ls_shift/su_mean         0.000
_refine_ls_structure_factor_coef Fsqd
_refine_ls_weighting_details
'w=1/[\s^2^(Fo^2^)+(0.0165P)^2^+1.9317P] where P=(Fo^2^+2Fc^2^)/3'
_refine_ls_weighting_scheme      calc
_refine_ls_wR_factor_gt          0.0644
_refine_ls_wR_factor_ref         0.0662
_reflns_Friedel_coverage         0.958
_reflns_Friedel_fraction_full    0.977
_reflns_Friedel_fraction_max     0.961
_reflns_number_gt                4035
_reflns_number_total             4193
_reflns_threshold_expression     'I > 2\s(I)'
_cod_data_source_file            d2cp01856j2.cif
_cod_data_source_block           mh_i2cho
_cod_depositor_comments
;
The following automatic conversions were performed:

data item '_diffrn_radiation_probe' value 'X-ray' was changed to
'x-ray' in accordance with the
/home/data/users/saulius/crontab/automatic-downloads/rss-feeds/RSC/lib/dictionaries/cif_core.dic
dictionary named 'cif_core.dic' version 2.4.2 last updated on
2011-04-26.

Automatic conversion script
Id: cif_fix_values 7556 2019-12-06 15:28:31Z antanas 
;
_cod_database_code               7245227
_shelx_shelxl_version_number     2018/3
_shelx_space_group_comment
;
The symmetry employed for this shelxl refinement is uniquely defined
by the following loop, which should always be used as a source of
symmetry information in preference to the above space-group names.
They are only intended as comments.
;
_shelx_estimated_absorpt_t_max   0.839
_shelx_estimated_absorpt_t_min   0.669
_olex2_refinement_description
;
1. Fixed Uiso
 At 1.2 times of:
  All C(H) groups
2. Restrained distances
 C10-C19 = C16-C20A = C16-C20B
 1.47 with sigma of 0.02
 O1-C19 = O2A-C20A = O2B-C20B
 1.25 with sigma of 0.02
 C9-C19 \\sim C11-C19
 with sigma of 0.02
3. Uiso/Uaniso restraints and constraints
Uiso(O1) = Uiso(C19)
Uiso(C20A) = Uiso(C20B)
4. Others
 1*[Sof(I3)]+1*[Sof(O2A)+Sof(C20A)+Sof(H20A)]+1*[Sof(O2B)+Sof(C20B)+Sof(H20B)]=
 1 with esd of 0.00001
 1*[Sof(I2)+Sof(O1)+Sof(C19)+Sof(H19)]+1*[Sof(O2A)+Sof(C20A)+Sof(H20A)]+1*
 [Sof(O2B)+Sof(C20B)+Sof(H20B)]=1 with esd of 0.00001
 Sof(I2)=1-FVAR(1)
 Sof(O1)=Sof(C19)=Sof(H19)=FVAR(1)
 Sof(O2A)=Sof(C20A)=Sof(H20A)=FVAR(3)
 Sof(O2B)=Sof(C20B)=Sof(H20B)=FVAR(4)
5.a Aromatic/amide H refined with riding coordinates:
 C19(H19), C20A(H20A), C20B(H20B), C2(H2), C3(H3), C5(H5), C6(H6), C8(H8),
 C9(H9), C11(H11), C12(H12), C14(H14), C15(H15), C17(H17), C18(H18)
;
_shelx_res_file
;
TITL mh_i2cho in Pc
    mh_i2cho.res
    created by SHELXL-2018/3 at 15:26:37 on 11-Aug-2020
REM pale yellow plate
CELL 0.71073 9.7182 8.0639 11.5611 90 107.3914 90
ZERR 2 0.0003 0.0002 0.0003 0 0.0009 0
LATT -1
SYMM +X,-Y,0.5+Z
SFAC C H I N O
UNIT 38 26 4 2 2
DFIX 1.47 C10 C19 C16 C20A C16 C20B
DFIX 1.25 O1 C19 O2A C20A O2B C20B
SADI C9 C19 C11 C19
EADP O1 C19
EADP C20A C20B
SUMP 1 0.00001 1 3 1 4 1 5
SUMP 1 0.00001 1 2 1 4 1 5

L.S. 7
PLAN  9
SIZE 0.05 0.07 0.12
TEMP -173(2)
BOND $H
CONF
list 4
fmap 2 53
ACTA
OMIT 2 1 -2
OMIT 1 5 12
OMIT 2 5 12
OMIT 2 0 -6
OMIT 2 4 -6
OMIT -2 4 6
OMIT -2 0 6
REM <olex2.extras>
REM <HklSrc "%.\\mh_i2cho.hkl">
REM </olex2.extras>

WGHT    0.016500    1.931700
FVAR       0.12238   0.25544   0.25550   0.34208   0.40245
I1    3   -0.041692   -0.014476    0.031481    11.00000    0.02750    0.04859 =
         0.02937   -0.00481    0.00887   -0.00914
PART 1
I2    3    1.041985    0.516801    0.309148   -21.00000    0.02226    0.04113 =
         0.03625    0.00193    0.00848   -0.00591
PART 0
PART 2
O1    5    1.104504    0.572205    0.355697    21.00000    0.05110
C19   1    1.006089    0.467048    0.317224    21.00000    0.05110
AFIX  43
H19   2    1.019627    0.400360    0.253762    21.00000   -1.20000
AFIX   0
PART 0
PART 1
I3    3    0.493720    0.252440    0.971611    31.00000    0.05945    0.05143 =
         0.02707   -0.00901    0.02486   -0.02217
PART 0
PART 2
O2A   5    0.404300    0.328034    0.960775    41.00000    0.03938
C20A  1    0.501854    0.251618    0.930849    41.00000    0.05871
AFIX  43
H20A  2    0.576911    0.194303    0.988810    41.00000   -1.20000
AFIX   0
PART 0
PART 3
O2B   5    0.571065    0.191208    1.008844    51.00000    0.05559
C20B  1    0.485205    0.261050    0.925456    51.00000    0.05871
AFIX  43
H20B  2    0.409229    0.321958    0.941482    51.00000   -1.20000
AFIX   0
PART 0
N1    4    0.503448    0.249581    0.436691    11.00000    0.03219    0.03049 =
         0.02447   -0.00148    0.00540   -0.00999
C1    1    0.376541    0.197235    0.342814    11.00000    0.04048    0.02850 =
         0.01887   -0.00676    0.01024   -0.00676
C2    1    0.286510    0.076020    0.370184    11.00000    0.05618    0.03165 =
         0.02132   -0.00380    0.01312   -0.01243
AFIX  43
H2    2    0.309370    0.033232    0.450260    11.00000   -1.20000
AFIX   0
C3    1    0.165542    0.018211    0.282676    11.00000    0.04455    0.03622 =
         0.02967   -0.00738    0.01960   -0.01233
AFIX  43
H3    2    0.104650   -0.062215    0.302297    11.00000   -1.20000
AFIX   0
C4    1    0.134759    0.079943    0.165581    11.00000    0.02995    0.03504 =
         0.02824   -0.00743    0.01472   -0.00357
C5    1    0.222548    0.201169    0.136744    11.00000    0.02691    0.03249 =
         0.02294   -0.00207    0.00717    0.00062
AFIX  43
H5    2    0.200287    0.243065    0.056455    11.00000   -1.20000
AFIX   0
C6    1    0.342021    0.259488    0.226136    11.00000    0.02763    0.02868 =
         0.02280   -0.00036    0.00628   -0.00097
AFIX  43
H6    2    0.400760    0.342982    0.207123    11.00000   -1.20000
AFIX   0
C7    1    0.624901    0.304987    0.408005    11.00000    0.03615    0.02661 =
         0.02096    0.00006    0.00158    0.00075
C8    1    0.665041    0.237488    0.311591    11.00000    0.02763    0.02766 =
         0.02459    0.00212    0.00320    0.00043
AFIX  43
H8    2    0.609817    0.149490    0.265739    11.00000   -1.20000
AFIX   0
C9    1    0.785342    0.297153    0.281172    11.00000    0.02732    0.03439 =
         0.01926   -0.00020    0.00097   -0.00100
AFIX  43
H9    2    0.809513    0.252074    0.213845    11.00000   -1.20000
AFIX   0
C10   1    0.868834    0.422398    0.349991    11.00000    0.03614    0.03029 =
         0.02428    0.00275   -0.00203   -0.00357
C11   1    0.833557    0.487723    0.449108    11.00000    0.04617    0.02926 =
         0.02486   -0.00104    0.00015   -0.00918
AFIX  43
H11   2    0.891647    0.572109    0.497116    11.00000   -1.20000
AFIX   0
C12   1    0.713570    0.429198    0.477340    11.00000    0.05545    0.02894 =
         0.02322   -0.00216    0.00648   -0.00847
AFIX  43
H12   2    0.690594    0.474106    0.545265    11.00000   -1.20000
AFIX   0
C13   1    0.498371    0.253282    0.558216    11.00000    0.03757    0.03408 =
         0.01986   -0.00533    0.00797   -0.00334
C14   1    0.619241    0.199976    0.650847    11.00000    0.03151    0.04410 =
         0.02727   -0.00278    0.00469    0.00148
AFIX  43
H14   2    0.702987    0.161899    0.632723    11.00000   -1.20000
AFIX   0
C15   1    0.614555    0.203752    0.770173    11.00000    0.04476    0.03529 =
         0.02186    0.00719    0.00355    0.00829
AFIX  43
H15   2    0.696598    0.169689    0.833874    11.00000   -1.20000
AFIX   0
C16   1    0.493111    0.255974    0.796965    11.00000    0.04832    0.02508 =
         0.01794   -0.00230    0.00312   -0.00308
C17   1    0.376919    0.308749    0.704001    11.00000    0.05744    0.02473 =
         0.02083    0.00009    0.00950   -0.00213
AFIX  43
H17   2    0.293662    0.345855    0.723357    11.00000   -1.20000
AFIX   0
C18   1    0.374426    0.310840    0.586164    11.00000    0.03232    0.03008 =
         0.03389   -0.00557    0.00801    0.00365
AFIX  43
H18   2    0.292343    0.349588    0.524475    11.00000   -1.20000
AFIX   0
HKLF 4




REM  mh_i2cho in Pc
REM wR2 = 0.066212, GooF = S = 1.15976, Restrained GooF = 1.16629 for all data
REM R1 = 0.027459 for 4035 Fo > 4sig(Fo) and 0.029609 for all 4193 data
REM 225 parameters refined using 11 restraints

END

WGHT      0.0165      1.9316

REM Highest difference peak  0.946,  deepest hole -0.760,  1-sigma level  0.091
Q1    1   1.0127  0.4370  0.2815  11.00000  0.05    0.95
Q2    1   0.9951  0.5821  0.2889  11.00000  0.05    0.82
Q3    1  -0.0145  0.0772  0.0461  11.00000  0.05    0.77
Q4    1   0.0140 -0.0807  0.0475  11.00000  0.05    0.60
Q5    1   0.4218  0.2865  0.1980  11.00000  0.05    0.59
Q6    1  -0.2060 -0.0045 -0.0171  11.00000  0.05    0.53
Q7    1   0.4959  0.2619  0.4980  11.00000  0.05    0.45
Q8    1   0.5132  0.2578  0.2855  11.00000  0.05    0.41
Q9    1  -0.1204  0.0080  0.0573  11.00000  0.05    0.40
;
_shelx_res_checksum              19410
_shelx_hkl_file
;
  -1   0   0   51.47    1.25
  -1   0   0   49.64    1.26
  -1   0   0   50.12    1.26
  -2   0   0  352.02    9.86
   2   0   0  365.81   10.19
  -3   0   0   91.33    2.34
  -3   0   0   89.32    2.35
  -3   0   0   88.24    2.28
  -3   0   0   93.64    2.30
   3   0   0   90.85    2.29
  -3   0   0   90.14    2.36
   3   0   0   90.10    2.37
   3   0   0   91.13    2.31
   3   0   0   90.86    2.37
   3   0   0   92.04    2.35
   4   0   0   47.68    1.33
   4   0   0   48.97    1.41
   4   0   0   47.86    1.44
  -4   0   0   46.71    1.32
   4   0   0   50.12    1.36
   4   0   0   49.30    1.43
  -4   0   0   49.17    1.34
  -4   0   0   48.28    1.39
  -4   0   0   47.07    1.41
  -4   0   0   48.14    1.41
  -5   0   0    5.76    0.37
  -5   0   0    6.41    0.33
  -5   0   0    5.97    0.36
   5   0   0    6.64    0.37
  -5   0   0    5.75    0.37
   5   0   0    6.24    0.31
   5   0   0    6.40    0.33
  -5   0   0    6.11    0.31
   5   0   0    6.29    0.38
  -6   0   0   15.63    0.71
  -6   0   0   14.74    0.62
  -6   0   0   16.78    0.69
  -6   0   0   16.31    0.73
  -6   0   0   16.89    0.63
   6   0   0   18.05    0.65
   6   0   0   18.48    0.69
   6   0   0   19.03    0.76
   6   0   0   17.33    0.76
  -7   0   0   29.70    1.10
   7   0   0   31.54    1.02
   7   0   0   31.18    1.07
   7   0   0   32.39    1.16
   7   0   0   30.96    1.18
  -7   0   0   29.93    1.01
  -7   0   0   29.70    1.14
   8   0   0    3.92    0.32
  -8   0   0    2.00    0.29
  -8   0   0    2.75    0.30
  -8   0   0    3.57    0.36
   8   0   0    4.04    0.36
   8   0   0    4.05    0.29
  -8   0   0    3.61    0.30
  -9   0   0   46.98    1.78
  -9   0   0   49.03    1.71
   9   0   0   50.24    1.54
   9   0   0   50.64    1.64
  -9   0   0   50.86    1.78
  -9   0   0   52.46    1.63
   9   0   0   52.75    1.78
 -10   0   0   19.60    0.97
 -10   0   0   21.06    1.05
  10   0   0   20.86    0.90
  10   0   0   21.15    0.81
  10   0   0   21.01    1.02
 -10   0   0   21.75    0.92
  11   0   0   33.40    1.27
 -11   0   0   33.21    1.27
 -11   0   0   30.71    1.43
 -11   0   0   34.62    1.48
  11   0   0   33.57    1.42
 -12   0   0   19.63    0.95
 -12   0   0   20.52    1.12
  12   0   0   20.93    1.09
   0  -1   0    2.05    0.09
   0  -1   0    2.07    0.11
   0  -1   0    2.22    0.11
   0  -1   0    2.35    0.09
   0   1   0    1.85    0.08
   0   1   0    2.07    0.11
   1  -1   0    5.58    0.22
   1  -1   0    5.47    0.22
   1  -1   0    5.49    0.22
  -1  -1   0    4.23    0.19
  -1  -1   0    4.02    0.17
  -1  -1   0    3.82    0.18
   1  -1   0    5.62    0.21
  -1  -1   0    4.08    0.13
   1   1   0    5.81    0.22
  -1   1   0    4.34    0.17
  -1   1   0    4.23    0.18
  -1   1   0    4.16    0.18
  -1   1   0    3.94    0.18
   1   1   0    5.53    0.23
   1   1   0    5.85    0.21
  -2  -1   0   24.89    0.75
   2  -1   0   27.60    0.79
  -2  -1   0   25.47    0.75
   2  -1   0   26.02    0.76
  -2  -1   0   24.93    0.68
  -2   1   0   25.77    0.75
   2   1   0   26.53    0.78
  -2   1   0   25.41    0.74
  -2   1   0   24.34    0.74
   2   1   0   26.24    0.78
   2   1   0   25.79    0.72
  -3  -1   0  197.87    4.90
   3  -1   0  200.23    5.00
   3  -1   0  200.84    4.96
   3  -1   0  207.14    4.90
  -3  -1   0  191.99    4.80
   3  -1   0  204.10    5.01
  -3  -1   0  197.74    4.85
  -3  -1   0  196.76    4.92
  -3  -1   0  194.73    4.90
   3   1   0  206.32    4.99
  -3   1   0  197.45    4.88
   3   1   0  198.05    4.93
  -3   1   0  208.50    4.92
   3   1   0  200.30    5.01
  -3   1   0  197.82    4.92
   3   1   0  199.65    4.88
  -3   1   0  202.70    4.92
   4  -1   0  198.91    4.72
   4  -1   0  192.93    4.78
  -4  -1   0  192.02    4.66
   4  -1   0  187.92    4.84
  -4  -1   0  188.77    4.69
  -4  -1   0  182.43    4.72
  -4  -1   0  186.30    4.73
  -4  -1   0  176.32    4.59
  -4   1   0  190.35    4.67
   4   1   0  192.83    4.81
   4   1   0  190.68    4.68
   4   1   0  193.92    4.78
  -4   1   0  190.21    4.73
   4   1   0  188.99    4.86
  -4   1   0  187.22    4.73
  -4   1   0  192.23    4.74
  -5  -1   0  202.55    5.12
  -5  -1   0  200.13    5.10
  -5  -1   0  193.75    4.94
  -5  -1   0  188.83    5.03
  -5  -1   0  205.15    5.03
   5  -1   0  207.08    5.24
   5  -1   0  212.54    5.36
   5  -1   0  222.74    5.21
   5  -1   0  208.20    5.35
   5   1   0  203.79    5.15
  -5   1   0  202.87    5.10
  -5   1   0  206.66    5.11
  -5   1   0  199.59    5.01
   5   1   0  212.86    5.30
   5   1   0  210.71    5.27
   5   1   0  206.84    5.37
  -6  -1   0  163.16    4.14
  -6  -1   0  170.31    4.25
   6  -1   0  141.50    4.19
  -6  -1   0  139.01    4.28
   6  -1   0  175.84    4.07
  -6  -1   0  174.96    4.26
   6  -1   0  138.55    4.06
  -6  -1   0  165.24    4.33
   6  -1   0  169.96    4.26
  -6   1   0  161.13    4.31
   6   1   0  142.64    3.98
  -6   1   0  163.94    4.33
   6   1   0  173.18    4.19
  -6   1   0  167.54    4.22
  -6   1   0  168.28    4.32
   6   1   0  172.91    4.18
   6   1   0  167.91    4.28
   7  -1   0   88.99    2.62
   7  -1   0   92.26    2.44
  -7  -1   0   84.19    2.52
  -7  -1   0   86.07    2.35
  -7  -1   0   85.99    2.56
  -7  -1   0   85.02    2.43
   7  -1   0   88.74    2.63
   7  -1   0   90.86    2.47
  -7  -1   0   84.02    2.43
   7   1   0   90.83    2.55
   7   1   0   88.48    2.53
   7   1   0   87.63    2.64
  -7   1   0   87.69    2.56
  -7   1   0   87.20    2.42
   7   1   0   89.07    2.36
  -7   1   0   84.17    2.52
  -7   1   0   86.47    2.51
  -8  -1   0   43.91    1.48
   8  -1   0   46.22    1.62
  -8  -1   0   44.58    1.50
  -8  -1   0   44.71    1.62
   8  -1   0   47.40    1.65
   8  -1   0   45.56    1.43
  -8  -1   0   43.13    1.40
   8  -1   0   46.27    1.46
  -8   1   0   46.76    1.62
   8   1   0   45.97    1.35
   8   1   0   47.26    1.57
  -8   1   0   45.10    1.57
  -8   1   0   44.84    1.60
  -8   1   0   45.97    1.48
   8   1   0   46.96    1.53
  -9  -1   0   23.56    0.93
  -9  -1   0   24.62    1.13
   9  -1   0   24.55    1.09
  -9  -1   0   23.64    0.99
   9  -1   0   26.03    0.96
   9  -1   0   25.76    0.95
   9  -1   0   25.71    1.13
  -9  -1   0   24.12    1.03
  -9  -1   0   25.18    1.11
   9   1   0   25.59    0.85
   9   1   0   25.50    1.06
  -9   1   0   25.15    1.00
  -9   1   0   25.63    1.12
  -9   1   0   24.69    1.13
   9   1   0   24.88    1.02
  -9   1   0   23.55    1.07
  10  -1   0    9.25    0.64
  10  -1   0    9.28    0.51
 -10  -1   0    8.46    0.63
 -10  -1   0    9.54    0.62
 -10  -1   0    8.39    0.65
  10  -1   0    8.34    0.50
 -10  -1   0    8.71    0.53
  10  -1   0    7.88    0.62
 -10   1   0    8.70    0.56
 -10   1   0    7.59    0.59
  10   1   0    8.16    0.57
 -10   1   0    9.12    0.65
 -10   1   0    9.92    0.70
  10   1   0    8.11    0.57
  11  -1   0    2.63    0.35
  11  -1   0    2.28    0.42
 -11  -1   0    2.24    0.32
 -11  -1   0    1.58    0.38
 -11  -1   0    1.98    0.35
 -11   1   0    1.55    0.31
 -11   1   0    1.93    0.41
 -11   1   0    2.05    0.41
  11   1   0    2.62    0.40
  12  -1   0   -0.07    0.16
 -12  -1   0    0.31    0.25
 -12  -1   0    0.06    0.15
 -12   1   0    0.03    0.20
 -12   1   0    0.14    0.17
  12   1   0    0.17    0.17
 -12   1   0    0.28    0.17
   0  -2   0   37.47    0.94
   0  -2   0   36.10    1.00
   0  -2   0   34.77    1.01
   0   2   0   36.42    0.94
   0   2   0   36.69    0.97
   0   2   0   37.40    1.02
  -1  -2   0  980.11   25.31
   1  -2   0 1000.00   24.76
  -1   2   0  973.85   25.99
   1   2   0  835.22   23.68
  -2  -2   0   75.40    2.02
  -2  -2   0   75.84    1.98
  -2  -2   0   76.67    1.86
  -2  -2   0   74.22    2.00
   2  -2   0   78.38    2.05
   2  -2   0   79.00    2.04
   2   2   0   77.53    2.02
   2   2   0   77.74    2.07
  -2   2   0   76.13    1.96
  -2   2   0   76.95    2.00
   2   2   0   75.61    2.04
  -2   2   0   77.11    2.01
  -2   2   0   75.34    2.01
  -3  -2   0  142.51    3.54
   3  -2   0  138.11    3.55
  -3  -2   0  135.98    3.40
  -3  -2   0  137.29    3.53
  -3  -2   0  139.64    3.43
   3  -2   0  138.29    3.55
   3  -2   0  142.18    3.54
  -3  -2   0  137.81    3.56
  -3   2   0  137.64    3.54
  -3   2   0  137.51    3.53
  -3   2   0  139.89    3.52
   3   2   0  140.39    3.54
  -3   2   0  138.52    3.54
   3   2   0  142.34    3.57
   3   2   0  132.43    3.40
   4  -2   0   24.10    0.85
  -4  -2   0   22.94    0.83
  -4  -2   0   24.03    0.73
  -4  -2   0   23.60    0.84
  -4  -2   0   23.36    0.83
  -4  -2   0   22.77    0.72
   4  -2   0   23.34    0.81
   4   2   0   23.43    0.73
   4   2   0   24.36    0.85
  -4   2   0   22.66    0.81
  -4   2   0   24.53    0.83
  -4   2   0   23.35    0.83
  -4   2   0   22.98    0.82
   4   2   0   23.88    0.85
  -4   2   0   22.81    0.83
  -5  -2   0   16.02    0.68
  -5  -2   0   16.56    0.69
  -5  -2   0   16.48    0.60
   5  -2   0   16.33    0.70
  -5  -2   0   15.56    0.56
   5  -2   0   16.24    0.65
  -5  -2   0   15.22    0.67
  -5  -2   0   15.70    0.67
   5  -2   0   15.40    0.68
   5  -2   0   16.21    0.55
  -5   2   0   15.51    0.67
  -5   2   0   16.45    0.70
   5   2   0   16.26    0.68
  -5   2   0   16.49    0.68
  -5   2   0   16.18    0.66
   5   2   0   16.00    0.60
  -5   2   0   14.97    0.68
   5   2   0   15.68    0.69
   6  -2   0    5.98    0.42
  -6  -2   0    5.17    0.30
   6  -2   0    5.58    0.41
  -6  -2   0    5.97    0.40
  -6  -2   0    5.55    0.40
  -6  -2   0    5.33    0.39
  -6  -2   0    5.09    0.38
   6  -2   0    5.37    0.35
  -6  -2   0    4.63    0.31
   6  -2   0    5.71    0.30
  -6   2   0    4.88    0.37
   6   2   0    5.31    0.33
  -6   2   0    5.51    0.40
   6   2   0    5.78    0.41
   6   2   0    5.68    0.39
  -6   2   0    5.67    0.40
  -6   2   0    5.86    0.38
  -7  -2   0    6.68    0.44
  -7  -2   0    6.19    0.45
  -7  -2   0    5.77    0.43
   7  -2   0    7.89    0.52
   7  -2   0    7.92    0.38
   7  -2   0    7.56    0.50
  -7  -2   0    6.09    0.38
   7  -2   0    7.77    0.45
  -7  -2   0    6.20    0.35
   7   2   0    6.97    0.47
   7   2   0    6.97    0.49
  -7   2   0    6.31    0.42
  -7   2   0    5.53    0.42
  -7   2   0    6.32    0.45
   7   2   0    8.07    0.45
  -7   2   0    7.06    0.48
   8  -2   0   44.60    1.48
  -8  -2   0   42.31    1.48
  -8  -2   0   41.18    1.33
  -8  -2   0   42.37    1.41
   8  -2   0   46.42    1.37
  -8  -2   0   41.51    1.55
   8  -2   0   45.12    1.62
   8  -2   0   46.42    1.64
  -8  -2   0   42.20    1.55
  -8   2   0   42.52    1.54
  -8   2   0   42.48    1.47
  -8   2   0   42.95    1.55
  -8   2   0   44.38    1.57
   8   2   0   44.96    1.48
  -8   2   0   43.00    1.56
   8   2   0   44.51    1.56
   8   2   0   44.74    1.63
  -9  -2   0   19.58    0.96
  -9  -2   0   17.51    0.91
  -9  -2   0   17.86    0.82
   9  -2   0   20.41    0.76
  -9  -2   0   17.65    0.76
   9  -2   0   21.23    0.99
   9  -2   0   18.19    0.82
   9  -2   0   16.96    0.93
  -9  -2   0   16.13    0.91
  -9  -2   0   19.77    0.90
  -9   2   0   19.48    0.95
  -9   2   0   17.34    0.92
   9   2   0   19.39    0.87
  -9   2   0   18.56    0.96
  -9   2   0   19.32    0.88
   9   2   0   19.39    0.91
  -9   2   0   18.91    0.95
 -10  -2   0   35.42    1.25
  10  -2   0   37.18    1.24
 -10  -2   0   37.43    1.40
 -10  -2   0   34.76    1.35
 -10  -2   0   36.40    1.50
  10  -2   0   36.58    1.51
 -10   2   0   37.48    1.41
  10   2   0   38.14    1.40
 -10   2   0   36.13    1.52
 -10   2   0   33.17    1.47
 -10   2   0   36.08    1.50
 -10   2   0   37.21    1.51
 -11  -2   0   18.45    1.01
 -11  -2   0   16.19    0.87
  11  -2   0   16.68    0.74
 -11  -2   0   16.23    0.77
  11  -2   0   16.83    0.96
 -11   2   0   16.62    0.98
  11   2   0   17.01    0.87
 -11   2   0   17.06    0.98
 -11   2   0   16.36    0.88
 -12  -2   0   17.43    1.04
  12  -2   0   17.02    1.03
 -12  -2   0   17.45    0.83
 -12   2   0   16.45    0.91
 -12   2   0   18.26    1.09
 -12   2   0   17.15    1.03
  12   2   0   17.86    0.94
   0  -3   0    5.03    0.28
   0  -3   0    4.71    0.27
   0  -3   0    4.91    0.23
   0  -3   0    4.76    0.21
   0   3   0    4.42    0.22
   0   3   0    4.48    0.27
   0   3   0    5.12    0.21
   1  -3   0    2.30    0.16
   1  -3   0    2.47    0.16
   1  -3   0    2.53    0.20
  -1  -3   0    2.23    0.16
   1  -3   0    2.68    0.20
  -1  -3   0    2.05    0.19
  -1  -3   0    2.12    0.10
  -1  -3   0    2.00    0.18
  -1   3   0    2.14    0.18
   1   3   0    2.56    0.17
   1   3   0    2.47    0.20
   1   3   0    2.27    0.11
  -1   3   0    2.08    0.18
  -1   3   0    2.04    0.15
  -1   3   0    1.99    0.15
  -2  -3   0   95.78    2.54
   2  -3   0   92.29    2.51
   2  -3   0   97.31    2.49
   2  -3   0   94.83    2.52
   2  -3   0   94.80    2.44
  -2  -3   0   93.09    2.45
  -2  -3   0   91.19    2.49
  -2   3   0   94.03    2.50
   2   3   0   91.88    2.51
  -2   3   0   95.68    2.43
  -2   3   0   95.40    2.47
   2   3   0   96.50    2.47
  -2   3   0   93.74    2.50
  -3  -3   0   51.26    1.32
   3  -3   0   51.89    1.54
   3  -3   0   52.46    1.53
  -3  -3   0   52.93    1.51
   3  -3   0   53.99    1.55
  -3  -3   0   49.25    1.31
  -3  -3   0   50.54    1.52
  -3  -3   0   53.55    1.57
  -3   3   0   54.63    1.53
  -3   3   0   50.95    1.53
  -3   3   0   54.45    1.49
  -3   3   0   49.75    1.53
   3   3   0   51.17    1.54
   3   3   0   51.57    1.50
  -4  -3   0  128.29    3.27
  -4  -3   0  121.90    3.11
   4  -3   0  126.46    3.34
   4  -3   0  126.79    3.32
  -4  -3   0  124.07    3.04
   4  -3   0  127.03    3.35
  -4  -3   0  122.56    3.29
  -4  -3   0  124.51    3.25
  -4   3   0  127.90    3.28
   4   3   0  123.96    3.32
  -4   3   0  105.56    3.18
   4   3   0  123.08    3.36
  -4   3   0  123.82    3.26
  -5  -3   0  132.59    3.51
   5  -3   0  111.44    3.48
   5  -3   0  138.64    3.57
  -5  -3   0  131.35    3.31
  -5  -3   0  135.06    3.50
  -5  -3   0  109.43    3.42
  -5  -3   0  131.25    3.27
   5  -3   0  136.79    3.50
   5   3   0  134.33    3.56
  -5   3   0  132.94    3.46
  -5   3   0  135.42    3.47
  -5   3   0  113.96    3.44
  -5   3   0  135.39    3.51
   5   3   0  130.88    3.30
   5   3   0  133.90    3.53
  -5   3   0  135.43    3.49
   6  -3   0  108.05    2.93
  -6  -3   0  101.96    2.93
  -6  -3   0  106.69    2.95
  -6  -3   0  102.11    2.72
  -6  -3   0  104.68    2.95
   6  -3   0  104.59    2.99
  -6  -3   0  100.61    2.93
   6  -3   0  107.73    2.71
   6  -3   0  104.59    3.01
  -6  -3   0  101.45    2.71
  -6   3   0  100.86    2.94
  -6   3   0  104.53    2.91
   6   3   0  103.29    2.98
  -6   3   0  104.34    2.94
   6   3   0  106.14    2.77
  -6   3   0  107.76    2.93
   6   3   0  103.31    2.98
  -6   3   0  103.92    2.92
  -7  -3   0   55.08    1.87
   7  -3   0   58.36    1.61
  -7  -3   0   56.42    1.66
  -7  -3   0   55.03    1.67
   7  -3   0   56.48    1.81
  -7  -3   0   58.88    1.88
   7  -3   0   56.15    1.89
  -7  -3   0   57.53    1.89
  -7  -3   0   58.77    1.90
   7  -3   0   60.62    1.93
  -7   3   0   55.88    1.87
  -7   3   0   58.80    1.87
  -7   3   0   57.73    1.87
   7   3   0   57.67    1.90
   7   3   0   56.93    1.88
   7   3   0   57.36    1.69
  -7   3   0   59.60    1.86
  -7   3   0   57.70    1.90
   8  -3   0   30.33    0.95
  -8  -3   0   26.44    1.16
  -8  -3   0   25.73    0.98
   8  -3   0   28.84    1.22
  -8  -3   0   26.12    0.96
   8  -3   0   29.02    1.12
  -8  -3   0   26.69    1.16
  -8  -3   0   29.15    1.17
   8  -3   0   28.50    1.21
  -8  -3   0   28.57    1.18
   8   3   0   29.58    1.21
  -8   3   0   28.59    1.21
  -8   3   0   29.15    1.18
   8   3   0   29.71    1.06
  -8   3   0   29.60    1.19
  -8   3   0   27.75    1.18
  -8   3   0   29.17    1.15
   8   3   0   27.86    1.21
  -9  -3   0   16.44    0.87
   9  -3   0   16.83    0.64
   9  -3   0   16.31    0.89
  -9  -3   0   15.69    0.69
   9  -3   0   15.51    0.87
  -9  -3   0   14.90    0.71
  -9  -3   0   16.61    0.84
   9  -3   0   15.73    0.78
  -9  -3   0   14.72    0.85
  -9  -3   0   15.71    0.87
   9   3   0   16.63    0.75
  -9   3   0   14.98    0.85
  -9   3   0   15.51    0.88
  -9   3   0   15.96    0.82
  -9   3   0   15.04    0.85
   9   3   0   16.25    0.90
  -9   3   0   16.43    0.88
  10  -3   0   10.08    0.48
  10  -3   0    9.58    0.70
 -10  -3   0   10.88    0.75
 -10  -3   0   10.77    0.57
 -10  -3   0   10.70    0.70
 -10  -3   0    9.77    0.60
 -10   3   0    8.99    0.70
 -10   3   0   10.29    0.72
 -10   3   0   10.21    0.66
 -10   3   0   10.72    0.73
  10   3   0   10.06    0.60
  11  -3   0    0.77    0.17
 -11  -3   0    0.40    0.20
 -11  -3   0    0.78    0.23
 -11  -3   0    0.81    0.22
 -11  -3   0    0.95    0.21
  11  -3   0    0.90    0.32
  11   3   0    0.92    0.24
 -11   3   0    0.34    0.22
 -11   3   0    0.99    0.27
 -11   3   0    0.81    0.27
   0  -4   0  376.34    9.04
   0  -4   0  381.48    9.16
   0  -4   0  376.59    9.00
   0  -4   0  381.89    9.17
   0   4   0  368.44    9.04
   0   4   0  375.40    9.00
   0   4   0  360.75    9.16
   1  -4   0   45.87    1.25
   1  -4   0   44.44    1.26
   1  -4   0   42.86    1.34
  -1  -4   0   44.29    1.27
   1  -4   0   43.73    1.35
  -1  -4   0   45.28    1.15
  -1  -4   0   44.66    1.38
  -1  -4   0   45.82    1.33
  -1   4   0   42.38    1.35
   1   4   0   42.91    1.34
  -1   4   0   43.10    1.25
  -1   4   0   45.37    1.26
   1   4   0   43.28    1.14
   1   4   0   44.36    1.26
  -2  -4   0  161.54    4.25
   2  -4   0  167.87    4.28
   2  -4   0  163.11    4.27
   2  -4   0  169.28    4.22
   2  -4   0  167.17    4.16
  -2  -4   0  161.37    4.13
  -2   4   0  162.14    4.22
  -2   4   0  165.79    4.15
   2   4   0  168.60    4.19
  -2   4   0  161.49    4.21
  -2   4   0  167.38    4.11
   2   4   0  158.71    4.27
  -3  -4   0   17.82    0.78
  -3  -4   0   18.48    0.75
   3  -4   0   18.82    0.76
   3  -4   0   19.16    0.74
  -3  -4   0   19.80    0.73
   3  -4   0   19.49    0.77
  -3   4   0   20.85    0.76
  -3   4   0   18.02    0.75
   3   4   0   18.01    0.75
  -3   4   0   19.25    0.77
  -3   4   0   18.61    0.70
   4  -4   0   52.17    1.59
   4  -4   0   53.19    1.60
  -4  -4   0   50.07    1.64
  -4  -4   0   51.73    1.57
   4  -4   0   41.44    1.53
  -4   4   0   48.86    1.60
  -4   4   0   51.21    1.54
  -4   4   0   52.81    1.61
   4   4   0   51.39    1.55
  -4   4   0   51.63    1.61
   4   4   0   52.00    1.61
  -5  -4   0    0.70    0.11
   5  -4   0    0.46    0.13
  -5  -4   0    0.88    0.20
  -5  -4   0    0.69    0.19
  -5  -4   0    0.58    0.13
   5  -4   0    0.75    0.21
  -5  -4   0    0.72    0.19
  -5  -4   0    0.59    0.09
   5  -4   0    0.54    0.15
  -5   4   0    0.74    0.17
   5   4   0    0.63    0.15
  -5   4   0    0.69    0.18
  -5   4   0    0.48    0.13
  -5   4   0    0.69    0.17
  -5   4   0    0.55    0.15
   6  -4   0    9.67    0.59
  -6  -4   0    9.35    0.57
  -6  -4   0    9.49    0.40
  -6  -4   0    9.87    0.60
  -6  -4   0    9.73    0.46
   6  -4   0    9.51    0.56
  -6  -4   0    9.47    0.57
   6  -4   0    9.45    0.58
  -6   4   0   10.22    0.56
  -6   4   0    9.02    0.56
  -6   4   0    9.14    0.57
   6   4   0   10.04    0.58
  -6   4   0    9.94    0.56
   7  -4   0   24.74    1.06
  -7  -4   0   22.85    0.80
  -7  -4   0   22.58    1.04
   7  -4   0   23.30    0.77
  -7  -4   0   24.56    1.06
   7  -4   0   23.20    0.99
   7  -4   0   22.72    1.03
  -7  -4   0   24.49    1.04
  -7  -4   0   22.06    1.01
  -7  -4   0   22.63    0.84
  -7   4   0   24.33    1.05
  -7   4   0   23.57    1.02
  -7   4   0   23.47    1.00
   7   4   0   22.28    1.01
  -7   4   0   23.65    1.00
  -7   4   0   23.72    1.06
  -8  -4   0    5.74    0.48
  -8  -4   0    6.24    0.51
  -8  -4   0    5.93    0.49
  -8  -4   0    6.95    0.41
  -8  -4   0    6.46    0.39
   8  -4   0    7.32    0.36
   8  -4   0    7.60    0.52
   8  -4   0    6.76    0.55
  -8  -4   0    7.45    0.56
   8  -4   0    7.88    0.58
  -8   4   0    7.13    0.53
  -8   4   0    6.91    0.53
   8   4   0    6.99    0.54
  -8   4   0    6.30    0.50
  -8   4   0    7.41    0.54
  -9  -4   0   22.63    1.11
   9  -4   0   23.62    1.14
  -9  -4   0   24.16    1.13
   9  -4   0   23.55    1.05
  -9  -4   0   24.32    1.12
   9  -4   0   24.38    0.81
  -9  -4   0   22.67    0.88
  -9  -4   0   20.63    0.86
   9  -4   0   22.66    1.12
  -9  -4   0   22.07    1.10
  -9   4   0   23.32    1.11
  -9   4   0   23.85    1.13
  -9   4   0   23.67    1.09
  -9   4   0   22.73    1.13
  -9   4   0   23.08    1.08
   9   4   0   24.25    1.15
  10  -4   0   13.00    0.84
 -10  -4   0   13.06    0.85
 -10  -4   0   13.23    0.64
  10  -4   0   13.22    0.53
 -10  -4   0   14.02    0.82
 -10  -4   0   12.76    0.65
 -10   4   0   13.56    0.84
 -10   4   0   13.75    0.82
 -10   4   0   12.77    0.83
 -11  -4   0   17.85    1.00
  11  -4   0   17.58    1.04
  11  -4   0   17.00    0.63
 -11  -4   0   17.53    1.04
 -11  -4   0   17.54    0.79
 -11  -4   0   17.27    0.82
 -11   4   0   18.50    1.02
 -11   4   0   17.52    1.04
 -11   4   0   16.73    1.00
   0  -5   0    0.92    0.18
   0  -5   0    1.27    0.17
   0  -5   0    1.20    0.20
   0  -5   0    0.92    0.16
   0  -5   0    1.05    0.12
   0   5   0    0.76    0.15
   0   5   0    0.93    0.15
   0   5   0    1.07    0.12
   1  -5   0   12.71    0.60
   1  -5   0   12.38    0.50
   1  -5   0   12.20    0.49
   1  -5   0   11.26    0.57
  -1  -5   0   12.44    0.59
  -1  -5   0   12.92    0.61
  -1  -5   0   12.11    0.56
  -1  -5   0   12.26    0.41
  -1  -5   0   12.35    0.51
  -1   5   0   12.03    0.49
   1   5   0   11.99    0.50
  -1   5   0   12.10    0.50
  -1   5   0   11.87    0.58
   1   5   0   12.49    0.59
   1   5   0   11.72    0.40
   2  -5   0    8.82    0.49
   2  -5   0    7.50    0.38
  -2  -5   0    6.85    0.45
  -2  -5   0    7.98    0.40
   2  -5   0    8.09    0.42
  -2  -5   0    5.68    0.40
   2   5   0    7.20    0.45
   2   5   0    8.46    0.41
  -2   5   0    7.67    0.38
  -2   5   0    7.04    0.44
  -2   5   0    7.17    0.39
   3  -5   0   66.49    1.97
  -3  -5   0   67.61    2.02
   3  -5   0   66.22    2.03
  -3  -5   0   65.68    1.88
  -3  -5   0   66.92    1.96
   3  -5   0   68.12    2.05
   3  -5   0   68.34    1.91
  -3   5   0   65.98    1.97
   3   5   0   68.99    2.05
  -3   5   0   53.95    1.79
  -3   5   0   63.91    1.96
   3   5   0   67.03    1.94
  -3   5   0   67.28    1.91
  -4  -5   0   56.70    1.90
   4  -5   0   60.43    1.88
  -4  -5   0   59.23    1.80
  -4  -5   0   59.59    1.85
   4  -5   0   60.08    1.88
   4  -5   0   60.63    1.86
  -4   5   0   59.84    1.88
   4   5   0   56.79    1.87
   4   5   0   59.20    1.80
  -4   5   0   61.35    1.78
  -4   5   0   57.23    1.82
  -5  -5   0   48.43    1.66
  -5  -5   0   48.61    1.62
   5  -5   0   50.73    1.68
  -5  -5   0   49.81    1.51
  -5  -5   0   49.15    1.71
   5  -5   0   50.91    1.70
   5  -5   0   49.93    1.68
   5   5   0   49.33    1.63
  -5   5   0   51.48    1.67
  -5   5   0   51.13    1.69
  -5   5   0   49.38    1.68
  -5   5   0   49.24    1.58
  -6  -5   0   28.34    1.13
   6  -5   0   28.35    1.14
   6  -5   0   28.98    1.18
  -6  -5   0   27.13    0.98
  -6  -5   0   27.95    1.14
  -6  -5   0   27.76    1.17
   6  -5   0   26.98    1.15
  -6   5   0   27.76    1.08
  -6   5   0   26.09    1.05
  -6   5   0   28.29    1.15
  -6   5   0   28.98    1.17
  -6   5   0   26.60    1.13
   6   5   0   27.60    1.11
   7  -5   0   28.70    1.18
   7  -5   0   26.18    1.17
   7  -5   0   27.96    1.20
  -7  -5   0   26.89    0.97
   7  -5   0   27.65    0.88
  -7  -5   0   26.00    0.82
  -7  -5   0   26.40    1.18
  -7  -5   0   25.63    1.12
  -7  -5   0   24.57    0.80
  -7  -5   0   25.59    1.14
  -7   5   0   28.01    1.18
  -7   5   0   27.44    1.15
  -7   5   0   27.86    1.10
   7   5   0   27.27    1.16
  -7   5   0   26.51    1.16
  -7   5   0   26.90    1.11
  -8  -5   0   19.33    0.98
   8  -5   0   19.76    1.00
  -8  -5   0   20.15    0.79
  -8  -5   0   18.49    0.96
   8  -5   0   18.64    0.94
   8  -5   0   18.57    0.67
  -8  -5   0   17.26    0.93
  -8  -5   0   19.21    0.99
  -8  -5   0   17.80    0.67
  -8  -5   0   18.48    0.67
   8  -5   0   21.41    1.04
  -8   5   0   16.77    0.94
  -8   5   0   18.42    0.93
  -8   5   0   19.93    0.94
  -8   5   0   19.60    0.99
  -8   5   0   18.07    0.94
   8   5   0   20.11    0.99
  -9  -5   0   11.20    0.52
   9  -5   0   11.57    0.46
   9  -5   0   12.05    0.78
  -9  -5   0   10.55    0.78
  -9  -5   0   12.17    0.79
  -9  -5   0   11.35    0.58
  -9  -5   0   12.20    0.54
  -9  -5   0   10.85    0.75
  -9   5   0   11.45    0.72
  -9   5   0   11.56    0.74
   9   5   0   11.49    0.75
  -9   5   0   10.05    0.72
  -9   5   0   12.38    0.77
 -10  -5   0    1.20    0.29
  10  -5   0    0.74    0.24
 -10  -5   0    1.40    0.33
 -10  -5   0    1.35    0.23
 -10  -5   0    1.23    0.23
 -10   5   0    1.14    0.30
 -10   5   0    1.36    0.33
 -10   5   0    1.14    0.30
  10   5   0    1.72    0.39
   0  -6   0   18.76    0.70
   0  -6   0   19.95    0.67
   0  -6   0   18.50    0.83
   0  -6   0   18.53    0.81
   0  -6   0   18.65    0.81
   0   6   0   18.80    0.65
   0   6   0   19.65    0.71
  -1  -6   0   69.81    2.09
   1  -6   0   73.43    2.15
   1  -6   0   70.61    1.94
   1  -6   0   72.86    2.09
  -1  -6   0   67.62    2.11
  -1  -6   0   70.50    1.97
   1  -6   0   73.02    2.15
   1  -6   0   69.23    1.95
  -1  -6   0   71.97    2.17
  -1  -6   0   69.69    1.82
  -1   6   0   69.65    2.14
   1   6   0   71.74    1.82
   1   6   0   58.65    1.91
  -1   6   0   70.41    1.95
  -1   6   0   71.07    1.95
   1   6   0   68.95    2.12
   2  -6   0   16.48    0.77
   2  -6   0   15.69    0.76
  -2  -6   0   15.89    0.65
  -2  -6   0   16.06    0.78
   2  -6   0   15.92    0.63
  -2  -6   0   15.81    0.74
  -2  -6   0   15.25    0.69
   2  -6   0   16.60    0.68
  -2   6   0   16.40    0.66
   2   6   0   15.51    0.75
   2   6   0   14.94    0.64
  -2   6   0   12.51    0.58
  -2   6   0   15.13    0.74
  -3  -6   0   39.71    1.28
  -3  -6   0   38.02    1.37
   3  -6   0   39.96    1.43
   3  -6   0   40.47    1.28
   3  -6   0   39.70    1.43
   3  -6   0   41.49    1.36
  -3  -6   0   38.27    1.41
   3   6   0   39.58    1.30
   3   6   0   38.32    1.41
  -3   6   0   35.48    1.27
  -3   6   0   38.08    1.23
  -3   6   0   38.32    1.37
   4  -6   0    0.24    0.12
   4  -6   0    0.33    0.14
  -4  -6   0    0.46    0.16
  -4  -6   0    0.20    0.11
   4  -6   0    0.33    0.15
  -4  -6   0    0.24    0.09
  -4   6   0    0.50    0.13
   4   6   0    0.30    0.13
  -4   6   0    0.33    0.13
   4   6   0    0.49    0.15
  -4   6   0    0.51    0.14
  -4   6   0    0.77    0.21
  -5  -6   0   19.49    0.89
   5  -6   0   22.91    1.02
  -5  -6   0   20.70    1.00
  -5  -6   0   21.31    0.95
   5  -6   0   22.74    1.01
   5  -6   0   21.02    0.97
  -5   6   0   21.11    0.88
  -5   6   0   20.46    0.97
  -5   6   0   20.61    0.96
  -5   6   0   21.19    0.95
   5   6   0   21.51    0.93
   6  -6   0    4.67    0.45
  -6  -6   0    5.81    0.39
   6  -6   0    6.18    0.52
  -6  -6   0    5.73    0.49
  -6  -6   0    5.64    0.46
   6  -6   0    5.05    0.45
  -6  -6   0    6.00    0.52
  -6   6   0    5.97    0.50
  -6   6   0    6.01    0.43
  -6   6   0    5.98    0.45
  -6   6   0    5.72    0.49
  -6   6   0    6.00    0.49
   6   6   0    6.04    0.46
   7  -6   0    1.68    0.30
   7  -6   0    1.57    0.30
  -7  -6   0    2.20    0.29
  -7  -6   0    2.67    0.44
   7  -6   0    1.79    0.35
  -7  -6   0    1.88    0.33
  -7  -6   0    2.04    0.39
   7   6   0    2.17    0.37
  -7   6   0    1.61    0.32
  -7   6   0    2.42    0.37
  -7   6   0    2.83    0.39
  -7   6   0    1.87    0.35
  -7   6   0    2.05    0.34
   8  -6   0   11.90    0.49
   8  -6   0   11.92    0.76
  -8  -6   0   12.15    0.62
   8  -6   0   13.33    0.82
  -8  -6   0   11.38    0.74
  -8  -6   0   11.38    0.77
  -8  -6   0   11.78    0.79
  -8   6   0   12.48    0.72
  -8   6   0   10.75    0.75
   8   6   0   11.49    0.74
  -8   6   0   12.20    0.74
  -8   6   0   12.25    0.78
  -9  -6   0    8.26    0.69
  -9  -6   0    8.41    0.69
  -9  -6   0    7.95    0.49
   9  -6   0    7.65    0.65
  -9   6   0    8.28    0.65
  -9   6   0    8.52    0.67
   9   6   0    7.36    0.62
  -9   6   0    8.40    0.64
  -9   6   0    8.81    0.64
  10  -6   0    9.90    0.77
 -10  -6   0   10.33    0.58
 -10  -6   0   10.68    0.82
 -10  -6   0   10.46    0.80
 -10   6   0    9.83    0.78
 -10   6   0   10.07    0.77
  10   6   0    9.48    0.73
 -10   6   0   10.21    0.76
   0  -7   0    0.67    0.23
   0  -7   0    0.59    0.15
   0  -7   0    0.71    0.14
   0  -7   0    0.42    0.16
   0  -7   0    0.48    0.18
   0   7   0    0.49    0.18
   0   7   0    0.70    0.14
   0   7   0    0.70    0.13
  -1  -7   0    4.22    0.23
   1  -7   0    4.93    0.32
   1  -7   0    4.39    0.39
  -1  -7   0    4.98    0.42
  -1  -7   0    4.59    0.33
   1  -7   0    4.10    0.30
   1  -7   0    4.56    0.41
  -1  -7   0    5.16    0.43
   1  -7   0    4.03    0.39
  -1  -7   0    4.33    0.37
  -1   7   0    4.92    0.33
  -1   7   0    4.61    0.31
   1   7   0    4.38    0.32
   1   7   0    4.89    0.41
  -1   7   0    4.70    0.41
   1   7   0    4.45    0.24
   2  -7   0   13.22    0.73
  -2  -7   0   12.12    0.59
   2  -7   0   12.32    0.56
  -2  -7   0   12.54    0.70
  -2  -7   0   12.15    0.71
   2  -7   0   12.94    0.66
   2  -7   0   13.13    0.62
  -2  -7   0   12.98    0.66
   2  -7   0   13.64    0.73
  -2   7   0   13.51    0.59
  -2   7   0   11.78    0.69
  -2   7   0   12.06    0.59
   2   7   0   11.76    0.58
   2   7   0   11.96    0.69
   3  -7   0    6.82    0.51
  -3  -7   0    7.25    0.47
  -3  -7   0    7.54    0.45
   3  -7   0    6.87    0.45
   3  -7   0    7.02    0.46
  -3  -7   0    6.62    0.52
   3  -7   0    6.83    0.52
   3  -7   0    7.34    0.42
  -3  -7   0    6.30    0.48
  -3   7   0    7.07    0.46
   3   7   0    7.11    0.45
  -3   7   0    7.20    0.43
   3   7   0    5.89    0.48
  -4  -7   0   19.05    0.86
   4  -7   0   21.40    0.94
   4  -7   0   21.23    1.00
  -4  -7   0   19.82    0.96
  -4  -7   0   19.11    0.98
   4  -7   0   20.48    0.99
   4   7   0   20.27    0.88
  -4   7   0   19.88    0.83
   4   7   0   20.51    0.99
  -4   7   0   22.15    0.93
  -4   7   0   20.88    0.98
  -5  -7   0   16.48    0.89
   5  -7   0   18.25    0.89
  -5  -7   0   17.96    0.95
  -5  -7   0   16.60    0.82
   5  -7   0   17.52    0.93
   5  -7   0   18.34    0.94
   5   7   0   16.99    0.91
  -5   7   0   18.03    0.94
  -5   7   0   17.19    0.91
  -5   7   0   18.99    0.81
  -5   7   0   16.73    0.85
   5   7   0   16.78    0.81
  -6  -7   0   11.35    0.77
   6  -7   0   12.57    0.79
  -6  -7   0   11.34    0.69
  -6  -7   0   12.99    0.66
  -6  -7   0   10.74    0.72
   6  -7   0   13.42    0.78
   6  -7   0   13.62    0.80
  -6   7   0   11.83    0.74
  -6   7   0   12.24    0.68
  -6   7   0   12.55    0.75
  -6   7   0   11.86    0.65
  -6   7   0   12.53    0.78
   6   7   0   11.98    0.70
  -7  -7   0    4.95    0.48
  -7  -7   0    5.94    0.43
   7  -7   0    5.01    0.50
   7  -7   0    5.67    0.52
  -7  -7   0    5.39    0.53
  -7   7   0    5.40    0.52
  -7   7   0    4.85    0.51
  -7   7   0    5.48    0.46
   7   7   0    5.61    0.48
  -7   7   0    6.03    0.65
  -7   7   0    6.52    0.50
   8  -7   0    6.57    0.35
  -8  -7   0    6.77    0.63
  -8  -7   0    6.99    0.49
  -8  -7   0    7.38    0.68
   8  -7   0    7.31    0.61
  -8   7   0    7.50    0.64
  -8   7   0    7.06    0.57
   8   7   0    7.22    0.58
  -8   7   0    6.09    0.57
  -8   7   0    6.37    0.54
  -9  -7   0    1.48    0.37
  -9  -7   0    1.38    0.24
  -9  -7   0    1.41    0.36
   9  -7   0    1.48    0.34
  -9   7   0    1.10    0.36
   9   7   0    1.61    0.35
  -9   7   0    1.37    0.34
  -9   7   0    1.61    0.40
   0  -8   0   10.24    0.47
   0  -8   0   10.21    0.66
   0  -8   0   10.80    0.68
   0  -8   0   10.16    0.52
   0  -8   0   10.36    0.65
   0   8   0   10.15    0.67
   0   8   0   10.37    0.51
   0   8   0    9.50    0.45
  -1  -8   0    6.48    0.51
   1  -8   0    6.67    0.40
  -1  -8   0    5.94    0.40
  -1  -8   0    6.50    0.51
   1  -8   0    6.74    0.41
  -1  -8   0    6.73    0.30
  -1  -8   0    6.11    0.51
   1  -8   0    6.67    0.54
   1  -8   0    6.23    0.50
   1  -8   0    6.07    0.52
  -1   8   0    6.83    0.40
  -1   8   0    6.75    0.40
   1   8   0    6.69    0.53
   1   8   0    6.54    0.41
   1   8   0    6.44    0.30
  -1   8   0    6.47    0.53
  -2  -8   0   18.64    0.93
  -2  -8   0   18.36    0.88
  -2  -8   0   17.84    0.94
   2  -8   0   18.87    0.76
  -2  -8   0   18.26    0.78
   2  -8   0   18.64    0.95
   2  -8   0   19.48    0.88
   2  -8   0   18.73    0.80
   2  -8   0   17.68    0.92
   2   8   0   17.92    0.77
  -2   8   0   17.34    0.91
  -2   8   0   17.18    0.77
  -2   8   0   19.06    0.76
   2   8   0   17.53    0.92
   3  -8   0    0.06    0.15
  -3  -8   0    0.39    0.17
   3  -8   0    0.30    0.15
  -3  -8   0    0.23    0.13
  -3  -8   0    0.26    0.14
  -3  -8   0    0.04    0.12
   3  -8   0    0.18    0.12
  -3   8   0    0.36    0.12
   3   8   0    0.03    0.10
  -3   8   0    0.40    0.15
   3   8   0    0.43    0.15
  -3   8   0    0.34    0.13
   4  -8   0    8.46    0.57
  -4  -8   0    8.05    0.55
   4  -8   0    8.91    0.65
   4  -8   0    8.97    0.66
  -4  -8   0    8.89    0.64
   4  -8   0    9.92    0.56
  -4  -8   0    8.58    0.54
  -4  -8   0    8.61    0.65
   4   8   0    8.61    0.63
  -4   8   0    8.40    0.50
   4   8   0    8.80    0.54
  -4   8   0    8.63    0.56
  -4   8   0    9.26    0.65
   5  -8   0    2.57    0.44
  -5  -8   0    2.10    0.39
  -5  -8   0    1.94    0.35
  -5  -8   0    2.17    0.33
   5  -8   0    2.13    0.30
   5  -8   0    2.02    0.35
   5   8   0    1.67    0.29
  -5   8   0    2.28    0.39
  -5   8   0    1.47    0.30
   5   8   0    1.32    0.33
  -5   8   0    2.44    0.30
   6  -8   0    1.25    0.31
  -6  -8   0    1.70    0.28
   6  -8   0    1.75    0.26
  -6  -8   0    1.45    0.28
   6  -8   0    1.48    0.35
  -6  -8   0    1.37    0.35
  -6  -8   0    1.48    0.34
  -6   8   0    0.69    0.22
  -6   8   0    1.13    0.31
   6   8   0    1.07    0.26
  -6   8   0    1.54    0.29
  -6   8   0    1.65    0.27
  -7  -8   0    3.45    0.55
  -7  -8   0    4.69    0.50
   7  -8   0    3.74    0.53
   7  -8   0    4.17    0.46
  -7  -8   0    4.02    0.38
   7  -8   0    4.22    0.33
  -7   8   0    4.23    0.48
  -7   8   0    3.79    0.43
  -7   8   0    4.06    0.44
   7   8   0    4.31    0.45
   8  -8   0    2.95    0.27
   8  -8   0    3.17    0.48
  -8  -8   0    4.04    0.38
  -8  -8   0    3.03    0.53
  -8   8   0    2.79    0.44
  -8   8   0    3.30    0.48
   8   8   0    3.86    0.46
  -8   8   0    2.97    0.44
   0  -9   0    0.17    0.12
   0  -9   0    0.26    0.11
   0  -9   0    0.03    0.13
   0  -9   0    0.30    0.19
   0   9   0    0.18    0.12
   0   9   0    0.18    0.10
   0   9   0    0.46    0.16
   1  -9   0    0.93    0.20
  -1  -9   0    0.85    0.25
  -1  -9   0    0.49    0.22
   1  -9   0    0.57    0.22
   1  -9   0    1.22    0.21
  -1  -9   0    0.60    0.17
   1  -9   0    0.85    0.25
  -1   9   0    0.63    0.17
   1   9   0    0.61    0.22
  -1   9   0    0.84    0.19
   1   9   0    0.65    0.16
  -1   9   0    0.89    0.25
   2  -9   0    0.50    0.23
  -2  -9   0    0.66    0.17
   2  -9   0    0.76    0.16
   2  -9   0    1.02    0.25
   2  -9   0    0.50    0.19
  -2  -9   0    0.33    0.21
  -2  -9   0    0.88    0.28
   2   9   0    0.69    0.24
  -2   9   0    0.80    0.19
   2   9   0    0.78    0.19
  -2   9   0    0.31    0.17
  -2   9   0    0.70    0.20
  -3  -9   0    3.89    0.56
   3  -9   0    4.33    0.39
   3  -9   0    3.82    0.40
  -3  -9   0    3.78    0.42
   3  -9   0    4.64    0.50
  -3  -9   0    4.61    0.40
  -3   9   0    4.27    0.40
   3   9   0    4.21    0.36
  -3   9   0    4.77    0.50
   3   9   0    4.14    0.45
  -3   9   0    3.80    0.36
   4  -9   0    5.61    0.57
  -4  -9   0    5.32    0.44
   4  -9   0    5.82    0.48
  -4  -9   0    5.13    0.54
  -4  -9   0    5.93    0.51
   4  -9   0    5.88    0.47
   4   9   0    4.99    0.51
  -4   9   0    5.97    0.43
   4   9   0    5.35    0.43
  -4   9   0    5.62    0.54
  -4   9   0    5.01    0.46
   5  -9   0    4.19    0.60
   5  -9   0    4.64    0.39
  -5  -9   0    3.74    0.41
  -5  -9   0    4.80    0.52
   5  -9   0    4.67    0.46
  -5  -9   0    3.75    0.44
  -5   9   0    3.38    0.52
  -5   9   0    4.57    0.38
   5   9   0    3.41    0.47
  -5   9   0    4.19    0.45
   5   9   0    3.87    0.41
   6  -9   0    1.27    0.24
  -6  -9   0    1.75    0.32
   6  -9   0    1.02    0.33
   6  -9   0    1.23    0.32
  -6  -9   0    1.47    0.34
  -6  -9   0    1.46    0.35
  -6  -9   0    1.46    0.29
  -6   9   0    0.99    0.25
  -6   9   0    1.21    0.25
  -6   9   0    1.96    0.33
   6   9   0    1.18    0.30
   0 -10   0    2.95    0.49
   0 -10   0    2.62    0.30
   0 -10   0    2.29    0.23
   0 -10   0    2.41    0.38
   0  10   0    2.77    0.46
   0  10   0    2.82    0.25
   0  10   0    2.72    0.29
  -1 -10   0    3.42    0.33
  -1 -10   0    3.62    0.52
   1 -10   0    4.17    0.33
   1 -10   0    3.11    0.49
   1 -10   0    3.49    0.48
  -1 -10   0    2.53    0.49
   1 -10   0    2.98    0.31
   1  10   0    2.91    0.46
  -1  10   0    4.07    0.34
   1  10   0    3.09    0.32
  -1  10   0    3.12    0.31
  -2 -10   0    0.02    0.16
   2 -10   0   -0.17    0.19
   2 -10   0   -0.02    0.16
  -2 -10   0    0.03    0.22
  -2 -10   0    0.35    0.21
   2 -10   0    0.14    0.15
  -2  10   0   -0.05    0.12
   2  10   0    0.02    0.14
  -2  10   0    0.30    0.16
  -2  10   0    0.15    0.13
   2  10   0    0.07    0.14
  -3 -10   0    1.40    0.33
  -3 -10   0    1.34    0.26
   3 -10   0    1.10    0.29
  -3 -10   0    0.98    0.33
   3 -10   0    1.68    0.32
   3 -10   0    1.49    0.30
   3  10   0    2.27    0.44
  -3  10   0    1.56    0.29
  -3  10   0    1.97    0.41
  -3  10   0    2.57    0.31
   3  10   0    1.53    0.28
  -4 -10   0    0.58    0.23
   4 -10   0    0.75    0.21
  -4 -10   0    0.27    0.21
   4 -10   0    0.57    0.21
   4 -10   0    0.28    0.28
  -4 -10   0    0.79    0.24
  -4  10   0    0.50    0.19
   4  10   0    0.50    0.22
  -4  10   0    0.39    0.24
   4  10   0    1.08    0.29
  -4  10   0    0.61    0.26
 -12   0   1   -0.10    0.14
 -12   0   1    0.10    0.16
  12   0  -1    0.31    0.19
  12   0  -1   -0.25    0.20
  11   0  -1   -0.05    0.14
 -11   0   1    0.00    0.10
 -11   0   1    0.07    0.12
  11   0  -1    0.01    0.12
 -11   0   1    0.14    0.13
  10   0  -1    0.08    0.10
 -10   0   1   -0.08    0.08
 -10   0   1   -0.02    0.12
 -10   0   1    0.12    0.11
 -10   0   1    0.12    0.11
  10   0  -1    0.15    0.11
  10   0  -1    0.21    0.12
  -9   0   1    0.11    0.09
  -9   0   1    0.06    0.11
   9   0  -1    0.12    0.08
  -9   0   1    0.00    0.09
   9   0  -1    0.02    0.10
   9   0  -1   -0.01    0.09
  -9   0   1   -0.05    0.07
   8   0  -1    0.01    0.08
   8   0  -1   -0.02    0.08
  -8   0   1   -0.06    0.06
  -8   0   1    0.13    0.10
   8   0  -1   -0.11    0.06
  -8   0   1    0.01    0.08
  -8   0   1    0.14    0.09
  -7   0   1    0.01    0.07
   7   0  -1    0.04    0.08
   7   0  -1    0.08    0.07
  -7   0   1    0.05    0.09
   7   0  -1   -0.04    0.05
  -7   0   1    0.02    0.07
  -7   0   1   -0.05    0.06
   7   0  -1    0.07    0.08
   7   0  -1    0.07    0.06
  -6   0   1   -0.08    0.06
   6   0  -1    0.09    0.06
  -6   0   1   -0.01    0.04
  -6   0   1    0.02    0.06
   6   0  -1    0.07    0.06
  -6   0   1    0.03    0.05
   6   0  -1   -0.02    0.07
   6   0  -1   -0.08    0.04
   6   0  -1    0.01    0.06
  -5   0   1    0.05    0.07
   5   0  -1    0.00    0.05
   5   0  -1    0.02    0.05
   5   0  -1   -0.05    0.03
   5   0  -1   -0.03    0.05
  -5   0   1    0.01    0.05
  -5   0   1    0.16    0.08
  -5   0   1    0.04    0.05
   5   0  -1    0.06    0.05
   4   0  -1    0.05    0.05
   4   0  -1    0.07    0.05
  -4   0   1    0.01    0.03
   4   0  -1   -0.01    0.05
  -4   0   1    0.05    0.06
  -4   0   1    0.03    0.05
  -4   0   1    0.03    0.05
   4   0  -1    0.04    0.05
   4   0  -1    0.06    0.04
   3   0  -1    0.05    0.04
  -3   0   1    0.15    0.06
  -3   0   1    0.05    0.04
  -3   0   1    0.05    0.05
   3   0  -1    0.03    0.04
  -3   0   1    0.07    0.06
   3   0  -1    0.08    0.05
   3   0  -1    0.09    0.04
   3   0  -1    0.06    0.06
   2   0  -1    0.05    0.04
  -2   0   1    0.08    0.04
   2   0  -1    0.01    0.04
   2   0  -1    0.02    0.03
   2   0  -1    0.02    0.04
  -2   0   1    0.07    0.03
  -2   0   1    0.11    0.05
   2   0  -1    0.03    0.03
  -2   0   1    0.03    0.03
  -1   0   1    0.07    0.03
   1   0  -1    0.08    0.03
  -1   0   1    0.04    0.02
   1   0  -1    0.05    0.03
   1   0  -1    0.05    0.02
  -1   0   1    0.00    0.01
   0   0  -1    0.03    0.19
  -1   0  -1    0.05    0.03
  -1   0  -1    0.03    0.03
   1   0   1    0.06    0.02
   1   0   1    0.04    0.03
  -1   0  -1    0.11    0.04
  -1   0  -1    0.06    0.02
   1   0   1    0.05    0.03
   2   0   1    0.07    0.05
  -2   0  -1    0.04    0.04
  -2   0  -1    0.09    0.04
   2   0   1    0.13    0.03
  -2   0  -1    0.07    0.03
  -2   0  -1    0.08    0.05
   2   0   1    0.08    0.03
   2   0   1    0.07    0.05
  -3   0  -1    0.02    0.04
  -3   0  -1    0.03    0.05
   3   0   1    0.03    0.03
   3   0   1    0.05    0.04
   3   0   1    0.09    0.05
  -3   0  -1    0.02    0.03
   3   0   1    0.02    0.04
  -3   0  -1    0.02    0.03
  -3   0  -1    0.03    0.03
   4   0   1    0.22    0.08
  -4   0  -1    0.21    0.06
   4   0   1    0.15    0.06
  -4   0  -1    0.22    0.06
  -4   0  -1    0.30    0.09
   4   0   1    0.26    0.05
   4   0   1    0.21    0.05
  -4   0  -1    0.12    0.08
  -4   0  -1    0.20    0.09
  -5   0  -1    0.05    0.06
  -5   0  -1    0.00    0.04
  -5   0  -1    0.06    0.05
   5   0   1    0.07    0.06
  -5   0  -1    0.03    0.05
   5   0   1    0.05    0.06
   5   0   1    0.08    0.05
  -5   0  -1    0.20    0.10
  -6   0  -1    0.24    0.07
  -6   0  -1    0.22    0.09
   6   0   1    0.20    0.10
  -6   0  -1    0.07    0.07
   6   0   1    0.10    0.08
  -6   0  -1    0.24    0.11
  -6   0  -1    0.03    0.05
  -7   0  -1   -0.06    0.06
   7   0   1    0.00    0.07
   7   0   1   -0.05    0.06
   7   0   1   -0.02    0.05
  -7   0  -1   -0.09    0.06
  -7   0  -1    0.04    0.06
  -7   0  -1    0.00    0.06
   7   0   1    0.04    0.07
  -7   0  -1   -0.03    0.08
   8   0   1    0.09    0.09
   8   0   1   -0.03    0.09
  -8   0  -1    0.22    0.11
  -8   0  -1    0.25    0.10
  -8   0  -1   -0.05    0.08
   8   0   1    0.12    0.06
  -8   0  -1    0.38    0.14
  -9   0  -1   -0.19    0.07
  -9   0  -1    0.03    0.10
  -9   0  -1    0.12    0.13
   9   0   1   -0.02    0.08
  -9   0  -1   -0.25    0.10
   9   0   1    0.03    0.12
   9   0   1   -0.06    0.08
 -10   0  -1    0.15    0.14
 -10   0  -1    0.08    0.08
 -10   0  -1   -0.09    0.08
  10   0   1    0.09    0.11
  10   0   1    0.05    0.10
  11   0   1   -0.03    0.14
 -11   0  -1    0.09    0.16
 -11   0  -1   -0.03    0.11
 -11   0  -1   -0.07    0.14
  12   0   1   -0.41    0.16
 -12   0  -1    0.29    0.23
 -12   0  -1    0.34    0.20
 -12   0  -1   -0.10    0.12
  12  -1  -1    0.23    0.18
  12  -1  -1    0.63    0.27
 -12  -1   1    0.52    0.20
 -12  -1   1    0.06    0.17
  12   1  -1    0.06    0.22
 -12   1   1    0.46    0.16
  12   1  -1   -0.16    0.17
 -12   1   1    0.26    0.21
 -11  -1   1    0.52    0.17
  11  -1  -1    0.36    0.20
 -11  -1   1    0.38    0.17
  11  -1  -1    0.44    0.18
 -11  -1   1    0.43    0.21
  11   1  -1    0.45    0.18
 -11   1   1    0.65    0.24
  11   1  -1    0.77    0.23
 -11   1   1    0.43    0.18
 -10  -1   1    0.46    0.17
 -10  -1   1    0.43    0.20
  10  -1  -1    0.67    0.25
  10  -1  -1    0.91    0.19
 -10  -1   1    0.84    0.20
 -10  -1   1    0.70    0.24
  10  -1  -1    0.64    0.18
  10  -1  -1    0.39    0.18
  10   1  -1    0.43    0.15
  10   1  -1    0.77    0.22
 -10   1   1    0.29    0.15
 -10   1   1    0.72    0.26
 -10   1   1    0.69    0.21
 -10   1   1    0.66    0.23
  10   1  -1    0.51    0.15
  -9  -1   1    0.55    0.16
   9  -1  -1    0.96    0.22
  -9  -1   1    0.46    0.18
   9  -1  -1    0.60    0.18
   9  -1  -1    0.63    0.16
  -9  -1   1    0.31    0.15
   9  -1  -1    0.33    0.15
  -9  -1   1    0.57    0.19
  -9   1   1    0.81    0.22
  -9   1   1    0.54    0.16
  -9   1   1    0.68    0.18
   9   1  -1    0.50    0.14
  -9   1   1    0.77    0.22
   9   1  -1    0.46    0.17
   9   1  -1    0.81    0.20
   8  -1  -1    0.61    0.17
  -8  -1   1    0.31    0.13
  -8  -1   1    0.51    0.16
   8  -1  -1    0.55    0.14
  -8  -1   1    0.42    0.14
   8  -1  -1    0.46    0.13
  -8  -1   1    0.42    0.12
  -8  -1   1    0.50    0.17
   8  -1  -1    0.50    0.15
  -8   1   1    0.38    0.15
   8   1  -1    0.46    0.14
  -8   1   1    0.25    0.15
   8   1  -1    0.37    0.13
  -8   1   1    0.44    0.15
  -8   1   1    0.47    0.18
   8   1  -1    0.41    0.13
  -7  -1   1    2.70    0.26
   7  -1  -1    2.54    0.23
  -7  -1   1    2.35    0.23
  -7  -1   1    2.43    0.27
  -7  -1   1    1.68    0.24
   7  -1  -1    2.44    0.23
   7  -1  -1    2.69    0.29
  -7  -1   1    2.62    0.25
   7  -1  -1    2.48    0.27
   7   1  -1    2.20    0.20
   7   1  -1    2.25    0.33
  -7   1   1    2.74    0.29
  -7   1   1    2.70    0.26
   7   1  -1    2.52    0.25
  -7   1   1    2.23    0.26
  -7   1   1    2.32    0.27
   7   1  -1    2.49    0.25
   6  -1  -1    0.26    0.12
   6  -1  -1    0.40    0.12
  -6  -1   1    0.16    0.07
  -6  -1   1    0.37    0.12
   6  -1  -1    0.52    0.13
   6  -1  -1    0.22    0.09
  -6  -1   1    0.26    0.11
  -6  -1   1    0.12    0.08
  -6  -1   1    0.29    0.10
   6   1  -1    0.39    0.13
   6   1  -1    0.24    0.08
   6   1  -1    0.30    0.11
  -6   1   1    0.22    0.09
   6   1  -1    0.40    0.12
  -6   1   1    0.19    0.11
  -6   1   1    0.07    0.06
  -6   1   1    0.35    0.12
  -5  -1   1    4.40    0.27
  -5  -1   1    4.15    0.31
  -5  -1   1    4.37    0.27
   5  -1  -1    4.06    0.27
   5  -1  -1    4.51    0.31
   5  -1  -1    4.79    0.27
   5  -1  -1    4.28    0.30
  -5  -1   1    5.31    0.34
  -5  -1   1    4.40    0.30
   5   1  -1    4.08    0.26
  -5   1   1    4.10    0.30
  -5   1   1    3.89    0.27
   5   1  -1    4.64    0.33
   5   1  -1    4.61    0.30
  -5   1   1    4.35    0.30
  -5   1   1    4.31    0.30
   5   1  -1    4.38    0.25
   4  -1  -1    6.91    0.35
   4  -1  -1    6.08    0.34
   4  -1  -1    5.86    0.31
  -4  -1   1    6.35    0.30
  -4  -1   1    6.21    0.29
  -4  -1   1    6.02    0.33
   4  -1  -1    6.17    0.33
   4  -1  -1    6.26    0.30
  -4  -1   1    6.60    0.36
   4   1  -1    6.33    0.35
   4   1  -1    6.49    0.30
  -4   1   1    6.37    0.35
  -4   1   1    6.11    0.34
   4   1  -1    5.91    0.29
   4   1  -1    5.94    0.33
  -4   1   1    6.72    0.34
  -4   1   1    6.54    0.33
   3  -1  -1   25.25    0.78
  -3  -1   1   23.56    0.69
  -3  -1   1   23.27    0.75
   3  -1  -1   24.22    0.76
   3  -1  -1   24.86    0.77
  -3  -1   1   22.82    0.71
  -3  -1   1   23.06    0.76
   3  -1  -1   25.10    0.78
  -3  -1   1   24.20    0.77
  -3   1   1   24.56    0.75
   3   1  -1   23.94    0.70
  -3   1   1   23.10    0.75
  -3   1   1   23.18    0.74
   3   1  -1   23.69    0.77
  -3   1   1   24.30    0.76
   3   1  -1   23.38    0.72
  -2  -1   1   44.73    1.23
   2  -1  -1   46.89    1.29
  -2  -1   1   46.26    1.22
  -2  -1   1   47.16    1.16
  -2  -1   1   45.84    1.26
  -2  -1   1   46.21    1.25
   2  -1  -1   50.09    1.26
   2  -1  -1   48.62    1.29
   2  -1  -1   48.62    1.29
  -2   1   1   46.40    1.21
  -2   1   1   46.07    1.24
   2   1  -1   46.69    1.26
   2   1  -1   46.85    1.30
   2   1  -1   48.67    1.30
   2   1  -1   48.25    1.21
  -2   1   1   45.65    1.24
  -1  -1   1    0.12    0.02
  -1  -1   1    0.14    0.04
   1  -1  -1    0.16    0.03
  -1  -1   1    0.17    0.05
   1  -1  -1    0.14    0.04
  -1  -1   1    0.15    0.05
   1  -1  -1    0.13    0.04
   1  -1  -1    0.14    0.04
   1   1  -1    0.06    0.03
   1   1  -1    0.07    0.03
  -1   1   1    0.22    0.03
   1   1  -1    0.09    0.04
  -1   1   1    0.22    0.05
  -1   1   1    0.25    0.05
   1   1  -1    0.07    0.02
  -1   1   1    0.25    0.05
   0  -1  -1    4.51    0.17
   0  -1  -1    4.47    0.18
   0  -1  -1    4.62    0.13
   0  -1   1    3.96    0.16
   0  -1  -1    4.61    0.17
   0  -1   1    3.97    0.15
   0  -1   1    4.16    0.15
   0   1   1    3.92    0.15
   0   1  -1    4.42    0.17
   0   1  -1    4.52    0.17
   0   1  -1    4.50    0.19
   0   1   1    4.12    0.16
   0   1  -1    4.69    0.18
   0   1   1    3.83    0.16
   1  -1   1   19.75    0.58
   1  -1   1   19.44    0.56
  -1  -1  -1   19.75    0.60
  -1  -1  -1   20.95    0.61
   1  -1   1   19.16    0.58
   1  -1   1   18.64    0.56
  -1   1  -1   21.93    0.63
   1   1   1   19.07    0.55
  -1   1  -1   22.29    0.64
   1   1   1   19.34    0.57
  -1   1  -1   22.15    0.62
  -1   1  -1   21.60    0.62
   2  -1   1   26.95    0.77
  -2  -1  -1   26.97    0.69
   2  -1   1   26.68    0.80
  -2  -1  -1   26.85    0.81
   2  -1   1   27.13    0.82
  -2  -1  -1   27.68    0.82
  -2  -1  -1   26.77    0.78
  -2   1  -1   26.47    0.83
  -2   1  -1   28.36    0.84
  -2   1  -1   28.88    0.80
  -2   1  -1   27.93    0.82
   2   1   1   25.45    0.75
   2   1   1   26.29    0.79
  -3  -1  -1   15.40    0.58
   3  -1   1   15.67    0.53
  -3  -1  -1   16.32    0.56
  -3  -1  -1   15.06    0.45
  -3  -1  -1   16.19    0.58
  -3  -1  -1   15.23    0.54
   3  -1   1   15.95    0.60
   3  -1   1   15.79    0.46
  -3   1  -1   15.54    0.58
  -3   1  -1   15.79    0.57
  -3   1  -1   15.55    0.54
   3   1   1   16.04    0.55
   3   1   1   16.59    0.60
   3   1   1   16.03    0.57
  -3   1  -1   15.44    0.59
   4  -1   1    4.63    0.31
   4  -1   1    4.65    0.25
   4  -1   1    5.17    0.22
  -4  -1  -1    4.55    0.22
  -4  -1  -1    5.56    0.33
  -4  -1  -1    4.54    0.27
  -4  -1  -1    4.99    0.31
  -4  -1  -1    5.36    0.29
   4   1   1    4.48    0.18
  -4   1  -1    4.97    0.32
  -4   1  -1    4.82    0.31
  -4   1  -1    4.69    0.27
   4   1   1    4.44    0.31
   4   1   1    4.29    0.27
   4   1   1    4.80    0.29
  -4   1  -1    4.69    0.31
  -5  -1  -1    1.69    0.20
  -5  -1  -1    1.50    0.17
   5  -1   1    1.31    0.15
   5  -1   1    1.18    0.21
  -5  -1  -1    1.40    0.14
  -5  -1  -1    1.52    0.17
   5  -1   1    1.18    0.12
   5  -1   1    1.02    0.18
  -5  -1  -1    1.67    0.20
  -5   1  -1    1.33    0.21
  -5   1  -1    1.31    0.21
   5   1   1    1.52    0.18
   5   1   1    1.30    0.10
  -5   1  -1    1.54    0.17
  -5   1  -1    1.23    0.20
   5   1   1    1.14    0.18
   6  -1   1    1.16    0.16
  -6  -1  -1    0.72    0.16
   6  -1   1    0.80    0.17
  -6  -1  -1    0.82    0.18
  -6  -1  -1    0.68    0.17
   6  -1   1    1.27    0.23
   6  -1   1    0.90    0.14
  -6  -1  -1    0.69    0.19
  -6  -1  -1    0.59    0.12
   6   1   1    0.93    0.10
  -6   1  -1    0.55    0.13
  -6   1  -1    0.37    0.13
  -6   1  -1    0.72    0.19
   6   1   1    0.91    0.15
  -6   1  -1    0.41    0.12
   6   1   1    0.83    0.18
  -7  -1  -1    1.02    0.19
   7  -1   1    1.05    0.17
   7  -1   1    0.89    0.16
  -7  -1  -1    1.86    0.27
   7  -1   1    1.22    0.25
  -7  -1  -1    1.32    0.22
   7  -1   1    1.09    0.21
  -7  -1  -1    1.19    0.22
  -7  -1  -1    1.34    0.19
  -7   1  -1    1.50    0.23
  -7   1  -1    1.93    0.31
   7   1   1    1.10    0.13
  -7   1  -1    1.57    0.27
  -7   1  -1    0.90    0.22
   7   1   1    1.34    0.24
   7   1   1    0.91    0.19
  -8  -1  -1    0.62    0.15
   8  -1   1    0.68    0.13
  -8  -1  -1    0.61    0.17
  -8  -1  -1    0.68    0.17
   8  -1   1    0.71    0.15
   8  -1   1    0.56    0.18
  -8  -1  -1    0.73    0.22
  -8  -1  -1    0.90    0.22
   8  -1   1    0.55    0.18
   8   1   1    0.75    0.20
  -8   1  -1    1.09    0.26
  -8   1  -1    1.24    0.28
   8   1   1    0.35    0.17
  -8   1  -1    0.45    0.13
  -8   1  -1    0.62    0.16
  -9  -1  -1    5.17    0.47
  -9  -1  -1    5.80    0.41
   9  -1   1    4.15    0.43
   9  -1   1    4.47    0.34
   9  -1   1    5.12    0.35
  -9  -1  -1    5.63    0.37
  -9  -1  -1    5.72    0.48
   9  -1   1    5.18    0.45
  -9  -1  -1    5.41    0.44
  -9   1  -1    5.21    0.45
  -9   1  -1    5.73    0.52
  -9   1  -1    5.10    0.48
  -9   1  -1    5.34    0.47
   9   1   1    5.66    0.44
  -9   1  -1    5.33    0.41
  10  -1   1    0.11    0.12
 -10  -1  -1    0.10    0.11
 -10  -1  -1    0.19    0.15
 -10  -1  -1    0.36    0.18
 -10   1  -1    0.13    0.17
 -10   1  -1    0.17    0.12
 -10   1  -1   -0.10    0.09
 -10   1  -1    0.10    0.16
  10   1   1    0.08    0.13
 -11  -1  -1   -0.08    0.16
 -11  -1  -1    0.27    0.13
  11  -1   1    0.23    0.18
 -11  -1  -1    0.05    0.16
 -11   1  -1    0.14    0.14
  11   1   1    0.36    0.17
 -11   1  -1    0.28    0.19
 -11   1  -1    0.30    0.16
  12  -1   1    0.23    0.21
 -12  -1  -1    0.18    0.15
 -12  -1  -1    0.11    0.20
  12   1   1    0.55    0.24
 -12   1  -1    0.00    0.16
 -12   1  -1    0.00    0.20
 -12   1  -1   -0.13    0.15
  12  -2  -1    0.11    0.17
 -12  -2   1    0.01    0.19
 -12  -2   1    0.05    0.15
  12  -2  -1    0.56    0.23
 -12  -2   1   -0.10    0.13
 -12   2   1    0.14    0.20
 -12   2   1    0.07    0.17
  12   2  -1    0.31    0.20
 -12   2   1    0.08    0.18
 -11  -2   1    2.17    0.39
 -11  -2   1    1.43    0.30
 -11  -2   1    1.56    0.28
  11  -2  -1    1.52    0.35
  11  -2  -1    2.01    0.29
  11   2  -1    1.30    0.27
 -11   2   1    1.85    0.42
  11   2  -1    2.01    0.36
 -11   2   1    1.82    0.41
 -11   2   1    1.39    0.28
  10  -2  -1    1.89    0.39
  10  -2  -1    1.99    0.31
 -10  -2   1    1.69    0.27
  10  -2  -1    1.81    0.27
 -10  -2   1    1.33    0.29
 -10  -2   1    1.39    0.32
  10  -2  -1    1.39    0.26
 -10  -2   1    1.56    0.29
 -10  -2   1    1.52    0.29
 -10  -2   1    1.15    0.28
  10   2  -1    1.47    0.30
 -10   2   1    1.04    0.25
 -10   2   1    1.84    0.30
 -10   2   1    1.98    0.37
  10   2  -1    1.74    0.29
 -10   2   1    1.63    0.30
   9  -2  -1    3.75    0.31
  -9  -2   1    3.36    0.38
   9  -2  -1    3.79    0.35
   9  -2  -1    3.75    0.41
  -9  -2   1    4.04    0.34
  -9  -2   1    3.17    0.34
   9  -2  -1    3.69    0.39
  -9  -2   1    3.30    0.31
  -9  -2   1    2.53    0.37
   9   2  -1    3.50    0.34
  -9   2   1    3.82    0.35
   9   2  -1    3.52    0.40
  -9   2   1    3.59    0.38
   9   2  -1    4.05    0.39
  -9   2   1    3.53    0.38
  -9   2   1    3.70    0.39
  -8  -2   1    3.13    0.32
   8  -2  -1    2.39    0.38
   8  -2  -1    2.54    0.23
   8  -2  -1    2.73    0.32
  -8  -2   1    2.58    0.32
  -8  -2   1    2.20    0.32
  -8  -2   1    2.45    0.26
   8  -2  -1    1.86    0.27
  -8  -2   1    2.72    0.26
   8   2  -1    2.35    0.32
  -8   2   1    2.59    0.38
   8   2  -1    2.36    0.37
   8   2  -1    2.53    0.30
  -8   2   1    2.95    0.32
  -8   2   1    3.09    0.32
  -7  -2   1    0.31    0.11
   7  -2  -1    0.31    0.12
  -7  -2   1    0.38    0.11
  -7  -2   1    0.45    0.13
   7  -2  -1    0.61    0.13
   7  -2  -1    0.36    0.14
  -7  -2   1    0.21    0.13
  -7  -2   1    0.43    0.12
   7  -2  -1    0.57    0.15
  -7   2   1    0.24    0.12
   7   2  -1    0.60    0.17
  -7   2   1    0.46    0.17
   7   2  -1    0.32    0.11
  -7   2   1    0.40    0.13
  -7   2   1    0.26    0.12
   7   2  -1    0.56    0.14
   6  -2  -1    3.88    0.25
   6  -2  -1    3.91    0.31
  -6  -2   1    3.15    0.24
   6  -2  -1    3.85    0.32
  -6  -2   1    3.77    0.32
  -6  -2   1    3.71    0.32
  -6  -2   1    3.96    0.33
  -6  -2   1    3.55    0.25
   6  -2  -1    3.36    0.31
  -6  -2   1    3.82    0.32
  -6   2   1    3.61    0.31
  -6   2   1    3.68    0.32
   6   2  -1    3.05    0.30
   6   2  -1    3.22    0.24
  -6   2   1    3.71    0.30
  -6   2   1    4.03    0.33
   6   2  -1    3.56    0.30
  -5  -2   1    0.53    0.11
  -5  -2   1    0.38    0.10
   5  -2  -1    0.39    0.12
  -5  -2   1    0.54    0.14
   5  -2  -1    0.49    0.12
  -5  -2   1    0.48    0.14
  -5  -2   1    0.47    0.13
  -5  -2   1    0.50    0.13
   5  -2  -1    0.80    0.16
   5   2  -1    0.51    0.14
  -5   2   1    0.60    0.13
  -5   2   1    0.28    0.10
   5   2  -1    0.48    0.12
  -5   2   1    0.74    0.17
   5   2  -1    0.59    0.11
  -5   2   1    0.52    0.13
  -4  -2   1    0.90    0.16
   4  -2  -1    1.40    0.21
   4  -2  -1    1.15    0.18
  -4  -2   1    1.19    0.20
  -4  -2   1    0.79    0.13
  -4  -2   1    0.95    0.10
   4  -2  -1    0.84    0.15
  -4  -2   1    0.89    0.17
   4   2  -1    0.91    0.10
  -4   2   1    0.71    0.14
  -4   2   1    0.75    0.14
   4   2  -1    1.00    0.17
  -4   2   1    0.92    0.16
   4   2  -1    0.77    0.16
  -3  -2   1    0.20    0.08
   3  -2  -1    0.42    0.09
  -3  -2   1    0.36    0.09
  -3  -2   1    0.38    0.10
   3  -2  -1    0.39    0.11
  -3  -2   1    0.27    0.07
   3  -2  -1    0.26    0.08
  -3  -2   1    0.21    0.04
  -3   2   1    0.36    0.10
   3   2  -1    0.27    0.09
  -3   2   1    0.28    0.08
   3   2  -1    0.36    0.06
   3   2  -1    0.37    0.08
  -3   2   1    0.30    0.08
  -3   2   1    0.19    0.06
   2  -2  -1    9.43    0.39
  -2  -2   1   10.17    0.41
   2  -2  -1    9.20    0.38
  -2  -2   1    9.51    0.40
   2  -2  -1    9.44    0.39
  -2  -2   1   10.27    0.43
   2   2  -1    9.33    0.39
  -2   2   1    9.90    0.40
   2   2  -1    9.24    0.38
  -2   2   1    9.45    0.34
   2   2  -1    9.57    0.40
  -2   2   1   10.70    0.41
  -1  -2   1   15.28    0.53
  -1  -2   1   14.89    0.51
   1  -2  -1   16.26    0.55
   1  -2  -1   16.06    0.45
  -1  -2   1   15.79    0.52
   1  -2  -1   16.72    0.52
  -1   2   1   15.83    0.50
   1   2  -1   16.59    0.54
  -1   2   1   15.18    0.43
   1   2  -1   16.55    0.55
  -1   2   1   14.88    0.51
   1   2  -1   16.94    0.55
  -1   2   1   15.20    0.51
   0  -2  -1    5.85    0.25
   0  -2   1    4.97    0.23
   0  -2  -1    5.87    0.23
   0  -2   1    5.34    0.20
   0  -2   1    4.84    0.23
   0  -2   1    4.78    0.23
   0  -2  -1    5.67    0.19
   0   2   1    5.04    0.24
   0   2  -1    5.86    0.26
   0   2  -1    6.20    0.27
   0   2   1    4.90    0.17
   0   2   1    5.02    0.22
   0   2   1    4.53    0.20
   1  -2   1   54.90    1.48
   1  -2   1   57.91    1.48
  -1  -2  -1   54.37    1.40
  -1  -2  -1   55.71    1.43
   1  -2   1   56.79    1.48
   1  -2   1   55.63    1.49
  -1  -2  -1   54.77    1.48
   1  -2   1   56.73    1.40
   1   2   1   47.02    1.39
  -1   2  -1   54.96    1.47
  -1   2  -1   55.85    1.49
   1   2   1   56.84    1.43
  -1   2  -1   55.56    1.48
  -1   2  -1   55.98    1.50
   1   2   1   56.26    1.48
  -2  -2  -1   11.16    0.37
  -2  -2  -1   11.49    0.47
  -2  -2  -1   11.59    0.43
  -2  -2  -1   11.19    0.38
  -2  -2  -1   11.10    0.44
   2  -2   1   11.42    0.45
   2  -2   1   10.98    0.44
   2  -2   1   11.55    0.45
  -2   2  -1   11.55    0.46
   2   2   1   10.76    0.44
   2   2   1   11.28    0.43
  -2   2  -1   11.42    0.45
  -2   2  -1   11.36    0.45
  -2   2  -1   11.04    0.44
  -3  -2  -1   18.69    0.67
  -3  -2  -1   17.58    0.65
  -3  -2  -1   17.61    0.53
  -3  -2  -1   18.16    0.66
   3  -2   1   18.38    0.69
   3  -2   1   18.58    0.65
  -3  -2  -1   18.03    0.58
  -3   2  -1   18.30    0.67
  -3   2  -1   17.88    0.65
  -3   2  -1   17.66    0.66
  -3   2  -1   17.97    0.67
   3   2   1   18.69    0.67
  -4  -2  -1    5.72    0.25
   4  -2   1    5.85    0.37
  -4  -2  -1    5.84    0.35
   4  -2   1    6.05    0.23
  -4  -2  -1    5.70    0.35
  -4  -2  -1    5.66    0.34
  -4  -2  -1    6.09    0.31
   4  -2   1    6.56    0.38
   4  -2   1    6.04    0.34
  -4   2  -1    5.33    0.32
   4   2   1    6.37    0.37
  -4   2  -1    5.98    0.36
  -4   2  -1    6.18    0.36
   4   2   1    6.20    0.31
  -5  -2  -1    1.10    0.18
  -5  -2  -1    1.05    0.19
  -5  -2  -1    1.08    0.12
   5  -2   1    1.44    0.24
   5  -2   1    1.36    0.23
  -5  -2  -1    1.31    0.23
   5  -2   1    1.29    0.18
   5  -2   1    1.09    0.11
  -5  -2  -1    1.15    0.17
  -5  -2  -1    0.75    0.16
  -5   2  -1    0.89    0.18
   5   2   1    1.25    0.22
  -5   2  -1    1.54    0.25
   5   2   1    1.21    0.17
  -5   2  -1    1.20    0.18
  -5   2  -1    0.81    0.16
  -5   2  -1    1.35    0.22
  -6  -2  -1    5.25    0.34
  -6  -2  -1    5.37    0.40
  -6  -2  -1    5.55    0.38
   6  -2   1    5.21    0.40
  -6  -2  -1    4.80    0.38
  -6  -2  -1    5.22    0.39
   6  -2   1    5.14    0.34
   6  -2   1    5.07    0.38
   6  -2   1    5.19    0.26
  -6  -2  -1    5.01    0.27
   6   2   1    5.02    0.38
  -6   2  -1    5.43    0.40
  -6   2  -1    5.62    0.37
  -6   2  -1    5.35    0.41
  -6   2  -1    5.90    0.42
   6   2   1    4.86    0.33
  -6   2  -1    5.05    0.38
  -7  -2  -1    0.65    0.20
  -7  -2  -1    0.45    0.13
   7  -2   1    0.29    0.11
  -7  -2  -1    0.28    0.09
   7  -2   1    0.30    0.09
  -7  -2  -1    0.44    0.15
   7  -2   1    0.35    0.11
  -7  -2  -1    0.38    0.13
   7  -2   1    0.46    0.18
  -7  -2  -1    0.48    0.13
  -7   2  -1    0.53    0.18
  -7   2  -1    0.53    0.17
  -7   2  -1    0.36    0.14
   7   2   1    0.31    0.11
  -7   2  -1    0.51    0.16
  -7   2  -1    0.68    0.19
  -8  -2  -1    0.21    0.13
  -8  -2  -1    0.23    0.13
  -8  -2  -1    0.57    0.15
   8  -2   1    0.23    0.12
   8  -2   1    0.31    0.16
   8  -2   1    0.46    0.12
  -8  -2  -1    0.31    0.11
   8  -2   1    0.13    0.10
  -8  -2  -1    0.64    0.19
  -8  -2  -1    0.12    0.14
  -8   2  -1    0.28    0.14
  -8   2  -1    0.32    0.16
   8   2   1    0.44    0.16
  -8   2  -1    0.38    0.17
  -8   2  -1    0.25    0.12
  -8   2  -1    0.54    0.20
  -9  -2  -1    0.78    0.22
  -9  -2  -1    0.70    0.21
   9  -2   1    0.77    0.20
  -9  -2  -1    0.74    0.17
   9  -2   1    0.40    0.13
   9  -2   1    0.65    0.14
   9  -2   1    0.71    0.26
  -9  -2  -1    0.53    0.24
  -9  -2  -1    0.43    0.15
  -9  -2  -1    0.71    0.19
  -9   2  -1    0.66    0.22
  -9   2  -1    0.85    0.25
  -9   2  -1    0.56    0.17
  -9   2  -1    0.54    0.20
  -9   2  -1    0.68    0.21
   9   2   1    0.47    0.18
 -10  -2  -1    0.07    0.16
 -10  -2  -1    0.21    0.13
 -10  -2  -1   -0.09    0.10
  10  -2   1    0.04    0.14
 -10  -2  -1    0.02    0.09
 -10   2  -1    0.04    0.12
 -10   2  -1    0.08    0.11
 -10   2  -1    0.10    0.13
  10   2   1    0.09    0.11
 -11  -2  -1    0.32    0.19
  11  -2   1   -0.01    0.15
 -11  -2  -1    0.30    0.21
 -11  -2  -1    0.39    0.20
 -11  -2  -1    0.19    0.15
 -11   2  -1    0.30    0.19
  11   2   1    0.23    0.15
 -11   2  -1    0.15    0.20
 -11   2  -1    0.15    0.17
 -12  -3   1   -0.41    0.16
 -12  -3   1    0.16    0.14
  12  -3  -1    0.07    0.16
 -12  -3   1   -0.04    0.13
  12  -3  -1   -0.06    0.20
  12   3  -1    0.05    0.16
 -12   3   1   -0.31    0.13
 -12   3   1    0.02    0.19
 -12   3   1   -0.22    0.18
  11  -3  -1    0.16    0.18
  11  -3  -1    0.21    0.14
 -11  -3   1    0.19    0.16
 -11  -3   1    0.36    0.15
 -11  -3   1    0.13    0.13
 -11  -3   1    0.15    0.16
  11   3  -1    0.21    0.15
 -11   3   1    0.26    0.16
 -11   3   1    0.18    0.19
 -11   3   1   -0.04    0.16
 -10  -3   1    0.23    0.12
  10  -3  -1    0.17    0.13
 -10  -3   1    0.24    0.15
  10  -3  -1    0.14    0.13
 -10  -3   1   -0.04    0.11
 -10  -3   1    0.15    0.12
  10   3  -1    0.21    0.14
 -10   3   1    0.25    0.15
 -10   3   1    0.32    0.18
 -10   3   1   -0.03    0.12
 -10   3   1    0.27    0.14
  10   3  -1    0.17    0.14
  10   3  -1   -0.03    0.16
  -9  -3   1    2.73    0.33
  -9  -3   1    2.93    0.28
  -9  -3   1    2.05    0.32
   9  -3  -1    3.09    0.48
  -9  -3   1    3.29    0.38
   9  -3  -1    2.09    0.33
   9  -3  -1    2.72    0.32
   9  -3  -1    3.03    0.26
  -9  -3   1    3.39    0.38
  -9  -3   1    3.21    0.30
   9   3  -1    2.44    0.39
  -9   3   1    2.47    0.36
   9   3  -1    3.55    0.31
   9   3  -1    3.05    0.36
  -9   3   1    3.25    0.36
  -9   3   1    2.78    0.43
  -9   3   1    2.72    0.40
  -9   3   1    3.31    0.47
  -8  -3   1    1.68    0.34
   8  -3  -1    1.06    0.19
  -8  -3   1    1.23    0.20
  -8  -3   1    1.19    0.26
   8  -3  -1    0.73    0.19
   8  -3  -1    0.93    0.20
  -8  -3   1    1.24    0.20
  -8  -3   1    1.30    0.25
   8  -3  -1    1.20    0.23
  -8  -3   1    1.48    0.31
  -8   3   1    1.46    0.31
   8   3  -1    1.13    0.26
  -8   3   1    1.23    0.26
  -8   3   1    1.02    0.23
   8   3  -1    1.23    0.28
  -8   3   1    1.26    0.26
   8   3  -1    1.40    0.22
  -8   3   1    1.39    0.28
  -7  -3   1    0.58    0.18
   7  -3  -1    0.43    0.14
   7  -3  -1    0.76    0.17
  -7  -3   1    0.68    0.20
  -7  -3   1    0.67    0.14
   7  -3  -1    0.94    0.16
   7  -3  -1    0.96    0.25
  -7  -3   1    0.39    0.15
  -7  -3   1    0.41    0.11
  -7  -3   1    0.50    0.16
  -7   3   1    0.43    0.15
   7   3  -1    0.85    0.21
   7   3  -1    0.58    0.17
   7   3  -1    0.81    0.15
  -7   3   1    0.51    0.16
  -7   3   1    0.40    0.14
  -7   3   1    0.57    0.19
  -7   3   1    0.55    0.18
  -6  -3   1    8.75    0.52
   6  -3  -1    6.73    0.45
  -6  -3   1    8.99    0.52
  -6  -3   1    9.11    0.52
  -6  -3   1    8.27    0.38
  -6  -3   1    8.50    0.43
   6  -3  -1    8.68    0.52
  -6  -3   1    8.56    0.53
   6  -3  -1    8.74    0.52
  -6   3   1    8.61    0.52
  -6   3   1    8.80    0.51
  -6   3   1    8.27    0.48
  -6   3   1    8.27    0.52
  -6   3   1    8.72    0.49
   6   3  -1    9.19    0.53
   6   3  -1    9.02    0.39
   6   3  -1    8.46    0.51
   5  -3  -1    8.55    0.48
  -5  -3   1    8.81    0.50
  -5  -3   1    8.49    0.35
  -5  -3   1    8.35    0.41
  -5  -3   1    8.68    0.48
   5  -3  -1    8.40    0.48
  -5  -3   1    8.20    0.50
   5  -3  -1    7.90    0.46
   5   3  -1    7.99    0.33
  -5   3   1    8.90    0.46
  -5   3   1    7.79    0.47
  -5   3   1    8.64    0.48
   5   3  -1    7.91    0.47
  -5   3   1    8.89    0.50
  -5   3   1    9.04    0.46
   5   3  -1    8.03    0.46
  -4  -3   1   32.53    1.01
   4  -3  -1   31.69    1.08
  -4  -3   1   32.23    1.09
   4  -3  -1   33.30    1.10
   4  -3  -1   31.27    1.08
  -4  -3   1   32.03    1.12
  -4  -3   1   31.60    0.86
  -4  -3   1   31.36    1.07
  -4   3   1   31.63    1.08
  -4   3   1   34.01    1.03
   4   3  -1   32.35    1.11
  -4   3   1   32.17    1.02
   4   3  -1   31.64    0.86
  -4   3   1   33.19    1.10
   4   3  -1   32.94    1.09
  -4   3   1   32.63    1.09
   3  -3  -1   37.16    1.17
  -3  -3   1   36.84    1.15
  -3  -3   1   36.14    1.18
   3  -3  -1   37.26    1.17
  -3  -3   1   38.17    1.15
   3   3  -1   37.44    1.17
  -3   3   1   36.15    1.13
  -3   3   1   36.68    1.16
  -3   3   1   36.15    1.06
   3   3  -1   35.90    1.18
   3   3  -1   36.89    1.15
  -3   3   1   35.04    1.14
  -2  -3   1    9.58    0.45
   2  -3  -1    8.49    0.38
   2  -3  -1    8.67    0.41
  -2  -3   1    9.42    0.42
   2  -3  -1    9.03    0.41
  -2  -3   1    9.84    0.43
   2   3  -1    8.61    0.40
  -2   3   1    9.52    0.44
   2   3  -1    8.63    0.40
  -2   3   1    9.86    0.42
   2   3  -1    8.02    0.41
  -2   3   1   10.00    0.36
  -1  -3   1   14.29    0.54
  -1  -3   1   14.10    0.52
   1  -3  -1   14.32    0.55
   1  -3  -1   14.87    0.51
  -1  -3   1   14.21    0.39
  -1  -3   1   13.74    0.54
  -1   3   1   15.04    0.51
   1   3  -1   14.55    0.55
  -1   3   1   13.82    0.53
   1   3  -1   14.43    0.53
  -1   3   1   13.80    0.54
  -1   3   1   14.40    0.44
   0  -3   1   13.21    0.48
   0  -3  -1   13.72    0.50
   0  -3  -1   13.33    0.44
   0  -3  -1   11.95    0.40
   0  -3   1   12.35    0.50
   0  -3   1   12.70    0.48
   0  -3   1   12.58    0.42
   0  -3   1   12.41    0.50
   0  -3  -1   13.64    0.52
   0   3   1   13.14    0.43
   0   3  -1   12.88    0.49
   0   3  -1   13.50    0.51
   0   3   1   12.36    0.50
   0   3   1   12.68    0.40
   0   3  -1   13.54    0.43
  -1  -3  -1    5.95    0.32
   1  -3   1    5.29    0.27
  -1  -3  -1    5.78    0.26
   1  -3   1    5.10    0.27
   1  -3   1    5.18    0.30
   1  -3   1    5.06    0.25
  -1  -3  -1    5.23    0.26
  -1  -3  -1    5.89    0.23
   1  -3   1    5.19    0.29
  -1   3  -1    5.98    0.30
   1   3   1    5.43    0.30
  -1   3  -1    5.63    0.31
   1   3   1    4.88    0.23
  -1   3  -1    5.69    0.28
   1   3   1    5.05    0.22
  -2  -3  -1    4.45    0.31
   2  -3   1    5.03    0.30
   2  -3   1    4.50    0.29
  -2  -3  -1    5.66    0.23
   2  -3   1    4.71    0.29
   2  -3   1    4.46    0.27
  -2  -3  -1    5.55    0.32
  -2  -3  -1    5.68    0.29
  -2   3  -1    5.43    0.32
  -2   3  -1    5.94    0.32
   2   3   1    4.45    0.29
  -2   3  -1    6.02    0.32
   2   3   1    4.44    0.25
  -2   3  -1    5.76    0.33
   3  -3   1    5.76    0.35
  -3  -3  -1    5.81    0.32
  -3  -3  -1    5.29    0.25
  -3  -3  -1    5.16    0.33
  -3  -3  -1    5.45    0.25
   3  -3   1    5.47    0.33
  -3  -3  -1    5.58    0.36
   3  -3   1    5.57    0.34
  -3   3  -1    5.44    0.33
  -3   3  -1    5.40    0.33
  -3   3  -1    6.24    0.36
  -3   3  -1    5.60    0.35
   3   3   1    5.16    0.33
   3   3   1    5.19    0.31
   4  -3   1    4.43    0.31
  -4  -3  -1    4.14    0.23
   4  -3   1    4.71    0.33
  -4  -3  -1    4.99    0.33
  -4  -3  -1    4.44    0.33
  -4  -3  -1    4.30    0.24
   4  -3   1    4.90    0.35
  -4  -3  -1    5.04    0.34
  -4   3  -1    4.49    0.32
  -4   3  -1    4.39    0.32
  -4   3  -1    4.20    0.32
  -4   3  -1    4.59    0.33
   4   3   1    4.35    0.31
  -5  -3  -1    1.85    0.17
  -5  -3  -1    1.78    0.16
   5  -3   1    1.78    0.20
  -5  -3  -1    2.42    0.32
   5  -3   1    1.72    0.27
  -5  -3  -1    2.22    0.30
   5  -3   1    1.64    0.26
   5  -3   1    1.64    0.12
  -5  -3  -1    2.15    0.24
  -5   3  -1    2.06    0.24
   5   3   1    1.76    0.27
  -5   3  -1    1.59    0.24
  -5   3  -1    2.25    0.25
  -5   3  -1    2.38    0.25
   6  -3   1    2.24    0.24
  -6  -3  -1    3.13    0.30
  -6  -3  -1    2.43    0.27
  -6  -3  -1    2.91    0.20
   6  -3   1    2.54    0.28
  -6  -3  -1    2.52    0.28
   6  -3   1    2.05    0.14
  -6  -3  -1    2.69    0.30
  -6  -3  -1    2.83    0.23
   6  -3   1    2.43    0.34
  -6   3  -1    1.99    0.29
  -6   3  -1    2.49    0.28
  -6   3  -1    2.31    0.27
  -6   3  -1    2.43    0.28
  -6   3  -1    2.37    0.28
   6   3   1    2.48    0.28
  -7  -3  -1    4.80    0.29
   7  -3   1    5.07    0.39
   7  -3   1    5.18    0.26
  -7  -3  -1    4.80    0.41
  -7  -3  -1    5.28    0.45
  -7  -3  -1    5.25    0.42
  -7  -3  -1    4.94    0.42
   7  -3   1    5.52    0.46
  -7  -3  -1    5.09    0.34
   7  -3   1    5.14    0.43
  -7   3  -1    4.82    0.42
  -7   3  -1    4.71    0.41
   7   3   1    5.27    0.43
  -7   3  -1    4.86    0.40
  -7   3  -1    4.69    0.41
  -7   3  -1    4.88    0.40
   8  -3   1   11.08    0.43
  -8  -3  -1   11.40    0.58
  -8  -3  -1   11.90    0.71
  -8  -3  -1   11.16    0.66
  -8  -3  -1   12.04    0.52
   8  -3   1   11.68    0.70
  -8  -3  -1   10.79    0.67
  -8  -3  -1   11.36    0.71
   8  -3   1   10.85    0.69
   8  -3   1   11.74    0.62
  -8   3  -1   12.14    0.71
  -8   3  -1   11.53    0.70
  -8   3  -1   12.81    0.73
  -8   3  -1   11.56    0.70
  -8   3  -1   12.31    0.67
   9  -3   1    0.99    0.19
  -9  -3  -1    0.89    0.23
  -9  -3  -1    0.78    0.28
  -9  -3  -1    1.23    0.28
   9  -3   1    0.72    0.21
   9  -3   1    0.65    0.21
  -9  -3  -1    0.90    0.17
  -9  -3  -1    1.12    0.25
   9  -3   1    0.86    0.14
  -9  -3  -1    1.32    0.25
  -9   3  -1    1.36    0.26
  -9   3  -1    1.09    0.28
  -9   3  -1    1.43    0.30
  -9   3  -1    0.96    0.27
  -9   3  -1    0.57    0.20
 -10  -3  -1    2.82    0.43
 -10  -3  -1    3.50    0.29
 -10  -3  -1    3.76    0.40
 -10  -3  -1    3.50    0.36
  10  -3   1    3.29    0.52
 -10   3  -1    2.51    0.41
 -10   3  -1    3.22    0.43
 -10   3  -1    3.15    0.49
  11  -3   1    0.98    0.29
 -11  -3  -1    0.67    0.22
 -11  -3  -1    1.51    0.23
 -11  -3  -1    1.30    0.29
 -11  -3  -1    1.36    0.29
 -11   3  -1    1.36    0.35
 -11   3  -1    0.57    0.20
 -11  -4   1    1.69    0.37
 -11  -4   1    1.27    0.27
  11  -4  -1    1.19    0.33
 -11  -4   1    0.71    0.19
 -11  -4   1    1.44    0.35
  11  -4  -1    1.90    0.26
 -11   4   1    1.81    0.38
 -11   4   1    0.57    0.23
 -11   4   1    2.07    0.44
 -10  -4   1    5.24    0.40
 -10  -4   1    5.00    0.50
  10  -4  -1    4.42    0.33
  10  -4  -1    5.58    0.54
 -10  -4   1    5.30    0.38
 -10  -4   1    4.58    0.46
 -10   4   1    4.61    0.49
 -10   4   1    4.54    0.49
 -10   4   1    5.39    0.52
 -10   4   1    5.00    0.49
  10   4  -1    4.65    0.50
  -9  -4   1    4.78    0.46
   9  -4  -1    4.53    0.43
  -9  -4   1    4.42    0.45
  -9  -4   1    4.85    0.37
   9  -4  -1    5.33    0.49
  -9  -4   1    5.08    0.47
  -9  -4   1    4.09    0.32
   9  -4  -1    5.14    0.34
  -9  -4   1    4.34    0.46
  -9   4   1    3.99    0.44
  -9   4   1    4.62    0.46
  -9   4   1    4.77    0.44
  -9   4   1    4.67    0.45
   9   4  -1    5.05    0.51
  -9   4   1    4.76    0.48
   9   4  -1    4.20    0.46
   8  -4  -1    6.92    0.54
   8  -4  -1    5.51    0.45
   8  -4  -1    6.23    0.37
  -8  -4   1    6.07    0.50
  -8  -4   1    6.33    0.51
  -8  -4   1    5.82    0.39
   8  -4  -1    6.52    0.52
  -8  -4   1    6.92    0.53
  -8  -4   1    6.32    0.35
  -8  -4   1    6.45    0.52
  -8   4   1    5.35    0.45
  -8   4   1    5.15    0.48
   8   4  -1    6.72    0.54
  -8   4   1    5.39    0.46
  -8   4   1    6.56    0.48
   8   4  -1    5.89    0.50
  -8   4   1    6.46    0.52
  -7  -4   1   11.16    0.65
  -7  -4   1   12.36    0.70
  -7  -4   1   11.63    0.69
  -7  -4   1   11.23    0.47
   7  -4  -1   11.26    0.64
  -7  -4   1   11.61    0.67
  -7  -4   1   11.74    0.56
   7  -4  -1   11.38    0.67
   7  -4  -1   11.34    0.66
   7  -4  -1   10.68    0.49
  -7   4   1   12.51    0.65
   7   4  -1   10.56    0.64
  -7   4   1   11.36    0.66
  -7   4   1   11.87    0.69
  -7   4   1   11.40    0.66
   7   4  -1   10.32    0.65
  -7   4   1   11.58    0.63
  -6  -4   1    1.71    0.14
   6  -4  -1    2.12    0.30
  -6  -4   1    1.66    0.19
  -6  -4   1    1.95    0.31
  -6  -4   1    1.38    0.26
   6  -4  -1    2.46    0.33
  -6  -4   1    1.43    0.24
   6  -4  -1    2.72    0.31
  -6   4   1    1.52    0.28
  -6   4   1    1.35    0.23
  -6   4   1    1.70    0.28
   6   4  -1    2.61    0.29
   6   4  -1    2.63    0.37
  -6   4   1    1.86    0.28
  -6   4   1    2.24    0.26
  -5  -4   1    0.87    0.20
  -5  -4   1    0.80    0.17
   5  -4  -1    0.97    0.19
  -5  -4   1    0.98    0.17
   5  -4  -1    1.30    0.23
   5  -4  -1    1.52    0.28
  -5  -4   1    1.19    0.22
  -5   4   1    0.98    0.22
   5   4  -1    1.40    0.26
  -5   4   1    1.20    0.22
  -5   4   1    0.91    0.22
  -5   4   1    1.17    0.20
  -5   4   1    1.10    0.19
   5   4  -1    1.07    0.24
  -4  -4   1    0.63    0.13
  -4  -4   1    0.99    0.20
   4  -4  -1    0.75    0.16
  -4  -4   1    0.55    0.15
   4  -4  -1    0.82    0.17
   4  -4  -1    1.04    0.20
   4   4  -1    0.61    0.15
  -4   4   1    0.73    0.16
  -4   4   1    0.86    0.15
   4   4  -1    0.65    0.14
  -4   4   1    0.63    0.14
   4   4  -1    0.78    0.18
  -4   4   1    0.75    0.18
  -4   4   1    0.87    0.20
   3  -4  -1    5.88    0.36
   3  -4  -1    5.33    0.36
  -3  -4   1    6.83    0.39
  -3  -4   1    6.01    0.37
   3  -4  -1    6.46    0.39
  -3  -4   1    5.95    0.40
  -3   4   1    6.44    0.40
  -3   4   1    6.40    0.32
   3   4  -1    5.56    0.38
  -3   4   1    6.11    0.37
  -3   4   1    5.97    0.38
   3   4  -1    5.62    0.35
   3   4  -1    6.11    0.38
  -2  -4   1    2.08    0.21
   2  -4  -1    2.29    0.16
   2  -4  -1    2.55    0.20
  -2  -4   1    1.61    0.19
   2  -4  -1    2.28    0.23
   2  -4  -1    2.33    0.23
  -2  -4   1    1.73    0.18
  -2   4   1    2.18    0.22
   2   4  -1    2.50    0.24
  -2   4   1    1.80    0.18
  -2   4   1    2.00    0.15
   2   4  -1    2.39    0.21
  -2   4   1    2.01    0.21
   1  -4  -1   19.53    0.65
  -1  -4   1   19.26    0.72
  -1  -4   1   18.22    0.53
   1  -4  -1   16.65    0.70
   1  -4  -1   19.29    0.59
   1  -4  -1   19.46    0.73
  -1  -4   1   18.38    0.67
   1   4  -1   19.39    0.73
  -1   4   1   18.47    0.71
  -1   4   1   18.53    0.58
  -1   4   1   19.08    0.64
   1   4  -1   19.64    0.69
  -1   4   1   17.45    0.68
   0  -4  -1   16.38    0.63
   0  -4  -1   16.79    0.55
   0  -4   1   16.68    0.65
   0  -4  -1   16.53    0.65
   0  -4   1   15.93    0.63
   0  -4   1   16.58    0.65
   0  -4   1   15.76    0.54
   0  -4  -1   15.89    0.53
   0  -4   1   16.51    0.61
   0   4   1   14.93    0.62
   0   4  -1   15.91    0.65
   0   4   1   15.62    0.54
   0   4   1   16.29    0.52
   0   4  -1   16.30    0.61
   0   4  -1   16.54    0.54
  -1  -4  -1    5.09    0.26
   1  -4   1    5.25    0.34
  -1  -4  -1    5.72    0.24
   1  -4   1    6.26    0.33
  -1  -4  -1    4.85    0.29
  -1  -4  -1    5.07    0.33
   1  -4   1    5.69    0.31
   1  -4   1    5.31    0.34
   1  -4   1    5.35    0.30
  -1   4  -1    5.22    0.34
  -1   4  -1    5.25    0.28
   1   4   1    5.76    0.25
   1   4   1    5.51    0.27
   1   4   1    5.89    0.35
  -1   4  -1    5.63    0.32
   2  -4   1   46.96    1.36
  -2  -4  -1   47.00    1.42
  -2  -4  -1   45.04    1.45
   2  -4   1   47.10    1.42
   2  -4   1   47.30    1.43
  -2  -4  -1   46.44    1.33
   2  -4   1   38.70    1.33
  -2  -4  -1   45.82    1.21
  -2   4  -1   45.31    1.36
   2   4   1   47.53    1.31
  -2   4  -1   46.87    1.38
  -3  -4  -1   23.04    0.80
  -3  -4  -1   21.61    0.65
  -3  -4  -1   22.19    0.85
   3  -4   1   22.07    0.86
   3  -4   1   21.98    0.85
  -3  -4  -1   22.36    0.89
   3  -4   1   22.71    0.85
  -3  -4  -1   22.28    0.66
   3  -4   1   22.75    0.82
  -3   4  -1   22.60    0.87
  -3   4  -1   21.91    0.83
  -3   4  -1   22.47    0.83
   3   4   1   21.63    0.85
  -3   4  -1   22.70    0.87
   3   4   1   21.86    0.79
  -4  -4  -1   18.99    0.85
   4  -4   1   22.71    0.88
  -4  -4  -1   22.58    0.87
   4  -4   1   21.06    0.87
  -4  -4  -1   21.01    0.65
  -4  -4  -1   20.36    0.65
  -4  -4  -1   21.26    0.82
   4  -4   1   20.87    0.86
  -4   4  -1   20.44    0.82
  -4   4  -1   21.38    0.86
  -4   4  -1   20.93    0.85
  -4   4  -1   20.12    0.85
   4   4   1   22.34    0.84
   5  -4   1   13.44    0.69
  -5  -4  -1   13.06    0.52
   5  -4   1   14.08    0.69
  -5  -4  -1   14.16    0.51
  -5  -4  -1   13.31    0.51
  -5  -4  -1   13.52    0.67
  -5  -4  -1   13.02    0.64
   5  -4   1   14.31    0.68
  -5  -4  -1   13.19    0.68
  -5   4  -1   13.92    0.68
  -5   4  -1   13.14    0.67
  -5   4  -1   13.56    0.66
  -5   4  -1   13.50    0.67
   5   4   1   14.44    0.68
   6  -4   1    0.97    0.20
  -6  -4  -1    1.39    0.24
   6  -4   1    1.05    0.25
  -6  -4  -1    1.95    0.32
  -6  -4  -1    1.47    0.15
   6  -4   1    1.04    0.11
   6  -4   1    0.72    0.18
  -6  -4  -1    1.79    0.17
  -6  -4  -1    1.54    0.27
  -6   4  -1    1.69    0.27
  -6   4  -1    1.66    0.29
  -6   4  -1    1.29    0.22
   6   4   1    1.25    0.26
  -6   4  -1    2.01    0.30
  -6   4  -1    1.61    0.24
  -7  -4  -1    4.52    0.41
  -7  -4  -1    4.82    0.43
  -7  -4  -1    4.43    0.41
  -7  -4  -1    4.31    0.30
   7  -4   1    4.28    0.41
   7  -4   1    4.39    0.42
  -7  -4  -1    3.97    0.38
  -7  -4  -1    4.34    0.28
   7  -4   1    5.08    0.40
   7   4   1    4.17    0.39
  -7   4  -1    4.70    0.41
  -7   4  -1    4.49    0.41
  -7   4  -1    4.80    0.43
  -7   4  -1    5.06    0.44
  -7   4  -1    4.16    0.40
  -8  -4  -1    2.46    0.36
   8  -4   1    1.61    0.29
  -8  -4  -1    1.53    0.26
   8  -4   1    2.75    0.44
  -8  -4  -1    1.81    0.35
  -8  -4  -1    1.86    0.20
  -8  -4  -1    2.07    0.24
  -8  -4  -1    2.66    0.43
   8  -4   1    1.39    0.26
  -8   4  -1    1.28    0.26
  -8   4  -1    1.82    0.30
  -8   4  -1    2.17    0.34
  -8   4  -1    1.92    0.35
  -8   4  -1    1.19    0.27
   8   4   1    1.89    0.34
  -9  -4  -1    0.25    0.12
   9  -4   1    0.45    0.19
  -9  -4  -1    0.35    0.15
  -9  -4  -1    0.20    0.13
  -9  -4  -1    0.30    0.16
  -9  -4  -1    0.24    0.14
  -9   4  -1    0.33    0.16
  -9   4  -1    0.32    0.18
  -9   4  -1    0.07    0.17
  -9   4  -1    0.27    0.20
 -10  -4  -1    0.35    0.13
 -10  -4  -1    0.39    0.20
 -10  -4  -1    0.27    0.17
  10  -4   1    0.48    0.19
 -10  -4  -1    0.21    0.16
 -10   4  -1    0.16    0.18
 -10   4  -1    0.15    0.16
 -10   4  -1    0.28    0.20
 -11  -4  -1    0.81    0.29
  11  -4   1    0.40    0.21
 -11  -4  -1    0.65    0.19
 -11  -4  -1    0.76    0.25
 -11  -4  -1    0.60    0.25
 -11   4  -1    0.66    0.21
 -11   4  -1    0.57    0.25
 -11   4  -1    0.87    0.32
 -11  -5   1   -0.03    0.13
 -11  -5   1    0.14    0.18
 -11  -5   1   -0.15    0.12
  11  -5  -1    0.10    0.15
 -11  -5   1   -0.23    0.13
  11  -5  -1    0.24    0.20
  11   5  -1   -0.06    0.16
 -11   5   1   -0.04    0.19
 -11   5   1   -0.04    0.19
 -11   5   1   -0.33    0.16
  10  -5  -1    0.69    0.17
 -10  -5   1    0.64    0.17
 -10  -5   1   -0.04    0.11
  10  -5  -1    0.42    0.18
 -10  -5   1    0.23    0.12
 -10  -5   1    0.52    0.24
  10   5  -1    0.43    0.24
 -10   5   1    0.02    0.20
 -10   5   1    0.11    0.15
 -10   5   1    0.68    0.26
 -10   5   1    0.30    0.20
  -9  -5   1    1.20    0.34
  -9  -5   1    0.73    0.14
  -9  -5   1    0.54    0.21
   9  -5  -1    0.63    0.16
   9  -5  -1    0.57    0.21
  -9  -5   1    0.34    0.20
   9  -5  -1    0.47    0.19
  -9  -5   1    0.86    0.21
  -9   5   1    0.74    0.24
  -9   5   1    1.29    0.31
  -9   5   1    0.76    0.23
   9   5  -1    0.37    0.16
  -9   5   1    0.83    0.24
  -8  -5   1    1.85    0.35
  -8  -5   1    2.07    0.29
  -8  -5   1    1.91    0.33
   8  -5  -1    2.20    0.37
   8  -5  -1    2.33    0.37
   8  -5  -1    1.94    0.21
  -8  -5   1    1.72    0.30
  -8  -5   1    1.42    0.28
   8  -5  -1    2.10    0.35
  -8  -5   1    1.86    0.17
  -8   5   1    2.26    0.35
  -8   5   1    1.55    0.31
  -8   5   1    2.33    0.39
  -8   5   1    2.34    0.36
  -8   5   1    2.12    0.35
   8   5  -1    1.74    0.29
  -7  -5   1    8.01    0.48
  -7  -5   1    7.93    0.59
   7  -5  -1    8.03    0.56
   7  -5  -1    6.82    0.54
  -7  -5   1    7.43    0.54
   7  -5  -1    7.67    0.55
  -7  -5   1    8.14    0.57
  -7   5   1    8.28    0.53
  -7   5   1    7.76    0.56
  -7   5   1    8.04    0.58
  -7   5   1    8.59    0.59
   7   5  -1    8.73    0.57
  -7   5   1    8.92    0.55
  -6  -5   1    3.85    0.37
  -6  -5   1    4.19    0.38
   6  -5  -1    4.42    0.40
  -6  -5   1    4.03    0.33
   6  -5  -1    4.55    0.40
  -6  -5   1    4.33    0.41
   6  -5  -1    4.21    0.39
  -6   5   1    4.44    0.41
  -6   5   1    3.49    0.32
   6   5  -1    4.64    0.39
  -6   5   1    3.95    0.34
  -6   5   1    3.91    0.38
  -6   5   1    4.16    0.39
   5  -5  -1   16.27    0.77
  -5  -5   1   15.14    0.74
   5  -5  -1   15.67    0.78
  -5  -5   1   14.89    0.78
  -5  -5   1   15.15    0.75
   5  -5  -1   16.50    0.80
  -5  -5   1   15.71    0.68
  -5   5   1   16.05    0.68
  -5   5   1   15.35    0.77
   5   5  -1   16.92    0.77
  -5   5   1   16.28    0.77
  -5   5   1   15.53    0.76
  -5   5   1   16.74    0.69
   4  -5  -1   25.44    0.98
   4  -5  -1   25.42    1.01
   4  -5  -1   25.01    1.01
  -4  -5   1   23.38    0.99
  -4  -5   1   25.09    0.95
  -4  -5   1   24.22    0.96
  -4   5   1   24.11    0.97
   4   5  -1   24.55    1.00
  -4   5   1   25.21    0.95
  -4   5   1   24.78    0.98
  -4   5   1   19.29    0.80
   4   5  -1   25.32    0.96
   3  -5  -1   20.51    0.80
   3  -5  -1   20.71    0.85
  -3  -5   1   19.44    0.83
  -3  -5   1   19.66    0.87
  -3  -5   1   19.98    0.80
   3  -5  -1   19.76    0.84
  -3   5   1   19.45    0.83
   3   5  -1   19.20    0.83
  -3   5   1   21.48    0.81
   3   5  -1   20.48    0.80
  -3   5   1   20.74    0.72
  -2  -5   1   29.30    1.08
   2  -5  -1   27.37    1.07
  -2  -5   1   30.46    1.04
  -2  -5   1   30.38    1.12
   2  -5  -1   31.44    1.11
   2  -5  -1   30.89    0.93
   2  -5  -1   31.46    1.02
  -2   5   1   31.44    1.10
   2   5  -1   31.46    1.04
  -2   5   1   30.97    1.02
  -2   5   1   32.19    1.11
  -2   5   1   30.79    0.93
   2   5  -1   30.76    1.10
  -1  -5   1   20.11    0.72
   1  -5  -1   18.57    0.76
  -1  -5   1   18.88    0.77
   1  -5  -1   17.83    0.75
  -1  -5   1   18.39    0.76
   1  -5  -1   17.59    0.60
  -1  -5   1   17.82    0.54
   1  -5  -1   17.76    0.65
  -1  -5   1   14.67    0.69
   1   5  -1   17.54    0.69
   1   5  -1   18.05    0.54
  -1   5   1   18.06    0.76
  -1   5   1   19.21    0.61
  -1   5   1   17.89    0.65
   1   5  -1   19.19    0.77
   0  -5   1    4.36    0.24
   0  -5   1    3.87    0.30
   0  -5   1    4.28    0.33
   0  -5   1    4.47    0.33
   0  -5  -1    4.75    0.33
   0  -5  -1    4.82    0.26
   0  -5  -1    5.06    0.36
   0  -5  -1    5.05    0.26
   0   5  -1    4.91    0.25
   0   5  -1    5.57    0.37
   0   5  -1    5.14    0.32
   0   5   1    3.84    0.24
   0   5   1    4.34    0.23
   0   5   1    3.66    0.31
   1  -5   1    5.18    0.32
   1  -5   1    5.39    0.37
   1  -5   1    4.87    0.36
   1  -5   1    4.19    0.30
  -1  -5  -1    5.90    0.27
  -1  -5  -1    6.48    0.40
  -1  -5  -1    5.99    0.41
  -1  -5  -1    6.13    0.31
  -1  -5  -1    5.92    0.36
   1  -5   1    5.30    0.31
  -1   5  -1    6.04    0.32
   1   5   1    5.12    0.27
   1   5   1    5.20    0.25
  -1   5  -1    6.11    0.35
   1   5   1    5.26    0.37
  -1   5  -1    5.60    0.39
  -2  -5  -1    6.56    0.26
   2  -5   1    6.18    0.42
  -2  -5  -1    6.24    0.41
   2  -5   1    7.35    0.38
  -2  -5  -1    6.51    0.37
   2  -5   1    6.71    0.44
  -2  -5  -1    7.15    0.37
   2  -5   1    6.95    0.39
  -2  -5  -1    6.60    0.44
   2  -5   1    6.73    0.40
   2   5   1    6.19    0.42
  -2   5  -1    6.98    0.43
  -2   5  -1    7.33    0.40
  -2   5  -1    7.11    0.40
   2   5   1    6.61    0.35
   3  -5   1    3.15    0.30
  -3  -5  -1    3.05    0.16
   3  -5   1    2.66    0.29
   3  -5   1    3.09    0.26
  -3  -5  -1    3.32    0.30
   3  -5   1    2.38    0.25
  -3  -5  -1    2.97    0.16
  -3  -5  -1    3.32    0.26
  -3  -5  -1    2.63    0.30
  -3   5  -1    3.40    0.28
   3   5   1    2.77    0.29
   3   5   1    2.74    0.23
  -3   5  -1    3.26    0.30
  -3   5  -1    3.12    0.28
  -4  -5  -1    0.30    0.13
  -4  -5  -1    0.46    0.08
  -4  -5  -1    0.25    0.12
   4  -5   1    0.23    0.11
   4  -5   1    0.32    0.12
   4  -5   1    0.20    0.10
  -4  -5  -1    0.40    0.15
  -4  -5  -1    0.33    0.07
   4   5   1    0.19    0.12
  -4   5  -1    0.51    0.15
  -4   5  -1    0.42    0.15
  -4   5  -1    0.49    0.16
  -4   5  -1    0.30    0.14
   4   5   1    0.09    0.07
  -5  -5  -1    3.32    0.34
  -5  -5  -1    2.92    0.29
  -5  -5  -1    2.61    0.17
   5  -5   1    2.70    0.30
  -5  -5  -1    2.98    0.32
   5  -5   1    2.12    0.32
   5  -5   1    2.59    0.30
  -5  -5  -1    3.06    0.25
  -5  -5  -1    2.98    0.18
  -5   5  -1    2.84    0.29
  -5   5  -1    2.87    0.32
   5   5   1    2.40    0.26
  -5   5  -1    2.67    0.30
  -5   5  -1    2.99    0.31
  -6  -5  -1    3.99    0.24
  -6  -5  -1    4.28    0.39
   6  -5   1    4.64    0.43
   6  -5   1    5.12    0.44
  -6  -5  -1    4.30    0.41
  -6  -5  -1    4.20    0.24
   6  -5   1    5.06    0.42
  -6  -5  -1    3.44    0.37
  -6  -5  -1    4.17    0.29
   6   5   1    4.85    0.41
  -6   5  -1    3.95    0.39
  -6   5  -1    3.99    0.39
  -6   5  -1    4.51    0.41
  -6   5  -1    4.27    0.39
  -7  -5  -1    8.40    0.58
   7  -5   1    9.04    0.59
  -7  -5  -1    8.45    0.61
   7  -5   1    8.20    0.60
  -7  -5  -1    8.01    0.39
  -7  -5  -1    8.09    0.43
  -7  -5  -1    8.13    0.57
   7  -5   1    7.17    0.55
  -7  -5  -1    8.40    0.40
  -7   5  -1    8.60    0.60
  -7   5  -1    7.49    0.55
   7   5   1    8.30    0.56
  -7   5  -1    8.71    0.61
  -7   5  -1    7.47    0.55
  -8  -5  -1    4.18    0.46
  -8  -5  -1    4.42    0.47
   8  -5   1    4.08    0.44
  -8  -5  -1    4.21    0.30
   8  -5   1    4.54    0.47
  -8  -5  -1    4.15    0.29
  -8  -5  -1    4.03    0.43
   8  -5   1    5.09    0.45
  -8  -5  -1    4.25    0.42
  -8  -5  -1    4.35    0.31
  -8   5  -1    4.10    0.45
  -8   5  -1    4.58    0.46
   8   5   1    4.84    0.47
  -8   5  -1    4.76    0.47
  -8   5  -1    4.44    0.46
  -8   5  -1    4.44    0.46
  -9  -5  -1    7.46    0.44
  -9  -5  -1    7.70    0.43
   9  -5   1    8.00    0.64
  -9  -5  -1    7.99    0.65
  -9  -5  -1    7.10    0.59
  -9  -5  -1    7.08    0.43
  -9   5  -1    7.31    0.62
  -9   5  -1    8.60    0.65
  -9   5  -1    7.63    0.62
  -9   5  -1    7.89    0.62
  10  -5   1    1.86    0.37
 -10  -5  -1    2.67    0.44
 -10  -5  -1    1.92    0.39
 -10  -5  -1    2.72    0.33
 -10  -5  -1    2.29    0.27
 -10   5  -1    2.32    0.44
 -10   5  -1    2.64    0.47
 -10   5  -1    2.60    0.44
 -10  -6   1    4.34    0.40
  10  -6  -1    4.12    0.48
 -10  -6   1    3.77    0.57
 -10  -6   1    4.42    0.64
  10  -6  -1    4.79    0.33
 -10   6   1    3.85    0.57
 -10   6   1    3.57    0.52
 -10   6   1    4.94    0.49
  10   6  -1    4.56    0.54
  -9  -6   1    5.73    0.44
   9  -6  -1    5.68    0.37
  -9  -6   1    6.84    0.62
  -9  -6   1    6.52    0.58
   9  -6  -1    5.65    0.55
  -9   6   1    5.96    0.53
  -9   6   1    5.60    0.50
  -9   6   1    5.81    0.58
  -9   6   1    5.95    0.57
   9   6  -1    6.79    0.59
   8  -6  -1    6.06    0.51
  -8  -6   1    6.30    0.54
  -8  -6   1    5.60    0.42
   8  -6  -1    5.48    0.52
  -8  -6   1    5.55    0.54
  -8   6   1    6.37    0.51
  -8   6   1    6.32    0.54
  -8   6   1    5.93    0.48
   8   6  -1    6.33    0.53
  -8   6   1    6.60    0.55
  -7  -6   1    1.25    0.29
   7  -6  -1    1.67    0.32
  -7  -6   1    1.59    0.32
   7  -6  -1    1.26    0.27
  -7  -6   1    1.75    0.28
  -7  -6   1    1.33    0.27
   7  -6  -1    1.77    0.32
  -7   6   1    1.78    0.28
  -7   6   1    1.69    0.31
   7   6  -1    1.64    0.32
  -7   6   1    1.76    0.33
  -7   6   1    1.12    0.26
  -7   6   1    1.78    0.29
  -6  -6   1    7.43    0.55
  -6  -6   1    7.71    0.48
   6  -6  -1    6.64    0.52
   6  -6  -1    7.61    0.56
  -6  -6   1    7.20    0.57
   6  -6  -1    7.33    0.54
  -6  -6   1    8.03    0.54
  -6   6   1    6.51    0.53
  -6   6   1    7.40    0.55
  -6   6   1    6.89    0.45
  -6   6   1    7.45    0.54
  -6   6   1    7.63    0.48
   6   6  -1    6.79    0.50
  -5  -6   1    1.30    0.29
  -5  -6   1    1.32    0.27
   5  -6  -1    1.21    0.26
   5  -6  -1    1.35    0.26
  -5  -6   1    1.42    0.28
   5  -6  -1    0.96    0.23
  -5   6   1    1.27    0.22
  -5   6   1    1.43    0.29
   5   6  -1    1.56    0.29
   5   6  -1    1.25    0.24
  -5   6   1    1.35    0.29
  -5   6   1    1.31    0.26
  -5   6   1    1.31    0.22
  -4  -6   1    0.77    0.17
  -4  -6   1    0.94    0.23
   4  -6  -1    0.92    0.19
  -4  -6   1    1.34    0.23
   4  -6  -1    1.59    0.31
   4  -6  -1    1.22    0.25
   4   6  -1    1.24    0.25
  -4   6   1    0.65    0.18
  -4   6   1    0.72    0.18
  -4   6   1    1.08    0.19
   4   6  -1    1.05    0.28
  -4   6   1    1.09    0.23
  -3  -6   1    0.27    0.12
  -3  -6   1    0.05    0.09
  -3  -6   1    0.22    0.14
   3  -6  -1    0.13    0.09
   3  -6  -1    0.14    0.09
   3  -6  -1    0.16    0.13
   3   6  -1    0.16    0.10
   3   6  -1    0.21    0.09
  -3   6   1    0.17    0.09
  -3   6   1    0.22    0.14
  -3   6   1    0.35    0.14
  -3   6   1    0.22    0.10
   2  -6  -1    7.59    0.43
   2  -6  -1    7.30    0.50
   2  -6  -1    7.94    0.51
  -2  -6   1    6.90    0.47
  -2  -6   1    7.03    0.49
  -2  -6   1    7.38    0.43
   2  -6  -1    7.50    0.36
   2   6  -1    7.48    0.49
  -2   6   1    8.14    0.51
  -2   6   1    7.35    0.42
  -2   6   1    7.61    0.37
   2   6  -1    7.70    0.44
  -1  -6   1    2.53    0.24
  -1  -6   1    2.12    0.16
   1  -6  -1    2.99    0.21
  -1  -6   1    2.49    0.28
   1  -6  -1    2.87    0.24
   1  -6  -1    3.00    0.31
  -1  -6   1    2.50    0.28
  -1  -6   1    2.31    0.28
   1  -6  -1    2.61    0.29
  -1   6   1    2.81    0.20
  -1   6   1    2.66    0.22
   1   6  -1    2.91    0.31
   1   6  -1    3.10    0.18
   1   6  -1    3.29    0.27
   0  -6  -1    9.24    0.41
   0  -6   1    9.39    0.54
   0  -6  -1    8.98    0.55
   0  -6   1    9.18    0.48
   0  -6  -1    9.03    0.53
   0  -6   1    9.99    0.56
   0  -6  -1    9.40    0.41
   0  -6   1    9.25    0.53
   0  -6   1    8.73    0.40
   0  -6  -1    9.73    0.55
   0   6   1    8.76    0.40
   0   6  -1    9.89    0.49
   0   6   1    9.41    0.54
   0   6  -1    9.33    0.55
   0   6   1    9.08    0.41
   0   6  -1    9.16    0.40
  -1  -6  -1   30.75    1.16
   1  -6   1   31.44    1.17
   1  -6   1   31.21    1.17
   1  -6   1   30.00    1.01
  -1  -6  -1   28.50    1.10
  -1  -6  -1   30.20    0.96
  -1  -6  -1   29.45    1.07
   1  -6   1   30.56    1.09
  -1  -6  -1   28.61    0.87
   1  -6   1   31.11    1.06
  -1   6  -1   30.09    1.03
   1   6   1   31.02    0.92
  -1   6  -1   29.70    1.13
  -1   6  -1   29.60    0.97
   1   6   1   29.88    0.97
   1   6   1   30.74    1.16
  -2  -6  -1   16.26    0.65
  -2  -6  -1   16.50    0.71
   2  -6   1   16.93    0.72
  -2  -6  -1   16.69    0.52
   2  -6   1   17.39    0.80
   2  -6   1   17.68    0.72
  -2  -6  -1   16.69    0.81
   2  -6   1   17.83    0.71
  -2  -6  -1   16.70    0.79
   2  -6   1   15.99    0.79
  -2   6  -1   16.69    0.79
  -2   6  -1   16.84    0.69
   2   6   1   16.44    0.79
  -2   6  -1   16.91    0.71
  -3  -6  -1   21.69    0.84
   3  -6   1   22.67    0.92
  -3  -6  -1   20.05    0.95
   3  -6   1   20.94    0.86
  -3  -6  -1   21.34    0.94
   3  -6   1   21.63    0.95
   3  -6   1   22.09    0.97
   3  -6   1   23.57    0.84
  -3  -6  -1   21.77    0.83
   3   6   1   23.79    0.99
   3   6   1   21.94    0.84
  -3   6  -1   22.59    0.87
  -3   6  -1   21.23    0.87
  -3   6  -1   21.50    0.94
   4  -6   1    9.93    0.62
  -4  -6  -1   11.05    0.67
  -4  -6  -1   11.35    0.64
   4  -6   1   10.41    0.60
   4  -6   1   10.14    0.48
  -4  -6  -1   11.64    0.59
  -4   6  -1   10.49    0.60
   4   6   1   10.60    0.55
  -4   6  -1   10.72    0.59
  -4   6  -1    9.56    0.61
   5  -6   1    5.88    0.48
  -5  -6  -1    5.59    0.47
   5  -6   1    6.22    0.48
  -5  -6  -1    5.35    0.48
   5  -6   1    5.94    0.33
  -5  -6  -1    5.69    0.43
   5  -6   1    5.83    0.48
  -5   6  -1    5.66    0.47
  -5   6  -1    5.58    0.47
  -5   6  -1    6.42    0.46
  -5   6  -1    6.08    0.47
   5   6   1    6.22    0.44
   6  -6   1   12.96    0.75
  -6  -6  -1   13.81    0.62
   6  -6   1   12.34    0.75
  -6  -6  -1   12.86    0.75
  -6  -6  -1   13.88    0.81
   6  -6   1   14.03    0.78
  -6  -6  -1   13.23    0.72
  -6   6  -1   13.85    0.80
   6   6   1   13.41    0.72
  -6   6  -1   13.50    0.77
  -6   6  -1   12.13    0.74
  -6   6  -1   13.39    0.73
  -7  -6  -1    1.71    0.32
  -7  -6  -1    1.32    0.22
  -7  -6  -1    1.77    0.33
   7  -6   1    1.18    0.29
   7  -6   1    1.68    0.31
   7  -6   1    1.08    0.25
  -7  -6  -1    2.19    0.36
  -7   6  -1    1.39    0.30
   7   6   1    1.43    0.32
  -7   6  -1    1.66    0.32
  -7   6  -1    1.70    0.32
  -7   6  -1    1.68    0.35
  -7   6  -1    1.52    0.33
  -8  -6  -1    0.49    0.22
  -8  -6  -1    0.91    0.14
  -8  -6  -1    0.78    0.25
   8  -6   1    0.92    0.25
  -8  -6  -1    1.14    0.16
  -8  -6  -1    0.46    0.18
  -8  -6  -1    0.74    0.15
   8  -6   1    0.90    0.26
  -8   6  -1    0.37    0.21
  -8   6  -1    0.65    0.23
   8   6   1    1.47    0.31
  -8   6  -1    0.85    0.27
  -8   6  -1    0.17    0.16
  -9  -6  -1    0.12    0.16
  -9  -6  -1    0.73    0.18
  -9  -6  -1    0.54    0.13
  -9  -6  -1    0.19    0.12
  -9  -6  -1    0.29    0.19
   9  -6   1    0.50    0.23
  -9   6  -1    0.44    0.22
  -9   6  -1    0.22    0.19
  -9   6  -1    0.64    0.24
   9  -7  -1    0.57    0.18
  -9  -7   1    0.14    0.23
  -9  -7   1    0.50    0.17
   9  -7  -1    0.37    0.18
  -9  -7   1    0.54    0.23
  -9   7   1    0.73    0.29
  -9   7   1   -0.26    0.18
  -9   7   1    0.55    0.25
   9   7  -1    0.98    0.25
  -9   7   1    0.33    0.20
  -8  -7   1    2.15    0.41
  -8  -7   1    2.99    0.48
   8  -7  -1    2.39    0.41
   8  -7  -1    2.12    0.36
  -8  -7   1    3.30    0.36
  -8   7   1    2.46    0.43
   8   7  -1    2.82    0.41
  -8   7   1    2.98    0.36
  -8   7   1    2.64    0.39
  -8   7   1    2.51    0.39
  -7  -7   1    2.70    0.46
   7  -7  -1    2.71    0.42
  -7  -7   1    2.59    0.40
   7  -7  -1    2.79    0.42
  -7  -7   1    3.09    0.32
  -7   7   1    2.73    0.33
  -7   7   1    3.14    0.35
  -7   7   1    2.40    0.37
  -7   7   1    2.66    0.43
  -7   7   1    2.59    0.41
   7   7  -1    2.47    0.38
   6  -7  -1    9.16    0.65
   6  -7  -1    8.92    0.64
  -6  -7   1    9.29    0.69
  -6  -7   1   11.44    0.68
  -6  -7   1   10.10    0.68
   6  -7  -1    9.66    0.64
  -6  -7   1    9.49    0.57
  -6   7   1   10.30    0.69
  -6   7   1    8.42    0.62
  -6   7   1    9.83    0.57
   6   7  -1    9.57    0.61
  -6   7   1   11.14    0.71
  -6   7   1   10.15    0.56
  -5  -7   1   10.45    0.68
   5  -7  -1   11.16    0.66
   5  -7  -1   11.05    0.70
  -5  -7   1   10.49    0.71
   5  -7  -1    9.91    0.65
  -5  -7   1   10.86    0.64
  -5   7   1    9.73    0.53
  -5   7   1   10.70    0.69
  -5   7   1   10.78    0.68
  -5   7   1   10.38    0.65
  -5   7   1   10.48    0.55
   5   7  -1   10.22    0.69
   5   7  -1   10.47    0.62
   4  -7  -1    8.48    0.60
   4  -7  -1    8.17    0.53
  -4  -7   1    6.43    0.54
   4  -7  -1    7.87    0.57
  -4  -7   1    7.64    0.55
  -4  -7   1    8.33    0.52
   4   7  -1    8.46    0.52
  -4   7   1    7.12    0.54
   4   7  -1    8.80    0.60
  -4   7   1    7.71    0.57
  -4   7   1    7.20    0.50
  -4   7   1    8.11    0.44
   3  -7  -1   19.09    0.92
  -3  -7   1   19.57    0.84
  -3  -7   1   21.33    0.95
   3  -7  -1   19.74    0.84
  -3  -7   1   20.55    0.97
   3  -7  -1   18.55    0.93
  -3  -7   1   18.28    0.85
  -3   7   1   15.86    0.68
  -3   7   1   18.54    0.90
  -3   7   1   20.50    0.84
   3   7  -1   20.18    0.84
   3   7  -1   20.25    0.94
  -2  -7   1   13.80    0.71
   2  -7  -1   13.50    0.64
   2  -7  -1   14.39    0.77
   2  -7  -1   14.16    0.57
  -2  -7   1   13.04    0.73
   2  -7  -1   14.66    0.77
  -2  -7   1   13.70    0.74
  -2  -7   1   13.83    0.66
   2   7  -1   14.08    0.66
  -2   7   1   14.19    0.56
  -2   7   1   13.85    0.64
   2   7  -1   14.85    0.77
  -2   7   1   14.05    0.75
  -1  -7   1    7.97    0.47
  -1  -7   1    7.40    0.52
   1  -7  -1    7.24    0.53
   1  -7  -1    7.86    0.39
  -1  -7   1    7.55    0.53
   1  -7  -1    8.36    0.54
  -1  -7   1    7.80    0.32
   1  -7  -1    8.69    0.45
   1  -7  -1    8.45    0.55
  -1  -7   1    8.21    0.54
  -1   7   1    7.57    0.42
   1   7  -1    7.90    0.45
  -1   7   1    8.11    0.39
   1   7  -1    7.35    0.52
  -1   7   1    7.89    0.54
   1   7  -1    7.66    0.32
   0  -7   1   11.53    0.63
   0  -7   1   11.31    0.57
   0  -7  -1   11.38    0.49
   0  -7   1   10.78    0.65
   0  -7  -1   10.49    0.62
   0  -7  -1   11.27    0.65
   0  -7   1   11.54    0.48
   0  -7  -1   11.58    0.49
   0  -7  -1   11.25    0.65
   0  -7   1   11.34    0.65
   0   7  -1   11.77    0.57
   0   7   1   11.50    0.48
   0   7  -1   11.40    0.65
   0   7   1   11.08    0.65
   0   7   1   11.92    0.50
   0   7  -1   10.95    0.46
  -1  -7  -1    2.23    0.18
  -1  -7  -1    2.31    0.36
  -1  -7  -1    2.21    0.21
   1  -7   1    2.30    0.35
  -1  -7  -1    2.15    0.36
   1  -7   1    2.50    0.24
   1  -7   1    2.65    0.37
   1  -7   1    2.23    0.35
  -1  -7  -1    1.97    0.30
   1  -7   1    2.32    0.24
   1   7   1    2.22    0.18
  -1   7  -1    2.78    0.43
  -1   7  -1    1.97    0.20
  -1   7  -1    2.23    0.24
   1   7   1    2.32    0.37
   1   7   1    2.24    0.21
   2  -7   1    1.58    0.30
  -2  -7  -1    1.49    0.26
   2  -7   1    1.23    0.25
   2  -7   1    1.21    0.23
  -2  -7  -1    1.72    0.20
   2  -7   1    1.44    0.24
  -2  -7  -1    1.49    0.27
  -2  -7  -1    1.06    0.22
   2  -7   1    1.48    0.26
   2   7   1    1.27    0.25
   2   7   1    1.42    0.20
  -2   7  -1    1.44    0.24
  -2   7  -1    1.10    0.22
  -2   7  -1    1.65    0.25
   3  -7   1    1.81    0.26
   3  -7   1    1.55    0.31
   3  -7   1    2.01    0.24
  -3  -7  -1    2.18    0.24
  -3  -7  -1    2.65    0.35
  -3  -7  -1    3.24    0.46
   3  -7   1    1.56    0.29
   3  -7   1    2.08    0.24
  -3  -7  -1    2.05    0.31
   3   7   1    1.72    0.33
  -3   7  -1    1.76    0.28
   3   7   1    2.22    0.23
  -3   7  -1    2.28    0.36
  -3   7  -1    2.12    0.26
   4  -7   1    2.98    0.27
  -4  -7  -1    3.23    0.32
   4  -7   1    2.67    0.30
   4  -7   1    2.15    0.31
  -4  -7  -1    2.40    0.36
  -4  -7  -1    3.36    0.40
  -4  -7  -1    3.56    0.32
   4  -7   1    2.52    0.38
   4   7   1    1.94    0.32
  -4   7  -1    3.51    0.33
  -4   7  -1    3.68    0.37
  -4   7  -1    2.90    0.32
   4   7   1    2.92    0.28
  -5  -7  -1    2.50    0.35
  -5  -7  -1    1.49    0.28
   5  -7   1    2.10    0.22
  -5  -7  -1    2.26    0.27
   5  -7   1    1.63    0.29
  -5  -7  -1    1.65    0.28
   5  -7   1    2.06    0.36
   5  -7   1    2.20    0.38
   5   7   1    2.38    0.29
  -5   7  -1    2.17    0.40
  -5   7  -1    2.10    0.32
  -5   7  -1    2.06    0.31
   5   7   1    1.88    0.31
  -6  -7  -1    4.50    0.42
   6  -7   1    4.71    0.45
  -6  -7  -1    5.00    0.58
   6  -7   1    4.65    0.50
  -6  -7  -1    4.49    0.35
   6  -7   1    4.19    0.29
   6  -7   1    4.93    0.49
  -6  -7  -1    3.98    0.45
  -6   7  -1    4.07    0.44
  -6   7  -1    4.79    0.41
   6   7   1    5.11    0.43
  -6   7  -1    4.60    0.47
   7  -7   1    4.16    0.47
  -7  -7  -1    4.29    0.50
  -7  -7  -1    4.34    0.44
   7  -7   1    3.93    0.45
  -7  -7  -1    3.77    0.35
  -7   7  -1    4.71    0.46
   7   7   1    3.73    0.40
  -7   7  -1    4.89    0.50
  -7   7  -1    3.60    0.39
  -7   7  -1    3.70    0.54
  -8  -7  -1    5.44    0.40
  -8  -7  -1    5.22    0.82
   8  -7   1    5.01    0.53
  -8  -7  -1    5.14    0.57
  -8   7  -1    5.76    0.52
  -8   7  -1    5.38    0.57
  -8   7  -1    5.23    0.52
  -8   7  -1    5.03    0.54
   8   7   1    5.10    0.49
  -9  -7  -1    4.15    0.35
  -9  -7  -1    3.13    0.46
  -9  -7  -1    3.20    0.50
   9  -7   1    4.30    0.51
  -9   7  -1    3.62    0.52
  -9   7  -1    4.19    0.48
  -9   7  -1    3.15    0.50
  -8  -8   1    4.10    0.65
   8  -8  -1    2.84    0.51
  -8  -8   1    2.85    0.39
   8   8  -1    3.07    0.45
  -8   8   1    3.48    0.41
  -8   8   1    2.92    0.42
  -8   8   1    2.83    0.48
  -8   8   1    2.32    0.38
  -7  -8   1    4.74    0.55
   7  -8  -1    4.10    0.57
   7  -8  -1    4.21    0.45
  -7  -8   1    4.81    0.52
  -7  -8   1    5.78    0.46
  -7   8   1    5.35    0.45
  -7   8   1    3.92    0.54
   7   8  -1    5.06    0.48
  -7   8   1    5.24    0.52
  -7   8   1    4.63    0.42
  -6  -8   1    1.51    0.33
  -6  -8   1    1.61    0.28
   6  -8  -1    1.18    0.31
   6  -8  -1    0.91    0.24
  -6  -8   1    1.30    0.28
  -6   8   1    1.01    0.21
  -6   8   1    1.80    0.34
  -6   8   1    1.28    0.29
   6   8  -1    1.26    0.24
  -6   8   1    1.76    0.30
   5  -8  -1    0.50    0.21
  -5  -8   1    0.70    0.21
  -5  -8   1    0.86    0.26
   5  -8  -1    0.68    0.21
  -5   8   1    0.61    0.21
   5   8  -1    0.82    0.25
  -5   8   1    0.78    0.20
  -5   8   1    0.57    0.22
   5   8  -1    1.04    0.25
  -5   8   1    0.39    0.16
   4  -8  -1    0.55    0.17
   4  -8  -1    0.51    0.20
  -4  -8   1    0.50    0.21
   4  -8  -1    0.28    0.19
  -4  -8   1    0.59    0.23
  -4  -8   1    0.37    0.18
  -4  -8   1    0.94    0.23
   4   8  -1    0.37    0.16
  -4   8   1    0.34    0.14
   4   8  -1    0.69    0.19
  -4   8   1    0.82    0.26
  -4   8   1    0.73    0.18
  -3  -8   1    0.08    0.15
   3  -8  -1    0.68    0.22
   3  -8  -1    0.31    0.16
  -3  -8   1    0.17    0.15
   3  -8  -1    0.22    0.16
  -3  -8   1    0.52    0.16
  -3  -8   1    0.58    0.21
   3  -8  -1    0.62    0.24
  -3   8   1    0.14    0.12
  -3   8   1    0.33    0.12
   3   8  -1    0.61    0.19
   3   8  -1    0.37    0.14
  -3   8   1    0.20    0.15
   2  -8  -1    2.23    0.25
   2  -8  -1    1.66    0.22
  -2  -8   1    2.21    0.36
  -2  -8   1    1.45    0.32
   2  -8  -1    1.06    0.24
   2  -8  -1    1.70    0.30
   2  -8  -1    1.47    0.30
  -2  -8   1    1.35    0.30
  -2   8   1    1.25    0.18
   2   8  -1    1.56    0.26
   2   8  -1    0.95    0.21
  -2   8   1    1.59    0.27
  -2   8   1    1.57    0.31
   1  -8  -1    6.56    0.53
  -1  -8   1    5.67    0.49
   1  -8  -1    6.65    0.52
  -1  -8   1    6.51    0.45
  -1  -8   1    7.36    0.54
   1  -8  -1    6.95    0.37
   1  -8  -1    6.78    0.40
  -1  -8   1    7.75    0.55
   1  -8  -1    6.50    0.53
  -1   8   1    6.85    0.41
   1   8  -1    6.61    0.44
  -1   8   1    6.54    0.53
  -1   8   1    6.59    0.36
   1   8  -1    6.38    0.53
   0  -8  -1    8.06    0.58
   0  -8   1    6.11    0.42
   0  -8  -1    7.92    0.40
   0  -8   1    6.91    0.54
   0  -8   1    7.58    0.56
   0  -8   1    6.11    0.35
   0  -8  -1    7.41    0.41
   0  -8  -1    7.76    0.57
   0  -8  -1    7.01    0.54
   0  -8   1    7.90    0.55
   0   8   1    6.22    0.36
   0   8   1    8.20    0.41
   0   8  -1    8.03    0.39
   0   8   1    7.46    0.56
   0   8  -1    8.32    0.59
   0   8  -1    7.41    0.47
  -1  -8  -1    7.98    0.43
   1  -8   1    6.87    0.45
  -1  -8  -1    8.08    0.36
   1  -8   1    7.36    0.58
   1  -8   1    7.98    0.44
  -1  -8  -1    7.68    0.58
  -1  -8  -1    6.71    0.53
   1  -8   1    7.64    0.58
  -1  -8  -1    8.03    0.56
   1  -8   1    7.48    0.53
   1   8   1    7.68    0.58
   1   8   1    7.88    0.41
  -1   8  -1    7.75    0.48
  -1   8  -1    8.05    0.44
  -1   8  -1    8.02    0.58
   1   8   1    8.09    0.36
  -2  -8  -1    8.78    0.49
   2  -8   1    9.80    0.58
   2  -8   1    9.84    0.55
  -2  -8  -1    8.28    0.60
   2  -8   1    9.49    0.54
   2  -8   1    9.95    0.66
  -2  -8  -1   10.03    0.69
  -2  -8  -1    9.84    0.61
   2  -8   1    9.93    0.66
  -2   8  -1    9.37    0.54
  -2   8  -1    9.19    0.63
   2   8   1   11.33    0.70
   2   8   1    9.45    0.50
  -2   8  -1    9.23    0.52
  -3  -8  -1    8.37    0.64
  -3  -8  -1    7.52    0.53
   3  -8   1    8.19    0.51
   3  -8   1    8.06    0.63
   3  -8   1    7.81    0.51
  -3  -8  -1    7.20    0.47
   3  -8   1    9.22    0.55
  -3  -8  -1    7.88    0.59
   3  -8   1    9.56    0.66
  -3   8  -1    8.95    0.54
   3   8   1    7.90    0.48
   3   8   1    9.08    0.64
  -3   8  -1    8.52    0.52
  -3   8  -1    9.55    0.64
   4  -8   1    8.93    0.65
  -4  -8  -1    8.75    0.56
   4  -8   1    9.62    0.61
   4  -8   1    8.65    0.50
  -4  -8  -1    9.28    0.67
  -4  -8  -1    9.04    0.55
   4  -8   1    9.93    0.70
  -4   8  -1    9.01    0.59
   4   8   1    9.94    0.68
  -4   8  -1    9.51    0.57
   4   8   1    8.37    0.52
  -4   8  -1    8.39    0.62
   5  -8   1    8.30    0.46
  -5  -8  -1    7.38    0.51
  -5  -8  -1    7.55    0.54
  -5  -8  -1    8.41    0.66
   5  -8   1    7.84    0.63
   5  -8   1    8.18    0.59
   5   8   1    7.87    0.62
  -5   8  -1    7.62    0.54
  -5   8  -1    7.63    0.58
   5   8   1    6.48    0.49
  -5   8  -1    7.31    0.59
   6  -8   1    2.25    0.43
  -6  -8  -1    2.07    0.36
   6  -8   1    2.80    0.43
  -6  -8  -1    2.00    0.43
  -6  -8  -1    3.11    0.32
   6  -8   1    2.34    0.24
  -6  -8  -1    2.51    0.35
  -6   8  -1    2.77    0.52
   6   8   1    2.51    0.36
  -6   8  -1    2.74    0.33
  -6   8  -1    2.79    0.48
  -7  -8  -1    2.48    0.49
  -7  -8  -1    2.89    0.37
  -7  -8  -1    2.94    0.45
  -7  -8  -1    2.97    0.37
   7  -8   1    2.68    0.44
   7   8   1    2.92    0.40
  -7   8  -1    2.89    0.41
  -7   8  -1    2.60    0.46
  -7   8  -1    2.82    0.42
  -6  -9   1    2.77    0.41
   6  -9  -1    2.74    0.46
   6  -9  -1    3.23    0.37
   6  -9  -1    2.19    0.43
  -6  -9   1    3.10    0.43
  -6  -9   1    2.52    0.49
  -6   9   1    3.03    0.36
  -6   9   1    2.40    0.39
  -6   9   1    2.11    0.33
   6   9  -1    2.71    0.41
   5  -9  -1    4.86    0.47
   5  -9  -1    4.89    0.55
  -5  -9   1    4.43    0.46
  -5  -9   1    3.10    0.48
  -5  -9   1    4.05    0.43
   5  -9  -1    5.03    0.47
   5   9  -1    4.47    0.43
   5   9  -1    5.54    0.56
  -5   9   1    5.07    0.51
  -5   9   1    5.13    0.38
  -5   9   1    4.28    0.46
  -5   9   1    3.88    0.35
  -4  -9   1   10.02    0.74
  -4  -9   1   10.03    0.63
  -4  -9   1    9.55    0.65
   4  -9  -1    9.98    0.77
   4  -9  -1   11.40    0.68
   4  -9  -1   10.39    0.65
   4   9  -1   11.22    0.77
  -4   9   1   10.20    0.52
   4   9  -1   11.10    0.64
  -4   9   1   11.45    0.76
  -4   9   1   10.55    0.66
   3  -9  -1    4.05    0.38
   3  -9  -1    3.84    0.41
  -3  -9   1    4.12    0.46
  -3  -9   1    3.36    0.37
  -3  -9   1    3.82    0.42
   3  -9  -1    3.70    0.51
  -3   9   1    4.09    0.29
   3   9  -1    3.62    0.54
  -3   9   1    3.96    0.44
  -3   9   1    3.51    0.37
   3   9  -1    4.08    0.36
  -2  -9   1    4.10    0.40
   2  -9  -1    4.82    0.46
  -2  -9   1    4.84    0.46
   2  -9  -1    4.25    0.47
  -2  -9   1    4.70    0.49
   2  -9  -1    4.38    0.37
   2   9  -1    4.22    0.37
  -2   9   1    4.35    0.47
   2   9  -1    4.10    0.46
  -2   9   1    4.79    0.31
  -2   9   1    4.88    0.39
   1  -9  -1    7.53    0.61
  -1  -9   1    7.39    0.59
  -1  -9   1    7.36    0.58
  -1  -9   1    7.30    0.49
   1  -9  -1    7.33    0.44
   1  -9  -1    7.41    0.57
   1  -9  -1    7.52    0.40
  -1   9   1    6.84    0.43
  -1   9   1    7.69    0.60
   1   9  -1    6.26    0.55
   1   9  -1    6.51    0.45
  -1   9   1    7.45    0.40
   0  -9   1    3.07    0.45
   0  -9  -1    3.54    0.41
   0  -9  -1    3.51    0.41
   0  -9   1    3.48    0.40
   0  -9   1    3.35    0.25
   0  -9  -1    3.10    0.27
   0  -9  -1    3.31    0.27
   0  -9   1    3.14    0.32
   0   9   1    2.84    0.46
   0   9   1    2.67    0.25
   0   9  -1    3.07    0.24
   0   9  -1    3.73    0.54
   0   9   1    3.06    0.26
   0   9  -1    3.48    0.32
   1  -9   1    3.17    0.36
   1  -9   1    2.96    0.48
  -1  -9  -1    2.76    0.43
  -1  -9  -1    3.10    0.42
   1  -9   1    3.59    0.33
   1  -9   1    3.03    0.28
  -1  -9  -1    3.43    0.30
  -1   9  -1    2.96    0.29
   1   9   1    3.22    0.22
  -1   9  -1    3.06    0.43
   1   9   1    2.78    0.44
   1   9   1    3.39    0.28
  -1   9  -1    3.11    0.31
  -2  -9  -1    1.30    0.23
   2  -9   1    1.09    0.32
   2  -9   1    0.82    0.21
   2  -9   1    0.91    0.21
   2  -9   1    0.55    0.17
  -2  -9  -1    0.52    0.23
  -2  -9  -1    0.93    0.24
  -2   9  -1    0.77    0.18
   2   9   1    0.90    0.18
  -2   9  -1    1.06    0.21
  -2   9  -1    0.60    0.19
   2   9   1    0.77    0.22
  -3  -9  -1    0.75    0.27
   3  -9   1    0.91    0.20
   3  -9   1    1.03    0.22
  -3  -9  -1    1.20    0.24
   3  -9   1    0.67    0.25
  -3  -9  -1    0.57    0.24
  -3   9  -1    1.14    0.26
   3   9   1    1.04    0.25
  -3   9  -1    0.68    0.24
   3   9   1    1.03    0.20
  -3   9  -1    1.35    0.26
  -4  -9  -1   -0.06    0.13
   4  -9   1   -0.01    0.14
  -4  -9  -1   -0.04    0.16
  -4  -9  -1   -0.07    0.14
   4  -9   1    0.25    0.14
   4  -9   1    0.08    0.18
  -4   9  -1   -0.08    0.10
   4   9   1    0.18    0.15
  -4   9  -1   -0.05    0.15
   4   9   1   -0.07    0.12
  -4   9  -1    0.26    0.16
  -5  -9  -1    2.23    0.33
  -5  -9  -1    2.26    0.35
   5  -9   1    1.48    0.30
  -5  -9  -1    1.73    0.39
   5  -9   1    2.41    0.33
   5  -9   1    2.12    0.41
   5   9   1    1.82    0.37
  -5   9  -1    2.48    0.41
   5   9   1    1.91    0.33
  -5   9  -1    1.53    0.40
  -5   9  -1    2.13    0.34
   6  -9   1    2.28    0.28
  -6  -9  -1    2.56    0.37
   6  -9   1    3.70    0.41
  -6  -9  -1    3.05    0.45
  -6  -9  -1    2.18    0.35
  -6  -9  -1    2.12    0.43
  -6   9  -1    2.89    0.54
  -6   9  -1    1.70    0.33
   6   9   1    2.66    0.39
  -6   9  -1    1.57    0.34
  -4 -10   1    0.13    0.18
  -4 -10   1    0.39    0.26
  -4 -10   1    0.44    0.22
   4 -10  -1    0.39    0.29
   4 -10  -1    0.16    0.17
   4 -10  -1    0.09    0.19
  -4  10   1    0.30    0.17
   4  10  -1   -0.22    0.21
  -4  10   1    0.25    0.24
  -4  10   1    0.39    0.20
   4  10  -1    0.22    0.18
  -4  10   1   -0.03    0.13
   3 -10  -1   -0.05    0.20
   3 -10  -1    0.27    0.18
   3 -10  -1   -0.33    0.23
  -3 -10   1    0.47    0.21
  -3 -10   1    0.14    0.18
  -3 -10   1    0.32    0.19
   3  10  -1    0.23    0.19
   3  10  -1    0.03    0.20
  -3  10   1    0.14    0.12
  -3  10   1    0.31    0.18
  -3  10   1    0.27    0.16
  -2 -10   1    0.29    0.16
   2 -10  -1    0.47    0.18
   2 -10  -1    0.59    0.27
  -2 -10   1    0.34    0.24
   2 -10  -1    0.67    0.23
  -2 -10   1    0.57    0.23
  -2  10   1    0.33    0.23
   2  10  -1    0.19    0.19
  -2  10   1    0.38    0.20
  -2  10   1    0.65    0.14
   2  10  -1    0.60    0.20
  -1 -10   1    2.91    0.34
   1 -10  -1    2.50    0.28
  -1 -10   1    2.42    0.42
  -1 -10   1    2.18    0.41
   1 -10  -1    2.99    0.48
   1 -10  -1    2.05    0.41
   1 -10  -1    2.05    0.24
  -1  10   1    2.45    0.25
  -1  10   1    2.46    0.30
   1  10  -1    2.15    0.32
   1  10  -1    1.67    0.35
  -1  10   1    1.79    0.38
   0 -10   1    3.71    0.26
   0 -10  -1    3.76    0.28
   0 -10  -1    3.91    0.46
   0 -10  -1    2.94    0.46
   0 -10   1    2.94    0.42
   0 -10   1    4.02    0.56
   0 -10  -1    3.65    0.30
   0 -10   1    3.60    0.36
   0  10   1    3.79    0.30
   0  10   1    3.00    0.49
   0  10  -1    2.88    0.34
   0  10  -1    3.63    0.27
   0  10  -1    3.25    0.50
   0  10   1    3.82    0.29
  -1 -10  -1    2.85    0.50
   1 -10   1    2.28    0.27
  -1 -10  -1    2.34    0.26
   1 -10   1    3.20    0.34
  -1 -10  -1    2.44    0.41
   1 -10   1    3.06    0.45
   1 -10   1    2.99    0.49
   1  10   1    2.71    0.45
  -1  10  -1    2.82    0.32
  -1  10  -1    2.48    0.44
   1  10   1    2.62    0.27
  -1  10  -1    2.40    0.29
   2 -10   1    4.71    0.42
   2 -10   1    5.22    0.42
  -2 -10  -1    5.14    0.38
   2 -10   1    5.41    0.48
  -2 -10  -1    4.88    0.55
   2 -10   1    6.26    0.60
  -2 -10  -1    5.21    0.54
   2  10   1    5.39    0.38
  -2  10  -1    4.63    0.51
  -2  10  -1    5.14    0.43
   2  10   1    4.07    0.48
  -2  10  -1    5.11    0.42
   3 -10   1    3.46    0.52
   3 -10   1    3.15    0.43
  -3 -10  -1    3.00    0.35
  -3 -10  -1    2.25    0.40
   3 -10   1    3.05    0.43
  -3 -10  -1    3.38    0.46
   3  10   1    3.59    0.34
  -3  10  -1    3.04    0.34
  -3  10  -1    3.51    0.57
   3  10   1    3.29    0.49
  -3  10  -1    2.82    0.38
  -4 -10  -1    3.44    0.58
  -4 -10  -1    3.03    0.46
   4 -10   1    2.98    0.35
   4 -10   1    2.57    0.38
   4 -10   1    3.04    0.53
  -4  10  -1    3.42    0.47
  -4  10  -1    2.59    0.42
   4  10   1    2.95    0.51
  -4  10  -1    3.17    0.37
   4  10   1    3.29    0.35
  12   0  -2    0.42    0.22
 -12   0   2    0.44    0.25
  12   0  -2    0.80    0.28
 -12   0   2    0.68    0.21
  11   0  -2    5.21    0.46
 -11   0   2    4.80    0.47
 -11   0   2    6.00    0.53
 -11   0   2    5.24    0.45
  11   0  -2    5.35    0.49
  10   0  -2    9.24    0.55
  10   0  -2    9.59    0.63
 -10   0   2    8.61    0.58
 -10   0   2    8.50    0.65
 -10   0   2   10.03    0.66
  10   0  -2   10.71    0.62
 -10   0   2    9.13    0.56
   9   0  -2   63.90    2.03
  -9   0   2   59.24    2.03
  -9   0   2   61.49    2.03
  -9   0   2   60.43    1.90
  -9   0   2   60.33    1.97
   9   0  -2   63.93    1.93
   9   0  -2   61.38    1.96
  -8   0   2   84.25    2.42
   8   0  -2   86.37    2.44
   8   0  -2   84.86    2.48
  -8   0   2   84.47    2.52
  -8   0   2   83.79    2.53
  -8   0   2   81.39    2.44
   8   0  -2   82.36    2.39
   8   0  -2   83.50    2.55
   7   0  -2  138.87    3.65
   7   0  -2  143.56    3.70
  -7   0   2  130.38    3.49
   7   0  -2  133.70    3.77
   7   0  -2  138.28    3.75
  -7   0   2  131.31    3.58
   7   0  -2  136.91    3.69
  -7   0   2  129.41    3.51
  -7   0   2  131.79    3.60
   6   0  -2   84.10    2.37
   6   0  -2   84.36    2.44
   6   0  -2   85.98    2.35
  -6   0   2   82.45    2.34
  -6   0   2   84.31    2.36
   6   0  -2   86.91    2.42
  -6   0   2   88.33    2.44
   6   0  -2   86.60    2.38
  -6   0   2   84.84    2.41
   5   0  -2  296.09    7.47
   5   0  -2  299.93    7.47
   5   0  -2  306.31    7.53
  -5   0   2  316.65    7.70
   5   0  -2  312.00    7.50
  -5   0   2  302.49    7.64
  -5   0   2  313.60    7.65
   5   0  -2  306.38    7.54
   4   0  -2  111.69    2.93
  -4   0   2  108.04    2.81
   4   0  -2  113.33    2.89
  -4   0   2  103.58    2.79
   4   0  -2  113.33    2.92
  -4   0   2  110.34    2.79
   4   0  -2  112.75    2.91
  -4   0   2  109.62    2.83
   4   0  -2  112.14    2.92
  -3   0   2  214.36    5.19
   3   0  -2  213.26    5.22
   3   0  -2  217.58    5.21
   3   0  -2  214.28    5.23
   3   0  -2  210.48    5.22
  -3   0   2  211.68    5.21
  -3   0   2  211.00    5.20
  -3   0   2  210.55    5.20
   3   0  -2  208.08    5.23
   2   0  -2   68.44    1.75
  -2   0   2   65.21    1.65
  -2   0   2   64.27    1.67
   2   0  -2   67.72    1.78
  -2   0   2   64.53    1.68
   2   0  -2   70.51    1.77
  -2   0   2   64.44    1.66
   2   0  -2   69.37    1.78
   1   0  -2   57.67    1.49
  -1   0   2   55.67    1.31
  -1   0   2   53.55    1.38
   1   0  -2   57.75    1.42
  -1   0   2   51.30    1.37
  -1   0   2   53.09    1.38
   1   0  -2   58.52    1.49
   1   0  -2   58.93    1.48
   0   0   2   71.37    1.80
   0   0   2   71.72    1.81
   0   0   2   71.04    1.77
   0   0  -2   77.60    1.97
   0   0  -2   80.70    1.95
   0   0  -2   78.37    1.99
  -1   0  -2   44.53    1.21
   1   0   2   39.96    0.98
   1   0   2   40.30    1.08
  -1   0  -2   44.31    1.21
   1   0   2   40.31    0.99
   1   0   2   36.17    1.02
  -1   0  -2   45.95    1.16
   2   0   2  252.34    6.18
  -2   0  -2  257.02    6.21
   2   0   2  250.06    6.02
   2   0   2  255.45    6.14
  -2   0  -2  254.43    6.26
   3   0   2  105.45    2.75
  -3   0  -2  109.78    2.78
  -3   0  -2  104.01    2.67
  -3   0  -2  106.07    2.66
   3   0   2  108.35    2.78
  -3   0  -2  107.25    2.83
   3   0   2  104.56    2.59
  -3   0  -2  109.21    2.80
  -4   0  -2  300.12    7.51
  -4   0  -2  305.09    7.50
   4   0   2  323.66    7.75
  -4   0  -2  297.74    7.35
  -4   0  -2  303.55    7.54
   4   0   2  323.36    7.95
  -4   0  -2  313.46    7.37
   4   0   2  323.26    7.98
  -5   0  -2   85.45    2.38
  -5   0  -2   83.41    2.41
  -5   0  -2   82.72    2.21
  -5   0  -2   85.38    2.23
  -5   0  -2   84.45    2.37
   5   0   2   89.06    2.46
   5   0   2   87.86    2.47
   5   0   2   86.88    2.23
  -6   0  -2  127.35    3.47
  -6   0  -2  126.27    3.47
  -6   0  -2  128.43    3.29
   6   0   2  126.59    3.20
   6   0   2  126.81    3.49
  -6   0  -2  125.91    3.51
   6   0   2  130.78    3.51
  -6   0  -2  129.12    3.29
   7   0   2   79.25    2.38
  -7   0  -2   73.30    2.10
  -7   0  -2   75.52    2.30
  -7   0  -2   77.87    2.11
   7   0   2   77.53    2.05
  -7   0  -2   73.34    2.33
  -7   0  -2   77.54    2.30
   8   0   2   53.83    1.49
  -8   0  -2   50.84    1.58
  -8   0  -2   53.05    1.79
  -8   0  -2   52.56    1.57
  -8   0  -2   51.15    1.82
  -8   0  -2   49.99    1.74
   8   0   2   55.16    1.85
   9   0   2    8.57    0.60
  -9   0  -2    9.48    0.52
  -9   0  -2    9.37    0.64
  -9   0  -2    8.56    0.59
  -9   0  -2    9.57    0.69
   9   0   2    8.36    0.35
  -9   0  -2    9.24    0.65
 -10   0  -2    3.75    0.43
 -10   0  -2    4.29    0.45
 -10   0  -2    4.42    0.49
 -10   0  -2    3.78    0.34
  10   0   2    4.50    0.46
 -11   0  -2    0.20    0.23
  11   0   2    0.27    0.22
 -11   0  -2    0.05    0.17
 -11   0  -2   -0.12    0.13
  12  -1  -2   22.11    1.13
 -12  -1   2   24.60    1.63
 -12  -1   2   24.07    1.07
  12  -1  -2   21.73    1.01
 -12  -1   2   19.98    1.13
 -12   1   2   22.34    1.07
 -12   1   2   21.61    1.16
  12   1  -2   21.91    1.07
  12   1  -2   22.89    1.10
 -11  -1   2   27.36    1.20
  11  -1  -2   31.39    1.35
 -11  -1   2   30.29    1.19
 -11  -1   2   29.49    1.33
  11  -1  -2   29.51    1.17
 -11   1   2   31.82    1.26
 -11   1   2   26.46    1.25
 -11   1   2   29.82    1.33
  11   1  -2   31.12    1.26
  11   1  -2   28.73    1.26
 -10  -1   2   20.55    0.90
  10  -1  -2   20.73    1.03
 -10  -1   2   19.33    0.91
  10  -1  -2   20.40    1.00
  10  -1  -2   21.52    0.92
  10  -1  -2   20.98    0.91
 -10  -1   2   21.59    1.04
 -10  -1   2   19.10    1.01
  10   1  -2   20.16    0.93
  10   1  -2   20.89    1.05
 -10   1   2   20.09    1.01
 -10   1   2   18.83    0.97
 -10   1   2   19.84    1.00
  10   1  -2   20.72    0.85
  10   1  -2   21.98    0.98
 -10   1   2   20.99    0.94
   9  -1  -2   16.55    0.72
   9  -1  -2   14.41    0.80
  -9  -1   2   14.29    0.71
  -9  -1   2   13.06    0.66
  -9  -1   2   14.34    0.80
  -9  -1   2   13.58    0.76
   9  -1  -2   15.48    0.79
   9  -1  -2   14.53    0.71
  -9   1   2   13.58    0.70
   9   1  -2   14.65    0.75
  -9   1   2   13.45    0.75
   9   1  -2   14.84    0.66
  -9   1   2   12.86    0.74
   9   1  -2   15.00    0.74
   9   1  -2   13.05    0.78
  -9   1   2   14.52    0.79
   8  -1  -2   14.95    0.74
  -8  -1   2   13.20    0.65
  -8  -1   2   13.61    0.74
   8  -1  -2   14.89    0.69
   8  -1  -2   14.65    0.68
  -8  -1   2   12.58    0.70
  -8  -1   2   12.88    0.63
   8  -1  -2   14.54    0.75
  -8   1   2   13.76    0.67
  -8   1   2   14.33    0.74
   8   1  -2   13.62    0.67
  -8   1   2   13.32    0.70
   8   1  -2   15.22    0.78
   8   1  -2   15.19    0.73
  -8   1   2   13.65    0.72
   8   1  -2   14.60    0.64
  -7  -1   2    4.16    0.32
   7  -1  -2    4.56    0.35
  -7  -1   2    4.02    0.36
   7  -1  -2    4.38    0.36
  -7  -1   2    3.81    0.30
  -7  -1   2    4.15    0.35
   7  -1  -2    4.00    0.35
  -7  -1   2    4.52    0.35
   7  -1  -2    4.36    0.34
   7  -1  -2    4.60    0.32
   7   1  -2    4.12    0.30
   7   1  -2    4.56    0.35
   7   1  -2    3.71    0.30
  -7   1   2    4.47    0.37
  -7   1   2    4.80    0.38
  -7   1   2    4.06    0.34
   7   1  -2    4.22    0.36
  -7   1   2    4.39    0.34
   6  -1  -2    5.17    0.35
  -6  -1   2    5.34    0.36
  -6  -1   2    4.95    0.36
   6  -1  -2    5.60    0.34
   6  -1  -2    5.02    0.36
  -6  -1   2    4.29    0.34
  -6  -1   2    5.07    0.32
   6  -1  -2    5.23    0.36
   6  -1  -2    5.30    0.35
  -6  -1   2    5.20    0.32
   6   1  -2    5.10    0.32
   6   1  -2    5.08    0.35
  -6   1   2    4.91    0.35
   6   1  -2    5.28    0.38
  -6   1   2    5.10    0.36
  -6   1   2    5.13    0.34
   6   1  -2    4.85    0.31
  -6   1   2    5.25    0.36
  -5  -1   2   44.91    1.40
  -5  -1   2   44.53    1.30
  -5  -1   2   45.81    1.38
   5  -1  -2   44.97    1.40
   5  -1  -2   45.40    1.38
   5  -1  -2   47.17    1.40
  -5  -1   2   42.95    1.32
   5  -1  -2   47.28    1.35
  -5  -1   2   43.71    1.37
   5  -1  -2   44.56    1.37
   5   1  -2   46.01    1.40
   5   1  -2   43.06    1.41
  -5   1   2   44.15    1.36
   5   1  -2   44.91    1.33
   5   1  -2   45.87    1.32
  -5   1   2   45.76    1.38
  -5   1   2   44.04    1.38
   4  -1  -2  100.89    2.64
   4  -1  -2  101.62    2.66
   4  -1  -2   98.05    2.64
  -4  -1   2   87.17    2.41
  -4  -1   2   93.49    2.49
  -4  -1   2   94.09    2.38
  -4  -1   2   95.46    2.49
  -4  -1   2   90.87    2.45
   4  -1  -2  100.43    2.63
  -4   1   2   91.01    2.45
   4   1  -2   98.71    2.67
  -4   1   2   95.40    2.47
   4   1  -2   99.69    2.61
  -4   1   2   90.75    2.45
   4   1  -2  105.36    2.68
  -4   1   2   93.98    2.45
   4   1  -2   99.33    2.56
  -3  -1   2  195.48    4.82
  -3  -1   2  192.59    4.70
  -3  -1   2  194.38    4.81
   3  -1  -2  200.35    4.97
  -3  -1   2  188.87    4.77
   3  -1  -2  202.35    4.95
   3  -1  -2  195.75    4.98
   3  -1  -2  208.55    5.00
  -3  -1   2  194.59    4.77
   3   1  -2  199.59    5.00
   3   1  -2  198.73    4.96
   3   1  -2  204.81    4.90
  -3   1   2  187.04    4.74
  -3   1   2  198.77    4.77
  -3   1   2  194.08    4.79
   3   1  -2  203.11    5.01
   2  -1  -2  302.93    7.33
  -1  -1   2  326.06   10.05
   1  -1  -2  320.58    9.62
  -1   1   2  330.96    9.81
   1   1  -2  323.52    9.92
   0  -1  -2  305.87    8.74
   0   1   2  324.73    9.00
   0   1  -2  320.43    9.68
   0   1  -2  324.32    9.68
   1  -1   2  383.71   11.99
  -1  -1  -2  428.26   10.76
  -1   1  -2  444.49   12.57
   1   1   2  440.47   10.30
   2  -1   2  177.82    4.33
   2  -1   2  176.11    4.36
  -2  -1  -2  175.63    4.41
  -2  -1  -2  179.57    4.44
   2  -1   2  176.41    4.42
  -2   1  -2  180.84    4.42
  -2   1  -2  179.19    4.46
  -2   1  -2  176.01    4.47
  -2   1  -2  183.60    4.40
  -3  -1  -2   85.16    2.26
   3  -1   2   83.37    2.24
  -3  -1  -2   85.97    2.08
  -3  -1  -2   87.51    2.25
   3  -1   2   83.25    2.20
   3  -1   2   82.10    2.12
  -3  -1  -2   86.84    2.30
  -3  -1  -2   82.80    2.26
  -3   1  -2   85.85    2.32
  -3   1  -2   83.49    2.26
  -3   1  -2   84.82    2.22
   3   1   2   79.94    2.18
  -3   1  -2   86.23    2.33
  -4  -1  -2   34.52    1.10
   4  -1   2   35.56    1.04
  -4  -1  -2   34.28    0.94
  -4  -1  -2   33.81    1.06
   4  -1   2   36.87    1.16
  -4  -1  -2   34.85    1.14
  -4  -1  -2   34.50    1.12
   4   1   2   35.16    1.13
  -4   1  -2   33.97    1.16
  -4   1  -2   35.11    1.05
  -4   1  -2   35.65    0.94
  -4   1  -2   35.96    1.16
  -4   1  -2   36.49    1.13
  -5  -1  -2    1.37    0.16
  -5  -1  -2    1.67    0.14
  -5  -1  -2    1.83    0.22
   5  -1   2    1.32    0.21
   5  -1   2    1.65    0.15
  -5  -1  -2    1.31    0.21
   5  -1   2    1.28    0.20
  -5  -1  -2    1.74    0.20
  -5   1  -2    1.61    0.28
  -5   1  -2    1.22    0.19
   5   1   2    2.06    0.21
  -5   1  -2    1.42    0.16
  -5   1  -2    1.61    0.26
  -5   1  -2    1.57    0.23
   6  -1   2    4.97    0.29
  -6  -1  -2    4.84    0.27
  -6  -1  -2    5.70    0.34
  -6  -1  -2    5.38    0.37
   6  -1   2    5.13    0.39
  -6  -1  -2    5.45    0.40
  -6  -1  -2    5.18    0.39
   6  -1   2    4.83    0.38
   6   1   2    5.78    0.39
  -6   1  -2    4.90    0.38
  -6   1  -2    4.78    0.38
  -6   1  -2    5.42    0.42
  -6   1  -2    5.27    0.33
  -6   1  -2    5.14    0.40
  -7  -1  -2   16.83    0.78
  -7  -1  -2   18.81    0.75
   7  -1   2   17.45    0.84
   7  -1   2   17.26    0.83
  -7  -1  -2   17.91    0.84
  -7  -1  -2   17.77    0.66
  -7  -1  -2   17.79    0.86
   7  -1   2   17.56    0.66
  -7   1  -2   17.52    0.88
  -7   1  -2   18.02    0.84
  -7   1  -2   17.76    0.73
  -7   1  -2   17.96    0.86
   7   1   2   18.29    0.81
  -7   1  -2   18.43    0.84
  -8  -1  -2   16.82    0.68
  -8  -1  -2   18.16    0.88
  -8  -1  -2   17.76    0.83
  -8  -1  -2   18.63    0.77
   8  -1   2   19.23    0.93
   8  -1   2   19.11    0.91
   8  -1   2   18.78    0.71
  -8  -1  -2   17.54    0.90
  -8   1  -2   15.54    0.88
  -8   1  -2   16.64    0.75
   8   1   2   19.41    0.90
  -8   1  -2   18.41    0.92
  -8   1  -2   17.54    0.86
  -8   1  -2   17.62    0.86
  -9  -1  -2   22.11    0.85
  -9  -1  -2   22.46    1.10
   9  -1   2   23.52    1.11
  -9  -1  -2   22.45    0.92
  -9  -1  -2   23.15    1.07
   9  -1   2   23.49    0.83
   9  -1   2   24.44    1.11
  -9  -1  -2   22.75    1.01
   9   1   2   22.09    1.04
  -9   1  -2   23.11    1.07
  -9   1  -2   20.50    1.06
  -9   1  -2   22.19    0.92
  -9   1  -2   22.58    1.12
  -9   1  -2   20.96    1.02
 -10  -1  -2   30.33    1.29
 -10  -1  -2   31.28    1.11
 -10  -1  -2   31.25    1.36
  10  -1   2   30.94    1.37
 -10   1  -2   31.06    1.43
 -10   1  -2   32.06    1.21
 -10   1  -2   29.57    1.34
  10   1   2   32.69    1.35
 -11  -1  -2   19.41    0.85
 -11  -1  -2   19.38    1.13
 -11  -1  -2   19.09    1.08
  11  -1   2   22.65    1.17
 -11   1  -2   19.02    1.12
 -11   1  -2   20.48    0.93
  11   1   2   23.08    1.14
 -11   1  -2   21.82    1.12
  12  -2  -2    1.07    0.25
 -12  -2   2    0.96    0.27
  12  -2  -2    1.37    0.32
 -12  -2   2    0.97    0.24
 -12  -2   2    1.22    0.31
  12   2  -2    1.37    0.29
 -12   2   2    1.84    0.36
 -12   2   2    0.67    0.26
 -12   2   2    1.32    0.32
 -11  -2   2    2.72    0.38
  11  -2  -2    3.32    0.36
  11  -2  -2    2.53    0.40
 -11  -2   2    3.06    0.36
  11   2  -2    3.26    0.37
 -11   2   2    3.70    0.41
 -11   2   2    2.69    0.48
  11   2  -2    3.05    0.43
 -10  -2   2   18.05    1.00
 -10  -2   2   19.48    0.88
 -10  -2   2   19.44    0.87
 -10  -2   2   19.33    1.00
  10  -2  -2   19.15    0.90
  10  -2  -2   20.37    0.85
  10  -2  -2   20.41    1.02
 -10  -2   2   19.74    1.01
  10  -2  -2   18.67    0.97
  10   2  -2   18.51    1.00
  10   2  -2   19.96    0.98
 -10   2   2   21.08    0.97
 -10   2   2   20.23    1.02
 -10   2   2   17.47    0.96
  10   2  -2   18.01    0.85
 -10   2   2   22.06    1.05
  -9  -2   2   24.48    1.06
   9  -2  -2   28.24    1.04
   9  -2  -2   27.65    1.10
   9  -2  -2   26.03    1.16
  -9  -2   2   25.27    0.97
  -9  -2   2   23.81    1.11
  -9  -2   2   24.32    1.09
  -9  -2   2   24.00    0.96
  -9   2   2   24.40    1.09
   9   2  -2   25.50    1.02
  -9   2   2   24.02    1.03
   9   2  -2   25.69    1.11
  -9   2   2   24.75    1.11
  -9   2   2   22.56    1.06
  -8  -2   2   77.82    2.42
  -8  -2   2   78.14    2.25
   8  -2  -2   84.53    2.46
  -8  -2   2   77.33    2.45
  -8  -2   2   78.21    2.39
  -8  -2   2   78.34    2.28
   8  -2  -2   83.74    2.36
   8  -2  -2   82.61    2.51
   8  -2  -2   83.94    2.53
  -8   2   2   80.73    2.44
   8   2  -2   79.45    2.54
  -8   2   2   79.85    2.42
  -8   2   2   75.59    2.41
   8   2  -2   81.14    2.35
  -8   2   2   80.30    2.37
   8   2  -2   83.07    2.49
   7  -2  -2   84.07    2.53
  -7  -2   2   87.37    2.55
  -7  -2   2   84.78    2.41
   7  -2  -2   89.50    2.40
  -7  -2   2   86.04    2.54
   7  -2  -2   84.82    2.53
   7  -2  -2   87.92    2.49
  -7  -2   2   89.35    2.38
  -7  -2   2   83.33    2.54
  -7   2   2   85.76    2.49
   7   2  -2   85.51    2.37
   7   2  -2   85.17    2.36
   7   2  -2   82.78    2.55
  -7   2   2   84.33    2.52
  -7   2   2   85.43    2.53
  -7   2   2   85.50    2.50
   7   2  -2   89.13    2.53
  -6  -2   2  168.17    4.45
   6  -2  -2  175.99    4.59
  -6  -2   2  169.57    4.47
   6  -2  -2  181.47    4.51
  -6  -2   2  173.16    4.29
  -6  -2   2  167.40    4.35
  -6  -2   2  172.60    4.49
   6  -2  -2  176.37    4.62
  -6   2   2  174.06    4.44
  -6   2   2  158.02    4.44
   6   2  -2  177.24    4.46
   6   2  -2  174.68    4.65
   6   2  -2  176.05    4.63
  -6   2   2  171.65    4.47
  -6   2   2  173.28    4.44
   6   2  -2  175.36    4.48
  -5  -2   2   81.87    2.31
  -5  -2   2   79.04    2.29
  -5  -2   2   81.59    2.26
   5  -2  -2   84.91    2.35
   5  -2  -2   85.06    2.34
  -5  -2   2   80.52    2.11
  -5  -2   2   79.22    2.19
  -5  -2   2   80.11    2.26
   5  -2  -2   84.92    2.35
  -5   2   2   79.67    2.27
   5   2  -2   81.84    2.36
  -5   2   2   81.78    2.23
   5   2  -2   83.08    2.36
   5   2  -2   82.84    2.19
  -4  -2   2  181.61    4.70
  -4  -2   2  186.35    4.65
   4  -2  -2  180.03    4.63
   4  -2  -2  179.35    4.63
  -4  -2   2  186.04    4.50
  -4  -2   2  185.24    4.69
   4  -2  -2  189.12    4.65
  -4  -2   2  164.91    4.59
  -4   2   2  197.66    4.62
  -4   2   2  179.32    4.65
   4   2  -2  180.73    4.65
   4   2  -2  184.56    4.67
   4   2  -2  183.19    4.47
  -4   2   2  188.94    4.68
  -4   2   2  187.04    4.67
   3  -2  -2   62.63    1.72
  -3  -2   2   54.41    1.53
  -3  -2   2   53.33    1.58
  -3  -2   2   54.09    1.57
   3  -2  -2   62.48    1.73
  -3  -2   2   52.66    1.52
  -3   2   2   59.29    1.48
   3   2  -2   60.59    1.56
   3   2  -2   63.39    1.75
  -3   2   2   55.09    1.55
  -3   2   2   55.84    1.55
  -3   2   2   54.02    1.53
   2  -2  -2  162.82    4.01
  -2  -2   2  155.69    3.79
   2  -2  -2  160.49    3.99
  -2  -2   2  159.68    3.92
  -2  -2   2  158.06    3.97
  -2  -2   2  158.87    3.98
  -2   2   2  157.82    3.95
   2   2  -2  159.60    4.03
  -2   2   2  159.53    3.82
   2   2  -2  160.56    3.86
   2   2  -2  158.53    3.99
  -2   2   2  154.61    3.93
   2   2  -2  161.90    4.03
  -2   2   2  159.26    3.95
  -1  -2   2    8.45    0.35
   1  -2  -2    7.19    0.31
   1  -2  -2    7.17    0.31
   1  -2  -2    7.30    0.30
  -1  -2   2    7.94    0.36
  -1  -2   2    7.59    0.32
  -1   2   2    8.26    0.33
  -1   2   2    8.64    0.34
   1   2  -2    6.69    0.24
   1   2  -2    6.64    0.24
   1   2  -2    6.90    0.30
   1   2  -2    6.74    0.29
   1   2  -2    6.84    0.32
   0  -2  -2   13.81    0.37
   0  -2  -2   13.74    0.46
   0  -2   2   14.69    0.46
   0  -2  -2   13.24    0.46
   0  -2   2   13.95    0.46
   0  -2   2   14.65    0.51
   0  -2  -2   13.72    0.45
   0  -2   2   13.63    0.47
   0   2   2   14.15    0.47
   0   2  -2   14.01    0.45
   0   2  -2   13.83    0.47
   0   2   2   13.66    0.44
   0   2  -2   13.26    0.44
   0   2  -2   13.44    0.50
   0   2   2   12.76    0.46
   1  -2   2  207.39    4.96
  -1  -2  -2  204.55    4.97
   1  -2   2  204.40    4.83
  -1  -2  -2  204.90    5.03
   1  -2   2  200.47    4.98
  -1  -2  -2  203.10    5.06
  -1  -2  -2  208.87    5.00
   1  -2   2  202.56    4.96
   1  -2   2  201.62    4.94
  -1   2  -2  205.44    5.11
  -1   2  -2  211.98    5.07
   1   2   2  194.73    4.91
   1   2   2  197.08    4.94
  -1   2  -2  206.30    5.07
  -2  -2  -2   47.94    1.30
   2  -2   2   41.59    1.20
   2  -2   2   40.39    1.23
  -2  -2  -2   44.86    1.26
  -2  -2  -2   46.72    1.31
   2  -2   2   41.46    1.20
   2  -2   2   43.08    1.25
  -2  -2  -2   45.80    1.27
  -2   2  -2   46.05    1.34
  -2   2  -2   46.65    1.32
  -2   2  -2   45.37    1.35
  -2   2  -2   44.99    1.30
   3  -2   2  207.66    5.18
   3  -2   2  206.60    5.14
  -3  -2  -2  204.57    4.92
   3  -2   2  205.32    5.23
  -3  -2  -2  199.83    4.93
  -3  -2  -2  197.35    4.84
  -3  -2  -2  201.05    4.92
  -3   2  -2  201.15    4.96
  -3   2  -2  196.20    4.97
  -3   2  -2  197.56    4.91
  -3   2  -2  167.43    4.86
  -4  -2  -2   80.95    2.06
  -4  -2  -2   84.24    2.30
  -4  -2  -2   83.43    2.32
   4  -2   2   87.50    2.47
   4  -2   2   89.54    2.43
  -4  -2  -2   85.70    2.33
  -4  -2  -2   83.34    2.31
   4  -2   2   86.13    2.35
  -4  -2  -2   84.70    2.24
  -4   2  -2   86.77    2.36
  -4   2  -2   81.59    2.30
  -4   2  -2   81.36    2.27
  -4   2  -2   79.93    2.35
  -5  -2  -2  167.40    4.17
  -5  -2  -2  166.65    4.46
  -5  -2  -2  175.13    4.47
  -5  -2  -2  171.51    4.38
   5  -2   2  180.46    4.49
  -5  -2  -2  170.88    4.46
   5  -2   2  173.42    4.53
  -5  -2  -2  175.07    4.43
   5  -2   2  158.42    4.32
  -5   2  -2  172.90    4.50
  -5   2  -2  168.02    4.46
  -5   2  -2  168.93    4.51
  -5   2  -2  170.49    4.40
  -6  -2  -2   76.53    2.33
  -6  -2  -2   78.09    2.22
  -6  -2  -2   76.98    2.03
   6  -2   2   81.45    2.47
   6  -2   2   82.44    2.43
  -6  -2  -2   78.86    2.31
  -6  -2  -2   81.01    2.27
  -6  -2  -2   78.64    2.32
   6  -2   2   82.89    2.29
  -6   2  -2   77.38    2.23
  -6   2  -2   80.09    2.33
  -6   2  -2   78.76    2.35
  -6   2  -2   75.84    2.35
   6   2   2   83.12    2.34
  -6   2  -2   73.65    2.32
  -7  -2  -2   73.54    2.36
  -7  -2  -2   76.85    2.35
  -7  -2  -2   76.45    2.05
   7  -2   2   80.83    2.46
  -7  -2  -2   76.58    2.27
   7  -2   2   78.52    2.23
   7  -2   2   80.72    2.43
  -7  -2  -2   78.46    2.26
  -7  -2  -2   76.67    2.36
  -7   2  -2   74.83    2.25
  -7   2  -2   76.91    2.37
  -7   2  -2   74.97    2.40
  -7   2  -2   79.42    2.38
   7   2   2   74.84    2.29
  -7   2  -2   79.18    2.40
   8  -2   2   23.74    0.90
   8  -2   2   22.57    1.06
  -8  -2  -2   19.61    0.98
  -8  -2  -2   23.14    0.79
  -8  -2  -2   23.45    0.96
  -8  -2  -2   24.72    1.06
  -8  -2  -2   22.36    0.95
   8  -2   2   24.23    1.07
  -8  -2  -2   23.15    1.06
  -8   2  -2   19.90    0.98
  -8   2  -2   21.75    1.02
   8   2   2   23.57    0.99
  -8   2  -2   23.03    0.95
  -8   2  -2   23.42    1.08
  -8   2  -2   23.81    1.07
   9  -2   2   13.65    0.65
   9  -2   2   15.83    0.88
  -9  -2  -2   13.70    0.71
  -9  -2  -2   12.29    0.80
  -9  -2  -2   13.44    0.79
  -9  -2  -2   14.03    0.59
   9  -2   2   14.21    0.82
  -9  -2  -2   14.19    0.81
  -9  -2  -2   14.89    0.75
  -9   2  -2   12.72    0.78
   9   2   2   14.59    0.77
  -9   2  -2   13.72    0.70
  -9   2  -2   12.45    0.78
  -9   2  -2   13.63    0.83
  -9   2  -2   14.18    0.84
 -10  -2  -2    1.37    0.27
  10  -2   2    1.84    0.37
 -10  -2  -2    1.39    0.31
 -10  -2  -2    2.01    0.25
 -10  -2  -2    2.03    0.35
 -10   2  -2    1.83    0.32
 -10   2  -2    2.06    0.42
  10   2   2    2.07    0.33
 -10   2  -2    1.51    0.37
 -11  -2  -2    0.76    0.27
 -11  -2  -2    0.72    0.18
 -11  -2  -2    0.42    0.22
  11  -2   2    0.83    0.27
 -11   2  -2    0.52    0.25
 -11   2  -2    0.79    0.22
 -11   2  -2    0.35    0.19
  12  -3  -2   15.27    0.75
 -12  -3   2   14.59    0.78
  12  -3  -2   15.79    0.97
 -12  -3   2   14.70    0.95
 -12  -3   2   15.61    0.81
 -12   3   2   14.91    0.93
  12   3  -2   15.57    0.80
 -12   3   2   14.42    0.94
 -11  -3   2   15.16    0.93
 -11  -3   2   15.76    0.80
  11  -3  -2   15.42    0.74
 -11  -3   2   15.05    0.76
  11  -3  -2   15.62    0.93
 -11   3   2   16.57    0.91
  11   3  -2   15.86    0.77
 -11   3   2   16.29    0.94
 -11   3   2   15.44    0.93
  11   3  -2   15.74    0.97
  10  -3  -2   23.63    1.16
 -10  -3   2   25.58    1.16
  10  -3  -2   24.38    0.96
 -10  -3   2   30.41    1.82
  10  -3  -2   24.75    1.09
 -10  -3   2   23.22    0.96
 -10  -3   2   24.27    1.01
 -10  -3   2   25.40    1.19
 -10   3   2   25.24    1.18
 -10   3   2   24.04    1.20
  10   3  -2   24.17    1.14
 -10   3   2   24.64    1.16
  10   3  -2   24.23    0.97
  10   3  -2   23.57    1.17
 -10   3   2   23.73    1.11
 -10   3   2   24.81    1.15
   9  -3  -2   13.67    0.81
   9  -3  -2   14.87    0.68
   9  -3  -2   16.06    0.86
  -9  -3   2   13.16    0.77
   9  -3  -2   14.85    0.77
  -9  -3   2   12.30    0.74
  -9  -3   2   13.94    0.79
  -9  -3   2   13.02    0.62
  -9  -3   2   16.15    0.72
  -9  -3   2   12.10    0.77
   9   3  -2   15.52    0.83
  -9   3   2   14.30    0.78
  -9   3   2   12.28    0.77
   9   3  -2   13.31    0.81
  -9   3   2   15.55    0.83
  -9   3   2   14.53    0.78
  -9   3   2   14.97    0.80
  -8  -3   2    4.49    0.31
  -8  -3   2    4.63    0.43
  -8  -3   2    4.06    0.38
   8  -3  -2    4.58    0.33
  -8  -3   2    4.28    0.34
  -8  -3   2    4.20    0.39
   8  -3  -2    5.09    0.43
  -8  -3   2    4.35    0.41
   8  -3  -2    4.91    0.41
   8  -3  -2    4.75    0.42
  -8   3   2    4.15    0.40
   8   3  -2    4.05    0.30
  -8   3   2    4.40    0.40
   8   3  -2    4.78    0.43
  -8   3   2    4.56    0.40
  -8   3   2    4.29    0.40
   8   3  -2    4.17    0.40
  -7  -3   2    7.20    0.49
   7  -3  -2    7.27    0.49
  -7  -3   2    7.07    0.42
   7  -3  -2    8.21    0.51
  -7  -3   2    6.96    0.49
  -7  -3   2    7.61    0.51
   7  -3  -2    6.59    0.48
  -7  -3   2    7.24    0.48
  -7  -3   2    6.73    0.36
   7  -3  -2    8.09    0.43
   7   3  -2    6.63    0.48
  -7   3   2    7.73    0.50
   7   3  -2    6.95    0.37
  -7   3   2    7.04    0.50
  -7   3   2    6.98    0.48
  -7   3   2    7.10    0.46
   7   3  -2    7.95    0.53
  -6  -3   2    8.01    0.51
  -6  -3   2    8.10    0.49
  -6  -3   2    8.11    0.44
   6  -3  -2    8.93    0.51
   6  -3  -2    8.24    0.50
  -6  -3   2    8.86    0.53
  -6  -3   2    8.04    0.36
   6  -3  -2    8.73    0.51
  -6  -3   2    9.11    0.52
   6   3  -2    7.50    0.49
   6   3  -2    7.71    0.50
  -6   3   2    8.54    0.51
   6   3  -2    8.08    0.36
  -6   3   2    9.12    0.52
  -6   3   2    8.35    0.47
  -6   3   2    8.10    0.51
   5  -3  -2   10.35    0.54
  -5  -3   2    9.73    0.52
   5  -3  -2   11.23    0.56
  -5  -3   2    9.88    0.55
  -5  -3   2    9.20    0.46
  -5  -3   2   10.31    0.37
  -5  -3   2   10.02    0.51
   5  -3  -2   10.91    0.55
   5   3  -2   10.33    0.55
   5   3  -2   10.39    0.55
  -5   3   2   10.16    0.47
  -5   3   2   10.08    0.52
  -5   3   2    7.76    0.48
   5   3  -2   10.73    0.39
  -4  -3   2   52.10    1.44
   4  -3  -2   60.22    1.75
   4  -3  -2   60.53    1.75
  -4  -3   2   56.23    1.71
  -4  -3   2   60.40    1.70
  -4  -3   2   56.92    1.65
   4  -3  -2   58.50    1.75
  -4  -3   2   56.35    1.74
  -4   3   2   56.15    1.69
   4   3  -2   60.01    1.78
  -4   3   2   59.24    1.72
   4   3  -2   58.79    1.50
  -4   3   2   58.93    1.60
  -4   3   2   59.94    1.60
  -4   3   2   56.90    1.70
   4   3  -2   58.09    1.76
   3  -3  -2  215.09    5.35
  -3  -3   2  212.65    5.36
   3  -3  -2  216.02    5.37
  -3  -3   2  210.18    5.29
   3  -3  -2  214.36    5.34
  -3   3   2  214.59    5.16
   3   3  -2  214.33    5.39
  -3   3   2  211.89    5.30
  -3   3   2  209.84    5.30
   3   3  -2  206.55    5.34
  -3   3   2  210.31    5.32
  -3   3   2  210.36    5.16
  -2  -3   2  142.20    3.54
   2  -3  -2  143.77    3.57
  -2  -3   2  139.97    3.57
   2  -3  -2  138.19    3.59
  -2  -3   2  137.59    3.58
   2  -3  -2  140.70    3.58
   2   3  -2  134.88    3.56
  -2   3   2  132.21    3.36
   2   3  -2  138.09    3.59
   2   3  -2  144.34    3.61
  -2   3   2  138.81    3.55
  -2   3   2  141.61    3.53
  -2   3   2  137.50    3.37
  -2   3   2  139.13    3.55
  -1  -3   2  181.63    4.60
   1  -3  -2  188.85    4.66
   1  -3  -2  186.43    4.65
  -1  -3   2  183.12    4.61
  -1  -3   2  190.58    4.64
   1  -3  -2  188.57    4.62
   1   3  -2  187.30    4.67
   1   3  -2  184.35    4.50
   1   3  -2  184.59    4.64
  -1   3   2  190.03    4.59
   1   3  -2  184.10    4.64
  -1   3   2  177.76    4.61
   0  -3  -2  184.46    4.60
   0  -3   2  190.76    4.69
   0  -3   2  187.80    4.59
   0  -3   2  184.19    4.66
   0  -3  -2  183.08    4.63
   0  -3   2  190.12    4.63
   0  -3  -2  188.64    4.46
   0  -3  -2  185.18    4.57
   0   3  -2  184.00    4.65
   0   3   2  189.74    4.61
   0   3   2  185.32    4.67
   0   3  -2  183.69    4.63
   0   3  -2  187.88    4.56
   0   3  -2  189.53    4.59
   0   3   2  182.38    4.60
  -1  -3  -2  124.68    3.11
  -1  -3  -2  122.51    3.11
   1  -3   2  127.92    3.32
  -1  -3  -2  124.72    3.21
   1  -3   2  130.68    3.35
   1  -3   2  128.86    3.34
   1  -3   2  133.60    3.22
   1  -3   2  131.24    3.31
  -1  -3  -2  123.66    3.08
  -1   3  -2  126.13    3.20
   1   3   2  126.68    3.24
   1   3   2  129.15    3.20
   1   3   2  128.44    3.32
  -1   3  -2  126.48    3.17
  -1   3  -2  123.11    3.22
  -2  -3  -2  200.91    4.83
   2  -3   2  195.32    4.93
   2  -3   2  197.04    4.72
  -2  -3  -2  198.02    4.90
   2  -3   2  198.08    4.94
   2  -3   2  193.58    4.91
  -2  -3  -2  193.41    4.79
   2  -3   2  196.75    4.93
  -2   3  -2  197.11    4.91
  -2   3  -2  183.22    4.89
   2   3   2  193.43    4.84
  -2   3  -2  196.92    4.94
   3  -3   2   53.12    1.56
  -3  -3  -2   49.99    1.41
   3  -3   2   53.10    1.58
  -3  -3  -2   50.74    1.47
   3  -3   2   53.01    1.59
   3  -3   2   51.29    1.55
  -3  -3  -2   53.19    1.56
  -3  -3  -2   51.25    1.52
  -3  -3  -2   50.15    1.40
  -3   3  -2   50.77    1.52
   3   3   2   50.44    1.51
  -3   3  -2   49.79    1.54
  -3   3  -2   50.20    1.52
  -3   3  -2   49.15    1.52
  -4  -3  -2    7.73    0.44
  -4  -3  -2    7.55    0.36
  -4  -3  -2    7.61    0.30
   4  -3   2    7.34    0.44
   4  -3   2    7.44    0.42
   4  -3   2    7.63    0.45
  -4  -3  -2    8.13    0.46
  -4  -3  -2    7.31    0.42
   4   3   2    7.22    0.41
  -4   3  -2    8.02    0.45
  -4   3  -2    7.91    0.46
  -4   3  -2    8.37    0.48
  -4   3  -2    8.18    0.45
  -5  -3  -2    4.00    0.21
   5  -3   2    4.68    0.33
   5  -3   2    4.70    0.37
  -5  -3  -2    4.19    0.33
  -5  -3  -2    4.61    0.29
   5  -3   2    4.70    0.36
  -5  -3  -2    4.28    0.34
  -5  -3  -2    4.10    0.34
  -5   3  -2    3.39    0.33
  -5   3  -2    4.31    0.36
  -5   3  -2    4.60    0.34
  -5   3  -2    4.27    0.34
  -6  -3  -2   11.03    0.61
   6  -3   2    9.87    0.60
   6  -3   2   10.07    0.60
  -6  -3  -2    9.51    0.57
  -6  -3  -2   10.52    0.60
  -6  -3  -2   10.40    0.58
   6  -3   2   10.35    0.54
  -6  -3  -2   11.09    0.52
  -6  -3  -2   10.13    0.40
  -6   3  -2   10.89    0.58
  -6   3  -2   10.27    0.61
  -6   3  -2   11.07    0.62
  -6   3  -2   11.10    0.62
  -6   3  -2   10.48    0.60
  -7  -3  -2    5.86    0.44
  -7  -3  -2    6.00    0.47
  -7  -3  -2    6.84    0.50
  -7  -3  -2    6.29    0.41
   7  -3   2    6.65    0.50
  -7  -3  -2    6.37    0.47
   7  -3   2    6.87    0.45
  -7  -3  -2    6.50    0.32
  -7   3  -2    6.69    0.51
  -7   3  -2    6.48    0.48
  -7   3  -2    6.73    0.46
  -7   3  -2    6.25    0.48
  -7   3  -2    6.07    0.49
   8  -3   2   15.77    0.74
  -8  -3  -2   16.61    0.77
   8  -3   2   16.10    0.86
  -8  -3  -2   17.18    0.84
  -8  -3  -2   17.06    0.88
  -8  -3  -2   16.12    0.86
   8  -3   2   17.03    0.91
  -8  -3  -2   16.96    0.62
  -8  -3  -2   16.67    0.87
  -8   3  -2   18.10    0.90
  -8   3  -2   16.80    0.91
  -8   3  -2   15.45    0.85
  -8   3  -2   18.17    0.84
  -8   3  -2   16.81    0.89
  -9  -3  -2   27.14    1.22
  -9  -3  -2   26.48    1.07
  -9  -3  -2   27.36    1.23
  -9  -3  -2   26.35    0.90
   9  -3   2   29.63    1.31
  -9  -3  -2   23.52    1.10
  -9  -3  -2   27.72    1.25
   9  -3   2   27.27    1.25
  -9   3  -2   30.84    1.61
  -9   3  -2   27.53    1.15
  -9   3  -2   25.69    1.22
  -9   3  -2   26.87    1.26
 -10  -3  -2   15.63    0.84
  10  -3   2   15.40    0.93
 -10  -3  -2   15.19    0.64
 -10  -3  -2   15.47    0.80
 -10  -3  -2   15.81    0.94
 -10   3  -2   15.14    0.84
 -10   3  -2   15.41    0.96
 -10   3  -2   16.06    0.93
 -11  -3  -2   13.95    0.91
  11  -3   2   14.99    0.96
 -11  -3  -2   15.04    0.65
 -11  -3  -2   15.97    0.88
 -11  -3  -2   14.06    0.80
 -11   3  -2   16.27    0.96
 -11   3  -2   14.74    0.97
 -11   3  -2   14.51    0.84
  11  -4  -2    3.20    0.35
 -11  -4   2    3.13    0.42
 -11  -4   2    3.94    0.61
 -11  -4   2    2.85    0.32
 -11  -4   2    3.43    0.37
  11  -4  -2    2.93    0.47
 -11   4   2    3.84    0.56
 -11   4   2    2.94    0.44
  11   4  -2    3.55    0.34
 -11   4   2    3.67    0.51
  11   4  -2    3.06    0.46
 -10  -4   2    4.08    0.34
  10  -4  -2    4.50    0.37
 -10  -4   2    4.99    0.49
  10  -4  -2    4.81    0.49
 -10  -4   2    4.57    0.38
 -10  -4   2    5.68    0.52
  10   4  -2    4.62    0.49
  10   4  -2    4.88    0.59
 -10   4   2    4.28    0.45
 -10   4   2    4.21    0.44
  10   4  -2    5.53    0.38
 -10   4   2    5.20    0.50
 -10   4   2    4.82    0.48
  -9  -4   2   27.58    1.28
   9  -4  -2   24.70    0.99
  -9  -4   2   29.80    1.29
   9  -4  -2   29.12    1.22
  -9  -4   2   29.51    1.29
  -9  -4   2   28.62    1.27
  -9  -4   2   29.27    1.00
   9  -4  -2   29.27    1.28
  -9  -4   2   29.32    1.13
   9   4  -2   28.61    1.27
   9   4  -2   29.83    0.99
  -9   4   2   29.89    1.26
  -9   4   2   30.42    1.23
  -9   4   2   28.88    1.30
  -9   4   2   29.81    1.24
   9   4  -2   29.21    1.29
  -9   4   2   30.76    1.31
   8  -4  -2   32.17    1.31
  -8  -4   2   28.56    1.26
   8  -4  -2   33.30    1.29
  -8  -4   2   31.25    1.30
  -8  -4   2   31.03    1.15
  -8  -4   2   30.23    0.98
  -8  -4   2   31.42    1.29
  -8  -4   2   31.67    1.28
   8  -4  -2   32.15    1.10
   8  -4  -2   32.33    1.31
  -8   4   2   33.30    1.24
  -8   4   2   32.64    1.30
   8   4  -2   27.79    1.25
  -8   4   2   29.65    1.28
   8   4  -2   32.29    1.01
   8   4  -2   31.13    1.30
  -8   4   2   31.78    1.22
  -7  -4   2   63.79    2.10
   7  -4  -2   68.15    2.21
  -7  -4   2   64.30    2.13
   7  -4  -2   70.27    2.22
  -7  -4   2   66.34    2.13
   7  -4  -2   72.58    2.22
  -7  -4   2   69.60    2.01
  -7  -4   2   65.57    1.78
  -7  -4   2   66.65    2.17
  -7   4   2   66.55    2.12
  -7   4   2   65.89    2.14
   7   4  -2   68.71    2.23
   7   4  -2   69.00    1.87
  -7   4   2   66.22    2.04
  -7   4   2   68.24    2.04
   7   4  -2   71.76    2.25
  -7   4   2   66.94    2.13
  -6  -4   2   42.79    1.49
  -6  -4   2   44.28    1.42
   6  -4  -2   44.95    1.52
  -6  -4   2   44.04    1.53
   6  -4  -2   44.34    1.53
  -6  -4   2   44.43    1.18
   6  -4  -2   44.03    1.52
  -6  -4   2   43.27    1.56
  -6   4   2   44.39    1.53
  -6   4   2   42.74    1.40
  -6   4   2   45.71    1.42
   6   4  -2   44.09    1.18
  -6   4   2   43.85    1.51
   6   4  -2   42.58    1.50
  -6   4   2   42.89    1.50
   6   4  -2   42.39    1.52
   5  -4  -2   96.63    2.71
   5  -4  -2   95.67    2.70
   5  -4  -2   93.35    2.69
  -5  -4   2   91.18    2.72
  -5  -4   2   97.48    2.67
  -5  -4   2   89.43    2.66
  -5  -4   2   91.94    2.58
  -5   4   2   95.71    2.69
  -5   4   2   93.63    2.68
   5   4  -2   94.41    2.69
  -5   4   2   94.02    2.53
  -5   4   2   91.94    2.66
   5   4  -2   91.74    2.72
  -5   4   2   93.81    2.53
   4  -4  -2   40.15    1.31
  -4  -4   2   39.62    1.31
   4  -4  -2   39.87    1.33
  -4  -4   2   38.50    1.24
  -4  -4   2   38.55    1.28
  -4  -4   2   37.89    1.34
   4  -4  -2   41.58    1.34
   4   4  -2   40.60    1.36
  -4   4   2   37.71    1.29
  -4   4   2   39.63    1.30
  -4   4   2   37.47    1.27
  -4   4   2   38.23    1.15
   4   4  -2   39.34    1.32
   4   4  -2   38.59    1.32
  -4   4   2   39.80    1.16
  -3  -4   2   98.37    2.72
   3  -4  -2   99.32    2.69
   3  -4  -2  100.10    2.66
  -3  -4   2  100.23    2.71
  -3  -4   2   96.21    2.76
  -3   4   2  100.32    2.70
   3   4  -2   97.41    2.71
  -3   4   2   96.45    2.71
  -3   4   2  101.55    2.74
  -3   4   2  101.69    2.54
   3   4  -2   95.54    2.67
  -3   4   2  100.26    2.53
   3   4  -2   96.54    2.68
   2  -4  -2   13.29    0.59
  -2  -4   2   11.23    0.53
   2  -4  -2   13.11    0.58
  -2  -4   2   11.66    0.56
  -2  -4   2   12.04    0.54
   2   4  -2   13.15    0.59
  -2   4   2   12.60    0.40
   2   4  -2   12.84    0.57
  -2   4   2   12.50    0.55
   2   4  -2   13.61    0.58
  -2   4   2   12.57    0.56
  -2   4   2   12.90    0.53
  -1  -4   2   12.49    0.54
   1  -4  -2   12.60    0.56
  -1  -4   2   11.58    0.39
   1  -4  -2   13.23    0.51
  -1  -4   2   12.12    0.53
  -1  -4   2   12.09    0.54
   1  -4  -2   13.40    0.56
  -1   4   2   12.16    0.36
   1   4  -2   12.15    0.54
   1   4  -2   12.82    0.55
   1   4  -2   12.96    0.41
  -1   4   2   12.17    0.49
  -1   4   2   11.88    0.53
   0  -4  -2   20.05    0.75
   0  -4   2   19.42    0.70
   0  -4   2   19.16    0.73
   0  -4   2   19.62    0.75
   0  -4   2   19.36    0.73
   0  -4  -2   20.83    0.73
   0  -4   2   19.30    0.64
   0  -4  -2   19.62    0.66
   0  -4  -2   18.53    0.57
   0   4   2   20.24    0.74
   0   4   2   19.70    0.56
   0   4  -2   21.11    0.76
   0   4   2   19.18    0.65
   0   4  -2   21.08    0.76
   0   4  -2   20.75    0.65
   1  -4   2   10.58    0.49
  -1  -4  -2   10.64    0.45
  -1  -4  -2   10.71    0.39
  -1  -4  -2   10.17    0.40
   1  -4   2   10.39    0.46
  -1  -4  -2   11.27    0.51
   1  -4   2   10.56    0.43
   1  -4   2   10.01    0.49
   1  -4   2   10.61    0.51
  -1   4  -2    9.62    0.48
  -1   4  -2   10.76    0.45
   1   4   2    9.74    0.48
   1   4   2   10.33    0.38
   1   4   2    9.90    0.40
  -1   4  -2   10.24    0.49
  -2  -4  -2  109.48    2.85
   2  -4   2  118.14    3.10
   2  -4   2  114.04    3.08
  -2  -4  -2  115.02    3.04
   2  -4   2  117.77    2.93
  -2  -4  -2  111.29    2.89
   2  -4   2  118.66    3.12
   2  -4   2  117.40    3.13
  -2  -4  -2  109.71    3.08
  -2  -4  -2  112.35    2.90
  -2   4  -2  114.46    3.00
   2   4   2  116.67    3.12
  -2   4  -2  114.57    3.04
  -2   4  -2  116.69    3.04
   2   4   2  111.58    2.97
  -3  -4  -2   40.21    1.32
  -3  -4  -2   39.51    1.15
  -3  -4  -2   39.18    1.35
   3  -4   2   41.24    1.09
   3  -4   2   40.55    1.31
   3  -4   2   40.55    1.32
   3  -4   2   39.58    1.31
  -3  -4  -2   42.30    1.25
  -3  -4  -2   40.97    1.15
   3  -4   2   39.58    1.32
   3   4   2   39.74    1.32
  -3   4  -2   41.47    1.33
  -3   4  -2   39.80    1.33
   3   4   2   40.07    1.24
  -3   4  -2   40.09    1.31
  -4  -4  -2   96.62    2.77
  -4  -4  -2   97.70    2.57
  -4  -4  -2   99.06    2.72
   4  -4   2  103.04    2.84
   4  -4   2  102.96    2.87
  -4  -4  -2  101.11    2.84
  -4  -4  -2   97.71    2.58
   4  -4   2  100.82    2.83
   4   4   2   98.33    2.77
  -4   4  -2   99.65    2.79
  -4   4  -2   97.85    2.79
  -4   4  -2  102.74    2.81
  -4   4  -2   99.55    2.80
  -5  -4  -2   41.84    1.25
  -5  -4  -2   41.03    1.25
   5  -4   2   41.11    1.47
  -5  -4  -2   41.24    1.45
  -5  -4  -2   41.09    1.18
  -5  -4  -2   40.44    1.42
   5  -4   2   42.18    1.46
  -5  -4  -2   41.68    1.40
   5  -4   2   42.74    1.42
   5   4   2   42.32    1.42
  -5   4  -2   42.29    1.45
  -5   4  -2   41.60    1.44
  -5   4  -2   41.78    1.43
  -5   4  -2   42.05    1.46
  -6  -4  -2   70.64    2.18
  -6  -4  -2   69.89    1.99
   6  -4   2   67.92    2.17
   6  -4   2   69.77    2.11
  -6  -4  -2   67.83    2.19
   6  -4   2   69.80    2.21
  -6  -4  -2   67.91    1.97
  -6  -4  -2   70.34    2.20
  -6  -4  -2   70.65    1.88
   6   4   2   67.96    2.14
  -6   4  -2   72.55    2.20
  -6   4  -2   70.65    2.20
  -6   4  -2   71.30    2.22
  -6   4  -2   69.88    2.22
  -7  -4  -2   25.16    0.94
  -7  -4  -2   25.76    1.11
  -7  -4  -2   27.87    1.14
  -7  -4  -2   21.61    1.06
   7  -4   2   29.93    1.16
   7  -4   2   29.35    1.26
  -7  -4  -2   27.66    1.14
   7  -4   2   29.35    1.22
  -7  -4  -2   23.79    0.82
  -7   4  -2   27.16    1.14
  -7   4  -2   27.93    1.17
  -7   4  -2   25.42    1.11
  -7   4  -2   28.67    1.19
  -7   4  -2   28.45    1.14
  -8  -4  -2   23.56    0.92
   8  -4   2   25.89    1.07
   8  -4   2   24.55    1.14
  -8  -4  -2   23.77    1.11
  -8  -4  -2   25.64    1.11
  -8  -4  -2   23.07    0.80
   8  -4   2   25.52    1.20
  -8  -4  -2   22.89    1.08
  -8  -4  -2   22.88    1.09
  -8   4  -2   22.50    1.08
  -8   4  -2   24.47    1.14
  -8   4  -2   24.43    1.08
  -8   4  -2   24.54    1.11
  -8   4  -2   22.67    1.09
  -9  -4  -2    3.58    0.33
  -9  -4  -2    2.74    0.42
  -9  -4  -2    3.08    0.48
  -9  -4  -2    3.99    0.27
   9  -4   2    3.71    0.44
  -9  -4  -2    4.25    0.43
  -9   4  -2    5.25    0.53
  -9   4  -2    2.99    0.41
  -9   4  -2    3.35    0.39
 -10  -4  -2    1.38    0.36
 -10  -4  -2    1.57    0.34
 -10  -4  -2    1.55    0.26
  10  -4   2    2.09    0.43
 -10  -4  -2    1.83    0.20
 -10   4  -2    1.23    0.28
 -10   4  -2    1.74    0.38
 -10   4  -2    1.51    0.38
 -11  -5   2   11.09    0.68
 -11  -5   2   12.21    0.83
  11  -5  -2   12.48    0.64
 -11  -5   2   11.93    0.56
  11  -5  -2   14.32    0.94
 -11  -5   2   10.53    0.81
 -11   5   2   12.86    0.82
 -11   5   2   13.35    0.90
 -11   5   2   12.86    0.87
  11   5  -2   12.08    0.86
 -10  -5   2    7.43    0.52
  10  -5  -2    6.28    0.59
  10  -5  -2    7.76    0.46
 -10  -5   2    7.98    0.66
 -10  -5   2    6.87    0.38
 -10  -5   2    7.18    0.61
 -10   5   2    7.72    0.60
  10   5  -2    6.29    0.58
 -10   5   2    8.14    0.62
 -10   5   2    7.10    0.61
 -10   5   2    7.53    0.62
   9  -5  -2    7.98    0.64
  -9  -5   2    8.28    0.38
  -9  -5   2    8.57    0.67
  -9  -5   2    7.91    0.62
  -9  -5   2    8.45    0.54
   9  -5  -2    9.19    0.66
  -9  -5   2    8.33    0.66
   9  -5  -2    9.15    0.52
  -9   5   2    8.74    0.60
   9   5  -2    9.72    0.68
   9   5  -2    8.67    0.73
  -9   5   2    7.09    0.58
  -9   5   2    9.19    0.67
  -9   5   2    8.72    0.60
   8  -5  -2   10.91    0.70
  -8  -5   2    8.92    0.64
  -8  -5   2   10.02    0.66
  -8  -5   2    9.74    0.57
  -8  -5   2    9.91    0.70
   8  -5  -2    9.41    0.65
  -8  -5   2    9.05    0.63
   8  -5  -2    9.72    0.65
   8   5  -2    9.76    0.69
  -8   5   2   10.53    0.60
  -8   5   2    9.76    0.60
   8   5  -2   10.22    0.67
  -8   5   2    9.97    0.67
  -8   5   2    9.02    0.64
  -8   5   2    9.72    0.66
   7  -5  -2    0.38    0.16
  -7  -5   2    0.31    0.14
   7  -5  -2    0.47    0.15
  -7  -5   2    0.99    0.23
   7  -5  -2    0.79    0.21
  -7  -5   2    0.45    0.13
  -7  -5   2    0.33    0.09
  -7   5   2    0.59    0.18
   7   5  -2    0.89    0.25
  -7   5   2    0.80    0.24
  -7   5   2    0.32    0.17
  -7   5   2    0.50    0.15
   7   5  -2    0.76    0.24
  -7   5   2    0.77    0.21
  -6  -5   2    2.81    0.31
   6  -5  -2    2.25    0.36
   6  -5  -2    2.09    0.33
  -6  -5   2    2.17    0.25
  -6  -5   2    1.73    0.33
   6  -5  -2    2.68    0.30
  -6  -5   2    1.95    0.31
   6   5  -2    2.32    0.35
  -6   5   2    2.09    0.33
  -6   5   2    2.51    0.38
  -6   5   2    2.25    0.24
   6   5  -2    1.79    0.27
  -6   5   2    2.68    0.26
  -6   5   2    1.88    0.34
   5  -5  -2   22.18    0.96
   5  -5  -2   21.80    0.94
  -5  -5   2   22.04    0.89
  -5  -5   2   22.65    0.94
   5  -5  -2   22.41    0.94
  -5  -5   2   22.63    1.00
  -5  -5   2   22.20    0.96
   5   5  -2   22.04    0.92
  -5   5   2   23.18    0.83
   5   5  -2   21.69    0.97
  -5   5   2   21.57    0.93
  -5   5   2   21.80    0.95
  -5   5   2   23.08    0.83
  -5   5   2   22.36    0.96
   4  -5  -2   43.62    1.45
   4  -5  -2   42.68    1.41
  -4  -5   2   39.81    1.44
   4  -5  -2   41.14    1.44
  -4  -5   2   41.02    1.38
  -4   5   2   42.46    1.23
   4   5  -2   42.43    1.42
  -4   5   2   41.04    1.41
   4   5  -2   42.61    1.48
   4   5  -2   40.31    1.42
  -4   5   2   40.18    1.37
  -4   5   2   41.34    1.22
  -4   5   2   40.53    1.40
   3  -5  -2   25.79    1.00
   3  -5  -2   25.49    1.00
   3  -5  -2   26.85    0.96
  -3  -5   2   25.93    0.98
  -3  -5   2   26.52    1.00
  -3  -5   2   26.88    1.04
   3   5  -2   27.09    0.99
   3   5  -2   25.14    0.99
  -3   5   2   26.51    1.00
  -3   5   2   26.42    0.96
  -3   5   2   26.74    0.81
  -3   5   2   24.93    0.98
  -2  -5   2   80.29    2.29
   2  -5  -2   84.05    2.38
  -2  -5   2   79.53    2.26
   2  -5  -2   81.99    2.27
  -2  -5   2   80.19    2.32
   2   5  -2   81.95    2.32
  -2   5   2   78.59    2.29
  -2   5   2   80.78    2.27
  -2   5   2   79.26    2.21
   2   5  -2   80.33    2.34
  -2   5   2   76.61    2.01
  -1  -5   2   70.03    2.07
   1  -5  -2   70.76    2.07
  -1  -5   2   71.86    2.09
  -1  -5   2   72.96    1.84
   1  -5  -2   67.83    1.96
   1  -5  -2   71.82    1.80
  -1  -5   2   68.75    2.04
   1  -5  -2   73.33    2.09
  -1   5   2   72.19    1.81
   1   5  -2   72.32    1.82
   1   5  -2   70.98    2.05
  -1   5   2   74.56    1.99
  -1   5   2   70.60    2.09
   1   5  -2   72.47    2.08
   0  -5  -2   70.11    2.02
   0  -5  -2   68.32    1.80
   0  -5   2   70.67    2.02
   0  -5   2   68.71    1.99
   0  -5   2   72.89    1.89
   0  -5   2   70.95    2.07
   0  -5  -2   71.96    1.90
   0  -5  -2   69.75    2.05
   0  -5   2   70.01    2.05
   0   5   2   69.02    1.79
   0   5   2   68.32    2.04
   0   5  -2   69.93    1.86
   0   5  -2   70.55    2.01
   0   5   2   70.51    1.91
   0   5  -2   69.31    2.05
  -1  -5  -2   79.34    2.20
   1  -5   2   79.17    2.16
  -1  -5  -2   78.18    2.07
   1  -5   2   80.77    2.27
   1  -5   2   80.06    2.16
   1  -5   2   78.36    2.28
   1  -5   2   76.98    2.21
  -1  -5  -2   79.70    2.28
  -1  -5  -2   78.25    2.06
  -1   5  -2   78.30    2.13
   1   5   2   78.50    2.26
  -1   5  -2   79.08    2.23
   1   5   2   74.72    2.03
   1   5   2   77.50    2.07
  -1   5  -2   77.48    2.26
   2  -5   2   24.54    0.81
  -2  -5  -2   23.65    0.93
   2  -5   2   24.59    0.94
  -2  -5  -2   23.98    0.74
   2  -5   2   23.96    0.95
  -2  -5  -2   22.97    0.80
   2  -5   2   23.94    0.89
  -2  -5  -2   24.35    0.98
   2  -5   2   24.41    0.91
  -2  -5  -2   24.53    0.84
  -2   5  -2   24.26    0.91
  -2   5  -2   23.43    0.86
   2   5   2   23.42    0.80
   2   5   2   23.31    0.93
  -2   5  -2   23.46    0.92
  -3  -5  -2   33.14    1.20
  -3  -5  -2   33.89    1.06
  -3  -5  -2   34.06    1.10
   3  -5   2   36.12    1.23
   3  -5   2   36.36    1.26
  -3  -5  -2   33.33    0.98
  -3  -5  -2   34.17    1.25
   3  -5   2   34.64    1.25
   3  -5   2   35.34    1.04
   3  -5   2   35.21    1.22
  -3  -5  -2   33.43    0.98
  -3   5  -2   32.75    1.20
  -3   5  -2   33.39    1.19
  -3   5  -2   34.39    1.18
   3   5   2   34.10    1.12
   3   5   2   33.99    1.25
   4  -5   2   15.40    0.75
  -4  -5  -2   13.91    0.52
   4  -5   2   15.56    0.76
   4  -5   2   15.96    0.76
  -4  -5  -2   13.64    0.63
  -4  -5  -2   14.07    0.70
  -4  -5  -2   14.99    0.76
   4  -5   2   15.93    0.52
  -4  -5  -2   14.32    0.52
  -4   5  -2   13.31    0.68
  -4   5  -2   13.69    0.68
  -4   5  -2   14.52    0.71
   4   5   2   15.03    0.67
   4   5   2   15.21    0.75
   5  -5   2    3.96    0.38
  -5  -5  -2    4.03    0.34
  -5  -5  -2    3.49    0.37
   5  -5   2    3.89    0.37
  -5  -5  -2    4.36    0.26
   5  -5   2    3.93    0.37
  -5  -5  -2    4.10    0.26
  -5  -5  -2    3.88    0.36
  -5   5  -2    4.14    0.38
  -5   5  -2    4.45    0.40
  -5   5  -2    4.20    0.38
  -5   5  -2    3.66    0.35
   5   5   2    3.74    0.33
  -6  -5  -2    1.33    0.19
   6  -5   2    1.65    0.29
  -6  -5  -2    1.60    0.30
   6  -5   2    2.22    0.38
  -6  -5  -2    1.73    0.32
  -6  -5  -2    1.45    0.27
  -6  -5  -2    1.79    0.23
  -6  -5  -2    1.38    0.16
   6  -5   2    1.82    0.33
   6   5   2    1.98    0.31
  -6   5  -2    2.08    0.37
  -6   5  -2    1.64    0.29
  -6   5  -2    1.58    0.30
  -6   5  -2    1.54    0.29
  -7  -5  -2   11.25    0.70
  -7  -5  -2   12.67    0.76
   7  -5   2   12.98    0.72
  -7  -5  -2   12.48    0.75
  -7  -5  -2   12.70    0.73
   7  -5   2   11.86    0.73
   7  -5   2   13.18    0.79
  -7  -5  -2   12.23    0.56
  -7  -5  -2   12.15    0.55
  -7  -5  -2   12.48    0.51
  -7   5  -2   12.22    0.73
  -7   5  -2   12.29    0.73
  -7   5  -2   11.61    0.72
  -7   5  -2   12.11    0.74
  -7   5  -2   13.32    0.76
  -8  -5  -2    9.39    0.50
   8  -5   2   10.92    0.69
  -8  -5  -2   10.00    0.69
   8  -5   2   10.46    0.74
  -8  -5  -2    9.83    0.68
  -8  -5  -2    9.78    0.51
  -8  -5  -2   10.50    0.47
  -8  -5  -2   10.07    0.67
   8  -5   2   11.02    0.81
  -8   5  -2   10.22    0.68
  -8   5  -2    9.79    0.68
  -8   5  -2   10.11    0.69
  -8   5  -2    9.45    0.68
  -9  -5  -2    7.12    0.62
  -9  -5  -2    6.66    0.43
   9  -5   2    8.20    0.67
  -9  -5  -2    7.93    0.40
  -9  -5  -2    8.40    0.63
  -9  -5  -2    7.66    0.47
  -9   5  -2    7.27    0.61
  -9   5  -2    8.43    0.66
  -9   5  -2    7.66    0.61
 -10  -5  -2   12.45    0.83
 -10  -5  -2   12.22    0.85
 -10  -5  -2   13.19    0.67
  10  -5   2   12.59    0.88
 -10  -5  -2   13.34    0.67
 -10  -5  -2   13.55    0.56
 -10   5  -2   12.05    0.84
 -10   5  -2   12.51    0.83
 -10   5  -2   13.34    0.87
  10  -6  -2    7.04    0.46
 -10  -6   2    5.82    0.58
 -10  -6   2    6.44    0.52
 -10  -6   2    6.43    0.60
  10  -6  -2    7.43    0.64
 -10   6   2    6.03    0.60
 -10   6   2    7.17    0.60
  10   6  -2    6.97    0.63
 -10   6   2    6.23    0.56
 -10   6   2    5.65    0.57
   9  -6  -2    4.26    0.36
  -9  -6   2    3.72    0.53
  -9  -6   2    4.45    0.49
  -9  -6   2    3.95    0.37
   9  -6  -2    5.79    0.55
   9  -6  -2    5.37    0.53
   9   6  -2    5.48    0.55
  -9   6   2    5.11    0.50
  -9   6   2    4.45    0.46
  -9   6   2    4.69    0.51
  -9   6   2    3.29    0.39
  -8  -6   2   19.89    0.89
   8  -6  -2   18.51    0.99
  -8  -6   2   18.95    1.00
  -8  -6   2   18.98    1.04
   8  -6  -2   18.54    0.99
  -8   6   2   19.88    0.89
  -8   6   2   18.64    0.88
   8   6  -2   18.60    0.97
  -8   6   2   19.27    1.07
  -8   6   2   18.37    0.99
  -8   6   2   17.95    0.99
  -7  -6   2   18.07    0.98
  -7  -6   2   16.54    0.91
   7  -6  -2   17.80    0.93
   7  -6  -2   17.55    0.92
  -7  -6   2   17.79    0.91
   7  -6  -2   18.46    0.94
  -7  -6   2   18.52    0.84
  -7   6   2   18.65    0.81
  -7   6   2   17.76    0.92
  -7   6   2   17.35    0.91
  -7   6   2   17.95    0.94
   7   6  -2   17.24    0.90
  -7   6   2   18.17    0.81
   6  -6  -2   32.14    1.28
  -6  -6   2   29.82    1.24
  -6  -6   2   29.69    1.31
  -6  -6   2   28.17    1.13
   6  -6  -2   32.11    1.30
   6  -6  -2   30.39    1.27
  -6  -6   2   29.50    1.23
  -6   6   2   30.55    1.25
  -6   6   2   31.26    1.28
  -6   6   2   32.38    1.11
  -6   6   2   30.28    1.24
  -6   6   2   30.52    1.09
   6   6  -2   30.38    1.23
  -5  -6   2   12.16    0.67
  -5  -6   2   12.42    0.74
   5  -6  -2   12.86    0.68
   5  -6  -2   11.99    0.70
  -5  -6   2   11.57    0.63
  -5  -6   2   11.84    0.68
   5  -6  -2   12.89    0.72
   5   6  -2   12.01    0.69
  -5   6   2   13.20    0.69
  -5   6   2   11.80    0.68
  -5   6   2   11.79    0.54
  -5   6   2   11.52    0.68
  -5   6   2   12.47    0.56
   5   6  -2   12.89    0.68
   4  -6  -2   39.79    1.37
  -4  -6   2   39.27    1.47
  -4  -6   2   38.39    1.38
   4  -6  -2   39.68    1.42
   4  -6  -2   39.57    1.45
  -4  -6   2   38.77    1.42
   4   6  -2   38.24    1.37
  -4   6   2   38.93    1.38
  -4   6   2   39.93    1.19
  -4   6   2   38.33    1.41
  -4   6   2   39.38    1.42
   4   6  -2   38.16    1.41
  -4   6   2   39.97    1.19
  -3  -6   2   14.37    0.70
  -3  -6   2   13.30    0.67
   3  -6  -2   14.37    0.72
  -3  -6   2   13.26    0.72
   3  -6  -2   14.10    0.73
   3  -6  -2   14.93    0.67
  -3   6   2   13.09    0.69
  -3   6   2   14.15    0.51
   3   6  -2   13.77    0.71
  -3   6   2   14.61    0.71
  -3   6   2   14.08    0.66
   3   6  -2   14.06    0.68
   2  -6  -2   18.41    0.73
  -2  -6   2   17.33    0.82
  -2  -6   2   17.05    0.76
   2  -6  -2   17.32    0.80
  -2  -6   2   18.15    0.81
   2  -6  -2   17.47    0.80
   2   6  -2   17.48    0.75
  -2   6   2   17.81    0.73
  -2   6   2   18.25    0.58
  -2   6   2   17.77    0.79
   2   6  -2   16.79    0.79
  -2   6   2   18.28    0.82
   1  -6  -2    3.16    0.18
  -1  -6   2    3.03    0.30
   1  -6  -2    3.06    0.24
   1  -6  -2    2.91    0.30
  -1  -6   2    2.83    0.27
  -1  -6   2    2.68    0.17
  -1  -6   2    2.73    0.28
   1  -6  -2    2.17    0.26
  -1  -6   2    2.37    0.26
   1   6  -2    3.40    0.32
   1   6  -2    2.90    0.17
   1   6  -2    2.74    0.26
  -1   6   2    3.05    0.17
  -1   6   2    2.52    0.28
  -1   6   2    2.74    0.23
   0  -6   2    1.30    0.23
   0  -6  -2    0.78    0.18
   0  -6  -2    0.91    0.11
   0  -6  -2    1.04    0.16
   0  -6   2    1.19    0.14
   0  -6   2    0.95    0.22
   0  -6  -2    1.34    0.24
   0  -6   2    1.21    0.23
   0  -6   2    1.53    0.25
   0   6   2    1.14    0.12
   0   6  -2    0.85    0.18
   0   6   2    1.01    0.21
   0   6  -2    1.38    0.18
   0   6  -2    1.04    0.20
   0   6   2    1.06    0.16
  -1  -6  -2   22.92    0.76
   1  -6   2   23.94    0.89
   1  -6   2   23.38    0.91
  -1  -6  -2   24.86    1.02
   1  -6   2   23.71    0.97
  -1  -6  -2   24.28    0.92
   1  -6   2   23.64    0.85
  -1  -6  -2   22.66    0.76
  -1  -6  -2   23.23    0.96
   1  -6   2   23.97    0.98
   1   6   2   22.92    0.75
   1   6   2   23.24    0.96
  -1   6  -2   22.44    0.82
  -1   6  -2   24.00    0.91
   1   6   2   22.90    0.77
  -1   6  -2   22.68    0.95
  -2  -6  -2   15.33    0.67
   2  -6   2   15.49    0.70
  -2  -6  -2   15.85    0.55
   2  -6   2   15.85    0.78
   2  -6   2   15.18    0.74
   2  -6   2   15.84    0.64
  -2  -6  -2   15.70    0.79
  -2  -6  -2   15.01    0.74
  -2  -6  -2   15.27    0.61
   2  -6   2   14.49    0.67
  -2   6  -2   16.28    0.77
   2   6   2   14.97    0.74
  -2   6  -2   15.99    0.72
   2   6   2   14.65    0.59
  -2   6  -2   15.05    0.67
  -3  -6  -2   41.79    1.32
  -3  -6  -2   41.05    1.47
   3  -6   2   42.53    1.46
  -3  -6  -2   41.10    1.53
  -3  -6  -2   41.75    1.33
   3  -6   2   45.80    1.31
   3  -6   2   42.13    1.52
  -3  -6  -2   40.94    1.15
   3  -6   2   43.26    1.52
  -3  -6  -2   41.03    1.15
   3  -6   2   43.38    1.46
   3   6   2   42.96    1.35
  -3   6  -2   43.60    1.41
  -3   6  -2   40.68    1.46
  -3   6  -2   40.56    1.41
   3   6   2   43.36    1.52
  -4  -6  -2   12.02    0.61
  -4  -6  -2   12.58    0.45
  -4  -6  -2   12.44    0.45
  -4  -6  -2   13.11    0.70
   4  -6   2   12.27    0.48
   4  -6   2   12.09    0.69
  -4  -6  -2   12.16    0.57
   4  -6   2   12.37    0.67
  -4  -6  -2   12.35    0.72
   4  -6   2   12.16    0.69
   4   6   2   11.55    0.68
  -4   6  -2   12.91    0.68
  -4   6  -2   11.79    0.65
   4   6   2   12.01    0.60
  -4   6  -2   12.49    0.70
  -5  -6  -2   34.02    1.32
   5  -6   2   34.55    1.36
  -5  -6  -2   34.04    0.98
   5  -6   2   34.86    1.35
  -5  -6  -2   34.36    0.99
   5  -6   2   35.47    1.36
  -5  -6  -2   34.60    1.25
  -5  -6  -2   34.31    1.38
  -5   6  -2   34.16    1.30
  -5   6  -2   32.94    1.29
  -5   6  -2   29.75    1.28
   5   6   2   33.84    1.25
   6  -6   2   16.50    0.88
  -6  -6  -2   16.49    0.59
  -6  -6  -2   16.23    0.59
  -6  -6  -2   16.66    0.82
   6  -6   2   17.49    0.88
  -6  -6  -2   17.19    0.68
  -6  -6  -2   16.76    0.91
  -6  -6  -2   18.15    0.91
   6  -6   2   17.46    0.91
  -6   6  -2   14.75    0.83
   6   6   2   16.85    0.83
  -6   6  -2   17.02    0.88
  -6   6  -2   16.48    0.87
   7  -6   2   16.77    0.93
  -7  -6  -2   16.38    0.94
   7  -6   2   19.29    0.99
   7  -6   2   16.06    0.87
  -7  -6  -2   16.07    0.63
  -7  -6  -2   20.48    1.14
  -7  -6  -2   16.33    0.87
  -7  -6  -2   18.57    0.71
  -7  -6  -2   17.30    0.64
  -7   6  -2   19.28    0.98
  -7   6  -2   16.98    0.95
  -7   6  -2   17.44    0.93
  -7   6  -2   17.40    0.95
  -7   6  -2   17.47    0.90
  -8  -6  -2    2.90    0.46
   8  -6   2    4.02    0.48
  -8  -6  -2    3.52    0.43
  -8  -6  -2    3.90    0.57
  -8  -6  -2    3.38    0.25
  -8  -6  -2    3.69    0.29
  -8  -6  -2    3.40    0.27
  -8   6  -2    2.78    0.43
  -8   6  -2    3.13    0.46
  -8   6  -2    3.47    0.52
  -8   6  -2    3.65    0.43
  -9  -6  -2    3.68    0.53
  -9  -6  -2    4.04    0.58
  -9  -6  -2    3.71    0.30
  -9  -6  -2    3.09    0.29
   9  -6   2    2.62    0.43
  -9  -6  -2    3.43    0.29
  -9   6  -2    2.86    0.47
  -9   6  -2    4.59    0.50
  -9   6  -2    3.50    0.49
  -9  -7   2    5.31    0.58
   9  -7  -2    6.22    0.57
  -9  -7   2    5.94    0.59
  -9  -7   2    6.44    0.50
   9   7  -2    6.07    0.59
  -9   7   2    6.70    0.61
  -9   7   2    6.60    0.62
  -9   7   2    6.58    0.52
  -9   7   2    6.17    0.53
  -8  -7   2    1.21    0.34
   8  -7  -2    1.07    0.28
   8  -7  -2    1.21    0.31
  -8  -7   2    1.17    0.25
  -8   7   2    1.35    0.27
  -8   7   2    0.98    0.26
   8   7  -2    1.36    0.32
  -8   7   2    1.00    0.25
  -8   7   2    0.85    0.25
  -7  -7   2    1.76    0.32
  -7  -7   2    1.75    0.35
   7  -7  -2    2.34    0.39
   7  -7  -2    1.37    0.29
  -7  -7   2    1.80    0.36
  -7   7   2    2.53    0.28
  -7   7   2    1.87    0.34
   7   7  -2    2.31    0.36
  -7   7   2    2.37    0.31
  -7   7   2    1.70    0.34
  -7   7   2    2.00    0.37
  -6  -7   2    0.99    0.24
   6  -7  -2    1.24    0.28
  -6  -7   2    0.79    0.25
  -6  -7   2    0.96    0.26
  -6  -7   2    1.18    0.33
   6  -7  -2    0.67    0.26
   6  -7  -2    0.61    0.21
  -6   7   2    0.97    0.24
  -6   7   2    1.13    0.22
  -6   7   2    1.04    0.20
   6   7  -2    0.76    0.21
  -6   7   2    1.11    0.31
  -6   7   2    0.85    0.24
   5  -7  -2    0.36    0.16
   5  -7  -2    0.45    0.15
  -5  -7   2    0.66    0.22
   5  -7  -2    0.66    0.22
  -5  -7   2    0.42    0.19
  -5  -7   2    0.53    0.18
   5   7  -2    0.47    0.20
  -5   7   2    0.56    0.18
  -5   7   2    0.43    0.17
   5   7  -2    0.53    0.19
  -5   7   2    0.45    0.17
  -5   7   2    0.57    0.14
  -5   7   2    0.80    0.16
   4  -7  -2   11.19    0.68
   4  -7  -2   12.49    0.72
  -4  -7   2   10.52    0.69
  -4  -7   2   10.39    0.65
  -4  -7   2   11.79    0.66
   4  -7  -2   12.02    0.65
  -4   7   2   11.02    0.63
   4   7  -2   10.62    0.63
  -4   7   2   11.36    0.68
  -4   7   2   11.17    0.49
  -4   7   2   12.02    0.50
  -4   7   2   11.61    0.69
   4   7  -2   10.44    0.67
   3  -7  -2   25.94    1.09
  -3  -7   2   23.67    1.08
   3  -7  -2   23.61    1.07
   3  -7  -2   24.36    0.98
  -3  -7   2   24.42    1.06
  -3  -7   2   24.95    1.01
  -3   7   2   24.34    1.06
  -3   7   2   24.48    0.98
   3   7  -2   24.67    1.07
  -3   7   2   25.14    0.80
   3   7  -2   24.15    0.99
   2  -7  -2   11.25    0.56
  -2  -7   2   11.23    0.66
   2  -7  -2   11.37    0.67
  -2  -7   2   11.67    0.66
  -2  -7   2   10.56    0.62
   2  -7  -2   10.84    0.66
  -2  -7   2   11.32    0.61
   2   7  -2   10.63    0.59
  -2   7   2   11.84    0.66
   2   7  -2   11.36    0.66
  -2   7   2    8.63    0.51
  -2   7   2   10.86    0.41
  -1  -7   2   20.19    0.93
   1  -7  -2   22.01    0.97
   1  -7  -2   21.91    0.69
  -1  -7   2   20.55    0.92
  -1  -7   2   21.17    0.95
  -1  -7   2   21.99    0.89
   1  -7  -2   22.62    0.99
   1  -7  -2   22.60    0.83
   1   7  -2   22.11    0.68
  -1   7   2   20.46    0.93
   1   7  -2   21.72    0.97
  -1   7   2   21.35    0.66
   1   7  -2   20.61    0.89
  -1   7   2   20.63    0.80
   0  -7  -2   20.62    0.92
   0  -7   2   21.97    0.93
   0  -7  -2   21.16    0.99
   0  -7  -2   21.45    0.78
   0  -7  -2   22.06    0.71
   0  -7   2   21.47    0.75
   0  -7   2   21.32    0.96
   0  -7   2   20.78    0.95
   0  -7  -2   23.86    1.00
   0   7   2   21.21    0.77
   0   7   2   20.17    0.94
   0   7  -2   22.40    0.97
   0   7   2   21.37    0.69
   0   7  -2   20.81    0.74
   0   7  -2   22.56    0.91
  -1  -7  -2   10.28    0.44
   1  -7   2   10.73    0.57
  -1  -7  -2   10.20    0.45
   1  -7   2   10.74    0.64
   1  -7   2   10.85    0.65
   1  -7   2   10.85    0.58
  -1  -7  -2   11.11    0.67
  -1  -7  -2    9.88    0.61
  -1  -7  -2   10.96    0.60
   1  -7   2   10.68    0.52
   1   7   2   10.53    0.46
  -1   7  -2   11.26    0.66
   1   7   2    9.06    0.60
  -1   7  -2   10.66    0.51
   1   7   2    9.74    0.43
  -1   7  -2   10.72    0.59
  -2  -7  -2   21.39    1.00
  -2  -7  -2   20.38    0.88
  -2  -7  -2   21.15    0.97
   2  -7   2   22.29    0.90
  -2  -7  -2   21.26    0.68
   2  -7   2   20.94    0.98
  -2  -7  -2   20.28    0.77
   2  -7   2   21.95    0.98
   2  -7   2   21.72    0.88
   2  -7   2   20.70    0.84
   2   7   2   22.08    0.98
  -2   7  -2   20.93    0.96
   2   7   2   19.09    0.74
  -2   7  -2   20.73    0.84
  -2   7  -2   21.72    0.91
  -3  -7  -2    8.76    0.48
   3  -7   2    8.95    0.55
   3  -7   2    8.83    0.47
   3  -7   2   10.48    0.58
  -3  -7  -2    8.79    0.52
   3  -7   2    8.68    0.59
  -3  -7  -2    9.44    0.64
   3  -7   2    9.67    0.63
  -3  -7  -2    8.16    0.59
  -3   7  -2    9.64    0.56
  -3   7  -2    9.04    0.54
   3   7   2    7.32    0.55
   3   7   2    8.35    0.46
  -4  -7  -2    0.69    0.19
  -4  -7  -2    0.73    0.18
  -4  -7  -2    0.58    0.19
   4  -7   2    0.72    0.15
   4  -7   2    0.81    0.21
   4  -7   2    0.53    0.15
   4  -7   2    0.64    0.19
  -4  -7  -2    0.50    0.16
   4   7   2    0.70    0.21
  -4   7  -2    0.79    0.20
   4   7   2    0.46    0.15
  -4   7  -2    0.73    0.22
  -4   7  -2    0.62    0.18
   5  -7   2    0.47    0.18
   5  -7   2    0.12    0.08
  -5  -7  -2    0.30    0.17
   5  -7   2    0.34    0.18
  -5  -7  -2    0.21    0.11
  -5  -7  -2    0.14    0.14
  -5  -7  -2    0.11    0.15
   5  -7   2    0.02    0.14
   5   7   2    0.24    0.15
  -5   7  -2    0.17    0.13
  -5   7  -2    0.30    0.16
  -5   7  -2    0.04    0.11
  -6  -7  -2    2.90    0.29
   6  -7   2    2.61    0.40
  -6  -7  -2    2.98    0.35
   6  -7   2    2.74    0.43
  -6  -7  -2    3.48    0.30
  -6  -7  -2    3.11    0.49
  -6   7  -2    3.97    0.42
  -6   7  -2    3.79    0.42
  -6   7  -2    3.75    0.38
   6   7   2    2.70    0.33
  -7  -7  -2    1.40    0.23
   7  -7   2    0.87    0.21
  -7  -7  -2    1.72    0.32
  -7  -7  -2    1.77    0.25
  -7  -7  -2    1.95    0.38
  -7   7  -2    1.58    0.31
  -7   7  -2    1.75    0.35
  -7   7  -2    1.24    0.30
  -8  -7  -2    6.32    0.41
  -8  -7  -2    7.15    0.45
   8  -7   2    7.38    0.65
  -8  -7  -2    6.72    0.64
  -8  -7  -2    6.92    0.63
  -8   7  -2    7.13    0.62
  -8   7  -2    6.01    0.58
  -8  -8   2    1.62    0.31
  -8  -8   2    0.96    0.28
   8  -8  -2    1.97    0.46
   8  -8  -2    1.82    0.38
  -8   8   2    0.78    0.31
   8   8  -2    1.55    0.37
  -8   8   2    1.19    0.27
  -8   8   2    1.10    0.28
  -8   8   2    1.69    0.29
  -7  -8   2    8.31    0.71
   7  -8  -2    8.88    0.66
   7  -8  -2    7.88    0.67
  -7  -8   2    9.09    0.62
  -7  -8   2   11.13    0.76
   7   8  -2    8.61    0.63
  -7   8   2    8.68    0.54
  -7   8   2    8.60    0.67
  -7   8   2    8.93    0.54
  -7   8   2    7.57    0.66
  -6  -8   2    6.68    0.54
  -6  -8   2    6.92    0.62
  -6  -8   2    5.90    0.54
   6  -8  -2    6.68    0.58
   6  -8  -2    7.81    0.59
  -6   8   2    6.39    0.42
  -6   8   2    5.98    0.54
  -6   8   2    7.34    0.59
  -6   8   2    7.24    0.44
  -6   8   2    7.40    0.64
   6   8  -2    6.16    0.52
  -5  -8   2    7.57    0.57
   5  -8  -2    6.50    0.59
   5  -8  -2    7.53    0.56
  -5  -8   2    7.20    0.61
  -5   8   2    7.85    0.43
  -5   8   2    6.66    0.54
  -5   8   2    8.12    0.44
   5   8  -2    7.44    0.60
  -5   8   2    7.68    0.62
   5   8  -2    8.25    0.57
  -5   8   2    8.65    0.64
   4  -8  -2    3.29    0.47
  -4  -8   2    2.01    0.31
   4  -8  -2    2.70    0.32
   4  -8  -2    2.88    0.45
  -4  -8   2    2.88    0.34
  -4  -8   2    2.30    0.39
  -4   8   2    2.63    0.23
  -4   8   2    2.25    0.39
   4   8  -2    2.39    0.35
  -4   8   2    2.99    0.34
   4   8  -2    2.52    0.31
  -4   8   2    2.62    0.21
   3  -8  -2   11.48    0.73
  -3  -8   2   11.30    0.65
  -3  -8   2   11.48    0.69
   3  -8  -2   11.55    0.62
  -3  -8   2   10.73    0.70
   3  -8  -2   10.60    0.70
  -3  -8   2   10.06    0.68
   3   8  -2   10.50    0.61
  -3   8   2   11.29    0.63
  -3   8   2   11.04    0.45
  -3   8   2   11.71    0.72
   3   8  -2   10.95    0.70
   2  -8  -2    1.91    0.35
  -2  -8   2    1.68    0.33
   2  -8  -2    1.36    0.28
   2  -8  -2    2.15    0.30
  -2  -8   2    1.77    0.31
  -2  -8   2    1.57    0.29
  -2  -8   2    1.40    0.29
   2   8  -2    1.59    0.32
  -2   8   2    1.54    0.26
   2   8  -2    1.80    0.27
  -2   8   2    1.94    0.16
  -2   8   2    1.52    0.31
  -1  -8   2    1.61    0.34
   1  -8  -2    1.13    0.25
   1  -8  -2    1.29    0.30
  -1  -8   2    1.49    0.31
  -1  -8   2    1.40    0.27
   1  -8  -2    1.47    0.24
  -1  -8   2    1.39    0.29
   1  -8  -2    1.36    0.28
   1  -8  -2    1.35    0.15
   1   8  -2    1.61    0.28
  -1   8   2    1.16    0.24
  -1   8   2    1.32    0.14
  -1   8   2    1.51    0.24
   1   8  -2    1.20    0.24
   0  -8  -2    2.68    0.43
   0  -8   2    2.95    0.32
   0  -8  -2    2.22    0.37
   0  -8   2    3.28    0.45
   0  -8  -2    2.98    0.25
   0  -8  -2    2.80    0.21
   0  -8   2    1.87    0.31
   0  -8  -2    2.76    0.39
   0  -8   2    3.03    0.23
   0  -8   2    2.90    0.33
   0   8  -2    2.73    0.29
   0   8   2    2.77    0.24
   0   8   2    3.34    0.38
   0   8  -2    2.85    0.23
   0   8   2    2.42    0.20
   0   8  -2    2.91    0.42
   1  -8   2    1.87    0.31
  -1  -8  -2    2.06    0.37
   1  -8   2    1.16    0.25
   1  -8   2    1.45    0.33
  -1  -8  -2    1.42    0.25
  -1  -8  -2    1.75    0.31
   1  -8   2    1.67    0.28
  -1  -8  -2    1.66    0.17
  -1  -8  -2    1.88    0.20
   1  -8   2    1.87    0.26
  -1   8  -2    2.00    0.27
   1   8   2    1.82    0.18
   1   8   2    1.62    0.29
   1   8   2    1.60    0.18
  -1   8  -2    1.49    0.26
  -1   8  -2    1.48    0.28
   2  -8   2   12.10    0.64
   2  -8   2   12.98    0.67
  -2  -8  -2   12.51    0.75
  -2  -8  -2   12.99    0.57
   2  -8   2   13.40    0.81
  -2  -8  -2   13.70    0.83
  -2  -8  -2   12.23    0.71
   2  -8   2   13.74    0.79
   2  -8   2   13.45    0.70
   2   8   2   13.64    0.77
   2   8   2   12.84    0.57
  -2   8  -2   13.71    0.78
  -2   8  -2   12.90    0.68
  -2   8  -2   12.21    0.62
  -3  -8  -2    2.54    0.43
  -3  -8  -2    3.48    0.40
   3  -8   2    2.46    0.37
   3  -8   2    2.86    0.32
  -3  -8  -2    3.30    0.34
   3  -8   2    2.64    0.42
  -3  -8  -2    2.97    0.30
   3  -8   2    2.47    0.29
   3  -8   2    2.76    0.27
  -3   8  -2    3.35    0.34
   3   8   2    3.93    0.41
   3   8   2    2.57    0.26
  -3   8  -2    2.95    0.33
  -3   8  -2    2.43    0.36
  -4  -8  -2    7.67    0.49
   4  -8   2    8.13    0.63
   4  -8   2    9.78    0.80
   4  -8   2    8.39    0.46
  -4  -8  -2    7.45    0.62
  -4  -8  -2    8.23    0.54
   4  -8   2    7.77    0.55
   4   8   2    8.87    0.50
   4   8   2    7.30    0.60
  -4   8  -2    9.18    0.59
  -4   8  -2    9.62    0.66
  -4   8  -2    7.92    0.57
   5  -8   2    6.70    0.54
   5  -8   2    5.86    0.58
  -5  -8  -2    6.61    0.59
  -5  -8  -2    5.41    0.43
  -5  -8  -2    5.95    0.45
   5  -8   2    6.01    0.35
  -5   8  -2    5.75    0.54
   5   8   2    6.15    0.44
  -5   8  -2    6.23    0.53
  -5   8  -2    5.45    0.48
  -6  -8  -2   10.31    0.56
   6  -8   2    9.89    0.75
   6  -8   2    9.44    0.70
  -6  -8  -2    8.28    0.69
  -6  -8  -2    8.61    0.54
  -6  -8  -2    9.26    0.63
  -6   8  -2   10.20    0.73
   6   8   2    8.81    0.59
  -6   8  -2    9.60    0.67
  -7  -8  -2    1.57    0.26
  -7  -8  -2    1.79    0.28
  -7  -8  -2    1.42    0.31
   7  -8   2    1.29    0.32
  -7  -8  -2    1.44    0.33
  -7   8  -2    1.44    0.32
  -7   8  -2    1.31    0.35
  -7   8  -2    1.59    0.36
   7  -9  -2    0.37    0.30
  -7  -9   2    0.03    0.17
   7  -9  -2    0.31    0.21
  -7  -9   2    0.40    0.21
  -7   9   2    0.32    0.20
  -7   9   2    0.34    0.19
  -7   9   2    0.31    0.18
   7   9  -2    0.44    0.21
   6  -9  -2    0.58    0.24
   6  -9  -2    0.93    0.33
  -6  -9   2    0.57    0.22
  -6  -9   2    0.37    0.24
  -6  -9   2    0.56    0.20
  -6  -9   2    0.61    0.26
  -6   9   2    0.34    0.14
  -6   9   2    0.46    0.25
  -6   9   2    0.43    0.16
   6   9  -2    0.45    0.20
  -5  -9   2    1.42    0.32
  -5  -9   2    1.36    0.33
   5  -9  -2    0.99    0.32
   5  -9  -2    0.43    0.17
  -5  -9   2    0.72    0.28
   5   9  -2    0.81    0.23
  -5   9   2    0.74    0.26
  -5   9   2    1.01    0.19
  -5   9   2    1.01    0.18
  -5   9   2    0.93    0.25
   5   9  -2    0.66    0.21
  -4  -9   2    0.83    0.25
   4  -9  -2    1.90    0.41
   4  -9  -2    1.38    0.29
  -4  -9   2    2.09    0.43
  -4  -9   2    1.30    0.30
   4   9  -2    1.07    0.24
  -4   9   2    1.13    0.27
  -4   9   2    1.30    0.18
  -4   9   2    1.74    0.33
   4   9  -2    1.09    0.29
  -4   9   2    1.71    0.21
   3  -9  -2    2.05    0.37
   3  -9  -2    3.38    0.49
  -3  -9   2    2.65    0.39
  -3  -9   2    2.98    0.44
  -3  -9   2    2.46    0.42
   3  -9  -2    2.94    0.32
   3   9  -2    2.28    0.35
  -3   9   2    2.44    0.37
  -3   9   2    1.60    0.27
   3   9  -2    2.30    0.41
   2  -9  -2    3.57    0.52
  -2  -9   2    3.73    0.39
   2  -9  -2    3.44    0.34
  -2  -9   2    3.53    0.52
  -2  -9   2    3.22    0.46
   2  -9  -2    3.75    0.44
   2   9  -2    2.64    0.41
   2   9  -2    3.13    0.35
  -2   9   2    2.88    0.44
  -2   9   2    3.13    0.35
   1  -9  -2    5.94    0.39
   1  -9  -2    4.62    0.48
  -1  -9   2    4.81    0.47
  -1  -9   2    4.03    0.45
   1  -9  -2    4.41    0.49
  -1  -9   2    4.99    0.43
   1   9  -2    5.35    0.51
  -1   9   2    5.39    0.52
  -1   9   2    5.64    0.40
   1   9  -2    5.24    0.43
   0  -9   2    4.07    0.40
   0  -9  -2    4.50    0.32
   0  -9  -2    4.12    0.48
   0  -9  -2    3.79    0.44
   0  -9   2    4.79    0.30
   0  -9   2    4.37    0.42
   0  -9  -2    4.64    0.27
   0  -9   2    4.80    0.49
   0   9   2    4.22    0.32
   0   9   2    4.86    0.50
   0   9  -2    4.50    0.39
   0   9  -2    4.44    0.30
   0   9  -2    4.51    0.47
  -1  -9  -2    3.11    0.24
   1  -9   2    3.01    0.46
  -1  -9  -2    2.88    0.22
  -1  -9  -2    2.80    0.44
   1  -9   2    3.25    0.36
   1  -9   2    3.08    0.44
  -1  -9  -2    2.90    0.46
   1  -9   2    3.47    0.29
   1   9   2    2.67    0.24
   1   9   2    2.70    0.22
   1   9   2    3.09    0.47
  -1   9  -2    2.62    0.27
  -1   9  -2    2.31    0.34
  -1   9  -2    3.24    0.35
  -2  -9  -2    2.24    0.37
   2  -9   2    2.79    0.38
   2  -9   2    2.08    0.41
  -2  -9  -2    2.49    0.41
  -2  -9  -2    2.47    0.25
   2  -9   2    2.75    0.34
   2  -9   2    2.61    0.30
   2   9   2    2.24    0.23
  -2   9  -2    2.66    0.32
  -2   9  -2    2.74    0.32
   2   9   2    2.12    0.36
  -2   9  -2    2.28    0.41
  -3  -9  -2    0.99    0.30
   3  -9   2    0.97    0.21
   3  -9   2    1.12    0.25
   3  -9   2    0.84    0.21
  -3  -9  -2    0.97    0.20
  -3  -9  -2    1.25    0.28
   3  -9   2    0.83    0.27
   3   9   2    1.00    0.18
   3   9   2    0.97    0.26
  -3   9  -2    1.03    0.24
  -3   9  -2    0.91    0.23
  -3   9  -2    1.03    0.31
  -4  -9  -2    0.53    0.21
  -4  -9  -2    0.23    0.15
  -4  -9  -2    0.21    0.15
   4  -9   2    0.10    0.24
   4  -9   2    0.58    0.19
   4  -9   2    0.36    0.14
  -4   9  -2    0.10    0.19
  -4   9  -2    0.47    0.25
   4   9   2    0.11    0.14
   4   9   2    0.19    0.16
  -4   9  -2    0.23    0.14
  -5  -9  -2    0.57    0.23
   5  -9   2    0.78    0.26
   5  -9   2    0.49    0.31
   5  -9   2    1.09    0.20
  -5  -9  -2    1.44    0.29
  -5  -9  -2    1.04    0.34
  -5   9  -2    0.87    0.32
  -5   9  -2    0.83    0.25
   5   9   2    0.55    0.18
   5   9   2    1.06    0.32
  -6  -9  -2    0.28    0.22
  -6  -9  -2    0.72    0.20
  -6  -9  -2    0.64    0.22
   6  -9   2    0.69    0.29
  -6  -9  -2    0.70    0.29
  -6   9  -2    0.56    0.22
  -6   9  -2    0.40    0.21
   4 -10  -2    2.80    0.41
   4 -10  -2    2.43    0.42
  -4 -10   2    2.51    0.44
  -4 -10   2    3.47    0.45
  -4 -10   2    2.10    0.44
   4 -10  -2    3.67    0.53
   4  10  -2    1.80    0.32
  -4  10   2    1.90    0.34
  -4  10   2    2.36    0.40
   4  10  -2    2.05    0.43
  -3 -10   2    0.74    0.24
   3 -10  -2    0.57    0.21
  -3 -10   2    1.11    0.25
   3 -10  -2    1.04    0.31
  -3 -10   2    0.89    0.31
   3 -10  -2    0.91    0.26
   3  10  -2    0.71    0.23
   3  10  -2    0.47    0.21
  -3  10   2    0.56    0.19
  -3  10   2    0.89    0.25
  -2 -10   2    0.59    0.22
   2 -10  -2    0.91    0.21
   2 -10  -2    0.69    0.28
  -2 -10   2    0.69    0.25
   2 -10  -2    0.98    0.29
  -2 -10   2    0.63    0.26
   2  10  -2    0.66    0.27
   2  10  -2    0.72    0.22
  -2  10   2    0.23    0.17
  -2  10   2    0.70    0.23
   1 -10  -2    1.19    0.29
  -1 -10   2    0.51    0.18
   1 -10  -2    0.64    0.19
  -1 -10   2    0.69    0.27
  -1 -10   2    1.04    0.29
  -1  10   2    0.48    0.18
   1  10  -2    0.52    0.23
  -1  10   2    0.42    0.20
   1  10  -2    0.32    0.19
   0 -10  -2    0.21    0.11
   0 -10   2   -0.21    0.15
   0 -10  -2    0.01    0.16
   0 -10   2   -0.10    0.15
   0 -10   2    0.12    0.21
   0 -10  -2    0.03    0.19
   0  10   2    0.05    0.14
   0  10  -2    0.02    0.13
   0  10  -2   -0.01    0.15
   0  10  -2   -0.12    0.09
   0  10   2    0.07    0.14
   1 -10   2    1.57    0.25
   1 -10   2    1.03    0.27
   1 -10   2    1.10    0.24
   1 -10   2    1.46    0.32
  -1 -10  -2    0.84    0.28
  -1 -10  -2    1.17    0.30
  -1  10  -2    0.95    0.22
  -1  10  -2    1.40    0.32
   1  10   2    1.29    0.35
  -1  10  -2    0.97    0.23
   2 -10   2    0.08    0.25
   2 -10   2    0.43    0.20
   2 -10   2    0.64    0.22
  -2 -10  -2    0.34    0.21
   2 -10   2    0.28    0.20
  -2 -10  -2    0.73    0.18
  -2 -10  -2    0.49    0.23
   2  10   2    0.65    0.21
  -2  10  -2    0.93    0.25
  -2  10  -2    0.68    0.21
  -2  10  -2    0.45    0.20
   2  10   2    0.48    0.15
  -3 -10  -2    2.63    0.43
  -3 -10  -2    2.91    0.32
  -3 -10  -2    2.76    0.50
   3 -10   2    3.30    0.37
   3 -10   2    2.95    0.41
  -3  10  -2    2.59    0.38
   3  10   2    2.45    0.29
   3  10   2    3.01    0.52
  -3  10  -2    2.11    0.37
  -3  10  -2    2.11    0.36
  12   0  -3    0.21    0.14
  12   0  -3    0.25    0.23
 -12   0   3   -0.05    0.14
 -12   0   3    0.09    0.16
  11   0  -3    0.06    0.15
 -11   0   3    0.08    0.11
 -11   0   3    0.07    0.12
 -11   0   3   -0.30    0.11
  11   0  -3   -0.02    0.11
 -10   0   3   -0.07    0.08
  10   0  -3    0.04    0.12
 -10   0   3   -0.03    0.09
 -10   0   3   -0.09    0.12
 -10   0   3    0.11    0.09
  10   0  -3    0.05    0.11
  10   0  -3    0.04    0.10
  10   0  -3    0.13    0.13
  -9   0   3    0.04    0.11
   9   0  -3    0.03    0.08
   9   0  -3    0.06    0.08
   9   0  -3   -0.08    0.09
   9   0  -3    0.03    0.09
  -9   0   3   -0.08    0.08
  -9   0   3    0.06    0.10
  -9   0   3    0.00    0.08
   8   0  -3    0.04    0.07
  -8   0   3    0.12    0.10
   8   0  -3    0.07    0.10
   8   0  -3    0.10    0.09
  -8   0   3    0.05    0.08
   8   0  -3    0.19    0.12
  -8   0   3    0.03    0.08
  -8   0   3    0.11    0.08
   7   0  -3    0.13    0.09
   7   0  -3    0.00    0.07
   7   0  -3    0.12    0.09
  -7   0   3    0.00    0.06
  -7   0   3    0.11    0.10
   7   0  -3    0.01    0.09
  -7   0   3    0.00    0.05
   7   0  -3    0.06    0.08
  -7   0   3    0.06    0.07
  -6   0   3    0.10    0.06
   6   0  -3    0.08    0.07
  -6   0   3    0.12    0.08
   6   0  -3    0.06    0.06
  -6   0   3    0.20    0.09
   6   0  -3    0.09    0.06
   6   0  -3    0.14    0.08
   6   0  -3    0.08    0.08
  -6   0   3    0.11    0.07
   5   0  -3    0.09    0.05
  -5   0   3    0.06    0.06
   5   0  -3   -0.04    0.04
   5   0  -3    0.07    0.06
   5   0  -3   -0.01    0.04
   5   0  -3   -0.01    0.05
  -5   0   3    0.00    0.05
  -5   0   3    0.00    0.06
  -5   0   3    0.02    0.04
  -4   0   3    0.11    0.07
   4   0  -3    0.03    0.05
  -4   0   3    0.05    0.05
   4   0  -3    0.06    0.06
   4   0  -3    0.11    0.05
  -4   0   3    0.03    0.04
   4   0  -3    0.02    0.06
   4   0  -3    0.03    0.05
  -4   0   3    0.09    0.07
   3   0  -3    0.02    0.04
  -3   0   3    0.03    0.04
   3   0  -3    0.11    0.05
  -3   0   3    0.12    0.05
   3   0  -3    0.12    0.05
   3   0  -3    0.07    0.05
  -3   0   3    0.09    0.05
  -3   0   3    0.07    0.05
   2   0  -3   -0.02    0.03
  -2   0   3    0.05    0.03
  -2   0   3    0.01    0.04
   2   0  -3    0.04    0.04
  -2   0   3    0.01    0.04
   2   0  -3    0.03    0.03
   2   0  -3    0.06    0.05
  -2   0   3   -0.02    0.04
   1   0  -3    0.15    0.06
   1   0  -3    0.18    0.06
  -1   0   3    0.13    0.06
   1   0  -3    0.20    0.06
  -1   0   3    0.07    0.05
  -1   0   3    0.13    0.05
   0   0  -3    0.07    0.04
   0   0  -3    0.04    0.04
   0   0   3    0.00    0.03
   0   0   3    0.00    0.03
   0   0  -3    0.01    0.04
   1   0   3    0.22    0.05
  -1   0  -3    0.25    0.05
   1   0   3    0.24    0.06
  -1   0  -3    0.21    0.07
   1   0   3    0.27    0.07
  -1   0  -3    0.21    0.07
  -2   0  -3   -0.01    0.03
   2   0   3   -0.03    0.02
  -2   0  -3   -0.03    0.04
   2   0   3    0.04    0.04
  -2   0  -3    0.04    0.05
   2   0   3    0.00    0.03
  -3   0  -3    0.12    0.06
  -3   0  -3    0.22    0.06
   3   0   3    0.29    0.10
  -3   0  -3    0.22    0.08
   3   0   3    0.29    0.04
  -3   0  -3    0.09    0.07
   3   0   3    0.10    0.06
  -3   0  -3    0.26    0.07
  -4   0  -3    0.04    0.06
   4   0   3    0.02    0.03
   4   0   3   -0.02    0.05
   4   0   3    0.14    0.06
  -4   0  -3    0.04    0.05
  -4   0  -3   -0.02    0.06
  -4   0  -3    0.11    0.07
  -4   0  -3   -0.02    0.04
  -4   0  -3    0.01    0.03
   5   0   3    0.05    0.08
  -5   0  -3    0.03    0.05
   5   0   3    0.03    0.03
  -5   0  -3    0.06    0.07
  -5   0  -3    0.00    0.06
   5   0   3    0.00    0.07
  -5   0  -3    0.05    0.08
  -5   0  -3    0.06    0.04
  -5   0  -3    0.11    0.09
  -6   0  -3    0.02    0.06
  -6   0  -3    0.03    0.05
   6   0   3    0.04    0.08
  -6   0  -3   -0.04    0.07
  -6   0  -3   -0.05    0.06
  -6   0  -3    0.08    0.06
  -6   0  -3    0.02    0.09
  -7   0  -3    0.08    0.08
  -7   0  -3   -0.06    0.07
   7   0   3    0.07    0.11
  -7   0  -3    0.07    0.11
  -7   0  -3   -0.04    0.09
  -7   0  -3    0.00    0.05
  -7   0  -3   -0.06    0.08
  -8   0  -3    0.08    0.10
   8   0   3    0.01    0.11
  -8   0  -3    0.10    0.12
  -8   0  -3    0.09    0.07
  -8   0  -3   -0.03    0.07
  -8   0  -3   -0.08    0.08
  -8   0  -3    0.19    0.13
  -9   0  -3    0.11    0.14
   9   0   3    0.03    0.12
  -9   0  -3    0.03    0.09
  -9   0  -3   -0.02    0.16
  -9   0  -3   -0.13    0.09
  -9   0  -3    0.01    0.12
 -10   0  -3    0.08    0.09
 -10   0  -3    0.10    0.14
 -10   0  -3    0.10    0.15
  10   0   3   -0.02    0.15
 -11   0  -3    0.00    0.18
  11   0   3   -0.08    0.16
 -11   0  -3    0.07    0.14
 -11   0  -3    0.25    0.18
 -12  -1   3    0.25    0.21
  12  -1  -3    0.20    0.18
 -12  -1   3    0.20    0.22
 -12  -1   3    0.45    0.17
  12  -1  -3    0.22    0.20
  12   1  -3    0.85    0.27
 -12   1   3    0.50    0.25
 -12   1   3    0.05    0.18
  12   1  -3    0.37    0.19
 -11  -1   3    0.24    0.18
  11  -1  -3    0.46    0.17
  11  -1  -3    0.60    0.19
 -11  -1   3    0.62    0.20
 -11  -1   3    0.58    0.22
 -11   1   3    0.28    0.17
 -11   1   3    0.48    0.20
  11   1  -3    0.24    0.17
  11   1  -3    0.24    0.15
 -11   1   3    0.32    0.16
  11   1  -3    0.37    0.20
 -10  -1   3    2.92    0.33
  10  -1  -3    2.78    0.37
 -10  -1   3    3.51    0.52
 -10  -1   3    3.05    0.33
  10  -1  -3    2.22    0.36
  10  -1  -3    2.61    0.37
 -10  -1   3    2.54    0.37
 -10   1   3    3.00    0.34
 -10   1   3    3.98    0.38
  10   1  -3    2.77    0.44
 -10   1   3    2.50    0.39
  10   1  -3    2.39    0.34
 -10   1   3    3.48    0.38
  10   1  -3    2.58    0.29
  10   1  -3    3.11    0.34
  -9  -1   3    0.26    0.11
   9  -1  -3    0.23    0.15
   9  -1  -3    0.56    0.17
  -9  -1   3    0.45    0.15
   9  -1  -3    0.31    0.12
  -9  -1   3    0.29    0.13
  -9  -1   3    0.85    0.25
   9  -1  -3    0.39    0.14
   9   1  -3    0.61    0.21
   9   1  -3    0.45    0.18
  -9   1   3    0.33    0.15
  -9   1   3    0.30    0.17
   9   1  -3    0.37    0.15
  -9   1   3    0.39    0.14
  -9   1   3    0.35    0.13
   9   1  -3    0.41    0.15
  -8  -1   3    1.94    0.30
   8  -1  -3    2.36    0.35
   8  -1  -3    2.08    0.25
  -8  -1   3    2.33    0.25
  -8  -1   3    2.38    0.29
  -8  -1   3    1.53    0.25
   8  -1  -3    2.01    0.32
   8  -1  -3    2.62    0.29
   8  -1  -3    1.67    0.27
  -8   1   3    1.74    0.26
   8   1  -3    2.39    0.36
   8   1  -3    1.69    0.26
  -8   1   3    1.45    0.24
  -8   1   3    2.41    0.35
   8   1  -3    2.14    0.23
   8   1  -3    1.86    0.22
  -8   1   3    1.99    0.29
  -7  -1   3    0.64    0.16
  -7  -1   3    0.81    0.18
  -7  -1   3    0.87    0.22
   7  -1  -3    1.11    0.21
   7  -1  -3    0.86    0.17
  -7  -1   3    0.69    0.17
   7  -1  -3    0.95    0.19
   7  -1  -3    0.65    0.17
   7  -1  -3    0.89    0.20
  -7   1   3    0.51    0.14
  -7   1   3    0.60    0.15
  -7   1   3    1.13    0.24
   7   1  -3    1.04    0.19
   7   1  -3    0.90    0.21
  -7   1   3    0.66    0.17
   7   1  -3    0.95    0.18
   7   1  -3    0.77    0.20
  -6  -1   3    1.96    0.22
  -6  -1   3    2.46    0.26
   6  -1  -3    2.61    0.24
   6  -1  -3    2.80    0.25
   6  -1  -3    2.63    0.25
   6  -1  -3    2.70    0.25
   6  -1  -3    2.68    0.26
  -6  -1   3    2.02    0.20
  -6  -1   3    2.24    0.23
   6   1  -3    2.24    0.21
   6   1  -3    2.25    0.24
  -6   1   3    2.11    0.24
  -6   1   3    2.08    0.22
   6   1  -3    2.29    0.25
  -6   1   3    2.19    0.23
   6   1  -3    2.32    0.23
  -6   1   3    1.99    0.22
  -5  -1   3    3.14    0.22
  -5  -1   3    2.91    0.26
   5  -1  -3    3.39    0.26
  -5  -1   3    2.70    0.23
   5  -1  -3    2.95    0.25
   5  -1  -3    3.13    0.25
  -5  -1   3    3.08    0.25
   5  -1  -3    3.13    0.25
  -5   1   3    3.42    0.26
  -5   1   3    3.14    0.25
   5   1  -3    3.15    0.22
  -5   1   3    2.88    0.24
  -5   1   3    2.60    0.23
   5   1  -3    3.22    0.25
   5   1  -3    3.35    0.27
   5   1  -3    3.24    0.27
  -4  -1   3    4.34    0.27
  -4  -1   3    4.35    0.28
  -4  -1   3    4.53    0.30
   4  -1  -3    5.00    0.29
   4  -1  -3    5.24    0.29
  -4  -1   3    4.26    0.24
   4  -1  -3    5.05    0.31
   4   1  -3    4.83    0.29
   4   1  -3    5.87    0.34
  -4   1   3    4.55    0.27
  -4   1   3    3.96    0.27
  -4   1   3    4.67    0.29
   4   1  -3    4.99    0.26
   4   1  -3    5.11    0.32
  -4   1   3    3.82    0.26
   3  -1  -3    7.12    0.35
   3  -1  -3    7.63    0.32
  -3  -1   3    6.86    0.35
   3  -1  -3    7.27    0.36
  -3  -1   3    7.46    0.32
  -3  -1   3    7.38    0.31
   3  -1  -3    7.77    0.33
  -3  -1   3    7.47    0.36
   3   1  -3    7.46    0.37
  -3   1   3    7.21    0.32
   3   1  -3    7.58    0.36
   3   1  -3    7.25    0.36
  -3   1   3    6.87    0.35
  -3   1   3    7.54    0.36
  -3   1   3    7.01    0.32
   3   1  -3    7.81    0.32
   2  -1  -3   11.76    0.38
  -2  -1   3   11.33    0.38
   2  -1  -3   11.04    0.37
  -2  -1   3   11.35    0.40
  -2  -1   3   11.55    0.46
   2  -1  -3   10.21    0.42
  -2  -1   3   11.09    0.45
   2  -1  -3   11.10    0.43
  -2   1   3   11.78    0.44
  -2   1   3   11.77    0.39
  -2   1   3   11.52    0.45
   2   1  -3   10.40    0.42
   2   1  -3   11.36    0.45
  -2   1   3   11.99    0.40
   2   1  -3   10.74    0.39
   2   1  -3   10.89    0.44
   1  -1  -3   30.72    0.87
   1  -1  -3   34.03    0.95
   1  -1  -3   33.22    0.98
  -1  -1   3   33.61    0.98
  -1  -1   3   33.78    1.00
  -1  -1   3   34.17    0.88
   1  -1  -3   35.39    0.90
  -1  -1   3   34.39    0.95
  -1   1   3   33.26    0.98
   1   1  -3   32.99    0.95
  -1   1   3   33.48    0.88
   1   1  -3   34.15    0.95
   1   1  -3   34.46    0.87
   0  -1   3    8.97    0.39
   0  -1   3    9.31    0.29
   0  -1  -3    8.97    0.32
   0  -1  -3    8.99    0.37
   0  -1  -3    8.73    0.31
   0   1   3    8.91    0.32
   0   1   3    9.04    0.30
   0   1  -3    8.96    0.29
   0   1  -3    8.31    0.37
   0   1   3    9.33    0.38
   0   1   3    9.02    0.30
  -1  -1  -3   20.64    0.56
   1  -1   3   22.42    0.74
  -1  -1  -3   20.74    0.62
   1  -1   3   20.96    0.64
  -1  -1  -3   20.44    0.65
  -1  -1  -3   20.26    0.68
  -1   1  -3   21.21    0.71
  -1   1  -3   20.84    0.61
  -1   1  -3   20.50    0.68
  -2  -1  -3   11.81    0.45
   2  -1   3   11.34    0.43
  -2  -1  -3   11.82    0.49
  -2  -1  -3   11.80    0.47
   2  -1   3   11.64    0.41
   2  -1   3   10.78    0.48
  -2  -1  -3   11.90    0.44
  -2   1  -3   11.84    0.44
  -2   1  -3   11.67    0.51
  -2   1  -3   11.60    0.49
   3  -1   3    2.75    0.22
   3  -1   3    3.15    0.26
  -3  -1  -3    3.44    0.24
  -3  -1  -3    3.51    0.23
  -3  -1  -3    3.71    0.26
   3  -1   3    3.06    0.19
  -3  -1  -3    2.86    0.24
  -3  -1  -3    3.03    0.24
  -3   1  -3    3.85    0.23
  -3   1  -3    3.53    0.24
  -3   1  -3    3.54    0.28
  -3   1  -3    3.55    0.26
  -4  -1  -3    4.97    0.33
  -4  -1  -3    5.04    0.34
  -4  -1  -3    4.94    0.21
  -4  -1  -3    4.91    0.32
   4  -1   3    4.81    0.31
   4  -1   3    4.65    0.34
   4  -1   3    4.32    0.24
  -4  -1  -3    5.21    0.30
  -4   1  -3    4.94    0.29
  -4   1  -3    4.76    0.36
  -4   1  -3    5.55    0.36
  -4   1  -3    5.00    0.32
  -4   1  -3    4.99    0.20
   5  -1   3    2.29    0.18
  -5  -1  -3    2.61    0.22
  -5  -1  -3    2.55    0.26
  -5  -1  -3    2.72    0.26
  -5  -1  -3    2.69    0.26
   5  -1   3    2.54    0.25
   5  -1   3    2.52    0.28
  -5  -1  -3    2.51    0.16
  -5   1  -3    2.33    0.28
  -5   1  -3    2.74    0.27
  -5   1  -3    2.72    0.16
  -5   1  -3    2.78    0.26
  -5   1  -3    2.50    0.21
  -5   1  -3    2.64    0.26
   5   1   3    2.65    0.26
   6  -1   3    1.04    0.15
  -6  -1  -3    1.12    0.23
  -6  -1  -3    1.46    0.28
   6  -1   3    1.35    0.25
  -6  -1  -3    1.14    0.22
  -6  -1  -3    0.94    0.14
   6  -1   3    1.06    0.21
  -6  -1  -3    1.05    0.19
  -6   1  -3    1.30    0.19
  -6   1  -3    1.04    0.24
  -6   1  -3    1.25    0.25
  -6   1  -3    0.98    0.21
   6   1   3    1.15    0.23
  -6   1  -3    1.36    0.25
  -7  -1  -3    2.37    0.37
   7  -1   3    2.02    0.34
  -7  -1  -3    1.85    0.32
  -7  -1  -3    1.79    0.17
   7  -1   3    1.82    0.18
   7  -1   3    1.37    0.26
  -7  -1  -3    2.11    0.32
  -7  -1  -3    1.27    0.22
  -7   1  -3    1.57    0.28
  -7   1  -3    1.25    0.26
  -7   1  -3    1.35    0.22
  -7   1  -3    1.18    0.23
   7   1   3    1.84    0.30
  -7   1  -3    1.22    0.25
  -8  -1  -3    0.87    0.16
  -8  -1  -3    0.73    0.17
   8  -1   3    0.73    0.23
  -8  -1  -3    0.73    0.24
  -8  -1  -3    0.83    0.21
   8  -1   3    0.74    0.13
  -8  -1  -3    0.72    0.19
   8  -1   3    0.56    0.18
  -8  -1  -3    0.52    0.17
  -8   1  -3    1.09    0.29
  -8   1  -3    0.79    0.16
  -8   1  -3    0.99    0.27
  -8   1  -3    0.41    0.14
  -8   1  -3    0.82    0.23
   8   1   3    0.80    0.21
  -9  -1  -3    0.05    0.13
  -9  -1  -3    0.40    0.15
  -9  -1  -3   -0.02    0.09
  -9  -1  -3    0.01    0.14
   9  -1   3    0.22    0.13
  -9  -1  -3    0.20    0.11
   9  -1   3    0.13    0.09
  -9  -1  -3    0.04    0.09
  -9   1  -3    0.23    0.17
  -9   1  -3    0.26    0.14
  -9   1  -3    0.26    0.16
  -9   1  -3    0.12    0.13
   9   1   3    0.02    0.13
  -9   1  -3    0.13    0.13
 -10  -1  -3    0.56    0.25
 -10  -1  -3    0.81    0.18
 -10  -1  -3    0.75    0.22
 -10  -1  -3    0.84    0.22
 -10  -1  -3    0.69    0.24
  10  -1   3    0.56    0.22
 -10   1  -3    0.65    0.21
 -10   1  -3    1.03    0.23
  10   1   3    0.81    0.24
 -10   1  -3    1.00    0.27
 -11  -1  -3    0.02    0.12
 -11  -1  -3    0.08    0.17
  11  -1   3    0.53    0.23
 -11  -1  -3    0.27    0.23
 -11   1  -3    0.03    0.14
 -11   1  -3    0.12    0.23
 -11   1  -3   -0.01    0.22
 -12  -2   3    0.01    0.17
 -12  -2   3    0.22    0.18
 -12  -2   3   -0.03    0.13
  12  -2  -3    0.12    0.17
  12  -2  -3    0.08    0.20
  12   2  -3    0.18    0.21
 -12   2   3   -0.16    0.14
  12   2  -3   -0.01    0.16
 -12   2   3    0.22    0.16
  11  -2  -3    0.44    0.19
 -11  -2   3    0.53    0.21
 -11  -2   3    0.49    0.15
  11  -2  -3    0.44    0.16
 -11  -2   3    0.47    0.21
 -11   2   3    0.29    0.14
  11   2  -3    0.47    0.24
  11   2  -3    0.56    0.17
  11   2  -3    0.49    0.23
 -11   2   3    0.29    0.18
 -11   2   3    0.51    0.27
 -10  -2   3    0.09    0.14
  10  -2  -3    0.06    0.10
  10  -2  -3    0.03    0.11
 -10  -2   3    0.03    0.08
 -10  -2   3   -0.13    0.12
 -10  -2   3    0.12    0.12
  10  -2  -3    0.97    0.24
 -10  -2   3    0.00    0.09
  10  -2  -3    0.00    0.11
 -10   2   3   -0.04    0.09
  10   2  -3    0.11    0.12
 -10   2   3   -0.07    0.11
 -10   2   3    0.12    0.14
  10   2  -3    0.07    0.16
  10   2  -3    0.04    0.11
 -10   2   3   -0.01    0.09
  -9  -2   3    0.36    0.11
  -9  -2   3    0.32    0.13
   9  -2  -3    0.58    0.19
   9  -2  -3    0.38    0.17
  -9  -2   3    0.40    0.16
   9  -2  -3    0.28    0.14
  -9  -2   3    0.36    0.13
   9  -2  -3    0.72    0.20
   9   2  -3    0.23    0.12
   9   2  -3    0.27    0.13
   9   2  -3    0.47    0.14
  -9   2   3    0.12    0.09
  -9   2   3    0.48    0.17
   9   2  -3    0.47    0.19
  -9   2   3    0.52    0.17
  -9   2   3    0.30    0.15
  -8  -2   3    1.87    0.22
  -8  -2   3    1.58    0.28
   8  -2  -3    1.43    0.25
   8  -2  -3    1.68    0.31
   8  -2  -3    1.58    0.27
  -8  -2   3    0.91    0.22
  -8  -2   3    1.20    0.24
  -8  -2   3    1.83    0.27
   8  -2  -3    1.34    0.22
  -8   2   3    1.44    0.26
   8   2  -3    1.52    0.22
  -8   2   3    1.53    0.24
  -8   2   3    1.93    0.32
   8   2  -3    1.60    0.26
   8   2  -3    1.23    0.23
   8   2  -3    1.99    0.22
  -8   2   3    1.92    0.33
   7  -2  -3    3.62    0.30
  -7  -2   3    4.29    0.33
  -7  -2   3    4.06    0.37
  -7  -2   3    3.43    0.33
  -7  -2   3    3.98    0.33
  -7  -2   3    3.94    0.28
   7  -2  -3    3.13    0.32
   7  -2  -3    3.95    0.34
  -7  -2   3    4.06    0.36
   7  -2  -3    3.68    0.33
   7   2  -3    4.09    0.30
  -7   2   3    3.70    0.34
   7   2  -3    3.73    0.27
  -7   2   3    3.38    0.33
   7   2  -3    3.98    0.36
   7   2  -3    3.74    0.35
  -7   2   3    2.78    0.29
  -7   2   3    3.86    0.33
  -6  -2   3    6.42    0.44
  -6  -2   3    6.70    0.35
  -6  -2   3    6.69    0.42
  -6  -2   3    6.98    0.45
   6  -2  -3    7.32    0.41
   6  -2  -3    7.35    0.44
   6  -2  -3    6.77    0.42
   6  -2  -3    6.87    0.43
  -6  -2   3    6.56    0.40
  -6  -2   3    7.15    0.43
   6   2  -3    6.26    0.42
  -6   2   3    6.97    0.41
  -6   2   3    6.37    0.42
   6   2  -3    7.14    0.45
  -6   2   3    6.76    0.43
   6   2  -3    5.88    0.36
  -6   2   3    6.99    0.43
   6   2  -3    6.32    0.34
  -5  -2   3    3.46    0.30
  -5  -2   3    3.98    0.29
  -5  -2   3    3.69    0.28
  -5  -2   3    3.74    0.31
  -5  -2   3    3.88    0.28
  -5  -2   3    3.37    0.22
   5  -2  -3    3.78    0.29
   5  -2  -3    3.96    0.30
   5  -2  -3    3.70    0.26
   5  -2  -3    3.67    0.30
   5   2  -3    3.85    0.27
  -5   2   3    3.46    0.26
  -5   2   3    3.17    0.27
  -5   2   3    3.38    0.28
   5   2  -3    3.74    0.23
  -5   2   3    3.14    0.26
   5   2  -3    4.14    0.32
   5   2  -3    3.77    0.31
  -4  -2   3    9.53    0.49
   4  -2  -3    9.28    0.46
   4  -2  -3    9.61    0.41
  -4  -2   3    9.58    0.46
  -4  -2   3    9.76    0.49
  -4  -2   3   10.59    0.46
   4  -2  -3    9.49    0.45
  -4  -2   3   10.33    0.38
   4   2  -3    9.65    0.48
  -4   2   3    9.40    0.45
  -4   2   3   10.22    0.48
  -4   2   3   10.65    0.42
   4   2  -3    9.30    0.36
   4   2  -3    9.74    0.48
  -4   2   3   10.10    0.48
  -3  -2   3   13.25    0.54
   3  -2  -3   12.84    0.44
  -3  -2   3   13.63    0.51
   3  -2  -3   12.56    0.53
   3  -2  -3   12.58    0.50
   3  -2  -3   12.87    0.53
  -3  -2   3   13.80    0.56
  -3  -2   3   13.37    0.44
  -3   2   3   13.68    0.46
  -3   2   3   13.31    0.54
  -3   2   3   12.95    0.51
   3   2  -3   12.69    0.54
   3   2  -3   12.83    0.42
   3   2  -3   12.72    0.54
  -3   2   3   13.14    0.54
  -2  -2   3   14.52    0.56
   2  -2  -3   15.39    0.57
  -2  -2   3   14.19    0.55
  -2  -2   3   14.40    0.50
  -2  -2   3   14.38    0.46
   2  -2  -3   16.13    0.45
   2  -2  -3   15.61    0.54
  -2   2   3   14.73    0.56
   2   2  -3   15.71    0.53
  -2   2   3   14.61    0.51
  -2   2   3   14.26    0.54
  -2   2   3   14.58    0.42
   2   2  -3   15.76    0.60
   2   2  -3   15.32    0.48
   2   2  -3   14.93    0.57
   1  -2  -3    4.76    0.26
   1  -2  -3    4.60    0.25
  -1  -2   3    4.77    0.28
   1  -2  -3    4.86    0.24
  -1  -2   3    4.57    0.23
  -1  -2   3    5.09    0.26
  -1   2   3    4.60    0.24
  -1   2   3    4.87    0.24
   1   2  -3    4.78    0.23
   1   2  -3    4.79    0.23
   1   2  -3    5.14    0.26
  -1   2   3    4.72    0.26
   0  -2  -3    0.56    0.09
   0  -2  -3    0.72    0.10
   0  -2   3    0.52    0.12
   0  -2  -3    0.65    0.12
   0  -2   3    0.78    0.12
   0  -2   3    0.50    0.08
   0  -2  -3    0.60    0.07
   0   2  -3    0.54    0.10
   0   2  -3    0.35    0.09
   0   2   3    0.40    0.08
   0   2  -3    0.72    0.11
   0   2   3    0.74    0.11
   0   2   3    0.64    0.09
   0   2  -3    0.70    0.10
   1  -2   3   14.08    0.54
  -1  -2  -3   14.29    0.51
   1  -2   3   14.39    0.57
  -1  -2  -3   14.83    0.44
   1  -2   3   13.60    0.49
   1  -2   3   13.68    0.52
  -1  -2  -3   15.17    0.50
  -1  -2  -3   14.89    0.54
  -1  -2  -3   15.02    0.50
  -1   2  -3   14.86    0.59
  -1   2  -3   14.94    0.43
   1   2   3   13.76    0.52
  -1   2  -3   14.98    0.52
  -1   2  -3   14.45    0.55
   1   2   3   14.48    0.50
  -2  -2  -3    0.53    0.11
   2  -2   3    0.67    0.13
  -2  -2  -3    0.62    0.12
   2  -2   3    0.63    0.11
   2  -2   3    0.84    0.16
  -2  -2  -3    0.47    0.11
   2  -2   3    0.58    0.12
  -2   2  -3    0.71    0.15
  -2   2  -3    0.71    0.14
  -2   2  -3    0.76    0.14
  -3  -2  -3    0.62    0.14
   3  -2   3    0.37    0.11
   3  -2   3    0.48    0.11
  -3  -2  -3    0.51    0.13
   3  -2   3    0.71    0.14
   3  -2   3    0.54    0.14
  -3  -2  -3    0.56    0.13
  -3  -2  -3    0.62    0.13
  -3   2  -3    0.61    0.15
  -3   2  -3    0.29    0.10
  -3   2  -3    0.36    0.10
  -3   2  -3    0.45    0.12
  -4  -2  -3    2.22    0.22
  -4  -2  -3    2.47    0.24
  -4  -2  -3    2.16    0.22
  -4  -2  -3    2.22    0.21
  -4  -2  -3    2.49    0.24
   4  -2   3    2.72    0.27
   4  -2   3    2.34    0.23
   4  -2   3    1.71    0.18
  -4   2  -3    2.60    0.27
  -4   2  -3    1.93    0.22
  -4   2  -3    2.34    0.23
  -4   2  -3    2.35    0.22
  -5  -2  -3    1.75    0.20
  -5  -2  -3    1.37    0.22
   5  -2   3    1.07    0.20
  -5  -2  -3    1.62    0.26
  -5  -2  -3    1.65    0.11
  -5  -2  -3    1.65    0.24
   5  -2   3    1.40    0.25
   5  -2   3    1.57    0.18
  -5  -2  -3    1.19    0.20
  -5   2  -3    1.26    0.21
  -5   2  -3    1.42    0.24
  -5   2  -3    1.72    0.24
  -5   2  -3    1.84    0.27
  -6  -2  -3    0.75    0.17
  -6  -2  -3    1.01    0.21
  -6  -2  -3    1.31    0.25
  -6  -2  -3    1.10    0.11
   6  -2   3    0.90    0.17
   6  -2   3    1.12    0.24
  -6  -2  -3    1.19    0.23
   6  -2   3    1.04    0.23
  -6  -2  -3    1.00    0.19
  -6   2  -3    0.75    0.17
  -6   2  -3    0.73    0.18
  -6   2  -3    0.87    0.21
  -6   2  -3    0.83    0.22
  -6   2  -3    1.13    0.24
   7  -2   3    1.00    0.24
  -7  -2  -3    0.78    0.19
  -7  -2  -3    1.14    0.13
  -7  -2  -3    1.11    0.20
  -7  -2  -3    0.95    0.22
  -7  -2  -3    1.21    0.26
   7  -2   3    1.19    0.27
   7  -2   3    1.06    0.17
  -7  -2  -3    0.93    0.20
  -7   2  -3    1.31    0.29
  -7   2  -3    0.82    0.19
  -7   2  -3    1.68    0.33
  -7   2  -3    1.17    0.22
  -8  -2  -3    1.35    0.26
  -8  -2  -3    1.78    0.18
  -8  -2  -3    2.46    0.37
   8  -2   3    2.37    0.39
   8  -2   3    1.82    0.33
  -8  -2  -3    1.55    0.33
  -8  -2  -3    2.21    0.26
   8  -2   3    1.98    0.23
  -8   2  -3    2.04    0.37
  -8   2  -3    1.86    0.34
  -8   2  -3    2.04    0.30
  -8   2  -3    2.12    0.39
  -8   2  -3    1.70    0.30
   9  -2   3    2.09    0.38
  -9  -2  -3    2.50    0.30
  -9  -2  -3    2.02    0.35
  -9  -2  -3    2.55    0.40
  -9  -2  -3    2.04    0.20
  -9  -2  -3    2.33    0.42
  -9  -2  -3    1.87    0.36
   9  -2   3    2.13    0.40
  -9   2  -3    2.05    0.41
  -9   2  -3    2.74    0.31
  -9   2  -3    2.64    0.57
 -10  -2  -3    1.93    0.39
 -10  -2  -3    1.79    0.33
 -10  -2  -3    1.15    0.31
 -10  -2  -3    1.22    0.31
 -10  -2  -3    1.28    0.19
  10  -2   3    1.21    0.31
 -10   2  -3    1.02    0.30
 -10   2  -3    0.68    0.22
 -10   2  -3    1.22    0.27
 -11  -2  -3    0.73    0.25
 -11  -2  -3    0.37    0.21
 -11  -2  -3    0.62    0.16
  11  -2   3    0.69    0.25
 -11  -2  -3    0.70    0.22
 -11   2  -3    0.38    0.20
 -11   2  -3    0.67    0.28
 -11   2  -3    0.48    0.24
 -12  -3   3    1.69    0.34
  12  -3  -3    2.24    0.35
  12  -3  -3    1.80    0.40
 -12  -3   3    1.57    0.41
 -12  -3   3    1.31    0.27
  12   3  -3    1.70    0.30
 -12   3   3    2.28    0.44
 -12   3   3    1.70    0.38
  12   3  -3    1.61    0.39
 -12   3   3    1.64    0.35
 -11  -3   3    2.42    0.36
 -11  -3   3    2.40    0.34
 -11  -3   3    2.48    0.39
  11  -3  -3    1.79    0.31
  11  -3  -3    2.65    0.31
  11   3  -3    2.05    0.45
 -11   3   3    1.86    0.31
  11   3  -3    2.27    0.32
 -11   3   3    2.58    0.40
 -11   3   3    2.09    0.51
 -10  -3   3    1.01    0.23
  10  -3  -3    1.12    0.24
  10  -3  -3    0.85    0.23
  10  -3  -3    1.00    0.25
 -10  -3   3    0.86    0.29
 -10  -3   3    0.96    0.24
 -10  -3   3    1.39    0.25
  10  -3  -3    1.37    0.30
 -10  -3   3    1.15    0.25
 -10   3   3    0.74    0.21
 -10   3   3    1.52    0.32
 -10   3   3    1.15    0.30
  10   3  -3    1.36    0.26
 -10   3   3    1.26    0.28
  10   3  -3    1.68    0.37
  10   3  -3    0.90    0.25
  -9  -3   3    5.79    0.52
  -9  -3   3    5.84    0.48
   9  -3  -3    4.82    0.43
  -9  -3   3    5.08    0.41
   9  -3  -3    4.92    0.46
  -9  -3   3    5.86    0.50
   9  -3  -3    4.76    0.44
  -9  -3   3    6.34    0.51
   9  -3  -3    5.23    0.39
  -9  -3   3    5.80    0.38
   9   3  -3    5.43    0.48
  -9   3   3    5.19    0.46
  -9   3   3    5.31    0.46
   9   3  -3    5.34    0.36
  -9   3   3    5.97    0.49
  -9   3   3    4.34    0.44
   9   3  -3    5.39    0.49
  -8  -3   3    0.51    0.17
   8  -3  -3    1.59    0.32
   8  -3  -3    1.23    0.21
  -8  -3   3    1.35    0.28
  -8  -3   3    1.25    0.22
  -8  -3   3    1.65    0.32
  -8  -3   3    1.00    0.18
   8  -3  -3    1.37    0.29
   8  -3  -3    1.24    0.26
  -8  -3   3    1.26    0.27
  -8   3   3    0.69    0.18
   8   3  -3    1.13    0.19
   8   3  -3    0.87    0.22
  -8   3   3    1.23    0.25
   8   3  -3    1.22    0.25
  -8   3   3    1.42    0.29
  -8   3   3    1.11    0.24
  -7  -3   3    5.08    0.41
  -7  -3   3    4.95    0.40
   7  -3  -3    5.85    0.43
  -7  -3   3    4.33    0.38
  -7  -3   3    4.38    0.38
  -7  -3   3    4.90    0.36
  -7  -3   3    4.68    0.29
   7  -3  -3    5.18    0.42
   7  -3  -3    4.41    0.38
  -7   3   3    3.93    0.36
   7   3  -3    4.15    0.38
   7   3  -3    4.63    0.39
   7   3  -3    4.80    0.30
  -7   3   3    3.97    0.34
  -7   3   3    4.41    0.39
  -7   3   3    4.75    0.38
  -6  -3   3    0.29    0.13
   6  -3  -3    0.24    0.11
  -6  -3   3    0.27    0.08
   6  -3  -3    0.21    0.10
  -6  -3   3    0.26    0.10
  -6  -3   3    0.16    0.09
  -6  -3   3    0.05    0.08
  -6  -3   3    0.18    0.12
   6  -3  -3    0.25    0.11
   6   3  -3    0.48    0.16
  -6   3   3    0.26    0.12
  -6   3   3    0.24    0.12
  -6   3   3    0.31    0.11
   6   3  -3    0.46    0.16
   6   3  -3    0.26    0.08
  -6   3   3    0.18    0.08
  -5  -3   3    4.32    0.36
  -5  -3   3    5.00    0.35
   5  -3  -3    6.36    0.40
  -5  -3   3    5.23    0.24
   5  -3  -3    5.63    0.39
  -5  -3   3    4.98    0.35
  -5  -3   3    5.22    0.38
   5  -3  -3    5.79    0.38
   5   3  -3    6.17    0.41
  -5   3   3    5.28    0.37
  -5   3   3    5.01    0.35
  -5   3   3    5.24    0.31
  -5   3   3    5.33    0.37
   5   3  -3    5.45    0.39
   5   3  -3    5.61    0.26
  -4  -3   3    0.43    0.07
  -4  -3   3    0.49    0.14
  -4  -3   3    0.40    0.12
   4  -3  -3    0.49    0.11
  -4  -3   3    0.42    0.12
   4  -3  -3    0.31    0.10
   4  -3  -3    0.93    0.19
  -4  -3   3    0.48    0.15
   4   3  -3    0.53    0.07
  -4   3   3    0.37    0.12
   4   3  -3    0.44    0.14
  -4   3   3    0.41    0.12
  -4   3   3    0.39    0.10
  -4   3   3    0.29    0.09
   4   3  -3    0.22    0.09
  -3  -3   3    3.38    0.25
  -3  -3   3    3.75    0.29
   3  -3  -3    3.45    0.26
  -3  -3   3    4.00    0.28
   3  -3  -3    3.77    0.28
   3  -3  -3    3.71    0.26
  -3  -3   3    3.86    0.29
   3   3  -3    2.71    0.23
  -3   3   3    3.42    0.26
  -3   3   3    3.83    0.27
   3   3  -3    3.78    0.29
  -3   3   3    3.69    0.28
   3   3  -3    3.64    0.16
  -3   3   3    3.89    0.19
   3   3  -3    3.89    0.29
  -2  -3   3   26.43    0.92
  -2  -3   3   27.02    0.87
  -2  -3   3   25.78    0.90
   2  -3  -3   27.71    0.89
   2  -3  -3   27.16    0.87
   2  -3  -3   26.98    0.88
   2   3  -3   26.56    0.86
   2   3  -3   27.09    0.90
  -2   3   3   26.98    0.87
   2   3  -3   25.21    0.91
  -2   3   3   26.87    0.89
   2   3  -3   26.05    0.73
   2   3  -3   25.38    0.73
   1  -3  -3    8.91    0.40
   1  -3  -3    8.59    0.39
  -1  -3   3    8.32    0.39
  -1  -3   3    8.75    0.39
   1  -3  -3    8.74    0.40
  -1  -3   3    8.63    0.43
   1   3  -3    8.42    0.33
   1   3  -3    8.93    0.44
   1   3  -3    8.70    0.39
  -1   3   3    8.51    0.38
  -1   3   3    8.51    0.39
   1   3  -3    8.69    0.39
  -1   3   3    8.02    0.38
   0  -3  -3   35.85    1.06
   0  -3   3   35.77    1.12
   0  -3   3   34.02    1.02
   0  -3   3   35.28    1.02
   0  -3  -3   35.44    1.03
   0  -3  -3   35.06    1.06
   0  -3   3   34.39    1.05
   0   3  -3   34.96    1.02
   0   3  -3   35.10    1.06
   0   3  -3   35.76    1.03
   0   3   3   35.07    1.06
   0   3  -3   34.79    1.12
   0   3   3   35.36    1.05
   0   3   3   34.31    0.99
  -1  -3  -3    5.48    0.31
  -1  -3  -3    4.89    0.24
   1  -3   3    4.64    0.22
   1  -3   3    4.77    0.30
  -1  -3  -3    5.12    0.28
   1  -3   3    4.57    0.28
  -1  -3  -3    5.42    0.24
   1  -3   3    4.76    0.31
   1  -3   3    5.10    0.30
  -1   3  -3    4.57    0.31
   1   3   3    5.05    0.29
   1   3   3    4.61    0.27
  -1   3  -3    5.11    0.29
  -1   3  -3    5.05    0.30
  -2  -3  -3   12.40    0.49
   2  -3   3   14.75    0.59
  -2  -3  -3   12.43    0.53
   2  -3   3   14.93    0.61
   2  -3   3   15.74    0.64
  -2  -3  -3   12.44    0.48
  -2  -3  -3   11.80    0.40
   2  -3   3   14.55    0.63
   2   3   3   14.95    0.60
  -2   3  -3   11.45    0.51
  -2   3  -3   12.00    0.56
  -2   3  -3   12.47    0.54
   3  -3   3   22.97    0.86
  -3  -3  -3   24.17    0.83
  -3  -3  -3   24.82    0.87
  -3  -3  -3   24.34    0.81
   3  -3   3   24.61    0.92
  -3  -3  -3   22.95    0.88
  -3  -3  -3   23.38    0.66
  -3  -3  -3   23.42    0.80
   3  -3   3   23.76    0.91
   3  -3   3   24.34    0.87
  -3   3  -3   23.00    0.91
  -3   3  -3   23.61    0.89
  -3   3  -3   23.71    0.86
   4  -3   3    9.75    0.52
  -4  -3  -3   11.41    0.52
   4  -3   3    9.53    0.49
   4  -3   3   10.84    0.58
  -4  -3  -3   11.62    0.56
  -4  -3  -3   11.75    0.51
  -4  -3  -3   11.43    0.58
  -4  -3  -3   12.00    0.56
  -4   3  -3   11.43    0.56
  -4   3  -3   10.52    0.57
  -4   3  -3   10.96    0.56
  -4   3  -3   11.45    0.60
  -5  -3  -3    4.64    0.37
  -5  -3  -3    5.14    0.38
  -5  -3  -3    4.74    0.37
   5  -3   3    4.25    0.36
   5  -3   3    4.58    0.38
  -5  -3  -3    4.68    0.32
   5  -3   3    4.67    0.34
  -5  -3  -3    4.38    0.36
  -5   3  -3    4.72    0.40
  -5   3  -3    4.69    0.38
  -5   3  -3    4.66    0.36
  -5   3  -3    4.31    0.35
   6  -3   3    5.58    0.44
   6  -3   3    5.20    0.44
  -6  -3  -3    5.39    0.42
  -6  -3  -3    5.22    0.37
  -6  -3  -3    6.03    0.44
  -6  -3  -3    5.53    0.24
   6  -3   3    5.21    0.36
  -6  -3  -3    5.47    0.43
  -6  -3  -3    5.39    0.41
  -6   3  -3    4.80    0.42
  -6   3  -3    5.50    0.41
  -6   3  -3    5.19    0.44
  -6   3  -3    5.09    0.41
   7  -3   3    0.99    0.25
  -7  -3  -3    0.67    0.21
  -7  -3  -3    0.92    0.20
  -7  -3  -3    0.81    0.12
  -7  -3  -3    1.28    0.24
  -7  -3  -3    1.09    0.20
  -7  -3  -3    0.98    0.23
   7  -3   3    0.96    0.25
   7  -3   3    0.84    0.19
  -7   3  -3    0.83    0.20
  -7   3  -3    0.98    0.25
  -7   3  -3    0.86    0.25
  -7   3  -3    1.07    0.26
  -7   3  -3    0.55    0.16
  -8  -3  -3    0.48    0.19
  -8  -3  -3    0.70    0.20
  -8  -3  -3    0.71    0.19
   8  -3   3    0.54    0.16
   8  -3   3    1.32    0.26
  -8  -3  -3    0.73    0.23
  -8  -3  -3    0.61    0.18
   8  -3   3    0.48    0.19
  -8   3  -3    0.45    0.19
  -8   3  -3    0.79    0.21
  -8   3  -3    0.42    0.21
  -8   3  -3    0.41    0.17
  -8   3  -3    0.33    0.17
   9  -3   3   -0.05    0.12
  -9  -3  -3    0.26    0.13
  -9  -3  -3    0.24    0.16
  -9  -3  -3    0.31    0.10
  -9   3  -3    0.20    0.14
  -9   3  -3    0.00    0.11
  -9   3  -3   -0.17    0.11
 -10  -3  -3    0.42    0.21
 -10  -3  -3    0.35    0.21
 -10  -3  -3    0.29    0.18
  10  -3   3    0.21    0.17
 -10  -3  -3    0.24    0.12
 -10   3  -3    0.28    0.18
 -10   3  -3    0.13    0.16
 -10   3  -3    0.00    0.18
 -11  -4   3    0.08    0.16
 -11  -4   3   -0.13    0.10
  11  -4  -3   -0.10    0.14
 -11  -4   3    0.59    0.17
  11  -4  -3    0.15    0.15
 -11  -4   3    0.26    0.20
 -11   4   3   -0.03    0.14
 -11   4   3    0.22    0.18
 -11   4   3   -0.05    0.16
  11   4  -3   -0.04    0.12
  11   4  -3    0.10    0.13
  10  -4  -3    1.28    0.26
 -10  -4   3    0.71    0.17
 -10  -4   3    0.54    0.22
 -10  -4   3    0.82    0.27
  10  -4  -3    0.96    0.26
  10  -4  -3    1.31    0.29
 -10  -4   3    0.94    0.22
 -10   4   3    0.60    0.20
 -10   4   3    1.11    0.28
 -10   4   3    0.46    0.21
  10   4  -3    0.91    0.29
 -10   4   3    0.61    0.22
  10   4  -3    0.65    0.15
   9  -4  -3    2.10    0.31
   9  -4  -3    1.88    0.30
  -9  -4   3    2.28    0.26
   9  -4  -3    2.46    0.29
  -9  -4   3    2.18    0.39
  -9  -4   3    1.74    0.34
  -9  -4   3    1.83    0.32
   9  -4  -3    2.40    0.39
  -9  -4   3    2.10    0.22
  -9  -4   3    2.14    0.41
   9   4  -3    2.34    0.23
  -9   4   3    2.27    0.40
   9   4  -3    2.83    0.42
   9   4  -3    2.48    0.39
  -9   4   3    2.03    0.37
  -9   4   3    2.93    0.44
  -9   4   3    1.95    0.33
  -9   4   3    1.91    0.32
  -8  -4   3    1.92    0.36
   8  -4  -3    2.79    0.39
  -8  -4   3    2.94    0.44
  -8  -4   3    3.14    0.44
  -8  -4   3    2.06    0.33
   8  -4  -3    3.27    0.38
   8  -4  -3    3.49    0.37
  -8  -4   3    2.12    0.29
  -8  -4   3    2.55    0.21
   8   4  -3    1.92    0.34
  -8   4   3    1.78    0.28
  -8   4   3    1.44    0.28
   8   4  -3    2.91    0.22
  -8   4   3    2.67    0.37
  -8   4   3    2.26    0.32
  -8   4   3    2.69    0.37
   8   4  -3    2.74    0.43
  -7  -4   3    5.84    0.29
  -7  -4   3    6.11    0.47
   7  -4  -3    6.46    0.49
   7  -4  -3    6.33    0.48
  -7  -4   3    5.36    0.40
   7  -4  -3    5.95    0.46
  -7  -4   3    6.59    0.47
  -7  -4   3    5.50    0.46
  -7  -4   3    5.95    0.49
  -7   4   3    5.63    0.39
  -7   4   3    6.05    0.48
   7   4  -3    6.38    0.50
   7   4  -3    6.10    0.29
  -7   4   3    6.49    0.47
  -7   4   3    6.18    0.42
   7   4  -3    5.85    0.47
  -7   4   3    4.84    0.44
  -6  -4   3   10.14    0.60
   6  -4  -3   10.41    0.61
  -6  -4   3   11.03    0.59
  -6  -4   3    9.93    0.54
   6  -4  -3   11.70    0.63
  -6  -4   3   10.13    0.62
  -6  -4   3    9.46    0.35
   6  -4  -3   10.87    0.62
   6   4  -3   12.46    0.66
  -6   4   3   10.16    0.51
   6   4  -3   10.80    0.64
  -6   4   3   10.20    0.59
  -6   4   3   10.09    0.50
  -6   4   3    9.37    0.57
  -6   4   3   10.30    0.60
   5  -4  -3   23.76    0.94
  -5  -4   3   24.59    0.93
  -5  -4   3   23.57    1.00
  -5  -4   3   24.22    0.94
  -5  -4   3   23.25    0.98
   5  -4  -3   24.81    0.96
   5  -4  -3   23.83    0.97
  -5   4   3   23.84    0.96
   5   4  -3   22.82    0.97
  -5   4   3   24.75    0.83
   5   4  -3   23.96    0.97
  -5   4   3   23.50    0.95
  -5   4   3   24.38    0.82
  -5   4   3   23.89    0.97
   4  -4  -3   15.75    0.70
  -4  -4   3   17.31    0.73
   4  -4  -3   17.34    0.75
   4  -4  -3   16.80    0.71
  -4  -4   3   16.59    0.74
  -4  -4   3   16.47    0.71
  -4   4   3   16.42    0.72
   4   4  -3   16.25    0.70
  -4   4   3   17.46    0.59
  -4   4   3   17.20    0.73
  -4   4   3   17.53    0.59
   4   4  -3   16.08    0.72
  -4   4   3   18.27    0.76
   4   4  -3   14.19    0.70
   3  -4  -3   15.81    0.65
  -3  -4   3   13.09    0.63
   3  -4  -3   14.14    0.64
  -3  -4   3   12.78    0.62
  -3  -4   3   13.88    0.60
  -3   4   3   13.65    0.61
  -3   4   3   13.96    0.44
  -3   4   3   14.02    0.62
  -3   4   3   14.38    0.62
  -3   4   3   13.86    0.44
   3   4  -3   13.92    0.64
   3   4  -3   13.78    0.64
   3   4  -3   14.11    0.62
  -2  -4   3    8.55    0.47
  -2  -4   3    9.18    0.45
   2  -4  -3    9.92    0.46
   2  -4  -3    9.61    0.48
   2  -4  -3    9.79    0.48
  -2  -4   3    8.81    0.47
   2   4  -3    9.25    0.31
   2   4  -3    9.46    0.47
  -2   4   3    8.78    0.45
  -2   4   3    9.03    0.45
   2   4  -3    9.29    0.48
   2   4  -3    9.25    0.31
  -2   4   3    9.18    0.45
   2   4  -3    9.33    0.49
  -1  -4   3   13.88    0.57
  -1  -4   3   12.87    0.56
   1  -4  -3   13.37    0.57
   1  -4  -3   14.03    0.58
   1  -4  -3   13.14    0.54
  -1  -4   3   12.37    0.58
   1   4  -3   13.19    0.60
  -1   4   3   13.60    0.55
  -1   4   3   14.13    0.56
   1   4  -3   13.00    0.56
   1   4  -3   13.48    0.56
  -1   4   3   13.51    0.58
   1   4  -3   12.84    0.46
   0  -4  -3   13.67    0.58
   0  -4   3   13.27    0.52
   0  -4   3   13.93    0.61
   0  -4  -3   13.09    0.54
   0  -4   3   13.96    0.58
   0  -4  -3   13.43    0.53
   0  -4   3   13.50    0.54
   0   4   3   14.24    0.59
   0   4  -3   13.04    0.50
   0   4  -3   13.89    0.58
   0   4   3   13.73    0.55
   0   4  -3   13.25    0.60
  -1  -4  -3    1.18    0.18
   1  -4   3    0.88    0.14
   1  -4   3    1.28    0.22
   1  -4   3    0.76    0.16
   1  -4   3    0.94    0.17
  -1  -4  -3    1.05    0.11
  -1  -4  -3    1.08    0.15
   1  -4   3    0.68    0.13
  -1  -4  -3    1.31    0.15
   1   4   3    0.96    0.16
  -1   4  -3    1.26    0.22
  -1   4  -3    1.50    0.23
   1   4   3    0.94    0.15
  -1   4  -3    1.05    0.16
   2  -4   3    5.68    0.25
  -2  -4  -3    6.10    0.32
  -2  -4  -3    6.36    0.38
   2  -4   3    6.19    0.38
   2  -4   3    6.46    0.40
  -2  -4  -3    5.97    0.30
   2  -4   3    5.81    0.37
   2  -4   3    5.60    0.37
  -2  -4  -3    6.41    0.32
  -2   4  -3    6.32    0.38
   2   4   3    5.80    0.37
  -2   4  -3    6.13    0.40
  -2   4  -3    6.51    0.38
   3  -4   3    3.86    0.31
  -3  -4  -3    3.95    0.26
  -3  -4  -3    3.93    0.31
   3  -4   3    4.18    0.33
   3  -4   3    4.05    0.33
  -3  -4  -3    3.56    0.25
  -3  -4  -3    4.01    0.27
  -3  -4  -3    3.95    0.23
  -3  -4  -3    3.68    0.34
   3  -4   3    4.03    0.34
   3   4   3    3.70    0.31
  -3   4  -3    4.05    0.34
  -3   4  -3    4.55    0.34
  -3   4  -3    4.40    0.33
   4  -4   3    1.26    0.22
  -4  -4  -3    1.18    0.21
  -4  -4  -3    1.37    0.22
  -4  -4  -3    1.73    0.28
   4  -4   3    1.16    0.25
   4  -4   3    0.71    0.16
  -4  -4  -3    1.23    0.18
  -4  -4  -3    1.54    0.20
  -4   4  -3    1.22    0.22
  -4   4  -3    1.24    0.25
  -4   4  -3    1.04    0.20
  -5  -4  -3    2.36    0.24
  -5  -4  -3    2.10    0.15
  -5  -4  -3    2.46    0.33
  -5  -4  -3    2.54    0.37
   5  -4   3    2.68    0.31
  -5  -4  -3    2.41    0.25
  -5  -4  -3    2.22    0.21
   5  -4   3    2.83    0.30
   5  -4   3    2.60    0.28
  -5   4  -3    2.83    0.41
  -5   4  -3    2.47    0.37
  -5   4  -3    2.66    0.36
  -5   4  -3    2.21    0.33
   6  -4   3    4.09    0.39
  -6  -4  -3    4.12    0.37
  -6  -4  -3    4.66    0.41
   6  -4   3    3.67    0.37
  -6  -4  -3    3.91    0.38
  -6  -4  -3    4.39    0.39
   6  -4   3    3.92    0.34
  -6  -4  -3    4.09    0.31
  -6  -4  -3    4.13    0.22
  -6  -4  -3    3.90    0.32
  -6   4  -3    3.59    0.39
  -6   4  -3    3.99    0.38
  -6   4  -3    3.88    0.38
  -6   4  -3    3.98    0.38
  -7  -4  -3    5.36    0.44
  -7  -4  -3    5.01    0.25
  -7  -4  -3    5.53    0.46
  -7  -4  -3    5.66    0.39
  -7  -4  -3    5.00    0.46
  -7  -4  -3    4.94    0.44
   7  -4   3    5.98    0.50
   7  -4   3    5.58    0.43
   7  -4   3    5.59    0.50
  -7  -4  -3    5.62    0.40
  -7   4  -3    5.37    0.46
  -7   4  -3    4.90    0.46
  -7   4  -3    5.33    0.47
  -7   4  -3    5.26    0.45
  -7   4  -3    4.97    0.47
  -8  -4  -3    4.34    0.37
   8  -4   3    4.70    0.40
  -8  -4  -3    4.19    0.37
  -8  -4  -3    3.85    0.43
  -8  -4  -3    4.72    0.45
  -8  -4  -3    3.93    0.40
  -8  -4  -3    3.79    0.23
   8  -4   3    4.55    0.48
  -8  -4  -3    4.14    0.43
   8  -4   3    4.12    0.43
  -8   4  -3    3.96    0.44
  -8   4  -3    4.99    0.51
  -8   4  -3    3.97    0.44
  -8   4  -3    3.85    0.42
  -8   4  -3    3.36    0.37
  -9  -4  -3    3.57    0.40
   9  -4   3    3.17    0.49
  -9  -4  -3    3.32    0.22
  -9  -4  -3    3.29    0.50
  -9  -4  -3    3.11    0.32
  -9   4  -3    2.45    0.42
  -9   4  -3    2.77    0.40
  -9   4  -3    3.39    0.39
 -10  -4  -3    2.18    0.21
 -10  -4  -3    2.06    0.37
  10  -4   3    1.37    0.33
 -10  -4  -3    2.53    0.41
 -10  -4  -3    2.50    0.36
 -10   4  -3    1.78    0.38
 -10   4  -3    1.96    0.35
 -10   4  -3    2.55    0.45
  11  -5  -3    3.56    0.38
 -11  -5   3    2.92    0.26
 -11  -5   3    2.94    0.46
 -11  -5   3    4.00    0.39
 -11  -5   3    2.77    0.47
  11  -5  -3    2.09    0.39
 -11   5   3    3.37    0.51
 -11   5   3    3.73    0.45
  11   5  -3    3.37    0.51
 -11   5   3    3.81    0.58
 -10  -5   3    5.04    0.31
 -10  -5   3    4.78    0.43
 -10  -5   3    5.40    0.55
  10  -5  -3    4.65    0.41
 -10  -5   3    4.49    0.50
 -10   5   3    5.53    0.51
 -10   5   3    5.26    0.51
 -10   5   3    6.03    0.51
 -10   5   3    6.41    0.58
  10   5  -3    4.70    0.51
   9  -5  -3    3.40    0.35
  -9  -5   3    2.89    0.48
  -9  -5   3    3.22    0.33
  -9  -5   3    2.92    0.43
   9  -5  -3    2.53    0.39
  -9  -5   3    3.64    0.42
  -9   5   3    3.37    0.36
  -9   5   3    3.45    0.40
  -9   5   3    3.15    0.38
   9   5  -3    3.83    0.70
   9   5  -3    3.65    0.42
  -9   5   3    3.47    0.51
  -8  -5   3    4.80    0.47
   8  -5  -3    5.68    0.50
  -8  -5   3    5.72    0.50
  -8  -5   3    5.45    0.51
  -8  -5   3    5.18    0.43
   8  -5  -3    6.21    0.52
  -8  -5   3    5.69    0.49
   8  -5  -3    5.95    0.50
  -8   5   3    5.30    0.42
  -8   5   3    4.97    0.45
   8   5  -3    4.22    0.46
   8   5  -3    5.45    0.48
  -8   5   3    5.22    0.47
  -8   5   3    5.33    0.48
  -8   5   3    5.42    0.43
   7  -5  -3    0.95    0.22
  -7  -5   3    1.45    0.31
   7  -5  -3    1.25    0.29
   7  -5  -3    0.90    0.27
  -7  -5   3    1.01    0.24
  -7  -5   3    1.55    0.27
  -7  -5   3    1.08    0.24
  -7   5   3    1.31    0.29
   7   5  -3    0.96    0.22
   7   5  -3    1.08    0.27
  -7   5   3    1.36    0.24
  -7   5   3    1.20    0.25
  -7   5   3    1.38    0.29
  -6  -5   3    4.79    0.42
   6  -5  -3    5.90    0.45
   6  -5  -3    5.56    0.45
  -6  -5   3    4.95    0.39
  -6  -5   3    4.98    0.41
  -6  -5   3    4.85    0.45
   6  -5  -3    5.43    0.46
   6   5  -3    5.86    0.46
  -6   5   3    5.30    0.43
   6   5  -3    4.80    0.44
  -6   5   3    5.54    0.35
  -6   5   3    5.08    0.34
  -6   5   3    4.72    0.41
  -6   5   3    5.09    0.43
  -5  -5   3    0.27    0.11
  -5  -5   3    0.34    0.14
   5  -5  -3    0.52    0.17
   5  -5  -3    0.25    0.13
  -5  -5   3    0.32    0.12
  -5  -5   3    0.56    0.16
   5  -5  -3    0.28    0.14
  -5   5   3    0.46    0.12
  -5   5   3    0.66    0.19
  -5   5   3    0.72    0.21
   5   5  -3    0.36    0.15
   5   5  -3    0.40    0.12
  -5   5   3    0.33    0.15
  -5   5   3    0.52    0.12
  -4  -5   3    0.17    0.11
  -4  -5   3    0.22    0.09
   4  -5  -3    0.19    0.13
   4  -5  -3    0.30    0.12
   4  -5  -3    0.09    0.10
  -4  -5   3    0.07    0.09
   4   5  -3    0.37    0.12
  -4   5   3    0.16    0.07
   4   5  -3    0.22    0.12
  -4   5   3    0.36    0.09
  -4   5   3    0.31    0.12
  -4   5   3    0.19    0.10
   4   5  -3    0.02    0.08
  -4   5   3    0.14    0.09
  -3  -5   3    4.32    0.35
   3  -5  -3    5.35    0.39
  -3  -5   3    4.74    0.38
   3  -5  -3    4.84    0.38
   3  -5  -3    5.56    0.37
  -3  -5   3    5.41    0.39
  -3   5   3    4.98    0.37
  -3   5   3    5.12    0.21
  -3   5   3    4.98    0.35
  -3   5   3    4.57    0.35
   3   5  -3    5.41    0.38
   3   5  -3    5.18    0.38
   3   5  -3    4.96    0.38
   2  -5  -3    6.04    0.41
  -2  -5   3    5.97    0.40
  -2  -5   3    5.81    0.41
   2  -5  -3    6.46    0.38
   2  -5  -3    5.76    0.40
  -2  -5   3    6.50    0.42
  -2   5   3    6.02    0.40
   2   5  -3    6.30    0.42
   2   5  -3    6.33    0.41
  -2   5   3    6.74    0.41
  -2   5   3    6.03    0.37
   2   5  -3    6.66    0.42
  -1  -5   3   15.64    0.68
   1  -5  -3   16.22    0.70
  -1  -5   3   16.26    0.70
   1  -5  -3   16.28    0.71
   1  -5  -3   16.53    0.65
  -1  -5   3   15.92    0.70
  -1   5   3   15.99    0.70
   1   5  -3   16.55    0.70
  -1   5   3   15.86    0.64
   1   5  -3   15.98    0.71
   1   5  -3   16.20    0.54
  -1   5   3   14.82    0.64
   0  -5  -3   15.20    0.65
   0  -5  -3   15.05    0.59
   0  -5   3   15.22    0.70
   0  -5   3   15.25    0.68
   0  -5  -3   16.01    0.69
   0  -5   3   14.80    0.66
   0  -5   3   15.12    0.63
   0  -5   3   14.78    0.57
   0   5   3   14.95    0.67
   0   5  -3   14.92    0.57
   0   5  -3   14.69    0.67
   0   5   3   14.48    0.59
   0   5  -3   14.89    0.67
  -1  -5  -3   17.40    0.63
  -1  -5  -3   13.98    0.69
   1  -5   3   17.20    0.78
   1  -5   3   18.18    0.77
   1  -5   3   17.98    0.76
   1  -5   3   17.78    0.67
  -1  -5  -3   16.25    0.67
   1  -5   3   19.28    0.72
  -1  -5  -3   18.11    0.57
   1   5   3   17.77    0.76
  -1   5  -3   16.76    0.73
   1   5   3   17.81    0.58
  -1   5  -3   18.47    0.77
  -1   5  -3   18.01    0.68
   1   5   3   17.88    0.66
  -2  -5  -3   13.79    0.58
   2  -5   3   14.61    0.66
   2  -5   3   14.49    0.67
  -2  -5  -3   15.51    0.70
   2  -5   3   14.33    0.53
  -2  -5  -3   14.31    0.55
  -2  -5  -3   14.00    0.55
   2  -5   3   14.23    0.69
   2  -5   3   15.22    0.69
  -2   5  -3   14.77    0.67
   2   5   3   13.94    0.67
  -2   5  -3   13.99    0.68
   2   5   3   13.57    0.54
  -2   5  -3   13.96    0.63
  -3  -5  -3   17.18    0.62
  -3  -5  -3   17.23    0.63
   3  -5   3   18.52    0.81
  -3  -5  -3   16.93    0.67
  -3  -5  -3   17.62    0.78
  -3  -5  -3   16.94    0.81
   3  -5   3   15.42    0.77
   3  -5   3   18.28    0.80
   3  -5   3   18.50    0.80
   3  -5   3   18.13    0.57
  -3  -5  -3   16.66    0.63
  -3   5  -3   16.30    0.74
   3   5   3   17.32    0.69
  -3   5  -3   17.72    0.79
   3   5   3   18.95    0.82
  -3   5  -3   16.99    0.79
  -4  -5  -3   10.59    0.59
  -4  -5  -3    9.79    0.44
  -4  -5  -3    9.90    0.43
  -4  -5  -3   10.76    0.54
   4  -5   3    9.24    0.55
   4  -5   3    9.71    0.58
  -4  -5  -3    9.42    0.61
  -4  -5  -3    8.12    0.43
   4  -5   3    9.55    0.57
   4  -5   3    9.90    0.59
  -4   5  -3   10.36    0.61
  -4   5  -3    9.29    0.57
  -4   5  -3    9.79    0.57
   5  -5   3   11.20    0.64
  -5  -5  -3   11.76    0.70
  -5  -5  -3   11.90    0.54
  -5  -5  -3   12.31    0.54
   5  -5   3   11.74    0.69
  -5  -5  -3   13.20    0.70
  -5  -5  -3   12.36    0.49
   5  -5   3   12.85    0.70
  -5  -5  -3   13.20    0.65
  -5   5  -3   12.79    0.70
  -5   5  -3   12.25    0.68
  -5   5  -3   12.78    0.71
  -6  -5  -3    4.54    0.31
  -6  -5  -3    4.02    0.30
  -6  -5  -3    4.14    0.25
   6  -5   3    4.23    0.40
  -6  -5  -3    4.12    0.38
  -6  -5  -3    4.70    0.42
   6  -5   3    4.08    0.41
  -6  -5  -3    3.79    0.40
   6  -5   3    4.63    0.45
  -6   5  -3    4.40    0.42
  -6   5  -3    4.12    0.41
  -6   5  -3    4.27    0.40
  -7  -5  -3    1.94    0.34
  -7  -5  -3    1.54    0.28
  -7  -5  -3    2.06    0.36
   7  -5   3    1.94    0.35
  -7  -5  -3    2.24    0.35
  -7  -5  -3    1.94    0.23
  -7  -5  -3    1.83    0.27
   7  -5   3    1.66    0.26
   7  -5   3    1.95    0.36
  -7  -5  -3    2.09    0.18
  -7   5  -3    1.70    0.30
  -7   5  -3    2.10    0.35
  -7   5  -3    2.34    0.40
  -7   5  -3    2.32    0.40
  -8  -5  -3    0.66    0.19
  -8  -5  -3    0.87    0.13
   8  -5   3    0.46    0.18
  -8  -5  -3    0.47    0.24
  -8  -5  -3    0.46    0.18
  -8  -5  -3    0.72    0.22
  -8  -5  -3    0.56    0.17
  -8   5  -3    0.99    0.27
  -8   5  -3    0.45    0.21
  -8   5  -3    0.37    0.22
  -8   5  -3    0.61    0.20
  -9  -5  -3   -0.24    0.13
  -9  -5  -3    0.56    0.23
  -9  -5  -3    0.04    0.15
   9  -5   3    0.10    0.19
  -9  -5  -3    0.64    0.22
  -9   5  -3    0.01    0.16
  -9   5  -3    0.05    0.19
  -9   5  -3    0.11    0.18
 -10  -6   3    0.21    0.19
 -10  -6   3    0.07    0.16
 -10  -6   3    0.36    0.16
  10  -6  -3    0.17    0.20
  10  -6  -3    0.10    0.18
 -10   6   3   -0.43    0.19
 -10   6   3    0.76    0.26
 -10   6   3    0.20    0.20
  10   6  -3    0.13    0.16
 -10   6   3   -0.04    0.14
  -9  -6   3    0.54    0.23
   9  -6  -3    0.44    0.21
   9  -6  -3    0.62    0.23
  -9  -6   3    0.56    0.19
  -9   6   3    0.45    0.19
   9   6  -3    0.35    0.19
  -9   6   3    0.05    0.18
  -9   6   3    0.41    0.19
  -9   6   3    0.67    0.24
   8  -6  -3    4.28    0.47
   8  -6  -3    5.82    0.51
  -8  -6   3    5.38    0.54
  -8  -6   3    4.87    0.44
   8  -6  -3    5.45    0.62
  -8  -6   3    4.45    0.48
  -8  -6   3    4.78    0.50
   8   6  -3    5.31    0.50
  -8   6   3    5.08    0.49
  -8   6   3    4.77    0.41
  -8   6   3    4.92    0.51
  -8   6   3    5.73    0.51
  -8   6   3    4.25    0.39
   7  -6  -3    8.06    0.59
  -7  -6   3    7.69    0.62
  -7  -6   3    7.88    0.58
  -7  -6   3    7.86    0.58
   7  -6  -3    7.32    0.59
  -7  -6   3    7.83    0.52
   7  -6  -3    8.08    0.59
  -7   6   3    7.72    0.58
  -7   6   3    8.05    0.58
  -7   6   3    8.61    0.49
   7   6  -3    8.53    0.60
   7   6  -3    7.17    0.61
  -7   6   3    7.40    0.59
  -7   6   3    6.83    0.44
   6  -6  -3   14.84    0.83
  -6  -6   3   13.84    0.78
  -6  -6   3   13.64    0.75
  -6  -6   3   13.85    0.83
   6  -6  -3   14.32    0.79
   6  -6  -3   14.19    0.77
  -6  -6   3   12.91    0.71
  -6   6   3   13.36    0.76
  -6   6   3   14.22    0.62
   6   6  -3   14.41    0.83
   6   6  -3   14.39    0.78
  -6   6   3   14.66    0.79
  -6   6   3   13.80    0.78
  -6   6   3   14.20    0.61
  -5  -6   3    9.33    0.59
   5  -6  -3   10.38    0.61
   5  -6  -3   10.82    0.65
  -5  -6   3    9.28    0.57
   5  -6  -3   10.89    0.66
  -5  -6   3    9.41    0.64
  -5  -6   3    9.39    0.58
  -5   6   3    9.93    0.61
  -5   6   3    9.54    0.44
  -5   6   3    9.78    0.61
   5   6  -3   11.45    0.66
  -5   6   3    9.84    0.60
   5   6  -3    9.57    0.64
   5   6  -3   10.75    0.64
  -5   6   3    9.17    0.43
  -4  -6   3   12.69    0.69
  -4  -6   3   11.92    0.72
  -4  -6   3   13.04    0.69
   4  -6  -3   12.70    0.70
   4  -6  -3   14.01    0.74
   4  -6  -3   13.50    0.68
   4   6  -3   13.10    0.70
   4   6  -3   13.86    0.70
  -4   6   3   13.45    0.68
  -4   6   3   13.07    0.70
  -4   6   3   12.79    0.47
  -4   6   3   12.98    0.48
  -4   6   3   13.04    0.69
  -3  -6   3   14.89    0.73
  -3  -6   3   15.21    0.78
  -3  -6   3   14.95    0.73
   3  -6  -3   15.55    0.77
   3  -6  -3   15.13    0.74
   3  -6  -3   14.53    0.68
   3   6  -3   15.37    0.74
  -3   6   3   14.71    0.73
  -3   6   3   15.24    0.70
   3   6  -3   14.19    0.73
  -2  -6   3   17.12    0.80
   2  -6  -3   16.77    0.80
  -2  -6   3   17.23    0.77
  -2  -6   3   15.78    0.75
   2  -6  -3   17.26    0.80
   2  -6  -3   17.70    0.73
  -2   6   3   16.27    0.71
  -2   6   3   16.77    0.75
   2   6  -3   17.55    0.79
   2   6  -3   17.44    0.79
  -2   6   3   16.02    0.77
  -1  -6   3    9.55    0.54
  -1  -6   3    8.38    0.51
   1  -6  -3    9.15    0.54
  -1  -6   3    9.19    0.55
  -1  -6   3    7.03    0.47
   1  -6  -3    9.96    0.56
   1  -6  -3    8.63    0.46
   1   6  -3    9.27    0.54
   1   6  -3    8.99    0.54
  -1   6   3    8.92    0.52
   1   6  -3    8.77    0.37
  -1   6   3    9.25    0.47
   0  -6  -3    3.26    0.25
   0  -6   3    2.91    0.29
   0  -6   3    3.78    0.36
   0  -6  -3    3.62    0.32
   0  -6   3    3.58    0.25
   0  -6  -3    3.30    0.32
   0  -6   3    3.58    0.31
   0  -6   3    3.67    0.34
   0   6   3    3.47    0.32
   0   6  -3    3.28    0.24
   0   6  -3    3.67    0.34
   0   6  -3    3.38    0.32
   0   6   3    3.45    0.27
  -1  -6  -3    4.83    0.35
  -1  -6  -3    4.15    0.37
  -1  -6  -3    4.65    0.24
   1  -6   3    4.43    0.37
   1  -6   3    4.47    0.32
  -1  -6  -3    3.38    0.25
   1  -6   3    4.62    0.32
   1  -6   3    4.72    0.38
   1  -6   3    4.07    0.38
  -1   6  -3    5.03    0.39
   1   6   3    4.26    0.37
  -1   6  -3    5.13    0.39
  -1   6  -3    4.57    0.31
   1   6   3    4.49    0.29
   1   6   3    4.22    0.23
   2  -6   3    0.21    0.11
  -2  -6  -3    0.26    0.11
   2  -6   3    0.09    0.12
  -2  -6  -3    0.21    0.13
  -2  -6  -3    0.24    0.08
  -2  -6  -3    0.31    0.16
   2  -6   3    0.24    0.14
   2  -6   3    0.31    0.10
   2  -6   3    0.26    0.11
  -2  -6  -3    0.35    0.10
  -2   6  -3    0.15    0.09
   2   6   3    0.38    0.11
  -2   6  -3    0.41    0.14
   2   6   3    0.16    0.10
  -2   6  -3    0.30    0.13
  -3  -6  -3    0.40    0.19
   3  -6   3    0.21    0.13
   3  -6   3    0.31    0.09
  -3  -6  -3    0.29    0.10
  -3  -6  -3    0.32    0.15
  -3  -6  -3    0.42    0.13
   3  -6   3    0.16    0.14
   3  -6   3    0.29    0.13
  -3  -6  -3    0.27    0.08
  -3  -6  -3    0.14    0.08
   3  -6   3    0.37    0.13
  -3   6  -3    0.12    0.13
  -3   6  -3    0.37    0.14
   3   6   3    0.32    0.14
  -3   6  -3    0.39    0.15
   3   6   3    0.56    0.15
  -4  -6  -3    4.50    0.44
   4  -6   3    5.28    0.45
  -4  -6  -3    4.36    0.40
  -4  -6  -3    4.40    0.31
   4  -6   3    4.86    0.41
   4  -6   3    4.57    0.41
   4  -6   3    4.86    0.42
  -4  -6  -3    4.53    0.35
  -4  -6  -3    4.45    0.27
  -4  -6  -3    4.00    0.26
   4   6   3    4.57    0.42
  -4   6  -3    4.21    0.39
  -4   6  -3    4.20    0.40
  -4   6  -3    4.36    0.40
   5  -6   3    3.13    0.36
  -5  -6  -3    3.02    0.26
  -5  -6  -3    3.66    0.25
  -5  -6  -3    3.62    0.25
  -5  -6  -3    3.26    0.39
   5  -6   3    3.69    0.37
  -5  -6  -3    3.60    0.37
   5  -6   3    3.64    0.39
  -5  -6  -3    3.15    0.33
  -5   6  -3    4.12    0.41
  -5   6  -3    3.81    0.39
  -5   6  -3    3.92    0.40
  -6  -6  -3    4.03    0.29
  -6  -6  -3    3.97    0.29
   6  -6   3    3.19    0.36
  -6  -6  -3    4.20    0.38
  -6  -6  -3    3.88    0.28
   6  -6   3    3.74    0.42
  -6  -6  -3    4.37    0.28
   6  -6   3    3.61    0.42
  -6  -6  -3    4.56    0.46
  -6  -6  -3    3.83    0.42
  -6   6  -3    3.84    0.41
  -6   6  -3    4.22    0.44
  -6   6  -3    4.19    0.43
  -7  -6  -3    2.89    0.24
  -7  -6  -3    3.15    0.23
   7  -6   3    3.07    0.53
   7  -6   3    2.02    0.34
  -7  -6  -3    3.11    0.26
  -7  -6  -3    2.72    0.40
  -7  -6  -3    2.79    0.24
  -7  -6  -3    2.53    0.40
  -7   6  -3    2.79    0.47
  -7   6  -3    3.29    0.50
  -8  -6  -3    5.30    0.32
   8  -6   3    4.97    0.52
  -8  -6  -3    5.31    0.37
  -8  -6  -3    4.88    0.53
  -8  -6  -3    4.35    0.34
  -8  -6  -3    5.55    0.32
  -8  -6  -3    4.98    0.54
  -8  -6  -3    5.97    0.57
  -8   6  -3    5.94    0.56
  -8   6  -3    5.64    0.54
  -9  -6  -3    4.77    0.27
  -9  -6  -3    2.96    0.46
   9  -6   3    4.04    0.61
  -9  -6  -3    4.74    0.37
  -9  -6  -3    4.59    0.37
  -9  -6  -3    5.09    0.53
  -9   6  -3    6.10    0.56
  -9   6  -3    4.52    0.65
  -9  -7   3    3.19    0.52
   9  -7  -3    3.45    0.52
  -9  -7   3    3.07    0.56
  -9  -7   3    3.55    0.40
  -9   7   3    2.53    0.43
  -9   7   3    3.15    0.38
  -9   7   3    4.54    0.44
  -9   7   3    2.15    0.39
   9   7  -3    2.34    0.41
  -8  -7   3    2.33    0.44
  -8  -7   3    1.73    0.32
   8  -7  -3    2.49    0.42
   8  -7  -3    1.23    0.30
  -8   7   3    2.44    0.34
  -8   7   3    1.85    0.39
   8   7  -3    2.34    0.42
  -8   7   3    1.75    0.32
  -8   7   3    2.72    0.37
  -7  -7   3    4.21    0.47
   7  -7  -3    3.92    0.43
   7  -7  -3    4.76    0.51
  -7  -7   3    3.82    0.40
  -7  -7   3    4.21    0.45
  -7   7   3    3.84    0.33
  -7   7   3    4.16    0.47
  -7   7   3    3.77    0.33
  -7   7   3    4.06    0.44
   7   7  -3    3.50    0.41
  -7   7   3    4.70    0.47
  -6  -7   3    0.47    0.18
  -6  -7   3    0.84    0.23
   6  -7  -3    0.54    0.20
   6  -7  -3    0.74    0.23
   6  -7  -3    0.27    0.17
  -6  -7   3    0.84    0.20
  -6  -7   3    0.34    0.16
  -6   7   3    0.54    0.18
  -6   7   3    0.99    0.18
  -6   7   3    0.80    0.17
  -6   7   3    0.64    0.24
  -6   7   3    0.50    0.20
   6   7  -3    0.55    0.19
   5  -7  -3    2.95    0.33
  -5  -7   3    2.27    0.34
   5  -7  -3    1.76    0.31
   5  -7  -3    2.81    0.41
  -5  -7   3    2.62    0.36
  -5  -7   3    2.06    0.32
  -5  -7   3    2.56    0.41
   5   7  -3    2.49    0.39
  -5   7   3    2.84    0.21
   5   7  -3    2.31    0.34
  -5   7   3    2.57    0.21
  -5   7   3    2.34    0.32
  -5   7   3    2.89    0.42
  -5   7   3    1.72    0.32
   4  -7  -3    0.88    0.24
  -4  -7   3    1.08    0.23
   4  -7  -3    1.28    0.27
   4  -7  -3    1.12    0.24
  -4  -7   3    1.23    0.30
  -4  -7   3    1.10    0.25
  -4   7   3    1.10    0.22
  -4   7   3    1.41    0.30
   4   7  -3    1.02    0.25
  -4   7   3    1.55    0.14
  -4   7   3    1.36    0.28
   4   7  -3    0.98    0.22
  -4   7   3    1.43    0.14
  -3  -7   3    1.24    0.25
   3  -7  -3    2.01    0.31
   3  -7  -3    1.49    0.29
  -3  -7   3    1.59    0.33
  -3  -7   3    1.51    0.28
   3  -7  -3    2.06    0.35
  -3   7   3    1.32    0.25
  -3   7   3    1.47    0.27
   3   7  -3    1.95    0.33
  -3   7   3    1.39    0.27
   3   7  -3    1.48    0.25
   2  -7  -3    4.20    0.40
  -2  -7   3    4.34    0.40
  -2  -7   3    4.47    0.40
  -2  -7   3    4.95    0.43
  -2  -7   3    3.99    0.39
   2  -7  -3    4.63    0.35
   2  -7  -3    4.11    0.41
  -2   7   3    3.95    0.34
  -2   7   3    4.49    0.40
   2   7  -3    4.53    0.39
   2   7  -3    5.00    0.43
   1  -7  -3   12.15    0.68
  -1  -7   3   11.96    0.66
   1  -7  -3   12.01    0.57
  -1  -7   3   12.55    0.67
  -1  -7   3   12.96    0.71
   1  -7  -3   11.42    0.67
  -1  -7   3   12.78    0.70
   1   7  -3   12.38    0.65
  -1   7   3   12.14    0.69
  -1   7   3   12.18    0.58
   1   7  -3   11.66    0.44
   1   7  -3   11.30    0.66
   0  -7  -3    9.17    0.58
   0  -7   3    9.61    0.57
   0  -7  -3    9.42    0.58
   0  -7   3    9.81    0.62
   0  -7   3    8.59    0.58
   0  -7   3    9.57    0.55
   0  -7  -3    9.86    0.48
   0  -7   3    9.61    0.44
   0   7   3    8.53    0.57
   0   7   3    8.82    0.47
   0   7  -3   10.30    0.59
   0   7  -3    8.84    0.43
   0   7  -3   10.47    0.62
   1  -7   3   13.10    0.72
   1  -7   3   11.74    0.64
   1  -7   3   12.05    0.61
  -1  -7  -3   12.33    0.46
  -1  -7  -3   12.45    0.69
   1  -7   3   13.45    0.60
  -1  -7  -3   12.40    0.52
  -1  -7  -3   11.65    0.72
  -1  -7  -3   12.50    0.65
   1  -7   3   12.17    0.71
  -1   7  -3   11.54    0.68
  -1   7  -3   11.36    0.55
  -1   7  -3   11.76    0.66
   1   7   3   12.33    0.70
   1   7   3   11.72    0.53
   1   7   3   11.40    0.45
   2  -7   3   13.98    0.62
  -2  -7  -3   13.24    0.73
   2  -7   3   14.71    0.77
  -2  -7  -3   12.99    0.53
  -2  -7  -3   11.67    0.73
  -2  -7  -3   12.78    0.52
   2  -7   3   14.38    0.69
  -2  -7  -3   12.68    0.65
   2  -7   3   13.61    0.77
   2  -7   3   13.75    0.71
  -2   7  -3   12.31    0.63
  -2   7  -3   13.74    0.71
  -2   7  -3   13.61    0.73
   2   7   3   13.15    0.55
   2   7   3   14.41    0.76
  -3  -7  -3    7.86    0.36
   3  -7   3    7.19    0.54
   3  -7   3    6.61    0.37
   3  -7   3    6.83    0.50
  -3  -7  -3    7.96    0.43
  -3  -7  -3    7.40    0.48
   3  -7   3    7.41    0.55
  -3  -7  -3    7.17    0.53
  -3  -7  -3    7.37    0.57
   3  -7   3    6.51    0.47
  -3  -7  -3    7.09    0.35
   3   7   3    6.56    0.40
   3   7   3    7.07    0.53
  -3   7  -3    7.21    0.52
  -3   7  -3    7.76    0.50
  -3   7  -3    7.65    0.55
  -4  -7  -3   13.17    0.81
   4  -7   3   13.80    0.76
   4  -7   3   14.92    0.83
  -4  -7  -3   11.68    0.73
  -4  -7  -3   13.85    0.51
  -4  -7  -3   11.25    0.61
  -4  -7  -3   13.15    0.51
   4  -7   3   14.40    0.77
  -4  -7  -3   14.93    0.66
   4  -7   3   14.17    0.80
   4  -7   3   13.29    0.52
  -4   7  -3   12.99    0.71
  -4   7  -3   13.58    0.76
  -4   7  -3   13.98    0.76
   4   7   3   14.42    0.82
  -5  -7  -3    5.50    0.30
  -5  -7  -3    5.61    0.29
   5  -7   3    6.28    0.51
  -5  -7  -3    5.74    0.44
   5  -7   3    6.14    0.54
  -5  -7  -3    5.40    0.50
  -5  -7  -3    5.48    0.37
   5  -7   3    5.67    0.51
  -5  -7  -3    5.13    0.51
  -5   7  -3    5.00    0.46
  -5   7  -3    5.04    0.48
  -5   7  -3    6.06    0.50
  -6  -7  -3    3.89    0.30
  -6  -7  -3    3.45    0.23
  -6  -7  -3    3.43    0.24
   6  -7   3    4.15    0.45
  -6  -7  -3    3.94    0.45
  -6  -7  -3    4.19    0.41
   6  -7   3    3.62    0.47
  -6  -7  -3    3.59    0.31
  -6   7  -3    2.34    0.38
  -6   7  -3    3.82    0.43
  -6   7  -3    3.89    0.43
  -7  -7  -3    1.51    0.23
   7  -7   3    1.51    0.32
  -7  -7  -3    1.33    0.33
  -7  -7  -3    1.37    0.30
  -7  -7  -3    1.72    0.24
  -7  -7  -3    1.17    0.17
  -7   7  -3    1.48    0.31
  -7   7  -3    1.45    0.35
  -8  -7  -3    0.41    0.25
  -8  -7  -3    0.01    0.12
  -8  -7  -3    0.18    0.12
  -8  -7  -3    0.27    0.10
   8  -7   3   -0.16    0.17
  -8  -7  -3    0.11    0.18
  -8   7  -3    0.21    0.20
  -8   7  -3    0.03    0.22
   8  -8  -3    1.28    0.32
   8  -8  -3    1.81    0.39
  -8  -8   3    1.93    0.34
   8   8  -3    1.13    0.29
  -8   8   3    2.00    0.33
  -8   8   3    1.76    0.37
  -8   8   3    1.45    0.28
  -8   8   3    1.87    0.38
  -7  -8   3    5.38    0.57
  -7  -8   3    5.56    0.52
   7  -8  -3    4.37    0.58
   7  -8  -3    5.63    0.51
  -7   8   3    4.71    0.36
   7   8  -3    5.09    0.49
  -7   8   3    5.73    0.54
  -7   8   3    4.44    0.37
  -6  -8   3    6.69    0.53
  -6  -8   3    6.14    0.59
   6  -8  -3    5.90    0.58
  -6  -8   3    6.53    0.54
   6  -8  -3    6.51    0.54
  -6   8   3    6.20    0.56
  -6   8   3    5.85    0.35
  -6   8   3    6.10    0.37
  -6   8   3    5.82    0.55
  -6   8   3    5.99    0.56
   6   8  -3    6.44    0.54
   5  -8  -3    9.81    0.65
  -5  -8   3   11.31    0.71
  -5  -8   3    8.77    0.68
   5  -8  -3    9.73    0.68
  -5  -8   3    9.71    0.64
  -5   8   3    9.02    0.41
  -5   8   3    9.08    0.65
  -5   8   3    9.79    0.69
  -5   8   3    8.60    0.63
   5   8  -3    8.97    0.66
   5   8  -3    9.47    0.64
  -4  -8   3    8.74    0.63
   4  -8  -3   10.83    0.71
   4  -8  -3   10.15    0.69
  -4  -8   3    8.24    0.59
  -4  -8   3    7.06    0.60
   4  -8  -3    8.83    0.59
   4   8  -3   10.74    0.69
  -4   8   3    8.89    0.63
   4   8  -3    8.61    0.59
  -4   8   3    8.85    0.58
   3  -8  -3    7.47    0.58
  -3  -8   3    6.35    0.50
  -3  -8   3    7.04    0.55
   3  -8  -3    8.21    0.52
   3  -8  -3    8.54    0.63
  -3  -8   3    6.78    0.56
  -3  -8   3    7.70    0.58
   3   8  -3    8.40    0.57
   3   8  -3    7.87    0.59
  -3   8   3    7.48    0.57
  -3   8   3    6.84    0.49
  -2  -8   3    4.93    0.47
  -2  -8   3    5.95    0.50
   2  -8  -3    6.18    0.52
  -2  -8   3    5.69    0.50
   2  -8  -3    5.36    0.50
  -2  -8   3    6.04    0.48
   2  -8  -3    6.11    0.42
   2   8  -3    5.81    0.49
   2   8  -3    5.64    0.46
  -2   8   3    6.34    0.50
  -2   8   3    6.23    0.44
   1  -8  -3    5.91    0.39
  -1  -8   3    6.69    0.53
  -1  -8   3    6.01    0.47
  -1  -8   3    4.87    0.47
   1  -8  -3    5.21    0.47
   1  -8  -3    4.60    0.46
  -1  -8   3    5.39    0.47
   1   8  -3    5.80    0.28
  -1   8   3    6.24    0.51
  -1   8   3    5.94    0.42
   1   8  -3    6.80    0.52
   1   8  -3    6.14    0.46
   0  -8   3    4.73    0.47
   0  -8  -3    5.48    0.35
   0  -8  -3    4.55    0.45
   0  -8   3    4.73    0.41
   0  -8  -3    4.97    0.45
   0  -8   3    5.14    0.47
   0  -8  -3    5.01    0.47
   0  -8   3    4.95    0.42
   0   8  -3    4.50    0.40
   0   8  -3    4.92    0.46
   0   8   3    4.79    0.44
   0   8  -3    4.70    0.30
   0   8   3    5.15    0.35
   1  -8   3    1.01    0.22
  -1  -8  -3    0.68    0.23
  -1  -8  -3    1.04    0.21
   1  -8   3    1.47    0.30
  -1  -8  -3    1.16    0.18
   1  -8   3    1.08    0.27
  -1  -8  -3    1.43    0.35
   1  -8   3    1.46    0.23
   1  -8   3    1.22    0.27
   1   8   3    1.47    0.16
   1   8   3    1.23    0.27
  -1   8  -3    1.84    0.32
  -1   8  -3    0.96    0.26
  -1   8  -3    1.03    0.18
  -2  -8  -3    0.21    0.12
   2  -8   3    0.17    0.16
   2  -8   3   -0.01    0.11
  -2  -8  -3    0.05    0.13
   2  -8   3   -0.09    0.09
  -2  -8  -3    0.03    0.10
  -2  -8  -3    0.20    0.09
  -2  -8  -3    0.27    0.11
   2  -8   3    0.15    0.16
   2  -8   3    0.36    0.17
  -2   8  -3    0.20    0.12
  -2   8  -3    0.18    0.14
  -2   8  -3    0.30    0.15
   2   8   3    0.09    0.06
   2   8   3    0.13    0.14
  -3  -8  -3    1.54    0.14
  -3  -8  -3    1.25    0.30
  -3  -8  -3    1.53    0.16
   3  -8   3    1.51    0.30
  -3  -8  -3    1.80    0.29
  -3  -8  -3    1.73    0.35
   3  -8   3    1.37    0.31
   3  -8   3    1.47    0.33
  -3  -8  -3    1.97    0.21
   3  -8   3    1.70    0.26
   3  -8   3    1.44    0.29
  -3   8  -3    1.49    0.30
  -3   8  -3    1.62    0.29
   3   8   3    1.21    0.25
  -3   8  -3    1.47    0.31
  -4  -8  -3    0.80    0.25
   4  -8   3    0.80    0.27
   4  -8   3    1.08    0.26
  -4  -8  -3    1.00    0.20
   4  -8   3    1.04    0.18
  -4  -8  -3    0.99    0.19
  -4   8  -3    0.96    0.24
  -4   8  -3    0.79    0.24
  -4   8  -3    0.78    0.27
   4   8   3    1.01    0.24
   5  -8   3    2.30    0.38
  -5  -8  -3    1.96    0.41
   5  -8   3    2.85    0.46
  -5  -8  -3    2.57    0.34
  -5  -8  -3    2.46    0.35
  -5   8  -3    2.80    0.45
  -5   8  -3    2.23    0.42
  -5   8  -3    2.68    0.46
   6  -8   3    2.55    0.39
  -6  -8  -3    2.70    0.33
  -6  -8  -3    2.24    0.44
  -6  -8  -3    2.84    0.31
  -6  -8  -3    2.70    0.39
  -6   8  -3    2.87    0.43
  -6   8  -3    2.77    0.47
  -7  -8  -3    3.88    0.35
   7  -8   3    3.06    0.48
  -7  -8  -3    4.27    0.47
  -7  -8  -3    4.35    0.33
  -7  -8  -3    3.57    0.56
  -7   8  -3    4.43    0.53
  -7   8  -3    3.58    0.53
   7  -9  -3    0.66    0.27
  -7  -9   3    0.87    0.28
  -7  -9   3    0.80    0.29
  -7   9   3    1.09    0.22
  -7   9   3    1.17    0.33
  -7   9   3    0.60    0.20
   7   9  -3    0.92    0.28
  -7   9   3    0.33    0.23
   6  -9  -3    1.26    0.26
   6  -9  -3    1.53    0.39
  -6  -9   3    1.30    0.30
  -6  -9   3    0.82    0.28
  -6   9   3    0.73    0.22
   6   9  -3    1.29    0.34
  -5  -9   3   -0.12    0.13
  -5  -9   3    0.11    0.20
   5  -9  -3    0.02    0.13
   5  -9  -3    0.08    0.20
  -5  -9   3    0.09    0.16
  -5  -9   3    0.10    0.19
  -5   9   3    0.04    0.19
   5   9  -3    0.00    0.15
  -5   9   3    0.20    0.15
   5   9  -3   -0.12    0.16
  -4  -9   3    0.53    0.24
   4  -9  -3    0.78    0.26
  -4  -9   3    0.42    0.19
  -4  -9   3    0.48    0.23
   4  -9  -3    0.40    0.16
  -4   9   3    0.35    0.20
   4   9  -3    0.59    0.21
   4   9  -3    0.50    0.20
  -3  -9   3    0.25    0.18
   3  -9  -3    0.81    0.20
  -3  -9   3    1.20    0.30
  -3  -9   3    0.97    0.27
   3  -9  -3    1.41    0.30
   3   9  -3    0.75    0.24
  -3   9   3    0.67    0.21
  -3   9   3    0.97    0.25
   3   9  -3    0.78    0.25
  -2  -9   3    3.93    0.43
  -2  -9   3    3.94    0.45
   2  -9  -3    3.80    0.53
   2  -9  -3    4.25    0.38
  -2  -9   3    4.57    0.50
  -2   9   3    4.92    0.48
   2   9  -3    4.80    0.48
  -2   9   3    4.82    0.40
   2   9  -3    4.63    0.43
   1  -9  -3    3.75    0.32
  -1  -9   3    3.63    0.41
   1  -9  -3    3.72    0.52
  -1  -9   3    3.61    0.51
   1  -9  -3    4.48    0.48
  -1  -9   3    3.63    0.41
   1   9  -3    2.61    0.38
  -1   9   3    3.51    0.52
  -1   9   3    3.29    0.32
   1   9  -3    3.63    0.40
   0  -9   3    7.28    0.54
   0  -9   3    7.51    0.56
   0  -9  -3    7.57    0.63
   0  -9  -3    7.07    0.42
   0  -9   3    7.79    0.63
   0  -9  -3    6.49    0.57
   0   9  -3    7.11    0.53
   0   9  -3    7.22    0.37
   0   9  -3    6.97    0.56
   0   9   3    7.53    0.61
   0   9   3    7.48    0.44
   1  -9   3    3.68    0.32
   1  -9   3    3.65    0.52
  -1  -9  -3    4.28    0.29
  -1  -9  -3    4.03    0.42
   1  -9   3    3.24    0.38
  -1  -9  -3    3.65    0.43
   1  -9   3    3.95    0.40
  -1   9  -3    4.71    0.42
   1   9   3    3.12    0.44
   1   9   3    3.93    0.30
  -1   9  -3    3.64    0.32
  -1   9  -3    4.33    0.45
   2  -9   3    4.66    0.46
  -2  -9  -3    5.59    0.29
  -2  -9  -3    5.48    0.48
   2  -9   3    4.61    0.39
   2  -9   3    4.05    0.57
  -2  -9  -3    5.19    0.31
  -2  -9  -3    5.42    0.57
   2  -9   3    4.56    0.40
   2   9   3    5.30    0.53
  -2   9  -3    5.90    0.49
  -2   9  -3    5.31    0.49
  -2   9  -3    4.58    0.40
   3  -9   3    8.92    0.72
  -3  -9  -3    8.20    0.70
   3  -9   3    8.26    0.58
   3  -9   3    9.96    0.55
   3  -9   3   10.46    0.66
  -3  -9  -3    8.54    0.59
  -3  -9  -3    8.91    0.48
  -3   9  -3    9.19    0.63
   3   9   3    9.17    0.70
  -3   9  -3    8.61    0.65
  -3   9  -3   10.42    0.62
   4  -9   3    3.44    0.50
  -4  -9  -3    3.68    0.39
   4  -9   3    4.13    0.42
   4  -9   3    3.52    0.30
  -4  -9  -3    2.47    0.42
  -4  -9  -3    3.20    0.33
  -4   9  -3    2.90    0.45
  -4   9  -3    3.82    0.41
  -4   9  -3    3.77    0.44
  -5  -9  -3    3.27    0.38
  -5  -9  -3    2.10    0.42
   5  -9   3    3.27    0.48
  -5  -9  -3    4.00    0.42
  -5   9  -3    2.98    0.47
  -5   9  -3    2.71    0.40
   4 -10  -3    3.64    0.41
   4 -10  -3    3.61    0.53
  -4 -10   3    3.89    0.47
   4 -10  -3    3.66    0.52
  -4 -10   3    3.08    0.44
  -4 -10   3    3.17    0.51
  -4  10   3    3.72    0.49
  -4  10   3    3.04    0.52
   4  10  -3    4.01    0.58
   4  10  -3    3.88    0.53
  -3 -10   3    2.64    0.46
  -3 -10   3    2.66    0.43
   3 -10  -3    3.03    0.47
   3 -10  -3    2.81    0.39
  -3 -10   3    2.74    0.44
   3 -10  -3    3.16    0.50
  -3  10   3    2.97    0.44
   3  10  -3    2.68    0.45
   3  10  -3    3.84    0.42
  -3  10   3    3.16    0.50
  -2 -10   3    2.98    0.47
   2 -10  -3    2.57    0.30
   2 -10  -3    3.52    0.54
  -2 -10   3    2.82    0.48
   2 -10  -3    2.87    0.48
  -2 -10   3    2.59    0.41
  -2  10   3    2.88    0.38
   2  10  -3    2.94    0.44
   2  10  -3    1.91    0.32
  -2  10   3    2.87    0.45
  -1 -10   3    1.81    0.35
  -1 -10   3    2.75    0.50
   1 -10  -3    2.58    0.28
   1 -10  -3    1.98    0.41
   1 -10  -3    2.24    0.47
  -1 -10   3    2.27    0.38
  -1  10   3    2.39    0.45
   1  10  -3    2.39    0.39
   1  10  -3    2.26    0.38
   0 -10   3    1.28    0.29
   0 -10   3    0.91    0.25
   0 -10  -3    1.45    0.23
   0 -10  -3    0.85    0.31
   0 -10  -3    0.61    0.23
   0 -10   3    1.51    0.37
   0  10   3    1.33    0.38
   0  10  -3    1.48    0.20
   0  10  -3    1.00    0.26
   0  10   3    1.05    0.22
   0  10  -3    1.19    0.29
  -1 -10  -3    0.56    0.14
   1 -10   3    0.21    0.26
  -1 -10  -3    0.39    0.20
   1 -10   3    0.36    0.20
   1 -10   3    0.43    0.22
  -1 -10  -3    0.62    0.24
   1  10   3    0.27    0.21
  -1  10  -3    0.52    0.21
  -1  10  -3    0.09    0.19
  -1  10  -3    0.71    0.18
   2 -10   3    0.01    0.16
   2 -10   3    0.82    0.21
   2 -10   3   -0.22    0.19
  -2 -10  -3   -0.07    0.17
  -2 -10  -3   -0.11    0.17
   2 -10   3   -0.23    0.22
   2  10   3   -0.03    0.19
  -2  10  -3    0.36    0.18
  -2  10  -3    0.34    0.18
  -2  10  -3    0.91    0.29
  -3 -10  -3    1.30    0.36
   3 -10   3    0.61    0.30
  -3 -10  -3    0.50    0.24
   3 -10   3    0.29    0.18
   3 -10   3    0.36    0.25
   3 -10   3    0.57    0.20
  -3  10  -3    0.25    0.24
   3  10   3   -0.01    0.20
  -3  10  -3    0.35    0.20
  -3  10  -3    0.20    0.18
  12   0  -4   18.08    0.95
  12   0  -4   17.02    0.92
 -12   0   4   18.37    1.03
 -12   0   4   18.40    0.97
 -11   0   4   17.39    0.90
  11   0  -4   18.07    0.98
  11   0  -4   17.35    0.91
 -11   0   4   17.08    0.91
  11   0  -4   17.15    0.90
 -11   0   4   17.31    0.95
 -10   0   4   19.54    1.02
  10   0  -4   25.40    1.06
  10   0  -4   24.42    1.14
 -10   0   4   22.40    1.00
 -10   0   4   21.35    0.98
  10   0  -4   24.11    1.06
  10   0  -4   24.86    1.08
 -10   0   4   23.32    1.08
   9   0  -4   14.37    0.76
   9   0  -4   13.86    0.71
   9   0  -4   15.21    0.79
  -9   0   4   13.72    0.77
   9   0  -4   13.99    0.72
  -9   0   4   14.04    0.76
  -9   0   4   13.91    0.72
  -9   0   4   13.26    0.71
  -8   0   4    5.19    0.39
  -8   0   4    5.27    0.41
   8   0  -4    5.61    0.40
  -8   0   4    5.32    0.42
   8   0  -4    5.48    0.42
  -8   0   4    5.09    0.42
   8   0  -4    5.34    0.43
   8   0  -4    4.97    0.40
   7   0  -4    3.78    0.33
   7   0  -4    4.07    0.32
  -7   0   4    4.02    0.35
   7   0  -4    3.70    0.34
   7   0  -4    3.54    0.33
  -7   0   4    3.80    0.33
  -7   0   4    3.98    0.32
   7   0  -4    3.84    0.33
  -7   0   4    3.81    0.33
   6   0  -4   25.78    0.93
   6   0  -4   26.74    0.97
  -6   0   4   25.53    0.92
  -6   0   4   25.34    0.96
   6   0  -4   25.95    0.97
  -6   0   4   24.83    0.94
   6   0  -4   25.40    0.97
  -6   0   4   25.30    0.93
   6   0  -4   27.12    0.95
  -5   0   4  104.98    2.75
   5   0  -4  101.65    2.82
   5   0  -4  102.03    2.82
  -5   0   4  100.60    2.75
  -5   0   4   93.63    2.68
   5   0  -4  107.18    2.83
   5   0  -4  105.36    2.78
   5   0  -4  105.82    2.77
  -5   0   4  105.18    2.72
   4   0  -4  132.03    3.47
  -4   0   4  129.66    3.31
   4   0  -4  133.88    3.45
  -4   0   4  129.30    3.38
   4   0  -4  132.28    3.42
  -4   0   4  133.53    3.37
  -4   0   4  128.81    3.39
   4   0  -4  135.23    3.39
  -3   0   4  194.77    4.94
   3   0  -4  201.38    4.94
  -3   0   4  195.35    4.83
   3   0  -4  199.41    4.94
   3   0  -4  194.26    4.96
   3   0  -4  199.09    4.85
  -3   0   4  201.51    4.92
  -3   0   4  199.52    4.93
  -2   0   4  282.06    7.01
   2   0  -4  293.35    7.26
   2   0  -4  303.80    7.25
  -2   0   4  292.52    7.00
   2   0  -4  294.94    7.25
  -2   0   4  290.12    7.02
  -2   0   4  284.74    6.87
   1   0  -4  452.22   13.87
   0   0   4  246.03    6.03
   0   0  -4  249.34    6.23
   0   0   4  245.62    5.96
   0   0  -4  259.42    6.18
  -1   0  -4  162.52    3.96
   1   0   4  162.42    4.09
   1   0   4  161.45    3.95
  -1   0  -4  162.74    4.11
  -1   0  -4  162.42    4.12
  -2   0  -4   88.47    2.42
   2   0   4   89.86    2.49
  -2   0  -4   90.18    2.45
   2   0   4   92.66    2.28
  -2   0  -4   90.79    2.31
   2   0   4   94.64    2.29
   3   0   4   60.47    1.50
  -3   0  -4   60.17    1.73
  -3   0  -4   57.46    1.75
  -3   0  -4   58.24    1.64
  -4   0  -4   20.63    0.81
  -4   0  -4   20.09    0.67
  -4   0  -4   20.89    0.77
  -4   0  -4   20.40    0.86
  -4   0  -4   20.16    0.66
  -5   0  -4    3.80    0.34
  -5   0  -4    3.84    0.24
  -5   0  -4    3.84    0.31
  -5   0  -4    3.64    0.23
  -5   0  -4    3.04    0.33
  -5   0  -4    3.26    0.31
   5   0   4    3.68    0.33
   6   0   4   15.39    0.77
  -6   0  -4   15.73    0.60
  -6   0  -4   15.06    0.78
  -6   0  -4   15.74    0.76
  -6   0  -4   14.49    0.78
  -6   0  -4   15.83    0.74
  -6   0  -4   15.89    0.60
  -7   0  -4   18.06    0.93
  -7   0  -4   17.52    0.84
  -7   0  -4   18.15    0.86
  -7   0  -4   17.05    0.66
  -7   0  -4   17.60    0.89
   7   0   4   17.84    0.88
  -7   0  -4   16.31    0.66
  -8   0  -4   38.44    1.19
  -8   0  -4   36.71    1.43
  -8   0  -4   36.29    1.52
   8   0   4   36.17    1.44
  -8   0  -4   36.51    1.20
  -8   0  -4   34.72    1.40
  -8   0  -4   36.85    1.50
  -9   0  -4   17.59    0.93
  -9   0  -4   16.61    0.90
   9   0   4   17.53    0.96
  -9   0  -4   17.78    0.74
  -9   0  -4   17.44    1.01
 -10   0  -4   20.01    1.14
 -10   0  -4   18.03    0.80
  10   0   4   19.58    1.07
 -10   0  -4   19.96    1.05
  12  -1  -4    2.18    0.38
 -12  -1   4    1.97    0.38
 -12  -1   4    1.29    0.30
 -12  -1   4    2.04    0.38
  12  -1  -4    1.93    0.34
 -12   1   4    2.13    0.36
  12   1  -4    2.55    0.40
  12   1  -4    2.30    0.44
 -12   1   4    1.80    0.36
  11  -1  -4   12.03    0.73
 -11  -1   4   10.90    0.68
 -11  -1   4   10.72    0.68
  11  -1  -4   12.49    0.77
 -11  -1   4   11.75    0.75
  11   1  -4   11.49    0.74
  11   1  -4   11.62    0.79
 -11   1   4   10.88    0.70
 -11   1   4   11.51    0.76
 -11   1   4   11.55    0.75
 -11   1   4   10.82    0.76
  11   1  -4   11.80    0.69
  10  -1  -4   29.74    1.21
 -10  -1   4   29.90    1.27
 -10  -1   4   29.79    1.33
  10  -1  -4   27.77    1.25
 -10  -1   4   28.23    1.16
  10  -1  -4   31.03    1.26
 -10  -1   4   30.44    1.21
  10  -1  -4   29.22    1.20
 -10   1   4   28.09    1.23
  10   1  -4   29.54    1.24
 -10   1   4   28.97    1.20
  10   1  -4   29.14    1.18
 -10   1   4   28.51    1.26
 -10   1   4   29.86    1.27
  10   1  -4   29.47    1.29
  10   1  -4   31.34    1.18
   9  -1  -4   49.88    1.66
  -9  -1   4   46.31    1.59
  -9  -1   4   46.95    1.67
  -9  -1   4   47.78    1.63
   9  -1  -4   48.27    1.70
   9  -1  -4   51.81    1.73
   9  -1  -4   49.38    1.69
  -9  -1   4   48.12    1.75
   9  -1  -4   47.08    1.64
  -9   1   4   47.21    1.67
  -9   1   4   48.44    1.66
   9   1  -4   47.18    1.67
  -9   1   4   46.35    1.68
   9   1  -4   46.79    1.58
  -9   1   4   49.92    1.71
   9   1  -4   47.73    1.60
   9   1  -4   46.39    1.71
   8  -1  -4   81.16    2.36
   8  -1  -4   75.91    2.35
  -8  -1   4   78.73    2.34
   8  -1  -4   78.89    2.34
  -8  -1   4   78.08    2.37
   8  -1  -4   79.09    2.36
   8  -1  -4   76.61    2.31
  -8  -1   4   74.80    2.27
  -8  -1   4   77.43    2.43
   8   1  -4   76.25    2.25
  -8   1   4   78.57    2.38
  -8   1   4   77.14    2.36
  -8   1   4   80.02    2.38
   8   1  -4   75.85    2.38
   8   1  -4   78.24    2.30
  -8   1   4   80.07    2.38
   8   1  -4   75.92    2.36
  -7  -1   4  106.79    3.05
  -7  -1   4  108.14    2.96
   7  -1  -4  108.89    2.99
   7  -1  -4  114.09    3.01
  -7  -1   4  108.77    3.10
   7  -1  -4   94.08    2.93
   7  -1  -4   91.13    2.92
   7  -1  -4  113.51    3.00
  -7  -1   4  109.41    3.04
   7   1  -4  109.52    2.96
  -7   1   4  109.74    3.06
  -7   1   4  112.93    3.06
  -7   1   4  109.47    3.06
  -7   1   4  109.93    3.06
   7   1  -4  111.49    2.91
   7   1  -4  112.27    3.04
   7   1  -4  105.74    3.03
  -6  -1   4  110.13    3.02
   6  -1  -4  115.74    3.13
   6  -1  -4  115.24    3.14
  -6  -1   4  109.14    2.93
  -6  -1   4  107.60    3.05
  -6  -1   4  110.83    3.00
   6  -1  -4  115.85    3.14
   6  -1  -4  117.02    3.16
   6  -1  -4  115.16    3.12
   6   1  -4  115.67    3.05
   6   1  -4  117.03    3.19
  -6   1   4  111.58    3.04
   6   1  -4  116.08    3.19
  -6   1   4  110.02    3.00
   6   1  -4  114.54    3.12
  -6   1   4  112.63    3.01
  -6   1   4  111.51    3.02
  -5  -1   4  100.88    2.88
  -5  -1   4  110.74    2.82
   5  -1  -4  112.44    3.00
   5  -1  -4  112.75    2.97
  -5  -1   4  107.27    2.93
  -5  -1   4  106.60    2.85
   5  -1  -4  113.39    3.03
   5  -1  -4  109.08    2.95
   5   1  -4  107.85    3.01
   5   1  -4  111.46    2.91
  -5   1   4  111.52    2.88
  -5   1   4  105.38    2.89
  -5   1   4  107.79    2.91
   5   1  -4  115.17    3.05
   5   1  -4  112.33    3.00
  -5   1   4  108.18    2.86
  -4  -1   4  118.81    3.18
  -4  -1   4  120.55    3.20
   4  -1  -4  122.55    3.11
   4  -1  -4  119.42    3.16
   4  -1  -4  120.67    3.11
   4  -1  -4  122.62    3.19
  -4  -1   4  121.12    3.10
  -4  -1   4  117.54    3.09
  -4   1   4  122.84    3.12
   4   1  -4  115.43    3.16
   4   1  -4  119.82    3.18
   4   1  -4  124.48    3.10
  -4   1   4  122.41    3.19
  -4   1   4  122.30    3.18
  -4   1   4  120.96    3.10
   3  -1  -4   69.36    1.92
  -3  -1   4   66.44    1.79
   3  -1  -4   69.78    1.92
  -3  -1   4   67.10    1.90
   3  -1  -4   68.25    1.82
   3  -1  -4   71.05    1.84
  -3  -1   4   68.72    1.80
  -3  -1   4   68.45    1.91
  -3  -1   4   68.41    1.83
  -3   1   4   69.48    1.90
  -3   1   4   68.51    1.80
   3   1  -4   68.50    1.92
   3   1  -4   69.04    1.93
  -3   1   4   70.35    1.83
   3   1  -4   70.10    1.86
  -3   1   4   68.94    1.89
   3   1  -4   70.78    1.94
   2  -1  -4    4.25    0.27
   2  -1  -4    4.63    0.23
  -2  -1   4    4.35    0.19
  -2  -1   4    4.35    0.26
   2  -1  -4    4.54    0.21
   2  -1  -4    4.47    0.26
  -2  -1   4    4.34    0.24
  -2   1   4    4.08    0.25
  -2   1   4    4.19    0.27
   2   1  -4    4.29    0.28
   2   1  -4    4.71    0.28
  -2   1   4    4.21    0.22
   2   1  -4    4.81    0.26
  -2   1   4    4.31    0.20
   2   1  -4    5.17    0.28
  -1  -1   4    7.57    0.35
   1  -1  -4    7.92    0.34
   1  -1  -4    8.11    0.26
  -1  -1   4    7.39    0.37
  -1  -1   4    7.51    0.34
   1  -1  -4    7.37    0.31
   1  -1  -4    8.01    0.37
  -1   1   4    7.60    0.31
   1   1  -4    8.02    0.38
  -1   1   4    7.85    0.33
  -1   1   4    7.53    0.36
   1   1  -4    7.91    0.35
   0  -1   4   21.62    0.61
   0  -1  -4   21.67    0.68
   0  -1   4   23.69    0.78
   0  -1  -4   21.04    0.61
   0  -1  -4   21.31    0.74
   0  -1  -4   22.04    0.66
   0   1   4   22.14    0.65
   0   1  -4   21.79    0.60
   0   1  -4   22.48    0.76
   0   1  -4   22.34    0.74
   0   1   4   22.54    0.76
   0   1   4   22.12    0.69
   0   1   4   22.44    0.62
   1  -1   4  111.07    2.81
  -1  -1  -4  111.70    2.72
   1  -1   4  111.00    2.75
  -1  -1  -4  107.09    2.84
  -1  -1  -4  110.98    2.75
  -1  -1  -4  110.66    2.89
   1  -1   4  114.38    2.92
  -1   1  -4  109.71    2.92
  -1   1  -4  109.03    2.74
   1   1   4  107.59    2.66
  -1   1  -4  113.13    2.89
   1   1   4  107.87    2.83
  -2  -1  -4  161.54    4.02
   2  -1   4  163.55    4.10
   2  -1   4  168.58    4.28
   2  -1   4  166.01    4.13
  -2  -1  -4  164.92    4.02
  -2  -1  -4  161.40    4.11
  -2  -1  -4  159.78    4.11
  -2   1  -4  164.53    4.03
  -2   1  -4  156.88    4.13
  -2   1  -4  160.38    4.17
   3  -1   4  121.14    3.05
  -3  -1  -4  122.59    3.15
  -3  -1  -4  119.44    3.24
  -3  -1  -4  123.32    3.21
   3  -1   4  118.51    3.25
   3  -1   4  123.29    3.14
  -3   1  -4  118.71    3.28
  -3   1  -4  121.06    3.24
  -3   1  -4  123.51    2.97
  -3   1  -4  120.97    3.14
   4  -1   4  117.73    3.07
   4  -1   4  112.03    2.91
  -4  -1  -4  116.25    3.01
   4  -1   4  115.15    3.18
  -4  -1  -4  116.50    3.07
  -4  -1  -4  117.23    3.15
  -4  -1  -4  114.89    3.17
  -4  -1  -4  114.64    3.11
  -4   1  -4  114.84    3.20
  -4   1  -4  116.01    3.06
  -4   1  -4  118.15    2.83
  -4   1  -4  104.50    3.11
  -5  -1  -4  100.68    2.87
  -5  -1  -4   98.07    2.79
   5  -1   4  105.30    2.70
   5  -1   4  105.04    3.02
  -5  -1  -4  101.09    2.70
   5  -1   4  106.37    2.92
  -5  -1  -4  101.52    2.54
  -5  -1  -4  100.59    2.83
  -5  -1  -4  101.57    2.91
  -5   1  -4  100.01    2.80
  -5   1  -4  100.76    2.93
  -5   1  -4  102.47    2.89
  -5   1  -4  102.19    2.52
  -5   1  -4  101.01    2.69
  -6  -1  -4   62.75    2.06
  -6  -1  -4   64.62    1.73
  -6  -1  -4   64.39    2.11
  -6  -1  -4   66.80    1.89
   6  -1   4   67.99    1.83
   6  -1   4   67.75    2.19
  -6  -1  -4   65.33    2.03
   6  -1   4   69.93    2.11
  -6  -1  -4   67.43    2.03
  -6   1  -4   63.58    2.09
  -6   1  -4   65.73    1.89
  -6   1  -4   65.09    1.70
  -6   1  -4   63.34    2.13
  -6   1  -4   65.41    2.07
  -6   1  -4   67.37    2.02
   7  -1   4   38.80    1.49
   7  -1   4   38.94    1.12
  -7  -1  -4   38.17    1.44
  -7  -1  -4   37.72    1.47
  -7  -1  -4   36.62    1.23
  -7  -1  -4   37.00    1.36
   7  -1   4   38.13    1.41
  -7  -1  -4   36.67    1.10
  -7  -1  -4   37.16    1.37
  -7   1  -4   37.53    1.37
  -7   1  -4   37.54    1.41
  -7   1  -4   33.33    1.43
  -7   1  -4   36.00    1.42
  -7   1  -4   35.00    1.21
  -8  -1  -4   20.17    0.98
  -8  -1  -4   22.54    0.77
  -8  -1  -4   21.03    1.04
  -8  -1  -4   20.15    1.06
   8  -1   4   23.97    1.12
   8  -1   4   22.26    0.71
  -8  -1  -4   22.55    0.88
  -8  -1  -4   22.42    1.00
  -8   1  -4   22.04    1.10
  -8   1  -4   22.51    1.02
  -8   1  -4   19.66    1.03
  -8   1  -4   22.28    0.88
  -8   1  -4   20.15    1.01
   9  -1   4    8.52    0.65
  -9  -1  -4    6.14    0.59
  -9  -1  -4    7.97    0.48
  -9  -1  -4    9.22    0.63
  -9  -1  -4    8.24    0.43
  -9  -1  -4    8.60    0.62
  -9   1  -4    7.63    0.60
  -9   1  -4    7.29    0.64
  -9   1  -4    7.29    0.48
  10  -1   4    1.41    0.36
 -10  -1  -4    0.65    0.24
 -10  -1  -4    0.92    0.19
 -10  -1  -4    0.53    0.26
 -10  -1  -4    0.82    0.17
 -10   1  -4    1.67    0.39
 -10   1  -4    0.79    0.25
 -10   1  -4    0.96    0.21
  12  -2  -4   16.72    0.88
 -12  -2   4   15.03    0.84
 -12  -2   4   15.86    0.86
  12  -2  -4   17.54    1.01
 -12  -2   4   16.21    0.97
  12   2  -4   15.67    0.98
  12   2  -4   16.89    0.85
 -12   2   4   17.61    1.01
 -12   2   4   15.46    0.91
 -11  -2   4   19.90    1.04
 -11  -2   4   19.53    0.91
  11  -2  -4   21.04    1.06
  11  -2  -4   21.37    0.98
 -11  -2   4   17.99    0.91
 -11   2   4   20.48    1.02
 -11   2   4   17.60    1.01
  11   2  -4   20.78    1.11
  11   2  -4   19.50    0.91
  11   2  -4   19.99    1.04
 -11   2   4   20.74    1.07
 -10  -2   4   17.91    0.98
 -10  -2   4   18.59    0.88
  10  -2  -4   17.91    0.94
  10  -2  -4   18.99    0.93
  10  -2  -4   18.72    0.94
  10  -2  -4   17.68    0.87
 -10  -2   4   18.21    0.95
 -10  -2   4   17.32    0.81
 -10  -2   4   20.73    0.98
  10   2  -4   17.59    0.97
 -10   2   4   19.27    0.97
 -10   2   4   17.35    0.94
  10   2  -4   18.57    0.83
  10   2  -4   17.33    0.92
  10   2  -4   17.34    0.82
 -10   2   4   17.84    0.94
 -10   2   4   15.70    0.87
   9  -2  -4   15.48    0.75
   9  -2  -4   15.89    0.82
  -9  -2   4   14.04    0.66
   9  -2  -4   15.89    0.82
  -9  -2   4   13.38    0.75
  -9  -2   4   13.71    0.76
  -9  -2   4   12.92    0.78
  -9  -2   4   13.04    0.70
   9  -2  -4   14.60    0.77
  -9   2   4   12.79    0.75
   9   2  -4   14.50    0.82
  -9   2   4   13.63    0.74
   9   2  -4   15.18    0.70
   9   2  -4   14.56    0.71
   9   2  -4   13.65    0.77
  -9   2   4   14.68    0.77
  -9   2   4   13.99    0.77
  -8  -2   4    4.65    0.40
   8  -2  -4    5.48    0.44
   8  -2  -4    6.17    0.44
  -8  -2   4    5.54    0.43
   8  -2  -4    5.99    0.44
  -8  -2   4    4.86    0.43
   8  -2  -4    5.51    0.45
   8  -2  -4    6.00    0.46
  -8  -2   4    5.86    0.37
  -8  -2   4    5.05    0.39
   8   2  -4    5.87    0.47
  -8   2   4    5.76    0.44
   8   2  -4    6.20    0.39
  -8   2   4    5.17    0.43
   8   2  -4    6.02    0.41
  -8   2   4    4.78    0.42
   8   2  -4    5.44    0.45
  -8   2   4    5.97    0.44
  -7  -2   4    3.45    0.26
  -7  -2   4    3.25    0.33
   7  -2  -4    3.31    0.32
  -7  -2   4    3.27    0.32
   7  -2  -4    2.96    0.30
  -7  -2   4    3.30    0.31
   7  -2  -4    3.34    0.31
  -7  -2   4    3.23    0.30
   7  -2  -4    3.52    0.30
  -7   2   4    3.00    0.31
  -7   2   4    3.07    0.30
   7   2  -4    3.65    0.35
   7   2  -4    3.63    0.34
   7   2  -4    3.89    0.32
  -7   2   4    3.75    0.34
  -7   2   4    3.37    0.32
   7   2  -4    3.12    0.25
   6  -2  -4   12.21    0.60
  -6  -2   4   12.01    0.58
  -6  -2   4   11.54    0.58
  -6  -2   4   11.08    0.61
   6  -2  -4   11.60    0.55
  -6  -2   4   11.59    0.58
   6  -2  -4   11.34    0.59
  -6  -2   4   10.94    0.49
   6  -2  -4   12.13    0.59
  -6  -2   4   11.97    0.62
   6   2  -4   11.17    0.60
   6   2  -4   11.21    0.48
  -6   2   4   11.53    0.59
  -6   2   4   11.86    0.60
  -6   2   4   12.10    0.59
  -6   2   4   12.11    0.56
   6   2  -4   10.58    0.59
   6   2  -4   11.61    0.57
   5  -2  -4   51.40    1.49
  -5  -2   4   47.65    1.51
   5  -2  -4   51.46    1.54
   5  -2  -4   50.19    1.58
  -5  -2   4   48.15    1.55
  -5  -2   4   51.52    1.49
   5  -2  -4   52.74    1.59
  -5  -2   4   47.99    1.38
  -5  -2   4   48.01    1.46
  -5  -2   4   48.70    1.56
  -5   2   4   49.50    1.53
   5   2  -4   51.67    1.43
   5   2  -4   50.44    1.55
   5   2  -4   48.73    1.59
  -5   2   4   48.86    1.53
   5   2  -4   49.93    1.60
  -5   2   4   47.82    1.47
  -5   2   4   48.82    1.43
  -4  -2   4  155.85    3.90
  -4  -2   4  161.35    3.98
   4  -2  -4  157.83    4.02
   4  -2  -4  160.41    3.95
   4  -2  -4  163.12    4.10
   4  -2  -4  159.33    4.10
  -4  -2   4  154.83    4.08
  -4  -2   4  156.50    4.05
  -4  -2   4  149.78    4.07
   4   2  -4  154.64    4.11
  -4   2   4  155.86    3.98
  -4   2   4  156.73    4.05
   4   2  -4  155.22    4.06
   4   2  -4  150.69    4.09
  -4   2   4  156.44    4.05
  -4   2   4  159.28    3.92
   4   2  -4  160.77    3.93
  -3  -2   4  149.14    3.76
   3  -2  -4  145.88    3.88
  -3  -2   4  145.79    3.90
   3  -2  -4  156.34    3.74
   3  -2  -4  149.11    3.81
   3  -2  -4  153.53    3.90
  -3  -2   4  153.19    3.81
  -3  -2   4  149.86    3.93
  -3   2   4  155.08    3.91
   3   2  -4  148.43    3.92
  -3   2   4  149.69    3.88
   3   2  -4  153.33    3.91
  -3   2   4  155.11    3.74
  -3   2   4  155.85    3.82
   3   2  -4  153.24    3.77
  -2  -2   4  224.26    5.58
  -2  -2   4  221.58    5.55
   2  -2  -4  221.42    5.52
  -2  -2   4  222.41    5.43
  -2  -2   4  221.28    5.42
   2  -2  -4  217.51    5.50
   2  -2  -4  226.92    5.33
   2  -2  -4  223.14    5.42
   2   2  -4  227.45    5.57
  -2   2   4  218.92    5.43
  -2   2   4  214.31    5.49
   2   2  -4  221.80    5.51
  -2   2   4  217.42    5.54
   2   2  -4  218.65    5.40
  -2   2   4  236.71    5.36
   2   2  -4  214.96    5.42
   1  -2  -4  264.15    6.54
  -1  -2   4  258.20    6.23
   1  -2  -4  274.09    6.36
  -1  -2   4  261.64    6.27
   1  -2  -4  259.97    6.47
  -1  -2   4  257.56    6.09
   1  -2  -4  264.42    6.42
  -1   2   4  216.61    6.02
  -1   2   4  248.56    6.13
   1   2  -4  264.40    6.41
   1   2  -4  264.41    6.48
  -1   2   4  256.28    6.22
   1   2  -4  265.30    6.58
  -1   2   4  262.05    6.11
   1   2  -4  264.46    6.48
   0  -2   4  205.53    5.06
   0  -2  -4  199.00    5.03
   0  -2  -4  198.08    4.92
   0  -2   4  199.20    4.88
   0  -2  -4  196.33    4.89
   0  -2  -4  207.97    4.93
   0   2   4  196.24    4.89
   0   2   4  197.16    4.85
   0   2  -4  198.24    4.91
   0   2  -4  205.38    4.93
   0   2  -4  201.33    4.99
   0   2  -4  204.01    5.09
   0   2   4  201.74    5.00
  -1  -2  -4  111.98    2.90
   1  -2   4  117.46    2.95
  -1  -2  -4  114.24    2.82
  -1  -2  -4  116.09    2.99
   1  -2   4  117.28    3.10
  -1  -2  -4  112.10    2.90
   1   2   4  114.91    2.96
  -1   2  -4  109.98    3.04
  -1   2  -4  115.94    2.99
  -1   2  -4  114.50    2.90
  -1   2  -4  118.88    2.82
  -2  -2  -4  117.18    2.98
  -2  -2  -4  114.49    3.01
   2  -2   4  119.18    3.19
   2  -2   4  119.93    3.08
   2  -2   4  116.71    3.09
  -2  -2  -4  116.60    3.00
   2  -2   4  123.68    3.23
  -2   2  -4  110.13    3.10
  -2   2  -4  116.52    3.07
  -2   2  -4  117.83    2.98
   3  -2   4   37.67    1.16
  -3  -2  -4   38.33    1.21
   3  -2   4   38.48    1.19
  -3  -2  -4   37.41    1.22
  -3  -2  -4   39.12    1.21
  -3  -2  -4   38.91    1.24
   3  -2   4   38.25    1.29
  -3  -2  -4   38.97    1.19
   3  -2   4   38.59    1.30
  -3   2  -4   37.81    1.26
  -3   2  -4   37.99    1.18
  -3   2  -4   35.48    1.28
  -4  -2  -4    2.71    0.26
   4  -2   4    2.41    0.28
  -4  -2  -4    2.78    0.25
   4  -2   4    2.87    0.23
  -4  -2  -4    2.85    0.28
   4  -2   4    2.64    0.25
  -4  -2  -4    2.29    0.23
  -4  -2  -4    3.86    0.29
  -4  -2  -4    2.59    0.24
  -4   2  -4    2.62    0.28
  -4   2  -4    2.53    0.28
  -4   2  -4    2.59    0.24
   5  -2   4    7.38    0.38
  -5  -2  -4    5.37    0.38
  -5  -2  -4    6.36    0.43
  -5  -2  -4    7.28    0.47
  -5  -2  -4    6.78    0.47
  -5  -2  -4    6.69    0.43
   5  -2   4    7.54    0.50
   5  -2   4    7.28    0.46
  -5  -2  -4    7.19    0.42
  -5   2  -4    7.59    0.49
  -5   2  -4    7.09    0.42
  -5   2  -4    6.14    0.48
  -5   2  -4    7.35    0.44
   6  -2   4    5.99    0.35
   6  -2   4    6.24    0.49
  -6  -2  -4    5.93    0.40
   6  -2   4    5.61    0.44
  -6  -2  -4    6.12    0.43
  -6  -2  -4    6.17    0.46
  -6  -2  -4    6.80    0.47
  -6  -2  -4    6.36    0.48
  -6  -2  -4    6.25    0.45
  -6   2  -4    6.22    0.46
  -6   2  -4    6.59    0.42
  -6   2  -4    6.40    0.45
  -6   2  -4    6.38    0.50
  -7  -2  -4   27.84    1.04
  -7  -2  -4   26.52    0.78
  -7  -2  -4   24.58    1.05
   7  -2   4   25.45    1.14
  -7  -2  -4   25.15    1.12
  -7  -2  -4   25.22    1.15
   7  -2   4   24.65    1.08
   7  -2   4   25.76    0.90
  -7  -2  -4   25.90    1.09
  -7  -2  -4   27.38    1.11
  -7   2  -4   26.06    1.13
  -7   2  -4   26.62    1.10
  -7   2  -4   25.88    1.16
  -7   2  -4   25.17    1.01
  -7   2  -4   27.83    1.22
  -8  -2  -4   16.58    0.89
  -8  -2  -4   17.47    0.85
  -8  -2  -4   18.19    0.62
  -8  -2  -4   19.60    0.85
  -8  -2  -4   18.48    0.99
   8  -2   4   18.78    0.96
  -8  -2  -4   18.15    0.95
   8  -2   4   20.14    1.02
   8  -2   4   19.33    0.74
  -8  -2  -4   18.47    0.93
  -8   2  -4   18.15    0.97
  -8   2  -4   17.40    0.99
  -8   2  -4   18.57    0.96
  -8   2  -4   19.66    0.95
  -8   2  -4   18.73    0.84
  -9  -2  -4   23.83    1.09
  -9  -2  -4   24.95    1.16
   9  -2   4   25.64    1.25
  -9  -2  -4   24.79    0.81
  -9  -2  -4   25.78    1.04
   9  -2   4   25.93    1.33
  -9  -2  -4   24.04    1.23
  -9   2  -4   24.17    1.15
  -9   2  -4   23.80    1.23
  -9   2  -4   24.26    1.03
 -10  -2  -4   13.65    0.73
 -10  -2  -4   14.96    0.91
  10  -2   4   16.22    0.99
 -10  -2  -4   15.55    0.60
 -10  -2  -4   14.78    0.96
 -10   2  -4   16.24    0.93
 -10   2  -4   14.19    0.96
 -10   2  -4   14.46    0.76
 -12  -3   4    1.31    0.29
 -12  -3   4    1.47    0.28
 -12  -3   4    1.62    0.41
  12  -3  -4    1.21    0.30
  12  -3  -4    1.55    0.33
  12   3  -4    1.55    0.39
 -12   3   4    1.12    0.33
 -12   3   4    1.77    0.35
  12   3  -4    1.58    0.31
 -11  -3   4    9.00    0.61
 -11  -3   4    7.98    0.52
  11  -3  -4    9.35    0.69
  11  -3  -4    8.22    0.58
 -11  -3   4    9.10    0.69
 -11   3   4    8.18    0.64
 -11   3   4   10.40    0.73
 -11   3   4    7.98    0.64
  11   3  -4    9.43    0.55
  11   3  -4    9.24    0.72
 -10  -3   4   16.06    1.00
  10  -3  -4   17.45    0.94
  10  -3  -4   18.09    0.97
 -10  -3   4   17.85    0.87
  10  -3  -4   17.62    0.91
 -10  -3   4   17.26    0.92
 -10  -3   4   16.51    0.75
  10  -3  -4   18.11    0.85
 -10  -3   4   17.02    0.93
  10   3  -4   17.07    0.76
  10   3  -4   16.25    0.94
 -10   3   4   17.44    0.95
 -10   3   4   15.77    0.87
 -10   3   4   16.91    0.90
 -10   3   4   16.88    0.92
  10   3  -4   16.14    0.92
   9  -3  -4   28.65    1.25
  -9  -3   4   29.94    1.25
  -9  -3   4   30.93    1.30
  -9  -3   4   28.14    1.28
   9  -3  -4   32.93    1.33
  -9  -3   4   31.09    1.21
   9  -3  -4   32.13    1.31
  -9  -3   4   30.37    1.06
  -9  -3   4   31.07    1.27
   9  -3  -4   32.76    1.22
  -9   3   4   32.44    1.29
  -9   3   4   29.78    1.22
  -9   3   4   27.36    1.25
   9   3  -4   30.77    1.31
   9   3  -4   31.44    1.31
   9   3  -4   30.38    1.08
  -9   3   4   31.22    1.27
  -8  -3   4   50.70    1.73
  -8  -3   4   52.00    1.80
  -8  -3   4   50.31    1.72
  -8  -3   4   50.62    1.51
   8  -3  -4   51.63    1.76
  -8  -3   4   52.25    1.69
   8  -3  -4   51.13    1.66
  -8  -3   4   47.39    1.77
   8  -3  -4   51.11    1.77
   8  -3  -4   52.04    1.77
  -8   3   4   49.10    1.75
  -8   3   4   50.50    1.74
   8   3  -4   50.67    1.53
   8   3  -4   50.75    1.80
  -8   3   4   50.50    1.73
   8   3  -4   51.33    1.78
  -8   3   4   51.12    1.68
  -7  -3   4   76.42    2.43
  -7  -3   4   77.24    2.36
   7  -3  -4   83.95    2.48
  -7  -3   4   78.92    2.34
  -7  -3   4   82.09    2.37
  -7  -3   4   79.00    2.44
   7  -3  -4   82.86    2.46
   7  -3  -4   82.03    2.48
  -7  -3   4   79.36    2.15
   7   3  -4   80.57    2.50
  -7   3   4   80.25    2.38
  -7   3   4   78.72    2.39
   7   3  -4   82.55    2.21
  -7   3   4   78.97    2.29
  -7   3   4   77.63    2.40
   7   3  -4   80.65    2.50
   6  -3  -4   85.51    2.46
   6  -3  -4   83.39    2.48
   6  -3  -4   87.02    2.49
  -6  -3   4   84.78    2.52
  -6  -3   4   83.96    2.21
  -6  -3   4   84.62    2.42
  -6  -3   4   82.13    2.49
  -6  -3   4   83.19    2.42
  -6  -3   4   83.83    2.43
   6   3  -4   82.99    2.50
   6   3  -4   85.54    2.23
  -6   3   4   85.64    2.34
  -6   3   4   85.00    2.47
  -6   3   4   85.53    2.44
   6   3  -4   83.92    2.51
  -6   3   4   80.34    2.45
  -5  -3   4   74.70    2.19
  -5  -3   4   75.72    2.27
   5  -3  -4   77.23    2.27
  -5  -3   4   76.03    2.15
   5  -3  -4   78.89    2.26
  -5  -3   4   74.17    1.97
   5  -3  -4   77.96    2.22
  -5  -3   4   75.61    2.27
  -5   3   4   74.51    2.05
   5   3  -4   75.96    2.28
  -5   3   4   75.78    2.22
  -5   3   4   77.35    2.18
  -5   3   4   75.84    2.21
   5   3  -4   75.40    2.27
   5   3  -4   77.11    2.00
  -4  -3   4   60.52    1.84
  -4  -3   4   60.75    1.85
   4  -3  -4   63.44    1.88
  -4  -3   4   60.82    1.81
  -4  -3   4   60.37    1.74
   4  -3  -4   63.93    1.84
  -4  -3   4   59.20    1.59
   4  -3  -4   65.17    1.91
   4   3  -4   61.34    1.91
  -4   3   4   62.48    1.63
   4   3  -4   64.42    1.66
  -4   3   4   61.10    1.77
   4   3  -4   64.06    1.91
  -4   3   4   60.68    1.81
  -4   3   4   59.40    1.80
  -3  -3   4   31.67    1.01
   3  -3  -4   28.18    1.00
   3  -3  -4   29.65    0.96
  -3  -3   4   32.80    1.12
  -3  -3   4   31.54    1.08
   3  -3  -4   28.84    0.99
  -3  -3   4   32.95    1.10
  -3   3   4   32.67    1.09
   3   3  -4   29.95    1.01
  -3   3   4   32.25    1.06
   3   3  -4   27.84    1.02
   3   3  -4   29.53    0.84
  -3   3   4   31.11    0.87
   3   3  -4   28.85    0.95
  -2  -3   4   12.74    0.55
  -2  -3   4   12.67    0.58
   2  -3  -4   12.57    0.53
  -2  -3   4   12.11    0.55
  -2  -3   4   11.97    0.49
   2  -3  -4   11.99    0.53
   2  -3  -4   12.17    0.50
  -2   3   4   12.83    0.55
   2   3  -4   11.87    0.44
  -2   3   4   12.53    0.50
   2   3  -4   12.22    0.49
   2   3  -4   12.48    0.53
  -1  -3   4    4.54    0.32
  -1  -3   4    4.10    0.25
   1  -3  -4    3.80    0.27
  -1  -3   4    5.00    0.29
   1  -3  -4    4.55    0.28
   1  -3  -4    4.41    0.27
   1   3  -4    4.87    0.28
   1   3  -4    4.70    0.32
   1   3  -4    4.18    0.24
   1   3  -4    4.16    0.24
  -1   3   4    4.10    0.26
  -1   3   4    4.74    0.30
  -1   3   4    4.14    0.25
   1   3  -4    4.60    0.26
   0  -3  -4   31.90    1.03
   0  -3   4   33.83    0.98
   0  -3   4   33.58    1.12
   0  -3  -4   31.85    0.87
   0  -3  -4   34.06    1.01
   0  -3   4   32.81    1.00
   0  -3  -4   31.41    0.97
   0   3  -4   32.43    0.96
   0   3  -4   33.22    1.00
   0   3  -4   33.23    1.11
   0   3  -4   33.12    1.01
   0   3   4   32.59    1.01
   0   3   4   33.43    1.05
   0   3   4   31.63    0.93
  -1  -3  -4   62.11    1.64
  -1  -3  -4   60.21    1.65
   1  -3   4   67.40    1.90
   1  -3   4   67.20    1.97
  -1  -3  -4   59.95    1.63
  -1  -3  -4   62.86    1.76
  -1  -3  -4   63.21    1.74
   1  -3   4   69.31    1.93
   1  -3   4   67.52    1.85
  -1   3  -4   61.23    1.84
  -1   3  -4   62.76    1.77
  -1   3  -4   63.90    1.61
  -1   3  -4   62.51    1.73
   1   3   4   67.53    1.86
   1   3   4   65.92    1.88
   2  -3   4   74.82    2.07
  -2  -3  -4   77.52    2.12
   2  -3   4   75.15    2.15
  -2  -3  -4   77.29    1.97
   2  -3   4   74.07    2.17
  -2  -3  -4   79.14    2.15
  -2  -3  -4   77.36    2.09
  -2  -3  -4   77.71    2.15
   2  -3   4   75.62    2.10
  -2   3  -4   79.30    2.15
  -2   3  -4   75.30    2.25
   2   3   4   74.46    2.07
  -2   3  -4   81.31    2.22
   3  -3   4   92.94    2.59
   3  -3   4   94.56    2.50
   3  -3   4   94.83    2.50
   3  -3   4   78.39    2.53
  -3  -3  -4   95.18    2.59
  -3  -3  -4   95.55    2.56
  -3  -3  -4   97.17    2.57
  -3  -3  -4   94.02    2.58
  -3   3  -4   92.54    2.65
  -3   3  -4   91.74    2.69
  -3   3  -4   95.16    2.59
  -4  -3  -4   85.64    2.40
  -4  -3  -4   82.11    2.34
  -4  -3  -4   85.95    2.44
  -4  -3  -4   83.74    2.39
   4  -3   4   87.36    2.58
   4  -3   4   88.10    2.49
  -4  -3  -4   83.83    2.37
   4  -3   4   88.11    2.45
  -4   3  -4   86.57    2.49
  -4   3  -4   84.27    2.40
  -4   3  -4   82.64    2.51
  -5  -3  -4   73.48    2.23
   5  -3   4   77.28    2.40
  -5  -3  -4   77.30    2.24
  -5  -3  -4   72.44    2.14
  -5  -3  -4   75.83    2.23
   5  -3   4   77.30    2.31
  -5  -3  -4   74.65    2.18
   5  -3   4   79.30    2.24
  -5  -3  -4   73.23    2.23
  -5   3  -4   74.73    2.34
  -5   3  -4   73.63    2.28
  -5   3  -4   75.50    2.23
   6  -3   4   46.32    1.68
  -6  -3  -4   44.40    1.51
   6  -3   4   45.74    1.48
  -6  -3  -4   44.18    1.54
  -6  -3  -4   42.74    1.45
   6  -3   4   47.68    1.61
  -6  -3  -4   45.95    1.57
  -6  -3  -4   43.13    1.52
  -6   3  -4   45.35    1.52
  -6   3  -4   41.32    1.56
  -6   3  -4   43.16    1.63
  -6   3  -4   44.81    1.53
  -7  -3  -4   20.76    0.99
  -7  -3  -4   24.01    1.03
   7  -3   4   23.84    1.10
   7  -3   4   21.74    0.89
  -7  -3  -4   23.22    0.96
  -7  -3  -4   22.87    0.98
   7  -3   4   23.69    1.05
  -7  -3  -4   22.91    1.04
  -7   3  -4   23.60    1.12
  -7   3  -4   24.32    1.00
  -7   3  -4   21.60    1.05
  -7   3  -4   20.93    1.03
  -7   3  -4   23.09    1.03
  -8  -3  -4   13.25    0.69
   8  -3   4   12.33    0.66
  -8  -3  -4   12.33    0.76
   8  -3   4   14.42    0.81
  -8  -3  -4   11.01    0.66
  -8  -3  -4   11.99    0.79
  -8  -3  -4   12.54    0.76
  -8  -3  -4   12.73    0.75
   8  -3   4   12.75    0.81
  -8   3  -4   11.26    0.78
  -8   3  -4   12.53    0.75
  -8   3  -4   11.96    0.78
  -8   3  -4   11.92    0.78
  -8   3  -4   12.12    0.70
  -9  -3  -4    3.91    0.44
  -9  -3  -4    3.61    0.39
  -9  -3  -4    4.97    0.51
  -9  -3  -4    4.01    0.39
   9  -3   4    4.71    0.49
  -9   3  -4    4.62    0.48
  -9   3  -4    4.01    0.42
  -9   3  -4    5.13    0.55
  10  -3   4    0.46    0.23
 -10  -3  -4    0.23    0.23
 -10  -3  -4    0.59    0.21
 -10  -3  -4    0.26    0.21
 -10  -3  -4    0.47    0.25
 -10   3  -4    0.86    0.27
 -10   3  -4    0.28    0.24
 -10   3  -4    0.37    0.18
 -12  -4   4   12.09    0.75
  12  -4  -4   11.92    0.86
 -12  -4   4   11.55    0.85
 -12  -4   4   11.40    0.65
  12  -4  -4   11.31    0.71
 -12   4   4   11.37    0.85
  12   4  -4   11.11    0.85
 -12   4   4   12.01    0.81
  12   4  -4   11.36    0.61
 -12   4   4   11.81    0.85
 -11  -4   4   12.08    0.74
  11  -4  -4   11.34    0.80
 -11  -4   4   11.54    0.80
 -11  -4   4   11.32    0.60
  11  -4  -4   11.93    0.69
 -11   4   4   12.96    0.82
 -11   4   4   14.95    0.90
 -11   4   4   12.46    0.80
 -11   4   4   12.05    0.77
  11   4  -4   11.39    0.82
  11   4  -4   12.12    0.60
 -10  -4   4   10.79    0.76
  10  -4  -4   12.48    0.79
  10  -4  -4   12.75    0.69
 -10  -4   4   11.67    0.56
 -10  -4   4   13.63    0.75
 -10  -4   4   11.43    0.76
  10  -4  -4   11.91    0.77
 -10   4   4   11.24    0.69
 -10   4   4   10.73    0.74
 -10   4   4   11.28    0.74
  10   4  -4   11.45    0.79
  10   4  -4   12.71    0.58
 -10   4   4   12.79    0.80
   9  -4  -4    8.24    0.61
  -9  -4   4    7.08    0.40
  -9  -4   4    8.12    0.58
  -9  -4   4    7.15    0.57
   9  -4  -4    8.58    0.54
  -9  -4   4    7.46    0.53
  -9  -4   4    8.55    0.65
   9  -4  -4    8.57    0.62
   9  -4  -4    8.38    0.61
  -9  -4   4    7.93    0.62
  -9   4   4    8.35    0.55
   9   4  -4    8.35    0.43
  -9   4   4    9.37    0.63
  -9   4   4    7.76    0.59
  -9   4   4    8.15    0.57
  -9   4   4    7.44    0.61
   9   4  -4    7.97    0.61
   9   4  -4    8.90    0.64
   8  -4  -4    3.15    0.36
   8  -4  -4    2.75    0.41
  -8  -4   4    2.24    0.32
  -8  -4   4    3.19    0.44
  -8  -4   4    2.79    0.31
  -8  -4   4    2.92    0.22
  -8  -4   4    3.22    0.37
  -8  -4   4    3.26    0.39
   8  -4  -4    2.27    0.33
  -8   4   4    2.90    0.40
  -8   4   4    3.63    0.37
  -8   4   4    1.94    0.31
   8   4  -4    3.35    0.45
   8   4  -4    3.34    0.23
  -8   4   4    2.96    0.30
   8   4  -4    2.59    0.31
  -7  -4   4    2.54    0.35
  -7  -4   4    2.50    0.39
   7  -4  -4    2.48    0.36
  -7  -4   4    2.57    0.19
   7  -4  -4    2.74    0.32
  -7  -4   4    2.54    0.38
   7  -4  -4    2.50    0.36
  -7  -4   4    3.29    0.36
  -7  -4   4    2.98    0.42
   7   4  -4    2.67    0.19
   7   4  -4    3.05    0.34
  -7   4   4    2.80    0.32
  -7   4   4    2.95    0.33
  -7   4   4    2.70    0.26
   7   4  -4    2.83    0.34
  -7   4   4    2.43    0.36
   6  -4  -4   11.19    0.61
  -6  -4   4    9.57    0.55
   6  -4  -4   10.12    0.60
  -6  -4   4    9.85    0.36
   6  -4  -4    9.85    0.58
  -6  -4   4    9.33    0.60
  -6  -4   4   10.52    0.57
  -6  -4   4    8.90    0.59
  -6   4   4    9.91    0.48
   6   4  -4    9.97    0.60
   6   4  -4    9.35    0.60
   6   4  -4    9.47    0.36
  -6   4   4   10.11    0.60
  -6   4   4    9.60    0.57
  -6   4   4    8.97    0.56
   5  -4  -4   34.13    1.24
  -5  -4   4   33.81    1.22
  -5  -4   4   34.20    1.29
   5  -4  -4   34.29    1.22
   5  -4  -4   34.06    1.20
  -5  -4   4   33.50    1.19
  -5   4   4   34.92    1.24
  -5   4   4   35.48    1.06
  -5   4   4   34.22    1.24
  -5   4   4   35.36    1.23
   5   4  -4   32.25    1.23
  -5   4   4   33.89    1.05
  -4  -4   4   35.88    1.27
  -4  -4   4   36.26    1.28
   4  -4  -4   34.03    1.19
   4  -4  -4   33.87    1.17
  -4  -4   4   35.80    1.24
   4  -4  -4   34.49    1.21
  -4  -4   4   36.49    1.19
  -4   4   4   36.17    1.00
  -4   4   4   36.30    1.00
   4   4  -4   34.68    1.17
   4   4  -4   33.76    1.22
  -4   4   4   30.18    1.18
  -4   4   4   35.60    1.21
  -4   4   4   36.96    1.25
   4   4  -4   32.60    1.20
  -3  -4   4   92.56    2.54
  -3  -4   4   92.12    2.61
   3  -4  -4   93.60    2.62
  -3  -4   4   93.19    2.63
   3  -4  -4   93.65    2.59
  -3  -4   4   90.68    2.62
   3  -4  -4   93.46    2.57
  -3   4   4   90.98    2.55
   3   4  -4   89.35    2.31
   3   4  -4   92.05    2.55
  -3   4   4   92.24    2.57
   3   4  -4   94.03    2.62
  -3   4   4   96.76    2.60
   3   4  -4   94.32    2.32
   3   4  -4   94.90    2.65
  -2  -4   4  116.97    3.16
   2  -4  -4  119.11    3.13
  -2  -4   4  117.88    3.20
   2  -4  -4  118.47    3.13
  -2  -4   4  117.14    3.10
   2  -4  -4  118.32    3.15
  -2   4   4  118.22    3.14
   2   4  -4  118.67    3.14
   2   4  -4  116.94    3.20
   2   4  -4  117.79    2.94
   2   4  -4  115.44    2.94
   2   4  -4  114.52    3.10
  -2   4   4  117.34    3.12
  -1  -4   4  110.84    2.98
   1  -4  -4  114.49    3.00
  -1  -4   4  111.31    2.97
   1  -4  -4  113.64    3.00
   1  -4  -4  113.65    2.99
  -1  -4   4  112.23    3.07
  -1   4   4  114.16    2.99
  -1   4   4  112.63    2.99
   1   4  -4  110.59    2.97
   1   4  -4  109.72    3.07
   1   4  -4  112.98    2.88
   1   4  -4  113.20    2.98
  -1   4   4  111.99    2.93
   0  -4   4  116.02    2.95
   0  -4  -4  113.12    3.02
   0  -4  -4  112.91    2.99
   0  -4  -4  114.49    3.03
   0  -4   4  113.97    3.11
   0  -4   4  111.75    3.00
   0   4   4  112.99    2.91
   0   4  -4  115.70    2.99
   0   4  -4  114.56    2.96
   0   4  -4  113.61    3.03
   0   4  -4  117.76    3.15
   0   4   4  112.53    3.00
   0   4   4  113.88    3.02
   1  -4   4   77.94    2.17
  -1  -4  -4   76.16    1.97
   1  -4   4   78.14    2.26
   1  -4   4   79.30    2.03
  -1  -4  -4   76.08    2.05
  -1  -4  -4   76.24    1.99
   1  -4   4   75.49    2.15
   1  -4   4   76.50    2.22
  -1  -4  -4   74.82    2.11
  -1  -4  -4   77.55    2.16
   1   4   4   75.84    2.16
   1   4   4   78.31    2.14
  -1   4  -4   78.07    2.15
  -1   4  -4   76.76    2.14
  -1   4  -4   77.05    2.24
  -2  -4  -4   21.52    0.74
  -2  -4  -4   21.97    0.80
  -2  -4  -4   21.50    0.71
   2  -4   4   24.28    0.96
   2  -4   4   24.30    0.89
   2  -4   4   25.73    0.94
   2  -4   4   23.02    0.90
  -2  -4  -4   21.63    0.83
  -2   4  -4   22.81    0.92
  -2   4  -4   23.71    0.87
   2   4   4   22.26    0.88
  -2   4  -4   22.00    0.84
   3  -4   4   18.75    0.82
  -3  -4  -4   17.15    0.68
  -3  -4  -4   15.76    0.65
  -3  -4  -4   17.28    0.54
   3  -4   4   17.57    0.76
  -3  -4  -4   16.44    0.65
   3  -4   4   18.60    0.83
   3  -4   4   19.38    0.80
  -3  -4  -4   13.10    0.66
  -3   4  -4   17.15    0.72
  -3   4  -4   17.54    0.80
  -3   4  -4   15.72    0.73
  -4  -4  -4    7.66    0.42
   4  -4   4    7.70    0.51
  -4  -4  -4    7.42    0.42
  -4  -4  -4    7.53    0.49
  -4  -4  -4    6.93    0.45
   4  -4   4    8.13    0.49
  -4  -4  -4    6.99    0.28
  -4  -4  -4    6.69    0.42
   4  -4   4    7.38    0.47
   4  -4   4    8.65    0.55
  -4   4  -4    7.21    0.46
  -4   4  -4    7.31    0.51
  -4   4  -4    6.97    0.48
  -5  -4  -4    1.59    0.26
   5  -4   4    1.60    0.26
  -5  -4  -4    1.77    0.25
   5  -4   4    1.25    0.27
   5  -4   4    1.43    0.28
  -5  -4  -4    1.84    0.31
  -5  -4  -4    1.98    0.29
  -5  -4  -4    1.23    0.22
  -5   4  -4    1.76    0.31
  -5   4  -4    1.42    0.29
  -5   4  -4    1.77    0.33
   6  -4   4   10.36    0.68
   6  -4   4   10.01    0.57
  -6  -4  -4    9.40    0.60
  -6  -4  -4   10.97    0.63
  -6  -4  -4    9.29    0.52
  -6  -4  -4    9.63    0.59
  -6  -4  -4    9.88    0.60
   6  -4   4   10.27    0.63
  -6  -4  -4    9.69    0.54
  -6   4  -4    9.50    0.62
  -6   4  -4   11.07    0.64
  -6   4  -4   10.43    0.68
  -7  -4  -4   10.13    0.56
   7  -4   4   11.26    0.70
   7  -4   4   10.29    0.70
  -7  -4  -4    8.96    0.60
  -7  -4  -4    9.02    0.62
  -7  -4  -4    8.71    0.60
  -7  -4  -4    9.48    0.63
  -7  -4  -4    8.65    0.54
   7  -4   4   10.25    0.59
  -7   4  -4    9.35    0.68
  -7   4  -4    9.48    0.63
  -7   4  -4    9.69    0.66
  -8  -4  -4   17.44    0.82
  -8  -4  -4   16.89    0.93
  -8  -4  -4   17.56    0.94
  -8  -4  -4   18.05    0.92
  -8  -4  -4   17.65    0.92
  -8  -4  -4   17.36    0.83
   8  -4   4   16.37    0.93
   8  -4   4   17.53    0.99
  -8   4  -4   18.31    0.95
  -8   4  -4   18.29    1.01
  -9  -4  -4   11.15    0.68
  -9  -4  -4   12.14    0.75
  -9  -4  -4   12.20    0.80
   9  -4   4   12.60    0.86
  -9  -4  -4   11.29    0.66
  -9  -4  -4   10.22    0.76
  -9   4  -4   10.79    0.75
  -9   4  -4   11.63    0.83
  10  -4   4   12.48    0.89
 -10  -4  -4   11.36    0.71
 -10  -4  -4   11.19    0.79
 -10  -4  -4   11.05    0.85
 -10  -4  -4   10.46    0.68
 -10  -4  -4   11.94    0.76
 -10   4  -4   10.74    0.76
 -10   4  -4   11.95    0.88
 -11  -5   4    1.25    0.19
  11  -5  -4    1.02    0.28
 -11  -5   4    1.77    0.30
  11  -5  -4    1.51    0.32
 -11  -5   4    1.90    0.39
 -11   5   4    1.50    0.34
 -11   5   4    1.25    0.34
  11   5  -4    1.54    0.35
 -11   5   4    1.46    0.31
 -11   5   4    1.73    0.34
  10  -5  -4    7.63    0.63
 -10  -5   4    7.76    0.66
 -10  -5   4    7.31    0.63
  10  -5  -4    8.41    0.56
  10  -5  -4    7.42    0.63
 -10  -5   4    7.42    0.36
 -10  -5   4    7.70    0.57
 -10   5   4    8.38    0.59
 -10   5   4    8.07    0.60
  10   5  -4    7.99    0.66
 -10   5   4    8.58    0.68
 -10   5   4    8.25    0.66
  -9  -5   4   19.04    0.92
   9  -5  -4   18.46    0.99
   9  -5  -4   18.30    1.09
   9  -5  -4   18.74    1.00
  -9  -5   4   20.03    1.25
  -9  -5   4   19.30    1.06
  -9  -5   4   19.07    1.00
  -9  -5   4   19.14    1.00
  -9   5   4   17.89    0.88
  -9   5   4   21.24    1.05
  -9   5   4   19.81    0.90
  -9   5   4   19.59    1.01
   9   5  -4   16.84    0.96
  -8  -5   4   26.70    1.24
  -8  -5   4   25.65    1.14
   8  -5  -4   25.88    1.18
   8  -5  -4   27.02    1.19
  -8  -5   4   26.32    1.22
  -8  -5   4   26.04    1.16
  -8  -5   4   25.66    1.10
   8  -5  -4   27.06    1.21
  -8   5   4   26.28    1.17
  -8   5   4   26.64    1.03
  -8   5   4   25.04    1.18
  -8   5   4   25.48    1.02
   8   5  -4   26.66    1.21
   8   5  -4   24.80    1.18
  -8   5   4   26.13    1.18
   7  -5  -4   27.42    1.18
  -7  -5   4   25.35    1.19
   7  -5  -4   28.84    1.22
  -7  -5   4   26.44    1.19
  -7  -5   4   27.74    1.14
  -7  -5   4   27.43    1.12
   7  -5  -4   28.50    1.19
  -7   5   4   27.67    1.00
  -7   5   4   27.49    1.18
   7   5  -4   27.43    1.22
  -7   5   4   27.46    1.17
   7   5  -4   27.99    1.21
  -7   5   4   28.89    1.18
  -7   5   4   28.47    1.01
  -6  -5   4   44.90    1.54
   6  -5  -4   47.95    1.68
   6  -5  -4   46.95    1.63
  -6  -5   4   44.88    1.65
  -6  -5   4   42.94    1.58
  -6  -5   4   43.75    1.53
   6  -5  -4   48.41    1.65
  -6   5   4   45.25    1.57
  -6   5   4   43.47    1.57
  -6   5   4   41.95    1.33
   6   5  -4   46.06    1.69
  -6   5   4   43.72    1.33
   6   5  -4   46.38    1.66
  -6   5   4   45.58    1.59
  -5  -5   4   42.59    1.57
   5  -5  -4   44.47    1.57
  -5  -5   4   44.62    1.50
  -5  -5   4   43.28    1.47
   5  -5  -4   45.72    1.54
   5  -5  -4   45.31    1.53
  -5  -5   4   42.16    1.54
   5   5  -4   45.05    1.59
  -5   5   4   42.79    1.51
  -5   5   4   43.20    1.50
   5   5  -4   41.83    1.54
  -5   5   4   43.94    1.50
  -5   5   4   42.99    1.25
  -5   5   4   44.55    1.25
  -4  -5   4   25.39    1.01
  -4  -5   4   24.07    0.96
   4  -5  -4   25.20    0.97
   4  -5  -4   22.69    0.97
  -4  -5   4   25.95    1.06
  -4  -5   4   24.73    1.02
   4  -5  -4   24.10    0.97
  -4   5   4   25.66    1.00
   4   5  -4   23.79    1.00
  -4   5   4   24.86    1.01
   4   5  -4   22.77    0.98
   4   5  -4   23.95    0.96
  -4   5   4   24.88    0.71
  -4   5   4   24.72    0.98
  -4   5   4   25.08    0.72
   3  -5  -4   11.73    0.61
  -3  -5   4   12.12    0.63
  -3  -5   4   11.04    0.56
  -3  -5   4   11.45    0.63
   3  -5  -4   12.90    0.65
   3  -5  -4   12.80    0.61
   3   5  -4   12.42    0.63
  -3   5   4   10.40    0.56
  -3   5   4   12.51    0.61
   3   5  -4   11.80    0.63
  -3   5   4   11.85    0.59
   3   5  -4   13.40    0.63
  -2  -5   4    2.18    0.23
   2  -5  -4    2.17    0.24
  -2  -5   4    2.34    0.33
   2  -5  -4    1.86    0.27
   2  -5  -4    1.45    0.21
  -2  -5   4    1.34    0.23
   2   5  -4    2.17    0.30
   2   5  -4    1.55    0.24
  -2   5   4    2.29    0.23
   2   5  -4    1.81    0.14
   2   5  -4    2.02    0.24
   2   5  -4    1.89    0.14
  -2   5   4    1.72    0.24
   1  -5  -4    1.88    0.21
  -1  -5   4    1.40    0.21
   1  -5  -4    1.55    0.22
  -1  -5   4    2.21    0.26
   1  -5  -4    1.90    0.20
  -1  -5   4    1.57    0.23
   1   5  -4    2.01    0.21
  -1   5   4    2.04    0.23
   1   5  -4    1.50    0.24
  -1   5   4    1.79    0.21
   1   5  -4    2.04    0.17
  -1   5   4    2.06    0.21
   1   5  -4    1.87    0.21
   0  -5  -4    9.45    0.47
   0  -5   4    9.85    0.57
   0  -5   4   11.22    0.59
   0  -5   4    9.57    0.48
   0  -5  -4    9.03    0.47
   0  -5  -4    9.56    0.51
   0  -5   4   10.12    0.53
   0   5  -4    9.44    0.55
   0   5  -4    9.00    0.43
   0   5   4   10.88    0.55
   0   5   4   10.22    0.50
   0   5  -4    9.80    0.51
   1  -5   4   19.47    0.76
  -1  -5  -4   18.03    0.58
   1  -5   4   18.52    0.67
   1  -5   4   18.67    0.82
   1  -5   4   18.90    0.83
  -1  -5  -4   17.98    0.71
  -1  -5  -4   18.61    0.79
   1  -5   4   17.30    0.76
  -1  -5  -4   18.23    0.70
   1   5   4   18.44    0.71
  -1   5  -4   18.87    0.83
  -1   5  -4   19.03    0.78
   1   5   4   19.07    0.79
  -1   5  -4   18.68    0.74
   2  -5   4   38.29    1.34
  -2  -5  -4   34.16    1.22
   2  -5   4   36.67    1.27
  -2  -5  -4   34.61    1.11
  -2  -5  -4   34.01    1.05
   2  -5   4   37.44    1.07
   2  -5   4   37.18    1.32
  -2  -5  -4   34.91    1.09
   2  -5   4   37.01    1.28
  -2   5  -4   34.84    1.21
   2   5   4   36.84    1.29
  -2   5  -4   34.04    1.19
  -2   5  -4   34.28    1.27
   3  -5   4   49.91    1.64
  -3  -5  -4   49.61    1.69
  -3  -5  -4   48.59    1.48
  -3  -5  -4   48.62    1.47
  -3  -5  -4   50.45    1.62
   3  -5   4   49.57    1.63
  -3  -5  -4   49.39    1.41
   3  -5   4   48.54    1.66
   3  -5   4   48.58    1.61
  -3  -5  -4   49.41    1.47
  -3   5  -4   49.15    1.62
  -3   5  -4   48.44    1.61
   3   5   4   48.63    1.62
  -3   5  -4   49.39    1.67
  -4  -5  -4   49.73    1.59
  -4  -5  -4   50.36    1.68
  -4  -5  -4   50.03    1.52
   4  -5   4   48.94    1.67
   4  -5   4   49.59    1.72
  -4  -5  -4   52.52    1.56
  -4  -5  -4   49.62    1.41
  -4  -5  -4   50.97    1.75
   4  -5   4   50.28    1.69
   4  -5   4   51.91    1.75
  -4   5  -4   52.06    1.77
  -4   5  -4   51.40    1.71
  -4   5  -4   50.76    1.70
  -5  -5  -4   27.01    1.13
   5  -5   4   27.10    1.10
  -5  -5  -4   28.03    0.99
  -5  -5  -4   27.25    1.00
  -5  -5  -4   28.08    0.83
  -5  -5  -4   27.30    1.07
   5  -5   4   27.64    1.14
  -5  -5  -4   30.36    1.22
  -5  -5  -4   27.68    0.84
   5  -5   4   27.97    1.18
  -5   5  -4   28.70    1.15
  -5   5  -4   27.90    1.20
  -5   5  -4   26.50    1.15
  -6  -5  -4   21.84    1.03
  -6  -5  -4   21.21    0.85
  -6  -5  -4   22.38    0.88
   6  -5   4   21.98    0.98
   6  -5   4   21.70    1.06
  -6  -5  -4   21.48    1.00
  -6  -5  -4   22.31    0.97
   6  -5   4   22.50    1.04
  -6   5  -4   20.37    1.00
  -6   5  -4   21.99    1.01
  -6   5  -4   20.27    1.03
  -7  -5  -4   13.07    0.78
  -7  -5  -4   13.05    0.75
   7  -5   4   15.32    0.90
  -7  -5  -4   13.95    0.81
   7  -5   4   13.73    0.82
   7  -5   4   14.55    0.96
  -7  -5  -4   13.63    0.66
  -7  -5  -4   12.51    0.78
  -7  -5  -4   12.45    0.63
  -7   5  -4   14.13    0.81
  -7   5  -4   12.90    0.82
  -8  -5  -4    3.95    0.36
  -8  -5  -4    4.07    0.45
   8  -5   4    4.82    0.52
  -8  -5  -4    4.71    0.49
  -8  -5  -4    3.59    0.35
  -8  -5  -4    4.84    0.48
  -8   5  -4    4.27    0.48
  -8   5  -4    3.96    0.44
  -9  -5  -4    1.33    0.25
  -9  -5  -4    1.01    0.26
  -9  -5  -4    0.74    0.33
  -9  -5  -4    0.90    0.20
   9  -5   4    0.69    0.25
  -9   5  -4    1.62    0.34
  -9   5  -4    1.29    0.36
 -10  -6   4    4.58    0.46
  10  -6  -4    5.06    0.54
  10  -6  -4    4.74    0.46
 -10  -6   4    4.91    0.52
 -10  -6   4    4.71    0.55
 -10   6   4    6.55    0.51
 -10   6   4    4.72    0.53
 -10   6   4    4.64    0.53
 -10   6   4    3.92    0.51
  10   6  -4    4.86    0.53
  -9  -6   4    2.97    0.41
   9  -6  -4    2.61    0.38
  -9  -6   4    2.25    0.40
  -9  -6   4    2.74    0.43
   9  -6  -4    2.80    0.47
  -9   6   4    3.65    0.35
  -9   6   4    2.78    0.45
  -9   6   4    2.92    0.39
   9   6  -4    2.75    0.44
   8  -6  -4    4.00    0.43
   8  -6  -4    3.41    0.49
   8  -6  -4    3.48    0.41
  -8  -6   4    4.71    0.43
  -8  -6   4    3.38    0.51
  -8  -6   4    2.65    0.41
  -8  -6   4    3.88    0.45
  -8   6   4    3.37    0.39
   8   6  -4    3.55    0.40
  -8   6   4    3.77    0.66
  -8   6   4    2.95    0.45
  -8   6   4    3.10    0.31
  -8   6   4    3.49    0.34
   7  -6  -4    1.43    0.27
  -7  -6   4    1.74    0.35
  -7  -6   4    1.76    0.29
   7  -6  -4    1.77    0.34
  -7  -6   4    1.61    0.31
  -7  -6   4    0.84    0.22
   7  -6  -4    0.93    0.28
   7   6  -4    1.39    0.33
  -7   6   4    1.52    0.22
  -7   6   4    1.19    0.28
  -7   6   4    1.69    0.37
  -7   6   4    1.71    0.35
  -7   6   4    1.73    0.24
   7   6  -4    1.35    0.26
  -6  -6   4    4.30    0.43
  -6  -6   4    5.30    0.44
   6  -6  -4    4.98    0.45
   6  -6  -4    4.53    0.42
   6  -6  -4    4.57    0.43
  -6  -6   4    5.11    0.45
  -6   6   4    4.83    0.31
   6   6  -4    4.42    0.44
   6   6  -4    4.64    0.45
  -6   6   4    4.91    0.30
  -6   6   4    4.16    0.41
  -6   6   4    5.53    0.47
  -6   6   4    4.81    0.44
  -5  -6   4    4.40    0.43
  -5  -6   4    4.03    0.38
  -5  -6   4    4.32    0.38
   5  -6  -4    4.17    0.38
   5  -6  -4    3.50    0.39
  -5  -6   4    3.85    0.38
   5  -6  -4    3.10    0.35
  -5   6   4    4.59    0.25
  -5   6   4    4.33    0.40
  -5   6   4    4.17    0.40
   5   6  -4    3.55    0.38
   5   6  -4    3.45    0.36
   5   6  -4    3.68    0.37
  -5   6   4    3.87    0.24
  -5   6   4    4.43    0.40
  -4  -6   4   17.33    0.87
   4  -6  -4   18.17    0.83
   4  -6  -4   19.93    0.92
   4  -6  -4   20.82    0.90
  -4  -6   4   20.50    0.89
  -4   6   4   20.28    0.89
   4   6  -4   18.64    0.88
   4   6  -4   17.57    0.88
  -4   6   4   19.64    0.89
   4   6  -4   18.05    0.86
  -4   6   4   18.35    0.85
  -3  -6   4   28.57    1.16
   3  -6  -4   28.56    1.15
   3  -6  -4   28.99    1.09
  -3  -6   4   27.82    1.10
  -3  -6   4   28.53    1.14
   3  -6  -4   29.70    1.13
   3   6  -4   27.73    1.12
   3   6  -4   28.54    1.14
   3   6  -4   28.32    1.11
  -3   6   4   29.67    1.10
  -3   6   4   28.42    1.11
  -3   6   4   29.69    1.13
   2  -6  -4   39.77    1.40
  -2  -6   4   37.10    1.36
   2  -6  -4   38.85    1.39
  -2  -6   4   39.74    1.35
  -2  -6   4   37.71    1.38
   2  -6  -4   38.88    1.31
   2   6  -4   38.77    1.07
   2   6  -4   39.82    1.41
   2   6  -4   38.37    1.06
  -2   6   4   40.31    1.32
  -2   6   4   38.39    1.37
   2   6  -4   38.87    1.36
   1  -6  -4   52.23    1.67
  -1  -6   4   49.41    1.61
  -1  -6   4   50.90    1.63
   1  -6  -4   50.77    1.65
  -1  -6   4   49.54    1.66
   1  -6  -4   51.19    1.58
  -1   6   4   48.51    1.62
   1   6  -4   51.71    1.66
  -1   6   4   50.26    1.56
   1   6  -4   50.08    1.43
   1   6  -4   51.15    1.69
   0  -6   4   35.86    1.19
   0  -6   4   33.80    1.29
   0  -6  -4   34.56    1.26
   0  -6   4   35.68    1.29
   0  -6   4   31.83    1.22
   0  -6  -4   36.27    1.16
   0  -6  -4   33.88    1.21
   0   6  -4   34.97    1.29
   0   6  -4   33.83    1.10
   0   6  -4   34.30    1.24
   0   6   4   35.98    1.17
   0   6   4   34.50    1.26
   1  -6   4   25.92    0.90
   1  -6   4   25.90    0.95
  -1  -6  -4   23.63    0.91
   1  -6   4   24.52    1.05
   1  -6   4   24.94    1.04
   1  -6   4   25.01    1.01
  -1  -6  -4   24.63    1.00
  -1  -6  -4   24.52    0.87
  -1   6  -4   24.48    0.90
  -1   6  -4   23.72    0.98
   1   6   4   24.74    0.90
  -1   6  -4   24.74    1.02
   1   6   4   26.19    1.03
  -2  -6  -4   12.79    0.59
  -2  -6  -4   11.99    0.54
  -2  -6  -4   12.17    0.50
  -2  -6  -4   12.21    0.66
   2  -6   4   13.00    0.52
   2  -6   4   12.46    0.70
   2  -6   4   13.79    0.66
   2  -6   4   12.66    0.69
   2  -6   4   12.91    0.68
  -2   6  -4   12.28    0.61
   2   6   4   12.11    0.67
  -2   6  -4   12.04    0.68
  -2   6  -4   12.00    0.65
   3  -6   4    1.67    0.31
  -3  -6  -4    1.69    0.31
   3  -6   4    1.64    0.28
  -3  -6  -4    1.15    0.18
   3  -6   4    1.33    0.29
  -3  -6  -4    1.59    0.22
  -3  -6  -4    1.58    0.31
  -3  -6  -4    1.35    0.21
  -3  -6  -4    1.42    0.21
   3  -6   4    1.67    0.30
   3  -6   4    1.66    0.14
  -3   6  -4    1.16    0.25
  -3   6  -4    0.88    0.21
   3   6   4    1.18    0.27
  -3   6  -4    1.84    0.31
  -4  -6  -4    1.49    0.30
   4  -6   4    1.51    0.27
   4  -6   4    1.33    0.28
  -4  -6  -4    1.52    0.21
  -4  -6  -4    1.68    0.19
  -4  -6  -4    0.88    0.21
  -4  -6  -4    1.46    0.23
  -4  -6  -4    1.51    0.21
   4  -6   4    0.86    0.21
   4  -6   4    1.41    0.27
  -4   6  -4    1.10    0.26
  -4   6  -4    0.78    0.21
  -4   6  -4    1.17    0.23
  -5  -6  -4    3.23    0.27
   5  -6   4    4.06    0.43
  -5  -6  -4    3.41    0.32
   5  -6   4    4.59    0.45
  -5  -6  -4    3.27    0.48
  -5  -6  -4    3.58    0.25
  -5  -6  -4    2.90    0.26
   5  -6   4    3.68    0.39
  -5  -6  -4    2.62    0.38
  -5   6  -4    3.79    0.41
  -5   6  -4    3.70    0.40
  -5   6  -4    3.59    0.39
  -6  -6  -4    5.26    0.49
  -6  -6  -4    4.37    0.41
  -6  -6  -4    4.98    0.35
  -6  -6  -4    5.11    0.28
   6  -6   4    5.74    0.52
   6  -6   4    4.92    0.48
  -6  -6  -4    4.59    0.28
  -6  -6  -4    4.16    0.45
  -6  -6  -4    4.55    0.34
   6  -6   4    5.31    0.50
  -6   6  -4    4.62    0.46
  -6   6  -4    5.12    0.48
  -6   6  -4    6.35    0.55
  -7  -6  -4    5.56    0.39
   7  -6   4    6.67    0.57
  -7  -6  -4    5.79    0.55
  -7  -6  -4    6.14    0.41
  -7  -6  -4    5.35    0.50
  -7  -6  -4    7.09    0.58
  -7   6  -4    5.61    0.53
  -7   6  -4    6.95    0.60
  -8  -6  -4    5.28    0.39
  -8  -6  -4    5.89    0.42
  -8  -6  -4    5.21    0.54
  -8  -6  -4    5.56    0.56
   8  -6   4    4.25    0.50
  -8   6  -4    5.30    0.58
  -8   6  -4    6.22    0.59
  -9  -7   4    5.02    0.53
   9  -7  -4    5.67    0.58
   9  -7  -4    4.81    0.51
  -9  -7   4    5.44    0.57
  -9  -7   4    4.79    0.47
   9   7  -4    4.27    0.52
  -9   7   4    4.10    0.48
  -9   7   4    4.41    0.41
  -9   7   4    4.76    0.44
  -9   7   4    5.31    0.56
  -8  -7   4    9.20    0.64
   8  -7  -4    6.51    0.63
  -8  -7   4    8.07    0.70
   8  -7  -4    8.59    0.65
  -8   7   4    7.88    0.63
  -8   7   4    7.92    0.66
   8   7  -4    8.40    0.66
  -8   7   4    8.63    0.51
  -8   7   4    8.09    0.50
   7  -7  -4   13.33    0.84
   7  -7  -4   12.70    0.79
  -7  -7   4   13.22    0.76
  -7  -7   4   12.85    0.84
  -7  -7   4   12.62    0.81
  -7   7   4   11.56    0.77
  -7   7   4   12.39    0.79
   7   7  -4   13.36    0.81
  -7   7   4   13.01    0.59
  -7   7   4   13.28    0.82
  -7   7   4   12.91    0.59
  -6  -7   4   11.61    0.76
  -6  -7   4   15.12    0.90
   6  -7  -4   15.18    0.88
   6  -7  -4   14.67    0.83
   6  -7  -4   14.37    0.82
  -6  -7   4   13.69    0.80
  -6  -7   4   14.12    0.79
  -6   7   4   14.76    0.56
  -6   7   4   13.57    0.80
  -6   7   4   15.40    0.57
  -6   7   4   14.07    0.81
   6   7  -4   14.91    0.84
  -6   7   4   14.65    0.82
  -5  -7   4   13.87    0.78
   5  -7  -4   17.32    0.92
   5  -7  -4   13.83    0.77
  -5  -7   4   14.12    0.79
   5  -7  -4   14.31    0.81
  -5  -7   4   15.07    0.88
  -5  -7   4   13.88    0.78
  -5   7   4   16.06    0.85
   5   7  -4   15.24    0.82
  -5   7   4   15.92    0.82
  -5   7   4   14.13    0.80
   5   7  -4   15.54    0.84
   4  -7  -4    6.82    0.51
  -4  -7   4    5.77    0.47
   4  -7  -4    6.65    0.48
  -4  -7   4    5.41    0.46
   4  -7  -4    6.88    0.54
  -4  -7   4    5.56    0.50
  -4   7   4    6.42    0.49
  -4   7   4    5.40    0.46
   4   7  -4    5.39    0.47
   4   7  -4    7.37    0.53
  -4   7   4    5.84    0.48
   3  -7  -4    2.89    0.41
  -3  -7   4    2.33    0.33
  -3  -7   4    2.91    0.35
   3  -7  -4    2.35    0.27
  -3  -7   4    2.81    0.34
   3  -7  -4    2.11    0.30
   3   7  -4    1.60    0.30
  -3   7   4    3.17    0.34
   3   7  -4    2.08    0.30
  -3   7   4    3.21    0.32
  -3   7   4    2.75    0.40
   2  -7  -4    2.77    0.33
  -2  -7   4    3.49    0.34
  -2  -7   4    2.75    0.33
  -2  -7   4    3.41    0.34
   2  -7  -4    3.00    0.34
   2  -7  -4    3.13    0.29
   2   7  -4    2.45    0.29
   2   7  -4    2.77    0.31
  -2   7   4    3.02    0.31
  -2   7   4    2.75    0.32
   1  -7  -4    0.68    0.17
   1  -7  -4    0.69    0.19
  -1  -7   4    0.68    0.21
   1  -7  -4    0.67    0.19
  -1  -7   4    0.88    0.23
  -1  -7   4    1.02    0.23
  -1   7   4    0.60    0.18
   1   7  -4    0.71    0.18
  -1   7   4    0.60    0.17
   1   7  -4    0.88    0.22
   1   7  -4    0.74    0.14
   0  -7  -4    6.61    0.40
   0  -7  -4    6.36    0.48
   0  -7   4    6.69    0.48
   0  -7   4    5.99    0.43
   0  -7   4    7.08    0.53
   0  -7   4    6.27    0.47
   0  -7  -4    6.25    0.45
   0   7   4    6.05    0.39
   0   7  -4    5.75    0.35
   0   7  -4    7.15    0.50
   0   7  -4    6.12    0.47
   0   7   4    6.43    0.48
   1  -7   4    8.13    0.46
  -1  -7  -4    5.84    0.43
  -1  -7  -4    6.15    0.37
  -1  -7  -4    6.13    0.46
   1  -7   4    7.14    0.51
   1  -7   4    6.75    0.52
   1  -7   4    7.38    0.44
   1  -7   4    6.88    0.51
  -1   7  -4    5.74    0.38
   1   7   4    6.93    0.50
  -1   7  -4    6.46    0.49
   1   7   4    6.79    0.41
  -1   7  -4    7.05    0.50
  -2  -7  -4    7.69    0.60
  -2  -7  -4    8.87    0.44
  -2  -7  -4    8.32    0.51
  -2  -7  -4    8.66    0.58
   2  -7   4    9.18    0.61
   2  -7   4    8.10    0.44
  -2  -7  -4    8.79    0.40
   2  -7   4    9.26    0.59
   2  -7   4    9.18    0.55
   2  -7   4    8.67    0.57
   2   7   4    8.45    0.57
  -2   7  -4    9.08    0.60
  -2   7  -4    9.04    0.58
  -2   7  -4    8.41    0.50
   3  -7   4   17.74    0.85
  -3  -7  -4   17.96    0.77
   3  -7   4   18.56    0.91
  -3  -7  -4   17.72    0.69
  -3  -7  -4   18.37    0.91
  -3  -7  -4   19.11    0.98
  -3  -7  -4   17.92    0.69
   3  -7   4   17.56    0.63
   3  -7   4   17.84    0.92
  -3  -7  -4   17.70    0.71
   3  -7   4   16.64    0.87
  -3   7  -4   18.20    0.90
  -3   7  -4   17.51    0.83
   3   7   4   17.58    0.89
  -3   7  -4   18.44    0.91
  -4  -7  -4   13.47    0.66
  -4  -7  -4   15.00    0.82
   4  -7   4   15.53    0.85
  -4  -7  -4   14.74    0.60
  -4  -7  -4   15.84    0.91
  -4  -7  -4   15.51    0.62
   4  -7   4   15.99    0.86
   4  -7   4   16.63    0.89
   4  -7   4   14.28    0.80
  -4  -7  -4   14.71    0.66
  -4   7  -4   15.81    0.84
  -4   7  -4   15.38    0.80
   4   7   4   15.89    0.86
  -4   7  -4   14.96    0.84
   5  -7   4   12.52    0.79
  -5  -7  -4   11.60    0.52
  -5  -7  -4   11.37    0.54
  -5  -7  -4   11.87    0.79
   5  -7   4   11.42    0.75
  -5  -7  -4   12.08    0.64
  -5  -7  -4   11.67    0.77
  -5  -7  -4   11.97    0.53
   5  -7   4   12.33    0.75
  -5   7  -4   11.73    0.74
  -5   7  -4   11.93    0.75
  -5   7  -4   12.15    0.74
  -6  -7  -4    7.52    0.64
  -6  -7  -4    6.04    0.49
   6  -7   4    7.77    0.62
  -6  -7  -4    6.66    0.39
  -6  -7  -4    6.53    0.36
  -6  -7  -4    6.81    0.39
  -6  -7  -4    5.66    0.36
  -6   7  -4    7.12    0.58
  -6   7  -4    6.87    0.59
   7  -7   4    3.27    0.47
  -7  -7  -4    3.13    0.28
  -7  -7  -4    2.95    0.28
  -7  -7  -4    2.30    0.43
  -7  -7  -4    2.71    0.23
  -7  -7  -4    2.88    0.24
  -7  -7  -4    3.62    0.49
  -7   7  -4    2.68    0.45
  -7   7  -4    4.06    0.48
  -8  -8   4    0.72    0.27
  -8  -8   4    0.71    0.26
   8  -8  -4    0.22    0.22
   8  -8  -4    0.38    0.29
  -8   8   4    0.44    0.24
  -8   8   4    0.57    0.24
  -8   8   4    0.38    0.20
   8   8  -4    0.54    0.21
  -8   8   4    0.84    0.21
  -7  -8   4    0.97    0.27
   7  -8  -4    0.38    0.15
   7  -8  -4    0.51    0.28
  -7  -8   4    1.27    0.33
   7   8  -4    0.45    0.24
  -7   8   4    0.77    0.27
  -7   8   4    0.71    0.16
  -7   8   4    0.57    0.19
  -6  -8   4    0.36    0.24
   6  -8  -4    0.27    0.15
  -6  -8   4    0.30    0.19
  -6  -8   4    0.68    0.25
   6  -8  -4    0.45    0.23
  -6   8   4    0.46    0.21
   6   8  -4    0.39    0.20
  -6   8   4    0.29    0.20
  -6   8   4    0.29    0.21
  -5  -8   4    1.36    0.28
  -5  -8   4    1.18    0.32
  -5  -8   4    2.18    0.47
   5  -8  -4    1.89    0.40
  -5  -8   4    1.68    0.33
   5  -8  -4    1.66    0.33
  -5   8   4    1.29    0.31
   5   8  -4    1.86    0.32
  -5   8   4    1.07    0.28
   5   8  -4    1.16    0.27
  -5   8   4    1.06    0.27
  -4  -8   4    2.09    0.35
  -4  -8   4    3.97    0.45
   4  -8  -4    2.21    0.36
   4  -8  -4    2.71    0.42
  -4  -8   4    2.13    0.37
   4  -8  -4    1.93    0.32
  -4   8   4    2.20    0.37
  -4   8   4    2.70    0.39
   4   8  -4    2.03    0.36
   4   8  -4    1.40    0.30
  -4   8   4    2.70    0.45
  -3  -8   4   10.52    0.71
   3  -8  -4   10.48    0.68
   3  -8  -4   10.96    0.72
   3  -8  -4   10.89    0.62
  -3  -8   4   10.61    0.68
  -3  -8   4   11.49    0.70
   3   8  -4    9.94    0.64
   3   8  -4   11.54    0.71
  -3   8   4    9.81    0.67
  -3   8   4   10.51    0.63
  -2  -8   4   13.52    0.77
   2  -8  -4   12.84    0.66
  -2  -8   4   12.65    0.73
  -2  -8   4   13.37    0.79
  -2  -8   4   13.50    0.77
   2  -8  -4   13.77    0.79
   2  -8  -4   12.70    0.77
  -2   8   4   12.58    0.68
   2   8  -4   13.80    0.78
   2   8  -4   13.71    0.76
  -2   8   4   13.98    0.78
  -1  -8   4    5.01    0.49
  -1  -8   4    4.84    0.42
   1  -8  -4    5.46    0.48
   1  -8  -4    5.48    0.39
  -1  -8   4    4.63    0.45
   1  -8  -4    6.25    0.51
  -1  -8   4    4.22    0.41
  -1   8   4    5.35    0.40
   1   8  -4    5.30    0.46
  -1   8   4    5.00    0.44
   1   8  -4    5.70    0.30
   1   8  -4    5.09    0.45
   0  -8   4   11.00    0.73
   0  -8  -4   13.73    0.79
   0  -8  -4   13.76    0.63
   0  -8  -4   12.88    0.74
   0  -8   4   12.40    0.71
   0  -8   4   11.55    0.66
   0  -8   4   11.82    0.73
   0   8  -4   12.85    0.57
   0   8   4   14.20    0.77
   0   8  -4   14.03    0.77
   0   8   4   12.68    0.61
   0   8  -4   12.39    0.73
   1  -8   4    9.35    0.67
   1  -8   4    8.72    0.51
  -1  -8  -4    8.28    0.56
  -1  -8  -4    8.42    0.63
  -1  -8  -4    7.56    0.58
  -1  -8  -4    8.10    0.45
   1  -8   4    8.04    0.57
   1  -8   4    8.29    0.52
   1  -8   4    8.88    0.62
   1   8   4    9.34    0.63
   1   8   4    7.81    0.45
  -1   8  -4    8.96    0.60
  -1   8  -4    8.36    0.47
  -1   8  -4    8.04    0.59
   2  -8   4    0.70    0.17
  -2  -8  -4    0.30    0.20
   2  -8   4    0.89    0.24
   2  -8   4    0.77    0.17
  -2  -8  -4    0.72    0.14
  -2  -8  -4    0.41    0.19
   2  -8   4    0.94    0.27
   2  -8   4    0.92    0.26
  -2  -8  -4    0.78    0.27
  -2  -8  -4    0.81    0.13
  -2   8  -4    0.64    0.23
  -2   8  -4    0.42    0.16
  -2   8  -4    0.37    0.15
   2   8   4    0.63    0.20
  -3  -8  -4    0.85    0.15
  -3  -8  -4    0.84    0.16
   3  -8   4    0.53    0.18
   3  -8   4    0.59    0.21
   3  -8   4    0.93    0.24
  -3  -8  -4    0.76    0.20
  -3  -8  -4    0.86    0.17
   3  -8   4    0.80    0.24
   3  -8   4    0.67    0.16
  -3  -8  -4    0.87    0.27
  -3  -8  -4    0.60    0.26
  -3   8  -4    0.67    0.17
  -3   8  -4    0.68    0.22
  -3   8  -4    0.35    0.19
   3   8   4    0.69    0.21
   4  -8   4    0.93    0.25
   4  -8   4    1.29    0.27
  -4  -8  -4    0.73    0.28
  -4  -8  -4    1.49    0.17
   4  -8   4    0.80    0.28
  -4  -8  -4    0.88    0.16
  -4  -8  -4    0.77    0.21
  -4   8  -4    0.78    0.23
  -4   8  -4    1.01    0.26
  -4   8  -4    0.73    0.23
   4   8   4    1.35    0.33
  -5  -8  -4    0.98    0.21
  -5  -8  -4    0.94    0.26
  -5  -8  -4    0.82    0.15
  -5  -8  -4    0.50    0.17
   5  -8   4    0.74    0.26
  -5  -8  -4    0.67    0.13
  -5   8  -4    0.60    0.23
  -5   8  -4    0.85    0.22
  -6  -8  -4    2.19    0.25
  -6  -8  -4    2.40    0.37
  -6  -8  -4    2.11    0.29
   6  -8   4    2.02    0.36
  -6  -8  -4    1.33    0.34
  -6   8  -4    1.98    0.40
  -6   8  -4    1.44    0.30
  -6  -9   4    2.19    0.41
   6  -9  -4    4.27    0.47
  -6  -9   4    4.18    0.56
   6  -9  -4    4.53    0.66
   6   9  -4    3.47    0.54
  -6   9   4    4.14    0.48
  -6   9   4    3.31    0.54
   5  -9  -4    3.24    0.47
  -5  -9   4    3.49    0.52
  -5  -9   4    2.80    0.53
   5  -9  -4    3.42    0.38
   5   9  -4    3.61    0.42
   5   9  -4    1.96    0.37
  -5   9   4    2.42    0.40
  -5   9   4    3.30    0.45
  -4  -9   4    1.79    0.37
   4  -9  -4    1.68    0.31
   4  -9  -4    2.30    0.42
  -4  -9   4    1.83    0.36
  -4  -9   4    1.84    0.36
  -4   9   4    1.93    0.36
   4   9  -4    1.26    0.28
  -4   9   4    2.28    0.36
   4   9  -4    1.97    0.35
   3  -9  -4    1.14    0.25
  -3  -9   4    1.03    0.29
   3  -9  -4    1.04    0.29
  -3  -9   4    0.89    0.28
  -3  -9   4    1.00    0.25
  -3   9   4    1.29    0.29
  -3   9   4    1.49    0.34
   3   9  -4    0.85    0.24
   3   9  -4    1.26    0.30
  -2  -9   4    0.27    0.17
   2  -9  -4   -0.16    0.15
   2  -9  -4    0.34    0.15
  -2  -9   4    0.03    0.20
  -2  -9   4    0.17    0.17
   2   9  -4    0.29    0.18
   2   9  -4    0.14    0.16
  -2   9   4    0.07    0.13
  -2   9   4    0.07    0.15
   1  -9  -4    0.03    0.12
  -1  -9   4    0.46    0.20
   1  -9  -4    0.19    0.18
  -1  -9   4    0.40    0.18
  -1  -9   4    0.39    0.19
   1   9  -4    0.10    0.13
   1   9  -4    0.44    0.19
  -1   9   4    0.38    0.14
  -1   9   4    0.26    0.19
   0  -9  -4    0.59    0.17
   0  -9   4    0.77    0.23
   0  -9   4    0.86    0.29
   0  -9  -4    0.82    0.24
   0  -9   4    1.01    0.25
   0  -9  -4    0.37    0.20
   0   9  -4    0.76    0.25
   0   9  -4    0.51    0.14
   0   9   4    0.41    0.19
   0   9  -4    0.71    0.21
   0   9   4    0.66    0.18
   1  -9   4    1.58    0.25
  -1  -9  -4    1.80    0.41
  -1  -9  -4    1.91    0.25
  -1  -9  -4    1.40    0.28
   1  -9   4    1.56    0.31
   1  -9   4    1.06    0.29
   1   9   4    1.40    0.30
  -1   9  -4    2.03    0.37
  -1   9  -4    1.83    0.27
  -1   9  -4    1.99    0.40
  -2  -9  -4    2.56    0.38
   2  -9   4    2.65    0.46
  -2  -9  -4    2.75    0.23
   2  -9   4    2.82    0.37
   2  -9   4    2.08    0.37
  -2  -9  -4    2.38    0.43
   2  -9   4    2.53    0.29
  -2   9  -4    3.50    0.41
   2   9   4    2.39    0.39
  -2   9  -4    2.80    0.33
  -2   9  -4    2.23    0.36
  -3  -9  -4    4.21    0.43
   3  -9   4    3.69    0.53
  -3  -9  -4    3.94    0.26
  -3  -9  -4    3.83    0.28
  -3  -9  -4    3.50    0.24
  -3  -9  -4    4.45    0.53
   3  -9   4    4.21    0.33
   3  -9   4    3.94    0.40
   3  -9   4    4.38    0.49
  -3   9  -4    3.51    0.51
   3   9   4    3.91    0.57
  -3   9  -4    3.15    0.44
  -3   9  -4    3.92    0.44
  -4  -9  -4    3.47    0.50
  -4  -9  -4    3.69    0.39
  -4  -9  -4    3.74    0.34
   4  -9   4    4.07    0.43
   4   9   4    3.67    0.50
  -4   9  -4    3.62    0.49
  -4   9  -4    4.10    0.45
  -4   9  -4    4.61    0.52
  -4 -10   4    0.48    0.29
   4 -10  -4    0.82    0.26
   4 -10  -4    0.24    0.26
  -4 -10   4    0.12    0.18
  -4  10   4    0.29    0.32
  -4  10   4    0.52    0.21
   4  10  -4    0.71    0.25
   4  10  -4    0.70    0.28
  -3 -10   4    0.93    0.33
   3 -10  -4    1.15    0.33
   3 -10  -4    1.27    0.25
  -3 -10   4    0.76    0.29
  -3  10   4    0.91    0.29
   3  10  -4    0.93    0.29
  -3  10   4    1.44    0.30
   3  10  -4    0.68    0.27
  -2 -10   4    1.32    0.31
  -2 -10   4    1.58    0.34
   2 -10  -4    1.16    0.33
   2 -10  -4    0.87    0.32
   2 -10  -4    1.42    0.27
  -2 -10   4    2.67    0.44
  -2  10   4    1.21    0.26
   2  10  -4    0.98    0.26
   2  10  -4    1.11    0.26
  -2  10   4    1.37    0.32
  -1 -10   4    3.05    0.49
   1 -10  -4    3.69    0.35
   1 -10  -4    2.76    0.51
  -1 -10   4    2.53    0.46
   1 -10  -4    2.67    0.40
  -1 -10   4    3.76    0.42
   1  10  -4    2.78    0.43
  -1  10   4    4.20    0.47
   1  10  -4    2.70    0.43
  -1  10   4    3.35    0.37
   0 -10   4    1.85    0.45
   0 -10   4    1.01    0.30
   0 -10  -4    1.08    0.30
   0 -10  -4    1.28    0.23
   0 -10   4    1.19    0.33
   0 -10  -4    0.78    0.27
   0  10   4    1.12    0.25
   0  10  -4    0.81    0.30
   0  10  -4    0.89    0.27
   0  10   4    1.03    0.27
   0  10  -4    1.39    0.20
  -1 -10  -4    0.95    0.29
   1 -10   4    0.33    0.21
   1 -10   4    0.34    0.28
  -1 -10  -4    1.02    0.29
  -1 -10  -4    1.07    0.19
   1 -10   4    1.10    0.26
  -1  10  -4    0.42    0.24
   1  10   4    0.70    0.33
  -1  10  -4    0.83    0.22
  -1  10  -4    0.76    0.27
  -2 -10  -4    1.04    0.27
  -2 -10  -4    0.11    0.25
   2 -10   4    0.59    0.20
   2 -10   4   -0.05    0.30
  -2  10  -4    0.58    0.24
   2  10   4    0.67    0.24
  -2  10  -4    0.75    0.26
  -2  10  -4    0.26    0.21
 -12   0   5   -0.08    0.15
  12   0  -5   -0.26    0.15
  12   0  -5   -0.08    0.11
 -12   0   5    0.01    0.15
  11   0  -5    0.07    0.12
  11   0  -5    0.04    0.11
 -11   0   5   -0.05    0.14
 -11   0   5    0.08    0.12
 -11   0   5   -0.09    0.13
  11   0  -5   -0.08    0.16
 -11   0   5    0.11    0.15
 -10   0   5   -0.11    0.11
  10   0  -5    0.07    0.11
 -10   0   5   -0.06    0.13
  10   0  -5    0.05    0.11
 -10   0   5   -0.25    0.09
  10   0  -5   -0.01    0.11
  10   0  -5   -0.09    0.11
 -10   0   5   -0.18    0.08
   9   0  -5   -0.03    0.08
   9   0  -5   -0.10    0.09
  -9   0   5   -0.16    0.10
  -9   0   5    0.02    0.10
  -9   0   5   -0.16    0.07
  -9   0   5    0.08    0.09
   9   0  -5    0.03    0.10
   9   0  -5    0.04    0.09
   8   0  -5    0.00    0.08
  -8   0   5    0.05    0.07
   8   0  -5   -0.08    0.07
   8   0  -5   -0.07    0.08
   8   0  -5   -0.04    0.06
  -8   0   5   -0.18    0.07
  -8   0   5    0.04    0.07
  -8   0   5    0.03    0.09
   7   0  -5    0.04    0.08
   7   0  -5    0.00    0.06
  -7   0   5   -0.07    0.07
   7   0  -5   -0.04    0.07
  -7   0   5   -0.02    0.07
   7   0  -5   -0.06    0.07
  -7   0   5    0.05    0.06
  -7   0   5   -0.01    0.07
   6   0  -5    0.08    0.08
  -6   0   5    0.10    0.08
   6   0  -5    0.04    0.07
   6   0  -5    0.15    0.08
   6   0  -5    0.02    0.06
  -6   0   5    0.01    0.06
  -6   0   5    0.01    0.05
   6   0  -5    0.46    0.11
  -6   0   5    0.05    0.06
  -5   0   5   -0.04    0.04
   5   0  -5    0.02    0.06
   5   0  -5    0.08    0.07
   5   0  -5    0.04    0.06
   5   0  -5    0.03    0.08
  -5   0   5    0.03    0.05
  -5   0   5    0.07    0.07
  -5   0   5    0.02    0.07
   5   0  -5   -0.02    0.05
   4   0  -5    0.17    0.08
   4   0  -5    0.06    0.06
  -4   0   5    0.08    0.06
  -4   0   5    0.15    0.08
   4   0  -5    0.10    0.06
  -4   0   5    0.10    0.06
  -4   0   5    0.07    0.07
   4   0  -5    0.11    0.06
  -3   0   5    0.03    0.05
   3   0  -5    0.05    0.05
  -3   0   5   -0.03    0.03
   3   0  -5    0.11    0.06
   3   0  -5    0.02    0.06
  -3   0   5    0.01    0.05
  -3   0   5    0.04    0.03
   2   0  -5    0.12    0.06
  -2   0   5    0.13    0.06
   2   0  -5    0.09    0.06
  -2   0   5    0.11    0.06
   2   0  -5    0.21    0.08
  -2   0   5    0.21    0.08
   1   0  -5    0.00    0.04
  -1   0   5    0.05    0.06
   1   0  -5    0.09    0.06
   1   0  -5    0.05    0.06
  -1   0   5    0.02    0.05
   0   0  -5    0.08    0.06
   0   0   5    0.03    0.04
   0   0   5    0.04    0.05
   0   0  -5    0.02    0.05
   0   0  -5    0.01    0.05
  -1   0  -5    0.15    0.08
   1   0   5    0.09    0.05
  -1   0  -5    0.15    0.08
   1   0   5    0.03    0.07
  -1   0  -5    0.07    0.04
   2   0   5    0.00    0.03
   2   0   5    0.04    0.03
  -2   0  -5   -0.03    0.05
   2   0   5    0.06    0.07
  -2   0  -5    0.08    0.07
  -2   0  -5    0.03    0.04
  -3   0  -5    0.20    0.10
  -3   0  -5    0.14    0.07
  -3   0  -5    0.34    0.14
  -4   0  -5    0.13    0.09
  -4   0  -5    0.06    0.07
  -4   0  -5    0.01    0.05
  -4   0  -5    0.04    0.07
  -5   0  -5    0.29    0.13
  -5   0  -5    0.01    0.09
  -5   0  -5    0.19    0.11
  -5   0  -5    0.05    0.05
  -5   0  -5    0.04    0.08
  -6   0  -5   -0.02    0.08
  -6   0  -5    0.05    0.08
  -6   0  -5   -0.01    0.08
  -6   0  -5    0.14    0.10
  -6   0  -5    0.07    0.07
  -7   0  -5   -0.07    0.08
  -7   0  -5    0.00    0.06
  -7   0  -5    0.01    0.09
  -7   0  -5    0.10    0.12
  -7   0  -5    0.12    0.14
  -8   0  -5   -0.14    0.11
  -8   0  -5   -0.17    0.14
  -8   0  -5    0.12    0.09
  -8   0  -5    0.03    0.11
  -8   0  -5    0.08    0.10
  -9   0  -5   -0.19    0.10
  -9   0  -5   -0.23    0.12
 -10   0  -5   -0.45    0.15
 -10   0  -5   -0.22    0.17
 -12  -1   5    0.45    0.22
  12  -1  -5    0.39    0.21
 -12  -1   5    0.40    0.23
  12  -1  -5    0.24    0.18
 -12  -1   5    0.71    0.23
  12   1  -5    0.46    0.19
 -12   1   5    0.73    0.23
  12   1  -5    0.28    0.18
 -12   1   5    0.74    0.28
  11  -1  -5    0.85    0.26
  11  -1  -5    1.18    0.27
 -11  -1   5    1.09    0.23
 -11  -1   5    0.87    0.22
 -11   1   5    0.98    0.28
  11   1  -5    0.90    0.24
 -11   1   5    0.68    0.21
  11   1  -5    1.21    0.31
 -11   1   5    0.83    0.24
 -11   1   5    1.10    0.28
  11   1  -5    0.82    0.23
  10  -1  -5    3.15    0.47
 -10  -1   5    2.45    0.41
  10  -1  -5    2.81    0.44
  10  -1  -5    2.45    0.40
 -10  -1   5    2.61    0.38
 -10  -1   5    2.83    0.44
 -10  -1   5    2.30    0.36
  10  -1  -5    2.48    0.42
  10  -1  -5    2.24    0.37
  10   1  -5    2.09    0.32
 -10   1   5    2.66    0.45
 -10   1   5    1.95    0.31
  10   1  -5    2.20    0.38
 -10   1   5    2.18    0.35
  10   1  -5    2.64    0.32
 -10   1   5    2.67    0.41
  10   1  -5    2.75    0.44
   9  -1  -5    1.51    0.27
   9  -1  -5    1.62    0.28
  -9  -1   5    1.77    0.31
   9  -1  -5    1.48    0.26
   9  -1  -5    1.61    0.31
   9  -1  -5    1.13    0.23
  -9  -1   5    1.31    0.25
  -9  -1   5    1.77    0.30
  -9  -1   5    1.41    0.26
  -9   1   5    1.92    0.35
   9   1  -5    1.54    0.31
   9   1  -5    1.39    0.29
  -9   1   5    1.41    0.27
   9   1  -5    1.54    0.26
   9   1  -5    1.64    0.26
  -9   1   5    1.21    0.24
  -9   1   5    1.50    0.28
  -8  -1   5    5.46    0.45
  -8  -1   5    5.14    0.41
   8  -1  -5    4.97    0.42
   8  -1  -5    4.62    0.40
   8  -1  -5    5.43    0.41
  -8  -1   5    4.64    0.35
   8  -1  -5    4.82    0.39
  -8  -1   5    4.53    0.39
   8  -1  -5    4.97    0.40
  -8   1   5    4.82    0.40
   8   1  -5    4.58    0.40
  -8   1   5    4.76    0.39
   8   1  -5    4.94    0.39
  -8   1   5    4.95    0.41
   8   1  -5    4.51    0.40
  -8   1   5    4.38    0.39
   8   1  -5    4.98    0.37
   7  -1  -5    0.61    0.16
   7  -1  -5    0.76    0.17
  -7  -1   5    0.76    0.18
   7  -1  -5    0.50    0.15
   7  -1  -5    0.69    0.17
   7  -1  -5    0.82    0.19
  -7  -1   5    0.92    0.19
  -7  -1   5    0.67    0.18
  -7  -1   5    1.00    0.19
  -7   1   5    0.42    0.13
  -7   1   5    0.30    0.12
   7   1  -5    0.68    0.17
  -7   1   5    0.78    0.18
   7   1  -5    0.82    0.20
   7   1  -5    0.77    0.20
   7   1  -5    0.64    0.15
  -7   1   5    0.54    0.17
  -6  -1   5    3.26    0.26
   6  -1  -5    2.83    0.26
   6  -1  -5    3.18    0.29
   6  -1  -5    3.30    0.30
  -6  -1   5    2.06    0.24
   6  -1  -5    2.92    0.26
  -6  -1   5    3.40    0.30
  -6  -1   5    2.83    0.26
   6   1  -5    3.49    0.30
   6   1  -5    3.17    0.26
  -6   1   5    2.41    0.24
  -6   1   5    2.83    0.28
  -6   1   5    3.16    0.29
   6   1  -5    3.30    0.31
   6   1  -5    3.26    0.30
  -6   1   5    3.33    0.27
   5  -1  -5    2.73    0.23
   5  -1  -5    2.65    0.24
  -5  -1   5    2.59    0.25
   5  -1  -5    2.98    0.24
  -5  -1   5    2.90    0.27
  -5  -1   5    2.48    0.22
  -5  -1   5    1.96    0.19
   5  -1  -5    2.86    0.26
  -5   1   5    2.48    0.21
  -5   1   5    2.91    0.24
   5   1  -5    3.18    0.28
  -5   1   5    2.74    0.26
  -5   1   5    2.73    0.24
   5   1  -5    2.98    0.26
   5   1  -5    2.84    0.22
   5   1  -5    2.78    0.27
  -4  -1   5   15.52    0.58
   4  -1  -5   15.58    0.57
  -4  -1   5   16.21    0.62
   4  -1  -5   15.70    0.65
   4  -1  -5   16.89    0.68
  -4  -1   5   16.48    0.58
  -4  -1   5   16.32    0.67
  -4  -1   5   15.88    0.67
   4  -1  -5   15.77    0.60
   4   1  -5   16.50    0.67
   4   1  -5   15.66    0.61
   4   1  -5   15.28    0.66
  -4   1   5   16.09    0.67
  -4   1   5   16.11    0.58
   4   1  -5   15.41    0.67
  -4   1   5   16.45    0.62
  -4   1   5   15.49    0.65
  -3  -1   5    6.31    0.27
  -3  -1   5    5.89    0.36
   3  -1  -5    6.35    0.28
   3  -1  -5    5.64    0.35
  -3  -1   5    6.01    0.33
  -3  -1   5    5.68    0.34
   3  -1  -5    6.08    0.35
  -3  -1   5    6.15    0.27
   3  -1  -5    6.55    0.32
  -3   1   5    6.38    0.31
  -3   1   5    6.45    0.36
   3   1  -5    6.18    0.36
  -3   1   5    5.52    0.26
   3   1  -5    6.02    0.36
  -3   1   5    6.09    0.35
   3   1  -5    6.14    0.36
   3   1  -5    5.97    0.33
  -2  -1   5   46.03    1.34
   2  -1  -5   42.80    1.14
   2  -1  -5   43.36    1.29
  -2  -1   5   44.89    1.33
   2  -1  -5   44.32    1.24
  -2  -1   5   46.20    1.31
  -2   1   5   44.18    1.24
   2   1  -5   43.59    1.33
  -2   1   5   44.45    1.33
   2   1  -5   44.10    1.29
   2   1  -5   44.68    1.32
  -2   1   5   37.06    1.25
  -2   1   5   44.76    1.15
  -1  -1   5   30.41    1.01
  -1  -1   5   30.74    0.98
   1  -1  -5   29.27    0.89
   1  -1  -5   26.99    0.86
   1  -1  -5   27.18    0.94
   1   1  -5   29.53    0.97
  -1   1   5   30.24    0.92
   1   1  -5   28.99    0.93
  -1   1   5   30.81    1.00
  -1   1   5   30.82    0.92
   0  -1  -5   25.00    0.73
   0  -1   5   24.13    0.85
   0  -1   5   24.35    0.79
   0  -1  -5   23.01    0.76
   0  -1  -5   24.68    0.84
   0   1   5   23.26    0.71
   0   1  -5   22.68    0.81
   0   1  -5   19.73    0.80
   0   1   5   22.51    0.82
   0   1   5   23.82    0.77
  -1  -1  -5    7.09    0.37
  -1  -1  -5    6.11    0.37
   1  -1   5    7.27    0.29
  -1  -1  -5    6.80    0.29
   1  -1   5    7.10    0.33
  -1  -1  -5    6.81    0.29
   1  -1   5    6.82    0.40
  -1  -1  -5    6.84    0.29
  -1   1  -5    6.71    0.28
  -1   1  -5    7.52    0.42
  -1   1  -5    7.01    0.39
   1   1   5    6.31    0.24
   1   1   5    6.36    0.35
   2  -1   5    5.15    0.28
  -2  -1  -5    5.11    0.27
  -2  -1  -5    4.86    0.34
  -2  -1  -5    4.81    0.32
  -2  -1  -5    4.91    0.26
   2  -1   5    5.49    0.29
   2  -1   5    5.55    0.28
   2  -1   5    5.42    0.37
  -2  -1  -5    5.07    0.33
  -2   1  -5    5.16    0.27
  -2   1  -5    4.34    0.32
  -2   1  -5    4.79    0.35
  -3  -1  -5    2.16    0.20
  -3  -1  -5    2.53    0.25
  -3  -1  -5    2.75    0.22
  -3  -1  -5    2.09    0.23
   3  -1   5    3.04    0.23
   3  -1   5    3.06    0.29
   3  -1   5    2.86    0.20
   3  -1   5    2.87    0.20
  -3   1  -5    2.87    0.29
  -3   1  -5    2.86    0.27
  -3   1  -5    2.62    0.21
   4  -1   5    1.09    0.12
  -4  -1  -5    1.05    0.19
  -4  -1  -5    1.17    0.22
   4  -1   5    0.92    0.18
  -4  -1  -5    1.29    0.19
  -4  -1  -5    1.31    0.24
  -4  -1  -5    1.40    0.23
  -4   1  -5    0.95    0.19
  -4   1  -5    1.16    0.10
  -4   1  -5    1.38    0.21
  -4   1  -5    1.13    0.23
   5  -1   5    1.62    0.25
   5  -1   5    1.54    0.14
  -5  -1  -5    1.60    0.28
  -5  -1  -5    1.89    0.30
  -5  -1  -5    2.24    0.33
  -5  -1  -5    1.51    0.26
  -5  -1  -5    1.68    0.19
  -5   1  -5    1.20    0.22
  -5   1  -5    1.64    0.24
  -5   1  -5    1.69    0.30
  -6  -1  -5    0.44    0.14
   6  -1   5    0.54    0.16
  -6  -1  -5    0.59    0.17
   6  -1   5    0.67    0.10
   6  -1   5    0.61    0.19
  -6  -1  -5    0.59    0.19
  -6  -1  -5    0.36    0.16
  -6  -1  -5    0.56    0.13
  -6   1  -5    0.39    0.15
  -6   1  -5    0.39    0.16
  -6   1  -5    0.35    0.17
  -6   1  -5    0.37    0.15
  -7  -1  -5    3.78    0.30
   7  -1   5    3.03    0.42
  -7  -1  -5    2.95    0.34
  -7  -1  -5    3.61    0.39
  -7  -1  -5    2.91    0.42
  -7  -1  -5    3.73    0.41
  -7   1  -5    3.31    0.36
  -7   1  -5    3.50    0.43
  -7   1  -5    3.78    0.39
  -7   1  -5    3.15    0.33
  -8  -1  -5    0.68    0.18
  -8  -1  -5    1.09    0.26
   8  -1   5    0.81    0.25
  -8  -1  -5    0.76    0.23
  -8  -1  -5    1.04    0.25
  -8  -1  -5    1.05    0.26
  -8   1  -5    0.48    0.19
  -8   1  -5    0.80    0.21
  -8   1  -5    0.70    0.26
  -8   1  -5    0.53    0.21
  -9  -1  -5    1.41    0.24
  -9  -1  -5    0.98    0.24
  -9  -1  -5    1.71    0.40
   9  -1   5    1.41    0.31
  -9   1  -5    1.41    0.30
  -9   1  -5    1.24    0.31
 -10  -1  -5    0.27    0.13
 -10  -1  -5   -0.05    0.21
 -10  -1  -5    0.49    0.25
 -10   1  -5    0.37    0.20
 -10   1  -5    0.43    0.24
 -12  -2   5    0.80    0.24
  12  -2  -5    0.66    0.25
 -12  -2   5    0.47    0.22
  12  -2  -5    0.50    0.21
 -12  -2   5    0.52    0.24
  12   2  -5    0.53    0.23
 -12   2   5    0.61    0.23
 -12   2   5    0.85    0.27
  12   2  -5    1.33    0.29
 -11  -2   5    1.51    0.30
  11  -2  -5    1.61    0.34
 -11  -2   5    1.14    0.26
  11  -2  -5    0.77    0.23
 -11  -2   5    0.87    0.23
 -11   2   5    0.85    0.23
 -11   2   5    0.67    0.24
  11   2  -5    0.95    0.21
 -11   2   5    1.23    0.30
  11   2  -5    1.26    0.33
 -10  -2   5    1.04    0.25
  10  -2  -5    0.78    0.25
  10  -2  -5    1.01    0.25
 -10  -2   5    0.63    0.25
  10  -2  -5    0.61    0.17
 -10  -2   5    0.94    0.26
  10  -2  -5    0.69    0.20
 -10  -2   5    0.75    0.20
 -10  -2   5    0.89    0.25
  10   2  -5    0.41    0.15
  10   2  -5    0.95    0.21
 -10   2   5    1.42    0.29
  10   2  -5    1.06    0.26
 -10   2   5    0.47    0.17
  10   2  -5    0.46    0.20
 -10   2   5    0.75    0.21
 -10   2   5    0.77    0.19
   9  -2  -5    0.54    0.18
   9  -2  -5    0.44    0.17
   9  -2  -5    0.67    0.19
  -9  -2   5    0.38    0.15
  -9  -2   5    0.50    0.19
   9  -2  -5    0.15    0.11
  -9  -2   5    0.28    0.15
  -9  -2   5    0.64    0.18
   9  -2  -5    0.20    0.16
  -9  -2   5    0.74    0.22
   9   2  -5    0.63    0.17
   9   2  -5    0.56    0.20
  -9   2   5    0.11    0.13
   9   2  -5    0.63    0.18
  -9   2   5    0.48    0.16
  -9   2   5    0.37    0.15
   9   2  -5    0.68    0.20
  -9   2   5    0.38    0.14
   8  -2  -5    0.40    0.16
  -8  -2   5    0.31    0.13
   8  -2  -5    0.25    0.15
   8  -2  -5    0.85    0.21
  -8  -2   5    0.63    0.19
  -8  -2   5    0.39    0.14
   8  -2  -5    0.46    0.16
   8  -2  -5    0.38    0.14
  -8  -2   5    0.54    0.17
  -8  -2   5    0.44    0.17
  -8   2   5    0.51    0.16
  -8   2   5    0.46    0.15
  -8   2   5    0.71    0.20
   8   2  -5    0.48    0.16
   8   2  -5    0.36    0.15
   8   2  -5    0.29    0.14
   8   2  -5    0.53    0.15
  -8   2   5    0.24    0.12
  -7  -2   5    2.59    0.24
  -7  -2   5    2.92    0.31
  -7  -2   5    2.91    0.30
   7  -2  -5    3.27    0.33
  -7  -2   5    2.92    0.33
   7  -2  -5    3.30    0.31
   7  -2  -5    2.95    0.30
   7  -2  -5    4.08    0.32
  -7  -2   5    3.02    0.29
   7   2  -5    3.37    0.31
  -7   2   5    2.76    0.29
  -7   2   5    3.17    0.30
  -7   2   5    3.17    0.32
  -7   2   5    3.05    0.30
   7   2  -5    3.53    0.35
   7   2  -5    3.21    0.26
   7   2  -5    3.34    0.34
  -6  -2   5    0.35    0.14
   6  -2  -5    0.63    0.15
   6  -2  -5    0.47    0.13
  -6  -2   5    0.53    0.17
  -6  -2   5    0.52    0.14
   6  -2  -5    0.35    0.15
  -6  -2   5    0.48    0.15
   6  -2  -5    0.30    0.13
  -6  -2   5    0.60    0.14
  -6   2   5    0.29    0.11
  -6   2   5    0.32    0.11
  -6   2   5    0.42    0.12
   6   2  -5    0.29    0.11
   6   2  -5    0.48    0.11
  -6   2   5    0.36    0.12
   6   2  -5    0.48    0.14
   6   2  -5    0.37    0.11
   5  -2  -5    0.80    0.15
   5  -2  -5    0.65    0.16
  -5  -2   5    0.61    0.14
  -5  -2   5    0.54    0.15
   5  -2  -5    0.48    0.12
   5  -2  -5    0.59    0.14
  -5  -2   5    0.56    0.14
  -5  -2   5    0.63    0.15
  -5  -2   5    0.45    0.12
  -5   2   5    0.60    0.14
  -5   2   5    0.51    0.15
   5   2  -5    0.30    0.11
  -5   2   5    0.72    0.14
   5   2  -5    0.69    0.14
  -5   2   5    0.73    0.17
   5   2  -5    0.62    0.14
   5   2  -5    0.52    0.15
   4  -2  -5    3.09    0.21
   4  -2  -5    3.32    0.28
  -4  -2   5    2.85    0.27
   4  -2  -5    2.98    0.26
  -4  -2   5    3.53    0.30
  -4  -2   5    3.47    0.24
   4  -2  -5    3.45    0.24
  -4  -2   5    3.16    0.22
   4   2  -5    3.17    0.28
   4   2  -5    2.98    0.27
  -4   2   5    3.54    0.28
  -4   2   5    3.18    0.27
  -4   2   5    3.30    0.22
   4   2  -5    2.91    0.28
   4   2  -5    3.03    0.22
  -4   2   5    3.30    0.23
  -3  -2   5    3.98    0.23
   3  -2  -5    3.78    0.29
   3  -2  -5    3.88    0.21
   3  -2  -5    3.36    0.27
  -3  -2   5    3.88    0.30
  -3  -2   5    3.71    0.29
   3  -2  -5    3.71    0.23
  -3  -2   5    3.93    0.24
  -3   2   5    3.40    0.26
  -3   2   5    3.65    0.21
   3   2  -5    3.69    0.30
   3   2  -5    4.23    0.25
  -3   2   5    3.83    0.29
   3   2  -5    3.93    0.29
  -3   2   5    3.57    0.23
   2  -2  -5    9.57    0.45
  -2  -2   5    9.17    0.46
   2  -2  -5    9.82    0.38
   2  -2  -5   10.12    0.48
  -2  -2   5    9.98    0.49
  -2  -2   5    8.97    0.35
   2  -2  -5    9.78    0.36
   2   2  -5    9.65    0.37
  -2   2   5    8.79    0.34
  -2   2   5    8.99    0.46
  -2   2   5    8.60    0.35
   2   2  -5    9.56    0.49
   2   2  -5    9.64    0.43
   2   2  -5    9.57    0.45
  -1  -2   5    8.60    0.33
   1  -2  -5    8.78    0.35
   1  -2  -5    9.06    0.40
  -1  -2   5    8.86    0.44
  -1  -2   5    8.60    0.45
   1  -2  -5    9.09    0.45
   1  -2  -5    9.21    0.35
  -1   2   5    8.48    0.43
   1   2  -5    8.44    0.41
   1   2  -5    9.57    0.48
   1   2  -5    8.88    0.40
  -1   2   5    8.62    0.34
  -1   2   5    8.18    0.36
  -1   2   5    8.15    0.33
   1   2  -5    9.20    0.34
   0  -2   5    7.60    0.43
   0  -2   5    7.46    0.30
   0  -2   5    7.70    0.40
   0  -2  -5    7.17    0.30
   0  -2  -5    7.21    0.32
   0  -2  -5    6.65    0.31
   0  -2  -5    7.22    0.40
   0   2   5    7.20    0.30
   0   2   5    7.07    0.32
   0   2  -5    6.74    0.29
   0   2  -5    6.92    0.31
   0   2  -5    6.76    0.36
   0   2   5    7.88    0.41
   0   2   5    8.02    0.32
  -1  -2  -5    5.45    0.31
  -1  -2  -5    5.87    0.26
  -1  -2  -5    5.95    0.29
   1  -2   5    6.54    0.41
   1  -2   5    6.54    0.31
  -1  -2  -5    5.95    0.36
  -1   2  -5    6.09    0.40
  -1   2  -5    6.08    0.26
  -1   2  -5    6.08    0.29
  -1   2  -5    6.45    0.37
   2  -2   5    2.45    0.20
  -2  -2  -5    2.75    0.21
   2  -2   5    2.53    0.21
   2  -2   5    2.28    0.25
  -2  -2  -5    2.84    0.14
  -2  -2  -5    2.63    0.25
  -2  -2  -5    2.31    0.21
  -2   2  -5    2.50    0.24
  -2   2  -5    2.69    0.21
  -2   2  -5    2.63    0.27
  -3  -2  -5    4.02    0.32
  -3  -2  -5    3.87    0.31
   3  -2   5    3.45    0.26
  -3  -2  -5    3.62    0.26
  -3  -2  -5    3.28    0.25
  -3  -2  -5    3.12    0.28
   3  -2   5    3.52    0.31
  -3  -2  -5    3.61    0.29
   3  -2   5    3.36    0.25
  -3   2  -5    3.05    0.31
  -3   2  -5    3.52    0.30
  -3   2  -5    3.48    0.26
  -4  -2  -5    1.91    0.28
  -4  -2  -5    1.37    0.23
  -4  -2  -5    1.38    0.23
   4  -2   5    1.76    0.18
  -4  -2  -5    1.47    0.23
  -4  -2  -5    1.61    0.24
   4  -2   5    1.18    0.22
   4  -2   5    1.50    0.27
  -4  -2  -5    1.52    0.26
  -4  -2  -5    1.65    0.26
  -4   2  -5    1.50    0.29
  -4   2  -5    1.51    0.27
  -4   2  -5    1.80    0.26
  -5  -2  -5    5.20    0.37
  -5  -2  -5    4.46    0.35
  -5  -2  -5    4.88    0.42
  -5  -2  -5    5.20    0.38
  -5  -2  -5    5.29    0.38
   5  -2   5    4.61    0.30
   5  -2   5    5.33    0.39
   5  -2   5    4.60    0.41
  -5  -2  -5    5.54    0.42
  -5   2  -5    4.53    0.42
  -5   2  -5    4.71    0.39
  -5   2  -5    4.65    0.36
  -6  -2  -5    1.09    0.23
   6  -2   5    2.04    0.34
  -6  -2  -5    1.26    0.28
  -6  -2  -5    1.88    0.31
  -6  -2  -5    1.74    0.27
  -6  -2  -5    1.46    0.27
   6  -2   5    1.48    0.20
  -6  -2  -5    1.52    0.26
   6  -2   5    1.80    0.32
  -6   2  -5    1.34    0.28
  -6   2  -5    1.83    0.35
  -6   2  -5    1.59    0.27
  -7  -2  -5    0.45    0.17
   7  -2   5    0.02    0.09
  -7  -2  -5    0.53    0.20
  -7  -2  -5    0.29    0.15
  -7  -2  -5    0.11    0.12
  -7  -2  -5    0.30    0.17
  -7  -2  -5    0.27    0.11
   7  -2   5    0.16    0.14
   7  -2   5    0.24    0.14
  -7   2  -5    0.31    0.15
  -7   2  -5    0.34    0.18
  -7   2  -5    0.91    0.20
  -7   2  -5    0.23    0.16
  -8  -2  -5    0.11    0.14
  -8  -2  -5    0.05    0.10
  -8  -2  -5    0.02    0.14
   8  -2   5   -0.03    0.09
  -8  -2  -5    0.07    0.13
   8  -2   5   -0.02    0.15
  -8  -2  -5    0.14    0.15
   8  -2   5    0.05    0.14
  -8  -2  -5    0.05    0.10
  -8   2  -5    0.23    0.15
  -8   2  -5    0.06    0.16
  -9  -2  -5   -0.02    0.13
  -9  -2  -5    0.04    0.15
  -9  -2  -5    0.24    0.15
   9  -2   5    0.13    0.17
  -9   2  -5    0.03    0.18
  -9   2  -5    0.38    0.20
  10  -2   5    0.02    0.20
 -10  -2  -5    0.11    0.22
 -10  -2  -5    0.39    0.20
 -10  -2  -5   -0.20    0.19
 -10   2  -5   -0.02    0.20
 -10   2  -5    0.33    0.26
 -12  -3   5    0.41    0.25
 -12  -3   5    0.65    0.22
  12  -3  -5    0.91    0.29
 -12  -3   5    0.44    0.22
  12  -3  -5    0.50    0.22
  12   3  -5    0.26    0.20
  12   3  -5    0.17    0.16
 -12   3   5    0.14    0.20
 -12   3   5    0.23    0.24
  11  -3  -5    1.15    0.31
 -11  -3   5    0.68    0.20
 -11  -3   5    1.08    0.27
  11  -3  -5    1.19    0.26
 -11  -3   5    0.94    0.22
 -11   3   5    1.25    0.33
  11   3  -5    1.18    0.24
  11   3  -5    1.49    0.33
 -11   3   5    1.02    0.29
 -11   3   5    0.67    0.24
  10  -3  -5    0.29    0.18
 -10  -3   5    0.19    0.11
 -10  -3   5    0.00    0.12
  10  -3  -5    0.41    0.24
  10  -3  -5    0.00    0.15
  10  -3  -5    0.26    0.17
 -10  -3   5   -0.14    0.25
 -10  -3   5    0.30    0.11
 -10  -3   5   -0.11    0.14
  10   3  -5   -0.15    0.13
  10   3  -5    0.21    0.13
 -10   3   5    0.22    0.15
 -10   3   5   -0.04    0.15
  10   3  -5    0.22    0.20
 -10   3   5    0.30    0.13
 -10   3   5    0.17    0.14
  -9  -3   5    7.06    0.58
   9  -3  -5    6.91    0.55
   9  -3  -5    7.37    0.56
   9  -3  -5    7.48    0.56
  -9  -3   5    7.18    0.53
  -9  -3   5    7.33    0.43
  -9  -3   5    7.25    0.51
   9  -3  -5    7.79    0.53
  -9  -3   5    6.52    0.51
  -9   3   5    6.42    0.49
   9   3  -5    6.44    0.41
  -9   3   5    6.55    0.53
  -9   3   5    6.96    0.53
   9   3  -5    6.84    0.56
   9   3  -5    6.64    0.55
  -9   3   5    6.83    0.54
   8  -3  -5    2.93    0.35
  -8  -3   5    3.37    0.27
  -8  -3   5    3.93    0.38
   8  -3  -5    3.47    0.36
   8  -3  -5    3.34    0.35
  -8  -3   5    3.39    0.37
  -8  -3   5    3.93    0.37
  -8  -3   5    3.84    0.36
  -8   3   5    3.33    0.37
   8   3  -5    4.57    0.43
  -8   3   5    2.99    0.35
   8   3  -5    3.79    0.28
  -8   3   5    3.34    0.35
  -8   3   5    4.10    0.36
   8   3  -5    2.88    0.42
   7  -3  -5   10.25    0.58
  -7  -3   5    9.51    0.61
   7  -3  -5   10.46    0.61
  -7  -3   5    8.51    0.55
  -7  -3   5   10.17    0.46
  -7  -3   5    9.32    0.55
   7  -3  -5   10.13    0.60
  -7  -3   5    9.98    0.59
  -7  -3   5   10.72    0.65
   7   3  -5   10.15    0.62
  -7   3   5    9.34    0.59
  -7   3   5    9.26    0.59
   7   3  -5   10.70    0.64
  -7   3   5    9.87    0.57
  -7   3   5   11.35    0.55
   7   3  -5    7.98    0.42
  -6  -3   5    3.11    0.34
  -6  -3   5    2.59    0.30
  -6  -3   5    3.02    0.29
  -6  -3   5    3.37    0.30
   6  -3  -5    3.48    0.31
  -6  -3   5    3.43    0.24
   6  -3  -5    2.97    0.31
  -6  -3   5    3.39    0.32
   6  -3  -5    3.09    0.31
   6  -3  -5    3.10    0.25
   6   3  -5    2.84    0.31
   6   3  -5    2.98    0.21
  -6   3   5    3.32    0.30
   6   3  -5    3.08    0.33
  -6   3   5    2.93    0.31
  -6   3   5    2.90    0.26
  -6   3   5    2.97    0.31
  -5  -3   5   22.96    0.77
  -5  -3   5   24.10    0.96
   5  -3  -5   24.96    0.80
   5  -3  -5   23.25    0.95
   5  -3  -5   24.87    0.91
  -5  -3   5   23.05    0.86
   5  -3  -5   23.10    0.93
  -5  -3   5   22.80    0.97
  -5  -3   5   24.09    0.98
  -5   3   5   25.82    0.81
  -5   3   5   23.50    0.95
  -5   3   5   25.04    0.91
   5   3  -5   22.07    0.94
   5   3  -5   24.36    0.98
   5   3  -5   23.53    0.76
  -5   3   5   24.47    0.96
  -4  -3   5    1.08    0.12
  -4  -3   5    0.69    0.17
   4  -3  -5    1.52    0.25
   4  -3  -5    1.45    0.24
  -4  -3   5    0.87    0.18
   4  -3  -5    1.36    0.13
  -4  -3   5    0.77    0.17
  -4  -3   5    1.23    0.19
   4  -3  -5    1.55    0.21
  -4   3   5    1.18    0.12
  -4   3   5    0.71    0.17
  -4   3   5    1.11    0.19
  -4   3   5    0.86    0.16
   4   3  -5    0.95    0.18
   4   3  -5    1.17    0.18
   4   3  -5    1.29    0.13
  -3  -3   5   30.22    1.08
  -3  -3   5   30.25    0.94
  -3  -3   5   28.75    1.04
  -3  -3   5   29.09    1.04
   3  -3  -5   28.47    0.93
   3  -3  -5   26.65    0.99
   3  -3  -5   29.01    1.02
   3  -3  -5   29.13    0.78
   3   3  -5   28.62    0.92
   3   3  -5   27.96    1.00
  -3   3   5   28.91    1.03
  -3   3   5   29.27    0.95
  -3   3   5   28.32    1.00
  -3   3   5   29.37    0.81
   3   3  -5   28.11    1.05
   3   3  -5   28.18    0.87
   2  -3  -5    0.43    0.11
   2  -3  -5    0.40    0.10
   2  -3  -5    0.39    0.10
  -2  -3   5    0.20    0.09
  -2  -3   5    0.41    0.12
  -2  -3   5    0.26    0.08
  -2   3   5    0.36    0.11
  -2   3   5    0.25    0.09
   2   3  -5    0.44    0.10
   2   3  -5    0.36    0.11
   2   3  -5    0.40    0.09
   2   3  -5    0.48    0.14
  -2   3   5    0.22    0.09
  -1  -3   5   29.58    1.05
  -1  -3   5   28.70    0.90
   1  -3  -5   29.32    0.91
   1  -3  -5   29.45    0.99
   1  -3  -5   27.89    0.93
   1   3  -5   28.33    0.88
   1   3  -5   28.94    0.93
  -1   3   5   29.97    0.92
   1   3  -5   27.68    0.92
   1   3  -5   27.09    0.90
  -1   3   5   28.43    0.91
  -1   3   5   28.48    1.00
   0  -3  -5    1.64    0.12
   0  -3   5    1.76    0.16
   0  -3  -5    1.41    0.16
   0  -3  -5    1.65    0.24
   0  -3   5    1.31    0.20
   0  -3  -5    1.47    0.15
   0  -3  -5    1.48    0.12
   0   3   5    1.70    0.17
   0   3  -5    1.85    0.16
   0   3   5    1.61    0.14
   0   3  -5    1.73    0.18
   0   3   5    1.64    0.19
   0   3  -5    1.65    0.16
   0   3  -5    1.28    0.24
   1  -3   5   12.29    0.50
  -1  -3  -5   12.02    0.50
   1  -3   5   11.65    0.60
  -1  -3  -5   11.22    0.54
  -1  -3  -5   11.02    0.46
  -1  -3  -5   11.66    0.43
  -1  -3  -5   11.39    0.45
   1  -3   5   12.08    0.56
  -1   3  -5   11.53    0.48
  -1   3  -5   10.77    0.58
  -1   3  -5   11.93    0.55
   1   3   5   11.23    0.49
   1   3   5   11.81    0.55
  -1   3  -5   11.62    0.41
   2  -3   5    9.75    0.54
  -2  -3  -5    8.76    0.43
  -2  -3  -5    9.11    0.44
  -2  -3  -5    9.25    0.48
  -2  -3  -5    8.49    0.32
   2  -3   5    9.01    0.44
  -2  -3  -5    8.90    0.42
   2  -3   5    9.13    0.47
  -2   3  -5    8.50    0.48
  -2   3  -5    8.55    0.43
  -2   3  -5    9.33    0.54
   3  -3   5    0.48    0.14
   3  -3   5    0.49    0.17
  -3  -3  -5    0.59    0.16
   3  -3   5    0.26    0.11
   3  -3   5    0.54    0.14
  -3  -3  -5    0.47    0.13
  -3  -3  -5    0.58    0.15
  -3  -3  -5    0.47    0.13
  -3  -3  -5    0.55    0.14
  -3   3  -5    0.14    0.12
  -3   3  -5    0.67    0.15
  -3   3  -5    0.49    0.14
   4  -3   5    4.90    0.35
  -4  -3  -5    4.77    0.38
  -4  -3  -5    4.80    0.37
  -4  -3  -5    4.86    0.36
   4  -3   5    4.27    0.34
  -4  -3  -5    4.62    0.34
  -4  -3  -5    4.86    0.36
  -4  -3  -5    4.93    0.38
   4  -3   5    5.38    0.43
  -4  -3  -5    4.10    0.33
   4  -3   5    5.05    0.42
  -4   3  -5    4.82    0.36
  -4   3  -5    5.11    0.44
  -4   3  -5    4.50    0.38
  -5  -3  -5    1.63    0.28
   5  -3   5    1.78    0.33
  -5  -3  -5    1.51    0.26
  -5  -3  -5    1.45    0.26
   5  -3   5    1.84    0.26
  -5  -3  -5    2.31    0.32
  -5  -3  -5    1.16    0.23
  -5  -3  -5    1.99    0.30
  -5  -3  -5    1.40    0.24
   5  -3   5    1.47    0.26
  -5   3  -5    1.80    0.31
  -5   3  -5    1.66    0.25
  -5   3  -5    2.13    0.36
  -6  -3  -5    5.96    0.47
  -6  -3  -5    5.73    0.43
  -6  -3  -5    5.91    0.49
   6  -3   5    6.79    0.55
  -6  -3  -5    6.21    0.44
  -6  -3  -5    5.26    0.43
  -6  -3  -5    5.69    0.44
   6  -3   5    6.40    0.40
  -6  -3  -5    5.39    0.42
   6  -3   5    6.20    0.47
  -6   3  -5    5.42    0.49
  -6   3  -5    6.38    0.46
  -6   3  -5    5.75    0.48
  -7  -3  -5    0.08    0.14
   7  -3   5    0.25    0.20
  -7  -3  -5    0.45    0.16
  -7  -3  -5    0.33    0.17
  -7  -3  -5    0.18    0.11
   7  -3   5    0.46    0.14
   7  -3   5    0.59    0.18
  -7  -3  -5    0.40    0.17
  -7  -3  -5    0.37    0.16
  -7  -3  -5    0.45    0.14
  -7   3  -5    0.38    0.17
  -7   3  -5    0.30    0.15
  -7   3  -5    0.12    0.14
  -7   3  -5    0.33    0.19
  -8  -3  -5    4.98    0.43
  -8  -3  -5    4.65    0.44
  -8  -3  -5    4.97    0.51
   8  -3   5    4.81    0.51
   8  -3   5    5.41    0.51
  -8  -3  -5    4.95    0.47
  -8  -3  -5    4.13    0.47
  -8  -3  -5    4.86    0.49
  -8  -3  -5    4.22    0.41
  -8   3  -5    4.43    0.42
  -8   3  -5    5.17    0.52
  -9  -3  -5    0.37    0.18
  -9  -3  -5    0.09    0.16
   9  -3   5    0.36    0.20
  -9  -3  -5    0.27    0.19
  -9  -3  -5    0.59    0.20
  -9   3  -5    0.14    0.18
  -9   3  -5    0.65    0.23
 -12  -4   5    2.31    0.43
 -12  -4   5    2.86    0.37
  12  -4  -5    1.96    0.41
 -12  -4   5    2.41    0.40
 -12   4   5    2.93    0.46
  12   4  -5    1.31    0.38
 -12   4   5    2.31    0.40
  12   4  -5    2.84    0.37
 -12   4   5    2.18    0.46
 -11  -4   5    1.88    0.27
 -11  -4   5    1.27    0.33
  11  -4  -5    1.92    0.32
 -11  -4   5    1.99    0.34
  11  -4  -5    1.57    0.32
 -11   4   5    2.02    0.41
 -11   4   5    1.63    0.38
  11   4  -5    1.52    0.35
  11   4  -5    1.99    0.27
 -11   4   5    1.50    0.33
 -11   4   5    2.35    0.43
 -10  -4   5    2.47    0.44
 -10  -4   5    2.11    0.24
  10  -4  -5    2.47    0.41
  10  -4  -5    2.31    0.36
 -10  -4   5    2.73    0.41
  10  -4  -5    2.37    0.41
  10   4  -5    2.68    0.26
 -10   4   5    2.25    0.37
 -10   4   5    2.42    0.43
  10   4  -5    2.56    0.41
 -10   4   5    2.50    0.41
  -9  -4   5    3.18    0.48
   9  -4  -5    2.94    0.45
  -9  -4   5    3.89    0.56
  -9  -4   5    2.62    0.38
  -9  -4   5    3.26    0.48
   9  -4  -5    3.67    0.39
   9  -4  -5    3.10    0.44
  -9  -4   5    3.27    0.26
  -9  -4   5    2.84    0.42
   9   4  -5    2.68    0.23
   9   4  -5    2.88    0.47
  -9   4   5    3.43    0.39
  -9   4   5    3.24    0.46
   9   4  -5    3.02    0.48
  -9   4   5    3.05    0.35
  -8  -4   5    4.03    0.40
   8  -4  -5    3.80    0.42
   8  -4  -5    3.97    0.39
  -8  -4   5    3.71    0.26
  -8  -4   5    3.78    0.38
  -8  -4   5    3.64    0.41
  -8  -4   5    3.34    0.40
   8  -4  -5    3.88    0.39
  -8  -4   5    3.83    0.37
   8   4  -5    3.59    0.25
  -8   4   5    3.89    0.41
   8   4  -5    3.81    0.41
   8   4  -5    3.29    0.39
  -8   4   5    4.02    0.39
  -8   4   5    3.74    0.40
  -8   4   5    3.53    0.33
  -7  -4   5    1.61    0.32
  -7  -4   5    1.29    0.23
  -7  -4   5    1.14    0.22
  -7  -4   5    1.36    0.26
  -7  -4   5    1.42    0.15
  -7  -4   5    1.33    0.30
   7  -4  -5    1.53    0.29
   7  -4  -5    1.39    0.30
   7  -4  -5    1.25    0.26
   7   4  -5    1.65    0.31
  -7   4   5    1.36    0.23
  -7   4   5    1.07    0.22
   7   4  -5    1.26    0.26
  -7   4   5    1.10    0.27
  -7   4   5    0.80    0.21
   7   4  -5    1.16    0.14
  -6  -4   5    2.32    0.33
   6  -4  -5    3.04    0.32
   6  -4  -5    2.30    0.32
   6  -4  -5    2.41    0.28
  -6  -4   5    1.56    0.26
  -6  -4   5    2.23    0.17
  -6  -4   5    2.37    0.38
  -6  -4   5    2.57    0.34
   6   4  -5    1.64    0.26
  -6   4   5    2.85    0.32
  -6   4   5    2.37    0.21
   6   4  -5    2.70    0.40
   6   4  -5    2.28    0.16
  -6   4   5    2.48    0.35
  -6   4   5    2.54    0.28
  -5  -4   5    0.13    0.09
  -5  -4   5    0.17    0.09
   5  -4  -5    0.08    0.11
  -5  -4   5    0.27    0.10
  -5  -4   5    0.20    0.11
   5  -4  -5    0.09    0.09
   5  -4  -5    0.53    0.16
   5   4  -5    0.38    0.09
   5   4  -5    0.13    0.10
  -5   4   5    0.13    0.10
  -5   4   5    0.33    0.09
   5   4  -5    0.40    0.16
  -5   4   5    0.20    0.09
  -5   4   5    0.29    0.12
   4  -4  -5    1.28    0.23
  -4  -4   5    1.20    0.27
  -4  -4   5    1.17    0.24
   4  -4  -5    0.70    0.15
   4  -4  -5    0.98    0.20
  -4  -4   5    1.23    0.22
  -4  -4   5    1.01    0.20
   4   4  -5    0.92    0.11
   4   4  -5    0.77    0.17
  -4   4   5    0.83    0.09
  -4   4   5    0.83    0.09
  -4   4   5    0.75    0.17
  -4   4   5    0.71    0.18
   4   4  -5    0.96    0.19
  -4   4   5    1.04    0.21
   4   4  -5    0.90    0.22
  -3  -4   5    4.74    0.37
   3  -4  -5    4.32    0.31
  -3  -4   5    4.16    0.36
  -3  -4   5    5.39    0.40
   3  -4  -5    5.05    0.36
   3  -4  -5    4.67    0.35
   3   4  -5    4.46    0.32
   3   4  -5    4.55    0.35
   3   4  -5    4.48    0.24
   3   4  -5    4.93    0.38
  -3   4   5    5.09    0.37
   3   4  -5    4.57    0.24
  -3   4   5    4.96    0.33
  -3   4   5    4.65    0.34
  -2  -4   5   14.52    0.65
  -2  -4   5   15.13    0.71
  -2  -4   5   15.20    0.61
   2  -4  -5   15.81    0.67
   2  -4  -5   14.63    0.65
   2  -4  -5   14.88    0.62
  -2   4   5   15.18    0.67
   2   4  -5   14.42    0.64
  -2   4   5   15.08    0.62
  -2   4   5   14.09    0.61
   2   4  -5   14.78    0.61
   2   4  -5   15.31    0.56
   2   4  -5   14.72    0.70
   2   4  -5   13.93    0.53
   1  -4  -5   13.76    0.61
  -1  -4   5   13.42    0.57
   1  -4  -5   13.72    0.58
  -1  -4   5   12.82    0.56
   1  -4  -5   13.83    0.59
  -1  -4   5   13.11    0.65
   1   4  -5   13.68    0.57
  -1   4   5   13.42    0.61
  -1   4   5   13.08    0.54
   1   4  -5   13.14    0.54
   1   4  -5   13.01    0.66
   1   4  -5   13.42    0.54
   1   4  -5   12.85    0.56
  -1   4   5   13.99    0.58
   0  -4   5   10.89    0.59
   0  -4   5   12.19    0.53
   0  -4  -5   11.40    0.54
   0  -4  -5   11.58    0.52
   0  -4  -5   10.88    0.49
   0   4  -5   11.31    0.51
   0   4  -5   11.48    0.48
   0   4  -5   11.73    0.61
   0   4   5   12.00    0.54
   0   4   5   12.33    0.57
   0   4   5   11.58    0.45
   0   4  -5   12.68    0.54
   1  -4   5   10.46    0.50
  -1  -4  -5   10.59    0.45
   1  -4   5    9.67    0.53
  -1  -4  -5   11.03    0.53
  -1  -4  -5   10.92    0.52
  -1  -4  -5   11.00    0.41
  -1  -4  -5   10.37    0.41
   1  -4   5   10.87    0.59
   1   4   5   10.37    0.50
   1   4   5    9.75    0.50
  -1   4  -5   10.42    0.41
  -1   4  -5   10.08    0.49
  -1   4  -5   10.99    0.53
  -1   4  -5    9.91    0.57
   2  -4   5   12.51    0.62
   2  -4   5   13.32    0.64
  -2  -4  -5   12.53    0.51
   2  -4   5   11.77    0.57
  -2  -4  -5   11.87    0.56
  -2  -4  -5   12.33    0.58
  -2  -4  -5   11.50    0.51
  -2  -4  -5   12.02    0.45
   2  -4   5   12.59    0.67
  -2   4  -5   12.43    0.57
  -2   4  -5   12.35    0.61
  -2   4  -5   11.90    0.65
   2   4   5   12.63    0.60
  -3  -4  -5    5.60    0.24
   3  -4   5    5.98    0.44
  -3  -4  -5    5.93    0.39
   3  -4   5    6.39    0.47
  -3  -4  -5    5.63    0.37
  -3  -4  -5    4.53    0.34
  -3  -4  -5    5.53    0.38
  -3  -4  -5    5.65    0.35
   3  -4   5    4.78    0.36
   3  -4   5    6.03    0.42
  -3   4  -5    5.75    0.46
  -3   4  -5    5.34    0.38
  -3   4  -5    5.17    0.40
   4  -4   5   11.32    0.67
  -4  -4  -5   11.13    0.63
  -4  -4  -5   10.72    0.58
   4  -4   5   12.18    0.70
  -4  -4  -5   10.33    0.57
  -4  -4  -5   10.85    0.56
   4  -4   5   12.05    0.63
  -4  -4  -5    8.62    0.51
  -4  -4  -5   10.91    0.56
   4  -4   5   11.33    0.61
  -4   4  -5   11.14    0.59
  -4   4  -5   11.68    0.64
  -4   4  -5   10.23    0.65
  -5  -4  -5    4.27    0.37
  -5  -4  -5    4.60    0.40
  -5  -4  -5    4.35    0.36
   5  -4   5    3.35    0.38
   5  -4   5    4.27    0.37
  -5  -4  -5    4.20    0.39
  -5  -4  -5    4.11    0.36
  -5  -4  -5    4.25    0.35
  -5  -4  -5    4.24    0.38
   5  -4   5    3.73    0.33
  -5   4  -5    4.16    0.37
  -5   4  -5    4.25    0.40
  -5   4  -5    4.03    0.41
   6  -4   5    3.38    0.39
  -6  -4  -5    3.15    0.32
  -6  -4  -5    3.44    0.36
   6  -4   5    3.23    0.36
  -6  -4  -5    2.96    0.31
  -6  -4  -5    3.42    0.37
  -6  -4  -5    3.20    0.35
  -6  -4  -5    3.50    0.37
  -6  -4  -5    3.39    0.36
   6  -4   5    3.03    0.31
  -6   4  -5    3.30    0.39
  -6   4  -5    3.16    0.35
  -6   4  -5    3.15    0.36
  -7  -4  -5    1.13    0.24
  -7  -4  -5    0.74    0.21
   7  -4   5    1.25    0.28
  -7  -4  -5    0.99    0.26
   7  -4   5    1.35    0.32
  -7  -4  -5    0.98    0.26
  -7  -4  -5    0.95    0.21
  -7  -4  -5    1.37    0.34
  -7   4  -5    1.49    0.33
  -7   4  -5    0.78    0.25
  -8  -4  -5    0.04    0.12
  -8  -4  -5    0.03    0.12
  -8  -4  -5   -0.02    0.13
  -8  -4  -5    0.15    0.15
  -8  -4  -5    0.00    0.16
  -8  -4  -5   -0.02    0.12
   8  -4   5    0.02    0.14
  -8   4  -5    0.02    0.15
  -8   4  -5    0.20    0.15
  -9  -4  -5    0.47    0.21
  -9  -4  -5    0.65    0.20
  -9  -4  -5    0.24    0.16
  -9  -4  -5    0.21    0.19
   9  -4   5    0.48    0.22
  -9  -4  -5    0.13    0.16
  -9   4  -5    0.08    0.21
  -9   4  -5    0.38    0.22
  11  -5  -5   -0.07    0.13
 -11  -5   5    0.09    0.20
  11  -5  -5   -0.03    0.21
 -11  -5   5    0.09    0.14
 -11  -5   5    0.12    0.15
 -11   5   5    0.15    0.23
 -11   5   5   -0.18    0.15
  11   5  -5    0.08    0.18
 -11   5   5   -0.04    0.19
 -11   5   5   -0.15    0.19
 -10  -5   5    2.76    0.41
 -10  -5   5    2.79    0.21
  10  -5  -5    2.94    0.43
  10  -5  -5    2.66    0.45
 -10  -5   5    2.60    0.41
 -10  -5   5    3.05    0.51
  10   5  -5    2.21    0.21
 -10   5   5    2.07    0.38
 -10   5   5    2.34    0.39
 -10   5   5    2.41    0.39
  10   5  -5    2.11    0.42
 -10   5   5    2.89    0.41
  -9  -5   5    1.06    0.25
   9  -5  -5    1.03    0.27
   9  -5  -5    1.28    0.31
  -9  -5   5    1.48    0.35
  -9  -5   5    1.23    0.29
  -9  -5   5    1.33    0.27
   9  -5  -5    1.39    0.34
  -9   5   5    1.34    0.27
  -9   5   5    0.87    0.24
  -9   5   5    1.34    0.27
  -9   5   5    1.09    0.30
   9   5  -5    1.18    0.29
   8  -5  -5    8.13    0.60
   8  -5  -5    9.07    0.63
   8  -5  -5    8.34    0.60
  -8  -5   5    8.21    0.63
  -8  -5   5    8.20    0.58
  -8  -5   5    7.33    0.54
  -8  -5   5    8.19    0.63
  -8  -5   5    8.71    0.58
   8   5  -5    8.09    0.62
   8   5  -5    7.96    0.63
  -8   5   5    8.58    0.60
  -8   5   5    9.36    0.52
  -8   5   5    8.30    0.61
  -8   5   5    7.42    0.59
  -8   5   5    8.56    0.51
   7  -5  -5    5.21    0.45
  -7  -5   5    4.93    0.47
   7  -5  -5    5.00    0.44
  -7  -5   5    5.20    0.43
  -7  -5   5    5.64    0.52
  -7  -5   5    5.08    0.43
   7  -5  -5    5.20    0.48
   7   5  -5    5.17    0.48
  -7   5   5    5.35    0.48
  -7   5   5    4.71    0.44
   7   5  -5    6.35    0.50
  -7   5   5    5.20    0.35
  -7   5   5    5.31    0.35
  -7   5   5    5.21    0.45
  -6  -5   5   19.27    0.88
   6  -5  -5   18.00    0.88
  -6  -5   5   19.82    0.91
  -6  -5   5   18.73    0.95
   6  -5  -5   19.46    0.89
  -6  -5   5   19.12    0.95
   6  -5  -5   18.95    0.93
  -6   5   5   18.93    0.92
  -6   5   5   19.58    0.92
  -6   5   5   19.31    0.70
   6   5  -5   19.05    0.93
  -6   5   5   21.06    0.91
  -6   5   5   20.45    0.71
   6   5  -5   20.06    0.94
  -5  -5   5    2.56    0.29
  -5  -5   5    2.99    0.32
   5  -5  -5    3.17    0.33
   5  -5  -5    3.05    0.31
  -5  -5   5    2.77    0.33
   5  -5  -5    2.68    0.31
  -5  -5   5    2.88    0.41
  -5   5   5    2.58    0.31
  -5   5   5    2.52    0.18
  -5   5   5    3.05    0.31
   5   5  -5    3.41    0.36
  -5   5   5    2.55    0.18
  -5   5   5    2.20    0.33
   5   5  -5    3.03    0.34
  -4  -5   5   33.62    1.28
  -4  -5   5   32.20    1.26
  -4  -5   5   33.99    1.19
   4  -5  -5   34.73    1.24
   4  -5  -5   34.59    1.27
  -4  -5   5   33.70    1.27
   4  -5  -5   32.34    1.19
   4   5  -5   33.61    1.20
  -4   5   5   34.59    1.24
  -4   5   5   32.52    1.22
  -4   5   5   32.94    1.19
   4   5  -5   33.35    1.27
   4   5  -5   30.97    1.23
  -3  -5   5    3.18    0.33
   3  -5  -5    3.63    0.32
  -3  -5   5    3.58    0.34
   3  -5  -5    3.71    0.34
  -3  -5   5    3.55    0.33
   3  -5  -5    3.80    0.32
  -3  -5   5    3.72    0.31
  -3   5   5    3.75    0.33
   3   5  -5    3.63    0.33
  -3   5   5    3.93    0.32
   3   5  -5    3.53    0.20
   3   5  -5    3.65    0.31
   3   5  -5    3.36    0.20
  -3   5   5    4.24    0.34
   3   5  -5    3.82    0.36
  -2  -5   5   15.41    0.75
   2  -5  -5   15.28    0.71
  -2  -5   5   15.21    0.67
   2  -5  -5   13.94    0.67
  -2  -5   5   15.90    0.71
   2  -5  -5   16.08    0.71
   2   5  -5   15.82    0.56
   2   5  -5   16.66    0.70
   2   5  -5   15.23    0.55
  -2   5   5   15.45    0.69
   2   5  -5   14.43    0.68
  -2   5   5   13.33    0.66
   2   5  -5   15.55    0.76
  -2   5   5   16.21    0.68
   1  -5  -5    4.25    0.34
  -1  -5   5    3.77    0.30
  -1  -5   5    3.91    0.31
  -1  -5   5    3.77    0.35
   1  -5  -5    4.19    0.32
   1  -5  -5    3.92    0.32
   1   5  -5    4.16    0.32
   1   5  -5    3.66    0.26
   1   5  -5    4.48    0.39
  -1   5   5    3.54    0.28
   1   5  -5    3.90    0.27
  -1   5   5    4.35    0.33
   1   5  -5    3.78    0.30
  -1   5   5    4.14    0.33
   0  -5   5    8.73    0.53
   0  -5   5    6.98    0.40
   0  -5  -5    7.57    0.43
   0  -5  -5    7.02    0.41
   0  -5   5    7.62    0.46
   0  -5  -5    6.12    0.41
   0   5   5    8.00    0.47
   0   5  -5    7.00    0.42
   0   5  -5    7.42    0.40
   0   5  -5    7.31    0.49
   0   5   5    7.37    0.44
   1  -5   5    1.77    0.26
   1  -5   5    2.19    0.19
  -1  -5  -5    2.47    0.26
  -1  -5  -5    2.32    0.22
  -1  -5  -5    1.88    0.22
   1  -5   5    2.25    0.32
  -1  -5  -5    2.33    0.17
   1  -5   5    2.16    0.35
  -1  -5  -5    2.30    0.16
  -1   5  -5    2.14    0.24
  -1   5  -5    2.50    0.26
   1   5   5    2.22    0.26
   1   5   5    1.99    0.22
  -1   5  -5    2.46    0.29
   2  -5   5    3.99    0.36
  -2  -5  -5    4.33    0.35
  -2  -5  -5    3.74    0.30
   2  -5   5    4.05    0.36
   2  -5   5    4.33    0.40
  -2  -5  -5    4.17    0.26
  -2  -5  -5    3.69    0.26
   2  -5   5    4.51    0.36
  -2  -5  -5    3.66    0.26
  -2   5  -5    4.10    0.34
  -2   5  -5    3.75    0.33
  -2   5  -5    3.83    0.38
   2   5   5    4.07    0.35
   3  -5   5    8.17    0.54
  -3  -5  -5    6.63    0.34
   3  -5   5    7.53    0.49
  -3  -5  -5    6.38    0.41
   3  -5   5    7.67    0.52
  -3  -5  -5    6.88    0.42
  -3  -5  -5    6.78    0.41
  -3  -5  -5    6.37    0.45
   3  -5   5    7.98    0.56
  -3  -5  -5    7.39    0.40
  -3   5  -5    7.28    0.53
  -3   5  -5    7.41    0.47
  -3   5  -5    7.05    0.49
   4  -5   5    1.02    0.22
  -4  -5  -5    1.11    0.22
  -4  -5  -5    0.91    0.18
  -4  -5  -5    1.32    0.24
  -4  -5  -5    1.28    0.27
   4  -5   5    0.79    0.23
  -4  -5  -5    1.12    0.21
   4  -5   5    1.49    0.31
   4  -5   5    1.03    0.20
  -4  -5  -5    1.35    0.23
  -4  -5  -5    1.22    0.14
  -4   5  -5    1.10    0.26
  -4   5  -5    1.01    0.22
  -4   5  -5    1.71    0.30
  -5  -5  -5    6.01    0.41
  -5  -5  -5    6.45    0.48
   5  -5   5    6.95    0.49
  -5  -5  -5    6.75    0.52
  -5  -5  -5    6.14    0.45
   5  -5   5    5.80    0.47
   5  -5   5    6.32    0.53
  -5  -5  -5    6.53    0.48
  -5  -5  -5    6.92    0.45
  -5   5  -5    6.58    0.54
  -5   5  -5    6.76    0.53
  -5   5  -5    6.43    0.49
  -6  -5  -5    3.01    0.35
   6  -5   5    2.24    0.35
  -6  -5  -5    3.45    0.46
  -6  -5  -5    2.09    0.32
  -6  -5  -5    1.92    0.34
  -6  -5  -5    2.82    0.30
   6  -5   5    2.49    0.41
   6  -5   5    2.82    0.39
  -6  -5  -5    3.20    0.33
  -6  -5  -5    2.51    0.39
  -6   5  -5    2.20    0.38
  -6   5  -5    2.72    0.39
  -6   5  -5    2.40    0.36
   7  -5   5    6.32    0.56
  -7  -5  -5    6.32    0.53
  -7  -5  -5    7.06    0.54
  -7  -5  -5    5.85    0.52
  -7  -5  -5    5.57    0.43
  -7  -5  -5    5.75    0.51
  -7  -5  -5    6.31    0.46
   7  -5   5    6.64    0.60
  -7  -5  -5    5.33    0.53
  -7   5  -5    6.68    0.60
  -7   5  -5    7.89    0.57
   8  -5   5    0.89    0.27
  -8  -5  -5    0.98    0.23
  -8  -5  -5    1.17    0.25
  -8  -5  -5    1.03    0.26
  -8  -5  -5    1.20    0.31
  -8  -5  -5    1.67    0.35
  -8   5  -5    1.08    0.26
  -8   5  -5    1.49    0.35
  10  -6  -5    2.82    0.49
 -10  -6   5    3.01    0.45
 -10  -6   5    3.37    0.47
 -10  -6   5    3.85    0.60
 -10   6   5    4.46    0.63
 -10   6   5    3.47    0.41
 -10   6   5    3.38    0.54
  10   6  -5    2.88    0.46
 -10   6   5    3.11    0.38
  -9  -6   5    3.36    0.49
  -9  -6   5    3.12    0.50
   9  -6  -5    4.24    0.47
  -9  -6   5    2.56    0.39
   9  -6  -5    3.75    0.53
  -9   6   5    3.17    0.34
   9   6  -5    4.18    0.46
  -9   6   5    3.08    0.44
  -9   6   5    3.04    0.47
  -9   6   5    3.35    0.35
  -8  -6   5    1.71    0.38
  -8  -6   5    1.65    0.32
   8  -6  -5    1.29    0.29
   8  -6  -5    1.60    0.29
   8  -6  -5    2.51    0.44
  -8  -6   5    1.86    0.33
  -8  -6   5    1.86    0.40
  -8   6   5    2.05    0.28
  -8   6   5    1.97    0.27
  -8   6   5    2.40    0.42
  -8   6   5    1.60    0.34
   8   6  -5    1.88    0.36
  -7  -6   5    3.91    0.55
  -7  -6   5    3.30    0.43
   7  -6  -5    4.02    0.43
  -7  -6   5    3.83    0.40
  -7  -6   5    3.51    0.41
   7  -6  -5    4.01    0.41
   7  -6  -5    2.99    0.45
   7   6  -5    4.26    0.43
  -7   6   5    3.98    0.29
  -7   6   5    4.10    0.43
  -7   6   5    4.12    0.42
  -7   6   5    3.82    0.28
   7   6  -5    3.18    0.45
  -7   6   5    3.59    0.41
  -6  -6   5    0.11    0.14
   6  -6  -5    0.01    0.11
  -6  -6   5    0.05    0.12
   6  -6  -5    0.13    0.17
  -6  -6   5    0.28    0.15
  -6  -6   5    0.21    0.16
   6  -6  -5    0.21    0.14
  -6   6   5    0.20    0.09
  -6   6   5    0.11    0.12
  -6   6   5    0.12    0.11
  -6   6   5    0.12    0.07
   6   6  -5    0.16    0.14
  -6   6   5    0.27    0.15
   6   6  -5   -0.04    0.12
   5  -6  -5   -0.02    0.07
  -5  -6   5    0.02    0.09
   5  -6  -5    0.03    0.12
  -5  -6   5    0.09    0.11
  -5  -6   5   -0.02    0.07
   5  -6  -5   -0.01    0.09
  -5  -6   5   -0.08    0.09
  -5   6   5    0.10    0.11
  -5   6   5   -0.01    0.09
   5   6  -5    0.14    0.12
  -5   6   5    0.02    0.08
   5   6  -5   -0.08    0.10
   5   6  -5    0.04    0.09
   4  -6  -5    1.55    0.29
   4  -6  -5    1.82    0.28
  -4  -6   5    1.50    0.25
  -4  -6   5    2.77    0.32
   4  -6  -5    2.40    0.28
  -4  -6   5    3.04    0.44
  -4  -6   5    2.12    0.34
  -4   6   5    2.15    0.33
   4   6  -5    1.58    0.27
  -4   6   5    2.53    0.36
   4   6  -5    1.43    0.26
   4   6  -5    1.75    0.28
  -4   6   5    2.38    0.35
  -3  -6   5    4.89    0.42
  -3  -6   5    5.29    0.40
   3  -6  -5    4.97    0.40
   3  -6  -5    4.43    0.40
   3  -6  -5    4.78    0.38
  -3  -6   5    4.63    0.42
   3   6  -5    4.87    0.41
   3   6  -5    5.05    0.40
  -3   6   5    4.59    0.39
  -3   6   5    5.13    0.40
   3   6  -5    4.78    0.43
  -3   6   5    4.65    0.38
  -2  -6   5    3.35    0.36
   2  -6  -5    3.96    0.36
  -2  -6   5    3.64    0.33
   2  -6  -5    4.16    0.34
   2  -6  -5    4.21    0.38
  -2  -6   5    4.21    0.37
  -2   6   5    3.50    0.33
  -2   6   5    3.47    0.33
   2   6  -5    3.67    0.23
   2   6  -5    4.07    0.35
   2   6  -5    3.76    0.36
   2   6  -5    4.03    0.24
   2   6  -5    4.39    0.36
  -2   6   5    3.46    0.32
  -1  -6   5    7.53    0.49
  -1  -6   5    9.14    0.58
   1  -6  -5    8.39    0.53
   1  -6  -5    8.66    0.49
   1  -6  -5    8.80    0.53
  -1  -6   5    8.43    0.50
  -1   6   5    9.22    0.53
   1   6  -5    8.36    0.42
  -1   6   5    7.93    0.48
   1   6  -5    8.41    0.55
   1   6  -5    9.02    0.52
   1   6  -5    8.39    0.41
   0  -6  -5   16.58    0.77
   0  -6   5   16.09    0.77
   0  -6   5   16.86    0.84
   0  -6   5   15.78    0.68
   0  -6   5   16.20    0.82
   0  -6  -5   15.52    0.72
   0  -6  -5   16.52    0.71
   0   6   5   16.37    0.77
   0   6  -5   15.74    0.66
   0   6  -5   15.84    0.81
   0   6  -5   15.24    0.73
   0   6   5   16.74    0.72
   1  -6   5   15.29    0.80
  -1  -6  -5   15.17    0.68
   1  -6   5   16.86    0.78
  -1  -6  -5   16.62    0.70
   1  -6   5   16.49    0.82
  -1  -6  -5   15.80    0.75
   1  -6   5   16.04    0.64
  -1   6  -5   14.14    0.68
   1   6   5   15.57    0.70
  -1   6  -5   16.15    0.76
   1   6   5   16.42    0.78
  -1   6  -5   15.92    0.81
  -2  -6  -5   10.28    0.51
  -2  -6  -5   11.39    0.55
  -2  -6  -5   10.67    0.44
   2  -6   5   10.84    0.60
  -2  -6  -5   10.02    0.59
   2  -6   5   10.27    0.63
   2  -6   5    9.84    0.62
   2  -6   5   10.63    0.61
  -2  -6  -5    9.60    0.44
  -2   6  -5   10.67    0.65
  -2   6  -5    9.82    0.59
  -2   6  -5   10.61    0.58
   2   6   5   10.46    0.62
   3  -6   5   11.14    0.65
  -3  -6  -5   11.65    0.55
  -3  -6  -5   10.77    0.55
   3  -6   5   11.60    0.67
  -3  -6  -5   11.02    0.71
  -3  -6  -5   11.22    0.52
  -3  -6  -5   11.48    0.55
   3  -6   5   10.24    0.65
  -3  -6  -5   11.57    0.66
  -3  -6  -5   11.64    0.52
   3  -6   5   12.50    0.71
  -3   6  -5   11.12    0.69
  -3   6  -5   11.98    0.66
   3   6   5   10.01    0.63
  -3   6  -5   11.22    0.64
  -4  -6  -5    3.47    0.36
  -4  -6  -5    3.21    0.32
  -4  -6  -5    3.39    0.39
  -4  -6  -5    2.89    0.28
   4  -6   5    3.55    0.47
   4  -6   5    3.30    0.39
  -4  -6  -5    3.36    0.30
  -4  -6  -5    3.35    0.24
   4  -6   5    3.38    0.37
   4  -6   5    2.77    0.43
  -4   6  -5    3.48    0.39
  -4   6  -5    3.44    0.37
  -4   6  -5    3.07    0.35
  -5  -6  -5    6.01    0.49
  -5  -6  -5    5.89    0.53
  -5  -6  -5    5.27    0.28
   5  -6   5    5.80    0.50
  -5  -6  -5    6.62    0.41
   5  -6   5    6.76    0.54
  -5  -6  -5    6.30    0.47
  -5  -6  -5    5.76    0.41
  -5  -6  -5    6.11    0.45
   5  -6   5    6.70    0.56
  -5   6  -5    6.15    0.51
  -5   6  -5    6.16    0.50
  -5   6  -5    6.13    0.55
   6  -6   5    1.33    0.31
  -6  -6  -5    1.28    0.33
  -6  -6  -5    1.67    0.32
  -6  -6  -5    1.64    0.26
  -6  -6  -5    1.71    0.27
   6  -6   5    1.71    0.35
  -6  -6  -5    1.16    0.26
  -6  -6  -5    1.62    0.30
  -6   6  -5    1.67    0.35
  -6   6  -5    1.49    0.32
  -7  -6  -5    0.50    0.22
  -7  -6  -5    0.74    0.19
   7  -6   5    0.19    0.18
  -7  -6  -5    0.84    0.26
  -7  -6  -5    0.33    0.17
  -7  -6  -5    0.51    0.24
  -7  -6  -5    0.57    0.19
  -7   6  -5    0.82    0.28
  -7   6  -5    0.51    0.20
   8  -6   5    0.03    0.16
  -8  -6  -5    0.36    0.18
  -8  -6  -5    0.07    0.13
  -8  -6  -5    0.28    0.20
  -8  -6  -5    0.33    0.19
  -8  -6  -5   -0.11    0.16
  -8   6  -5   -0.03    0.17
  -9  -7   5    1.93    0.38
   9  -7  -5    2.53    0.47
   9  -7  -5    1.87    0.41
  -9  -7   5    2.09    0.39
  -9  -7   5    2.79    0.44
   9   7  -5    2.90    0.46
  -9   7   5    2.72    0.32
  -9   7   5    2.77    0.34
  -9   7   5    2.57    0.41
  -9   7   5    2.74    0.47
   8  -7  -5    1.93    0.40
  -8  -7   5    2.99    0.54
   8  -7  -5    2.52    0.39
  -8  -7   5    2.56    0.41
  -8   7   5    2.81    0.29
  -8   7   5    2.40    0.39
  -8   7   5    3.10    0.28
  -8   7   5    2.04    0.38
   8   7  -5    2.15    0.39
  -7  -7   5    8.91    0.82
   7  -7  -5    7.64    0.65
  -7  -7   5    8.56    0.63
  -7  -7   5    8.65    0.78
   7  -7  -5    8.89    0.64
  -7  -7   5    7.75    0.67
  -7   7   5    8.82    0.41
  -7   7   5    8.64    0.41
  -7   7   5    9.43    0.66
   7   7  -5    8.20    0.63
  -7   7   5    8.63    0.66
   6  -7  -5    3.26    0.44
  -6  -7   5    2.18    0.36
  -6  -7   5    2.34    0.39
  -6  -7   5    2.83    0.43
  -6  -7   5    2.06    0.36
   6  -7  -5    3.30    0.47
   6  -7  -5    3.45    0.39
   6   7  -5    2.74    0.45
  -6   7   5    1.90    0.35
   6   7  -5    2.75    0.46
  -6   7   5    3.04    0.48
  -6   7   5    2.50    0.41
  -5  -7   5   21.72    1.05
   5  -7  -5   20.61    1.01
   5  -7  -5   22.43    1.08
  -5  -7   5   22.96    1.10
   5  -7  -5   21.40    0.99
  -5  -7   5   19.19    0.99
  -5  -7   5   20.33    0.98
  -5   7   5   20.72    0.99
  -5   7   5   20.44    0.98
  -5   7   5   21.76    1.01
   5   7  -5   22.30    1.04
   5   7  -5   21.71    1.05
   5   7  -5   21.53    1.04
  -4  -7   5    4.40    0.43
   4  -7  -5    4.60    0.40
  -4  -7   5    4.26    0.41
  -4  -7   5    4.02    0.42
   4  -7  -5    4.19    0.40
   4  -7  -5    4.55    0.45
  -4  -7   5    4.32    0.44
  -4   7   5    3.17    0.36
   4   7  -5    3.69    0.38
  -4   7   5    3.57    0.37
   4   7  -5    3.79    0.41
  -4   7   5    3.87    0.39
   3  -7  -5   16.23    0.86
  -3  -7   5   17.38    0.85
   3  -7  -5   16.62    0.83
  -3  -7   5   17.66    0.89
  -3  -7   5   17.91    0.90
   3  -7  -5   16.32    0.79
   3   7  -5   16.80    0.84
   3   7  -5   17.69    0.88
  -3   7   5   17.37    0.88
  -3   7   5   16.73    0.82
  -3   7   5   17.56    0.85
  -2  -7   5    6.07    0.47
  -2  -7   5    6.36    0.49
   2  -7  -5    6.02    0.43
   2  -7  -5    6.25    0.50
   2  -7  -5    5.84    0.47
  -2  -7   5    6.71    0.53
   2   7  -5    6.37    0.50
   2   7  -5    6.58    0.30
   2   7  -5    6.20    0.47
  -2   7   5    6.02    0.45
  -2   7   5    6.38    0.49
   2   7  -5    5.96    0.28
  -1  -7   5    2.19    0.35
   1  -7  -5    2.19    0.34
  -1  -7   5    2.46    0.39
   1  -7  -5    2.38    0.39
  -1  -7   5    2.24    0.36
  -1  -7   5    2.55    0.37
   1  -7  -5    2.41    0.28
   1   7  -5    2.52    0.37
   1   7  -5    2.13    0.20
   1   7  -5    2.11    0.21
  -1   7   5    2.74    0.36
   1   7  -5    1.91    0.33
  -1   7   5    2.58    0.28
   0  -7   5    0.40    0.19
   0  -7   5   -0.04    0.10
   0  -7   5   -0.01    0.14
   0  -7   5    0.17    0.12
   0  -7  -5    0.09    0.12
   0  -7  -5    0.37    0.14
   0  -7  -5    0.17    0.13
   0   7   5   -0.03    0.11
   0   7   5    0.09    0.11
   0   7  -5    0.14    0.12
   0   7  -5    0.39    0.12
   0   7  -5    0.11    0.11
   1  -7   5    2.99    0.36
   1  -7   5    3.38    0.37
  -1  -7  -5    2.74    0.27
  -1  -7  -5    2.74    0.31
   1  -7   5    2.72    0.37
  -1  -7  -5    3.28    0.36
   1  -7   5    2.84    0.26
  -1   7  -5    3.02    0.30
   1   7   5    3.12    0.30
  -1   7  -5    2.46    0.36
   1   7   5    2.37    0.33
  -1   7  -5    2.95    0.33
  -2  -7  -5    3.00    0.29
  -2  -7  -5    2.93    0.21
   2  -7   5    2.63    0.39
  -2  -7  -5    2.49    0.35
  -2  -7  -5    2.25    0.39
  -2  -7  -5    2.54    0.25
   2  -7   5    2.89    0.35
   2  -7   5    2.99    0.42
   2  -7   5    3.29    0.34
  -2  -7  -5    2.65    0.21
   2  -7   5    2.33    0.22
  -2   7  -5    2.56    0.39
  -2   7  -5    2.49    0.30
   2   7   5    2.98    0.41
  -2   7  -5    2.24    0.33
  -3  -7  -5    0.50    0.16
   3  -7   5    0.77    0.26
  -3  -7  -5    0.55    0.15
   3  -7   5    0.53    0.19
  -3  -7  -5    0.33    0.14
  -3  -7  -5    0.61    0.15
   3  -7   5    0.43    0.19
  -3  -7  -5    0.47    0.17
  -3  -7  -5    0.66    0.16
   3  -7   5    0.41    0.20
  -3  -7  -5    0.26    0.19
  -3   7  -5    0.57    0.20
   3   7   5    0.69    0.20
  -3   7  -5    0.57    0.23
  -3   7  -5    0.32    0.17
  -4  -7  -5    4.65    0.35
   4  -7   5    5.55    0.51
  -4  -7  -5    4.55    0.49
   4  -7   5    5.58    0.50
  -4  -7  -5    4.35    0.37
  -4  -7  -5    5.39    0.36
  -4  -7  -5    4.85    0.35
  -4  -7  -5    4.83    0.34
   4  -7   5    5.66    0.51
  -4  -7  -5    4.61    0.44
   4  -7   5    4.88    0.50
  -4   7  -5    3.80    0.41
  -4   7  -5    4.64    0.48
  -4   7  -5    5.03    0.46
   5  -7   5    1.97    0.47
  -5  -7  -5    2.39    0.27
  -5  -7  -5    2.27    0.26
  -5  -7  -5    2.26    0.24
  -5  -7  -5    2.74    0.39
   5  -7   5    3.41    0.50
  -5  -7  -5    3.30    0.53
  -5  -7  -5    2.66    0.37
  -5   7  -5    2.17    0.36
  -5   7  -5    2.66    0.45
  -5   7  -5    2.26    0.44
  -6  -7  -5    4.83    0.44
  -6  -7  -5    4.93    0.29
  -6  -7  -5    5.67    0.58
   6  -7   5    4.64    0.47
  -6  -7  -5    5.49    0.48
  -6  -7  -5    5.06    0.37
  -6  -7  -5    5.30    0.30
  -6  -7  -5    6.88    0.42
  -6   7  -5    5.57    0.57
  -6   7  -5    5.89    0.54
  -7  -7  -5    3.56    0.56
  -7  -7  -5    2.81    0.46
  -7  -7  -5    2.73    0.40
  -7  -7  -5    3.36    0.33
   7  -7   5    3.10    0.46
  -7  -7  -5    3.56    0.32
  -7  -7  -5    2.59    0.41
  -7   7  -5    2.92    0.50
  -7   7  -5    2.26    0.38
   8  -8  -5    2.16    0.37
   8  -8  -5    3.07    0.44
  -8  -8   5    2.06    0.41
  -8  -8   5    3.03    0.47
  -8   8   5    2.65    0.47
   8   8  -5    2.53    0.43
  -8   8   5    2.72    0.26
  -8   8   5    2.98    0.48
   7  -8  -5    0.12    0.24
  -7  -8   5    0.38    0.20
   7  -8  -5    0.21    0.16
  -7  -8   5    0.07    0.17
  -7   8   5    0.17    0.16
   7   8  -5    0.27    0.20
  -7   8   5    0.00    0.18
   6  -8  -5    0.21    0.14
  -6  -8   5    0.66    0.23
  -6  -8   5    0.34    0.19
   6  -8  -5    0.65    0.26
  -6   8   5   -0.11    0.18
  -6   8   5    0.21    0.13
   6   8  -5    0.19    0.16
   5  -8  -5    0.54    0.20
   5  -8  -5    0.54    0.23
  -5  -8   5    0.60    0.22
  -5  -8   5    0.25    0.17
  -5  -8   5    0.56    0.27
   5   8  -5    0.37    0.19
  -5   8   5    0.65    0.22
   5   8  -5    0.07    0.13
  -5   8   5    0.48    0.23
  -5   8   5   -0.01    0.14
  -4  -8   5    0.61    0.22
   4  -8  -5    0.73    0.24
  -4  -8   5    0.22    0.20
   4  -8  -5    0.56    0.20
  -4  -8   5    0.41    0.20
   4  -8  -5    0.59    0.23
  -4   8   5    0.44    0.21
   4   8  -5    0.87    0.24
  -4   8   5    0.22    0.17
   4   8  -5    0.32    0.16
  -4   8   5    0.36    0.14
  -3  -8   5    0.39    0.21
   3  -8  -5    0.54    0.19
  -3  -8   5    0.55    0.22
   3  -8  -5    0.39    0.15
  -3  -8   5    0.54    0.20
   3  -8  -5    0.62    0.17
   3   8  -5    1.09    0.31
  -3   8   5    0.77    0.26
   3   8  -5    0.34    0.19
  -3   8   5    0.71    0.23
  -2  -8   5    3.78    0.44
  -2  -8   5    3.23    0.38
  -2  -8   5    4.24    0.47
   2  -8  -5    2.90    0.41
  -2  -8   5    4.01    0.43
   2  -8  -5    3.62    0.34
   2  -8  -5    3.49    0.47
   2   8  -5    3.95    0.43
  -2   8   5    4.48    0.44
  -2   8   5    4.08    0.40
   2   8  -5    2.78    0.38
  -1  -8   5    4.23    0.45
   1  -8  -5    5.05    0.38
   1  -8  -5    4.74    0.47
  -1  -8   5    4.63    0.41
  -1  -8   5    4.87    0.49
  -1  -8   5    4.55    0.47
   1  -8  -5    3.95    0.42
   1   8  -5    4.91    0.49
   1   8  -5    4.59    0.45
  -1   8   5    5.03    0.41
  -1   8   5    5.18    0.48
   1   8  -5    4.75    0.29
   1   8  -5    4.25    0.28
   0  -8  -5    7.59    0.56
   0  -8  -5    7.54    0.45
   0  -8   5    7.41    0.50
   0  -8  -5    6.35    0.54
   0  -8   5    6.12    0.55
   0  -8   5    7.17    0.57
   0  -8   5    6.20    0.54
   0   8  -5    6.87    0.54
   0   8   5    6.04    0.51
   0   8  -5    7.69    0.59
   0   8   5    7.21    0.46
   0   8  -5    7.41    0.42
   1  -8   5   10.30    0.55
  -1  -8  -5   10.42    0.56
   1  -8   5   11.43    0.75
   1  -8   5   11.19    0.71
   1  -8   5   10.01    0.67
  -1  -8  -5   11.17    0.69
  -1  -8  -5   11.30    0.66
  -1   8  -5   10.59    0.57
   1   8   5    9.63    0.55
  -1   8  -5   10.63    0.70
  -1   8  -5   11.17    0.69
   1   8   5   10.84    0.69
   2  -8   5   11.38    0.75
   2  -8   5   11.17    0.54
   2  -8   5   10.57    0.70
  -2  -8  -5   10.18    0.61
  -2  -8  -5    9.56    0.50
  -2  -8  -5   10.07    0.65
  -2  -8  -5   10.50    0.76
   2  -8   5   11.03    0.73
  -2   8  -5    9.78    0.58
   2   8   5   10.02    0.70
  -2   8  -5   10.81    0.68
  -2   8  -5   10.83    0.72
   3  -8   5    4.64    0.43
  -3  -8  -5    5.03    0.31
  -3  -8  -5    3.93    0.32
  -3  -8  -5    4.60    0.39
  -3  -8  -5    4.14    0.30
  -3  -8  -5    3.73    0.32
   3  -8   5    4.23    0.48
  -3  -8  -5    4.28    0.60
   3  -8   5    4.89    0.56
   3  -8   5    3.86    0.46
  -3   8  -5    4.45    0.45
   3   8   5    4.05    0.45
  -3   8  -5    3.92    0.44
  -3   8  -5    3.98    0.39
   4  -8   5    4.44    0.59
  -4  -8  -5    4.97    0.34
  -4  -8  -5    4.67    0.35
  -4  -8  -5    4.57    0.38
  -4  -8  -5    4.54    0.37
   4  -8   5    5.43    0.50
  -4  -8  -5    5.31    0.39
  -4  -8  -5    4.75    0.53
  -4   8  -5    4.46    0.45
  -4   8  -5    4.92    0.48
  -4   8  -5    5.57    0.53
   5  -8   5    0.65    0.23
  -5  -8  -5    0.82    0.23
  -5  -8  -5    0.87    0.21
  -5  -8  -5    0.98    0.20
  -5  -8  -5    0.94    0.18
  -5  -8  -5    1.07    0.20
  -5  -8  -5    0.65    0.20
  -5   8  -5    0.57    0.24
  -5   8  -5    0.45    0.21
  -6  -9   5    8.13    0.73
   6  -9  -5    7.58    0.73
  -6  -9   5    7.86    0.66
   6  -9  -5    7.65    0.62
  -6   9   5    6.41    0.63
  -6   9   5    7.16    0.64
   6   9  -5    7.56    0.65
  -5  -9   5    1.71    0.38
  -5  -9   5    2.37    0.41
   5  -9  -5    2.32    0.39
   5  -9  -5    2.31    0.46
   5   9  -5    2.41    0.47
  -5   9   5    2.39    0.43
   5   9  -5    1.88    0.35
  -4  -9   5   12.16    0.81
  -4  -9   5   11.42    0.81
   4  -9  -5   12.61    0.85
   4  -9  -5   13.20    0.75
   4   9  -5   12.39    0.78
  -4   9   5   12.42    0.76
  -4   9   5   12.44    0.80
   4   9  -5   11.68    0.79
   3  -9  -5    4.68    0.50
  -3  -9   5    4.42    0.48
  -3  -9   5    4.00    0.55
   3  -9  -5    4.33    0.41
  -3  -9   5    3.26    0.50
  -3   9   5    5.07    0.48
   3   9  -5    3.84    0.54
  -3   9   5    4.42    0.47
   3   9  -5    4.18    0.44
   2  -9  -5    2.75    0.43
  -2  -9   5    2.66    0.46
  -2  -9   5    2.09    0.42
   2  -9  -5    2.75    0.32
  -2  -9   5    2.33    0.38
  -2   9   5    3.28    0.44
  -2   9   5    2.56    0.41
   2   9  -5    3.80    0.43
   2   9  -5    2.94    0.42
  -1  -9   5    1.44    0.34
  -1  -9   5    1.66    0.34
   1  -9  -5    1.75    0.37
  -1  -9   5    1.57    0.32
   1  -9  -5    2.10    0.33
   1   9  -5    1.56    0.20
   1   9  -5    1.42    0.32
  -1   9   5    1.38    0.30
   1   9  -5    1.56    0.30
   1   9  -5    1.38    0.18
  -1   9   5    1.62    0.28
   0  -9   5    0.48    0.25
   0  -9   5    0.52    0.23
   0  -9  -5    0.41    0.15
   0  -9   5    0.69    0.20
   0  -9  -5    0.58    0.21
   0  -9  -5    0.17    0.19
   0   9  -5    0.33    0.21
   0   9  -5    0.38    0.16
   0   9   5    1.13    0.31
   0   9  -5    0.51    0.19
  -1  -9  -5    0.67    0.25
   1  -9   5    0.71    0.27
  -1  -9  -5    0.71    0.20
   1  -9   5    0.70    0.26
   1  -9   5    1.05    0.22
  -1  -9  -5    1.47    0.38
  -1   9  -5    1.24    0.28
  -1   9  -5    1.05    0.24
  -1   9  -5    0.25    0.19
   1   9   5    0.33    0.21
  -2  -9  -5    1.39    0.27
   2  -9   5    1.04    0.33
  -2  -9  -5    0.54    0.22
  -2  -9  -5    1.35    0.22
   2  -9   5    0.79    0.31
   2  -9   5    0.99    0.21
  -2   9  -5    0.80    0.23
  -2   9  -5    1.16    0.24
   2   9   5    1.22    0.29
  -2   9  -5    0.78    0.25
  -3  -9  -5    1.89    0.24
  -3  -9  -5    2.46    0.48
   3  -9   5    1.81    0.38
  -3  -9  -5    1.86    0.25
  -3  -9  -5    1.79    0.31
   3   9   5    1.61    0.37
  -3   9  -5    1.52    0.35
  -3   9  -5    1.74    0.31
  -3   9  -5    1.71    0.32
  -4  -9  -5    0.21    0.16
  -4  -9  -5   -0.13    0.19
  -4  -9  -5   -0.03    0.14
  -4  -9  -5    0.08    0.14
  -4  -9  -5    0.29    0.13
   4  -9   5    0.10    0.18
  -4  -9  -5    0.36    0.14
  -4   9  -5    0.30    0.24
  -4   9  -5    0.09    0.20
  -3 -10   5    0.21    0.29
  -3 -10   5    0.93    0.28
   3 -10  -5   -0.22    0.25
   3 -10  -5    0.65    0.19
  -3  10   5    0.48    0.25
   3  10  -5    0.49    0.25
  -3  10   5    0.59    0.24
   3  10  -5    0.48    0.20
  -2 -10   5    0.58    0.29
  -2 -10   5    0.50    0.24
   2 -10  -5    0.55    0.21
   2 -10  -5    0.74    0.28
  -2  10   5    0.70    0.26
  -2  10   5    0.68    0.29
   2  10  -5    0.39    0.22
   2  10  -5    0.60    0.22
   1 -10  -5    0.88    0.33
  -1 -10   5    1.94    0.38
   1 -10  -5    1.48    0.25
   1 -10  -5    1.62    0.40
  -1 -10   5    1.28    0.35
  -1  10   5    1.22    0.34
  -1  10   5    1.25    0.28
   1  10  -5    0.89    0.29
   1  10  -5    0.93    0.24
   0 -10   5    3.14    0.53
   0 -10  -5    3.63    0.52
   0 -10  -5    3.45    0.54
   0 -10  -5    4.41    0.37
   0 -10   5    4.36    0.44
   0  10   5    4.58    0.52
   0  10   5    3.98    0.41
   0  10  -5    3.45    0.32
   0  10  -5    4.95    0.52
   0  10  -5    4.73    0.49
   0  10  -5    4.10    0.34
  12   0  -6    3.88    0.43
 -12   0   6    6.16    0.57
 -12   0   6    5.00    0.54
  12   0  -6    4.93    0.51
 -11   0   6   18.34    0.97
 -11   0   6   18.94    1.53
  11   0  -6   17.86    0.96
  11   0  -6   17.80    0.91
 -11   0   6   17.65    0.93
 -11   0   6   18.34    0.97
  11   0  -6   17.94    0.98
  10   0  -6   34.59    1.37
 -10   0   6   36.19    1.39
 -10   0   6   35.37    1.39
  10   0  -6   36.65    1.45
  10   0  -6   38.73    1.48
 -10   0   6   35.19    1.41
  10   0  -6   34.19    1.39
 -10   0   6   32.68    1.41
  -9   0   6   49.04    1.71
   9   0  -6   49.30    1.78
   9   0  -6   53.00    1.81
  -9   0   6   50.41    1.77
   9   0  -6   53.38    1.75
  -9   0   6   52.12    1.75
   9   0  -6   51.87    1.81
  -9   0   6   49.75    1.78
  -8   0   6   67.05    2.13
  -8   0   6   67.76    2.08
  -8   0   6   64.78    2.06
   8   0  -6   69.66    2.18
   8   0  -6   67.17    2.18
   8   0  -6   70.58    2.18
  -8   0   6   67.88    2.14
   8   0  -6   68.61    2.11
  -7   0   6   77.20    2.29
  -7   0   6   76.09    2.20
  -7   0   6   71.81    2.25
   7   0  -6   81.62    2.32
   7   0  -6   78.13    2.32
  -7   0   6   74.30    2.23
   7   0  -6   72.73    2.33
   7   0  -6   79.31    2.38
   6   0  -6   92.76    2.70
  -6   0   6   92.70    2.67
   6   0  -6   91.37    2.64
  -6   0   6   95.94    2.71
   6   0  -6   95.21    2.71
  -6   0   6   92.38    2.63
   6   0  -6   96.61    2.65
  -6   0   6   95.90    2.60
  -5   0   6  116.32    3.17
  -5   0   6  120.77    3.06
   5   0  -6  119.31    3.20
   5   0  -6  116.85    3.25
  -5   0   6  117.37    3.17
  -5   0   6  115.22    3.21
   5   0  -6  120.51    3.20
   4   0  -6   30.47    1.06
  -4   0   6   30.88    1.05
  -4   0   6   30.58    1.07
  -4   0   6   29.98    0.91
   4   0  -6   29.67    1.01
   4   0  -6   29.47    1.02
  -4   0   6   30.41    1.03
   3   0  -6   48.67    1.46
   3   0  -6   41.58    1.39
  -3   0   6   46.75    1.45
   3   0  -6   51.10    1.46
  -3   0   6   48.64    1.46
  -3   0   6   47.75    1.44
   2   0  -6   18.21    0.69
  -2   0   6   16.90    0.66
  -2   0   6   16.71    0.66
   2   0  -6   17.93    0.69
   2   0  -6   18.18    0.71
   1   0  -6   66.69    1.96
  -1   0   6   65.05    1.84
   1   0  -6   70.91    1.93
  -1   0   6   65.00    1.79
  -1   0   6   63.39    1.86
   1   0  -6   66.69    1.89
   0   0   6   63.74    1.82
   0   0  -6   63.45    1.90
   0   0   6   62.63    1.72
   0   0  -6   66.36    1.79
   0   0  -6   64.89    1.86
  -1   0  -6   67.86    2.01
  -1   0  -6   68.01    1.99
   1   0   6   71.41    1.89
   1   0   6   72.75    2.07
  -1   0  -6   69.44    1.75
   2   0   6  140.68    3.45
  -2   0  -6  132.34    3.38
   2   0   6  139.11    3.44
  -2   0  -6  133.69    3.60
  -2   0  -6  132.83    3.62
  -2   0  -6  137.07    3.60
   2   0   6  138.86    3.72
  -3   0  -6  114.35    3.12
  -3   0  -6  123.42    3.32
  -3   0  -6  123.98    3.36
  -4   0  -6   67.57    2.18
  -4   0  -6   70.79    2.15
  -4   0  -6   69.94    1.91
  -4   0  -6   70.61    2.00
  -5   0  -6   64.60    1.94
  -5   0  -6   64.19    2.05
  -5   0  -6   65.48    1.78
  -5   0  -6   62.42    2.11
  -6   0  -6   28.30    0.95
  -6   0  -6   31.25    1.15
  -6   0  -6   30.98    1.26
  -6   0  -6   26.50    1.24
  -6   0  -6   31.06    1.24
  -7   0  -6   26.76    1.26
  -7   0  -6   26.71    1.18
  -7   0  -6   26.10    1.20
  -7   0  -6   27.81    0.91
  -7   0  -6   25.83    1.10
  -8   0  -6    8.06    0.40
  -8   0  -6    6.64    0.53
  -8   0  -6    6.40    0.61
  -9   0  -6    2.63    0.51
  -9   0  -6    2.56    0.37
 -12  -1   6   16.03    0.94
 -12  -1   6   13.15    0.82
 -12  -1   6   14.73    0.88
  12  -1  -6   15.31    0.90
  12   1  -6   15.88    0.97
 -12   1   6   14.59    0.89
  12   1  -6   16.10    0.87
 -12   1   6   14.68    0.90
  11  -1  -6   15.17    0.88
 -11  -1   6   16.98    0.91
 -11  -1   6   16.67    0.90
  11  -1  -6   16.63    0.90
  11  -1  -6   16.54    1.12
 -11  -1   6   14.41    0.81
  11  -1  -6   16.18    0.89
 -11   1   6   15.91    0.89
  11   1  -6   15.68    0.80
  11   1  -6   14.73    0.90
 -11   1   6   16.68    0.91
 -11   1   6   14.26    0.88
  11   1  -6   14.41    0.90
 -11   1   6   13.42    0.84
  10  -1  -6   11.48    0.69
  10  -1  -6   10.85    0.68
 -10  -1   6   11.35    0.74
 -10  -1   6   10.34    0.62
  10  -1  -6   11.00    0.68
 -10  -1   6   11.42    0.70
  10  -1  -6    9.99    0.67
 -10  -1   6   11.02    0.69
  10  -1  -6   11.14    0.70
 -10   1   6    9.10    0.65
  10   1  -6    9.97    0.62
 -10   1   6   10.41    0.67
  10   1  -6   10.70    0.71
 -10   1   6   10.56    0.70
 -10   1   6   11.32    0.71
  10   1  -6   11.46    0.73
  10   1  -6   11.06    0.67
  -9  -1   6    7.52    0.54
  -9  -1   6    7.11    0.51
   9  -1  -6    7.01    0.51
   9  -1  -6    6.73    0.52
  -9  -1   6    6.79    0.48
   9  -1  -6    7.41    0.52
   9  -1  -6    7.53    0.53
  -9  -1   6    7.04    0.55
   9  -1  -6    7.00    0.51
  -9   1   6    6.21    0.51
   9   1  -6    6.29    0.51
  -9   1   6    6.40    0.51
   9   1  -6    7.94    0.50
   9   1  -6    7.39    0.51
  -9   1   6    7.20    0.52
  -9   1   6    7.02    0.51
   9   1  -6    5.63    0.49
   8  -1  -6    1.78    0.29
   8  -1  -6    1.46    0.28
  -8  -1   6    2.00    0.30
  -8  -1   6    1.34    0.24
   8  -1  -6    1.27    0.23
  -8  -1   6    1.48    0.26
   8  -1  -6    1.68    0.28
   8  -1  -6    1.44    0.27
  -8  -1   6    1.69    0.29
   8   1  -6    1.31    0.24
  -8   1   6    1.78    0.30
   8   1  -6    1.69    0.27
  -8   1   6    1.63    0.26
  -8   1   6    1.32    0.24
   8   1  -6    1.33    0.22
  -8   1   6    1.56    0.26
   8   1  -6    1.83    0.35
  -7  -1   6   13.96    0.73
   7  -1  -6   15.26    0.75
   7  -1  -6   14.66    0.73
   7  -1  -6   14.17    0.67
  -7  -1   6   14.44    0.73
  -7  -1   6   14.21    0.67
   7  -1  -6   16.12    0.72
  -7  -1   6   14.47    0.66
  -7   1   6   13.54    0.69
  -7   1   6   14.42    0.69
  -7   1   6   14.92    0.74
   7   1  -6   15.35    0.74
  -7   1   6   14.66    0.68
   7   1  -6   13.42    0.72
   7   1  -6   14.37    0.74
   7   1  -6   14.64    0.67
   6  -1  -6   34.85    1.24
  -6  -1   6   34.78    1.15
   6  -1  -6   34.21    1.25
  -6  -1   6   34.63    1.16
  -6  -1   6   34.86    1.24
   6  -1  -6   35.03    1.16
  -6  -1   6   33.54    1.25
   6  -1  -6   37.50    1.21
   6   1  -6   33.77    1.24
  -6   1   6   34.87    1.14
  -6   1   6   32.28    1.22
  -6   1   6   33.63    1.21
   6   1  -6   34.54    1.17
  -6   1   6   35.65    1.19
   6   1  -6   34.84    1.27
   6   1  -6   36.47    1.27
  -5  -1   6   67.33    1.99
   5  -1  -6   67.25    2.00
  -5  -1   6   63.24    1.97
  -5  -1   6   66.67    1.91
   5  -1  -6   67.87    1.92
  -5  -1   6   66.50    1.85
   5  -1  -6   69.09    1.88
   5  -1  -6   68.15    2.02
   5   1  -6   66.77    2.01
  -5   1   6   67.86    1.92
  -5   1   6   65.98    1.98
  -5   1   6   65.27    1.97
   5   1  -6   58.75    1.99
   5   1  -6   70.35    1.94
   5   1  -6   68.79    2.01
  -5   1   6   65.35    1.85
  -4  -1   6  135.88    3.60
  -4  -1   6  135.20    3.40
   4  -1  -6  137.51    3.46
  -4  -1   6  133.52    3.39
   4  -1  -6  137.26    3.53
   4  -1  -6  134.91    3.63
  -4  -1   6  136.42    3.53
   4  -1  -6  134.20    3.62
  -4  -1   6  135.45    3.60
   4   1  -6  136.41    3.65
   4   1  -6  136.99    3.64
  -4   1   6  136.17    3.59
   4   1  -6  137.39    3.64
  -4   1   6  131.34    3.48
  -4   1   6  135.83    3.40
   4   1  -6  139.89    3.58
  -4   1   6  133.24    3.58
  -3  -1   6  161.86    4.18
   3  -1  -6  164.19    4.26
   3  -1  -6  166.37    4.18
  -3  -1   6  159.03    3.95
  -3  -1   6  159.12    4.13
  -3  -1   6  158.41    3.94
   3  -1  -6  164.37    4.28
   3  -1  -6  164.03    4.06
  -3  -1   6  163.44    4.20
   3   1  -6  169.75    4.31
  -3   1   6  162.37    4.15
  -3   1   6  163.36    4.08
   3   1  -6  163.27    4.27
   3   1  -6  164.45    4.23
  -3   1   6  163.25    3.96
  -3   1   6  159.17    4.19
   2  -1  -6  167.37    4.18
  -2  -1   6  178.30    4.38
  -2  -1   6  170.79    4.40
   2  -1  -6  161.91    4.22
   2  -1  -6  156.06    4.27
  -2  -1   6  168.68    4.38
   2   1  -6  170.79    4.30
  -2   1   6  167.08    4.41
   2   1  -6  170.68    4.26
   2   1  -6  167.92    4.27
  -2   1   6  170.46    4.30
   1  -1  -6  148.92    3.78
   1  -1  -6  145.88    3.78
   1  -1  -6  148.87    3.89
  -1  -1   6  151.20    4.00
   1   1  -6  149.55    3.89
  -1   1   6  153.22    3.88
  -1   1   6  156.90    3.90
   1   1  -6  150.66    3.87
  -1   1   6  153.35    4.00
   0  -1   6  128.29    3.46
   0  -1  -6  126.78    3.34
   0  -1  -6  130.24    3.44
   0  -1   6  131.71    3.37
   0  -1  -6  130.95    3.29
   0   1   6  131.25    3.27
   0   1  -6  128.47    3.42
   0   1   6  130.09    3.37
   0   1  -6  128.19    3.43
  -1  -1  -6   90.51    2.29
  -1  -1  -6   90.93    2.33
   1  -1   6   90.13    2.28
  -1  -1  -6   90.79    2.29
   1  -1   6   90.76    2.53
  -1  -1  -6   91.81    2.55
  -1  -1  -6   89.26    2.47
   1  -1   6   89.30    2.38
  -1   1  -6   89.39    2.54
   1   1   6   89.04    2.24
  -1   1  -6   89.88    2.28
  -1   1  -6   87.71    2.54
   1   1   6   89.63    2.45
  -1   1  -6   90.91    2.52
   2  -1   6   31.48    1.03
  -2  -1  -6   38.16    1.25
  -2  -1  -6   37.00    1.08
   2  -1   6   37.09    1.06
  -2  -1  -6   37.31    1.24
   2  -1   6   36.67    1.07
   2  -1   6   35.94    1.24
  -2  -1  -6   37.72    1.27
  -2  -1  -6   36.34    1.09
  -2   1  -6   38.63    1.31
  -2   1  -6   31.70    1.20
  -2   1  -6   36.83    1.08
   3  -1   6   13.11    0.67
  -3  -1  -6   12.57    0.53
  -3  -1  -6   12.77    0.53
  -3  -1  -6   13.03    0.65
  -3  -1  -6   12.97    0.63
   3  -1   6   12.30    0.48
  -3  -1  -6   12.43    0.64
   3  -1   6   14.16    0.51
   3  -1   6   13.23    0.55
  -3   1  -6   11.27    0.51
  -3   1  -6   13.01    0.64
  -3   1  -6   11.91    0.65
   4  -1   6    3.17    0.21
  -4  -1  -6    2.52    0.24
   4  -1   6    3.01    0.20
  -4  -1  -6    2.76    0.25
  -4  -1  -6    2.81    0.29
  -4  -1  -6    3.19    0.26
   4  -1   6    3.30    0.28
  -4  -1  -6    3.19    0.33
  -4   1  -6    2.42    0.23
  -4   1  -6    2.62    0.28
  -4   1  -6    3.15    0.18
  -4   1  -6    2.83    0.33
  -5  -1  -6    8.21    0.54
  -5  -1  -6    7.83    0.47
  -5  -1  -6    7.72    0.46
   5  -1   6    8.97    0.52
   5  -1   6    8.56    0.34
  -5  -1  -6    7.33    0.50
  -5  -1  -6    7.71    0.55
   5  -1   6    8.04    0.34
  -5  -1  -6    7.47    0.43
  -5   1  -6    7.69    0.56
  -5   1  -6    7.68    0.46
  -5   1  -6    7.61    0.53
  -6  -1  -6   16.69    0.83
  -6  -1  -6   17.33    0.79
  -6  -1  -6   16.58    0.89
  -6  -1  -6   16.09    0.69
  -6  -1  -6   16.05    0.85
  -6  -1  -6   16.83    0.79
  -6   1  -6   15.49    0.83
  -6   1  -6   16.59    0.77
  -6   1  -6   16.56    0.91
  -7  -1  -6   17.52    0.85
  -7  -1  -6   16.70    0.89
  -7  -1  -6   18.09    0.95
  -7  -1  -6   18.29    0.99
  -7  -1  -6   18.26    0.75
  -7  -1  -6   18.69    0.88
  -7   1  -6   18.52    0.88
  -7   1  -6   17.62    0.95
  -7   1  -6   17.55    0.93
  -7   1  -6   18.55    1.02
  -8  -1  -6   20.31    1.02
  -8  -1  -6   23.02    1.03
  -8  -1  -6   20.81    0.85
  -8  -1  -6   20.85    1.00
  -8  -1  -6   19.24    1.09
  -8   1  -6   21.66    1.15
  -8   1  -6   20.77    1.00
  -9  -1  -6   15.90    0.90
  -9  -1  -6   16.89    0.73
  -9  -1  -6   14.70    0.97
  -9   1  -6   16.98    1.05
  -9   1  -6   17.18    0.93
 -12  -2   6    6.16    0.58
 -12  -2   6    5.94    0.57
 -12  -2   6    7.67    0.58
  12  -2  -6    6.88    0.58
 -12   2   6    6.39    0.60
 -12   2   6    7.86    0.64
  12   2  -6    7.06    0.53
  12   2  -6    5.83    0.58
  11  -2  -6   11.81    0.75
 -11  -2   6   11.95    0.77
 -11  -2   6   12.04    0.75
  11  -2  -6   10.44    0.72
  11  -2  -6   13.09    1.19
 -11  -2   6   11.13    0.67
  11   2  -6   10.93    0.79
 -11   2   6   12.21    0.79
  11   2  -6   11.79    0.66
 -11   2   6   12.50    0.79
 -11   2   6   10.98    0.74
  10  -2  -6   29.19    1.20
 -10  -2   6   28.15    1.21
  10  -2  -6   26.32    1.19
  10  -2  -6   26.85    1.20
  10  -2  -6   27.95    1.19
 -10  -2   6   26.12    1.27
 -10  -2   6   26.77    1.19
 -10  -2   6   26.91    1.08
 -10  -2   6   26.69    1.19
  10  -2  -6   29.50    1.25
  10   2  -6   25.22    1.21
  10   2  -6   27.43    1.08
 -10   2   6   27.15    1.23
  10   2  -6   26.85    1.15
 -10   2   6   26.82    1.22
 -10   2   6   27.37    1.20
 -10   2   6   27.57    1.20
  10   2  -6   25.89    1.22
  -9  -2   6   45.26    1.62
   9  -2  -6   49.65    1.70
  -9  -2   6   44.10    1.49
   9  -2  -6   50.26    1.66
  -9  -2   6   45.58    1.60
   9  -2  -6   46.20    1.71
  -9  -2   6   44.93    1.63
  -9  -2   6   44.60    1.71
   9  -2  -6   46.46    1.69
   9  -2  -6   47.64    1.69
   9   2  -6   47.83    1.75
   9   2  -6   47.13    1.75
   9   2  -6   45.84    1.53
  -9   2   6   45.54    1.61
  -9   2   6   44.79    1.60
  -9   2   6   45.68    1.66
  -9   2   6   44.65    1.66
   9   2  -6   46.75    1.65
   8  -2  -6   54.02    1.79
   8  -2  -6   53.86    1.80
   8  -2  -6   54.00    1.73
  -8  -2   6   49.43    1.77
   8  -2  -6   53.88    1.76
  -8  -2   6   48.50    1.66
   8  -2  -6   52.12    1.81
  -8  -2   6   50.57    1.67
  -8  -2   6   51.42    1.74
  -8  -2   6   44.71    1.55
   8   2  -6   53.51    1.64
   8   2  -6   49.30    1.81
   8   2  -6   54.30    1.85
  -8   2   6   52.67    1.76
   8   2  -6   53.47    1.78
  -8   2   6   51.03    1.67
  -8   2   6   51.86    1.69
  -8   2   6   51.56    1.75
  -7  -2   6   75.40    2.19
   7  -2  -6   76.77    2.28
  -7  -2   6   75.76    2.27
   7  -2  -6   79.01    2.38
  -7  -2   6   80.35    2.28
   7  -2  -6   78.28    2.24
   7  -2  -6   74.59    2.34
  -7  -2   6   77.85    2.36
   7   2  -6   78.37    2.34
  -7   2   6   75.48    2.35
   7   2  -6   77.31    2.39
   7   2  -6   73.40    2.35
  -7   2   6   77.55    2.26
  -7   2   6   77.33    2.36
   7   2  -6   77.49    2.19
  -7   2   6   77.58    2.27
  -6  -2   6   93.48    2.62
  -6  -2   6   93.95    2.61
   6  -2  -6   95.38    2.62
   6  -2  -6   94.55    2.65
   6  -2  -6   95.50    2.75
   6  -2  -6   95.88    2.77
  -6  -2   6   93.63    2.73
  -6  -2   6   93.83    2.77
  -6  -2   6   94.85    2.58
  -6   2   6   96.20    2.63
   6   2  -6   98.40    2.60
  -6   2   6   97.47    2.75
  -6   2   6   93.22    2.60
   6   2  -6   94.87    2.74
   6   2  -6   96.14    2.78
  -6   2   6   94.93    2.74
   6   2  -6   93.33    2.78
   5  -2  -6   44.99    1.38
   5  -2  -6   46.55    1.36
  -5  -2   6   42.46    1.46
   5  -2  -6   44.08    1.49
  -5  -2   6   44.76    1.51
   5  -2  -6   45.50    1.49
  -5  -2   6   44.87    1.36
  -5  -2   6   44.94    1.35
  -5  -2   6   45.38    1.36
  -5   2   6   46.31    1.49
  -5   2   6   44.21    1.36
   5   2  -6   44.73    1.36
   5   2  -6   45.58    1.53
  -5   2   6   45.12    1.48
   5   2  -6   44.02    1.50
  -5   2   6   45.15    1.36
   5   2  -6   46.40    1.50
   4  -2  -6   58.83    1.74
  -4  -2   6   53.59    1.70
   4  -2  -6   55.60    1.73
  -4  -2   6   53.95    1.72
   4  -2  -6   56.12    1.56
  -4  -2   6   55.09    1.55
  -4  -2   6   55.47    1.54
   4  -2  -6   56.77    1.59
  -4  -2   6   55.66    1.59
   4   2  -6   57.90    1.75
  -4   2   6   54.74    1.68
  -4   2   6   57.04    1.57
   4   2  -6   55.18    1.75
   4   2  -6   52.82    1.61
  -4   2   6   54.05    1.70
  -4   2   6   55.67    1.55
   4   2  -6   57.72    1.74
   3  -2  -6   21.37    0.70
   3  -2  -6   22.26    0.71
   3  -2  -6   20.92    0.83
  -3  -2   6   20.71    0.67
  -3  -2   6   20.47    0.84
  -3  -2   6   21.80    0.77
   3  -2  -6   22.12    0.83
  -3  -2   6   20.34    0.83
  -3   2   6   22.17    0.85
   3   2  -6   20.90    0.77
  -3   2   6   21.26    0.70
   3   2  -6   21.15    0.87
   3   2  -6   22.37    0.83
  -3   2   6   22.40    0.82
  -3   2   6   21.60    0.70
   2  -2  -6   17.44    0.68
  -2  -2   6   17.66    0.74
  -2  -2   6   16.43    0.54
   2  -2  -6   16.77    0.72
  -2  -2   6   17.61    0.71
   2  -2  -6   17.81    0.57
   2  -2  -6   18.91    0.60
  -2   2   6   16.83    0.58
  -2   2   6   16.47    0.64
   2   2  -6   17.93    0.76
   2   2  -6   14.86    0.65
  -2   2   6   17.03    0.71
   2   2  -6   18.37    0.56
  -2   2   6   17.08    0.56
   2   2  -6   18.27    0.70
   1  -2  -6    9.20    0.43
   1  -2  -6    8.48    0.47
  -1  -2   6    8.04    0.31
   1  -2  -6    9.18    0.39
  -1  -2   6    8.07    0.44
   1  -2  -6    9.03    0.35
  -1  -2   6    8.25    0.47
   1   2  -6    9.23    0.50
  -1   2   6    7.87    0.36
   1   2  -6    9.12    0.33
   1   2  -6    9.69    0.44
  -1   2   6    8.13    0.35
   1   2  -6    9.46    0.47
  -1   2   6    8.16    0.32
   0  -2   6   61.44    1.62
   0  -2   6   64.31    1.90
   0  -2  -6   62.66    1.88
   0  -2  -6   62.68    1.74
   0  -2  -6   63.04    1.67
   0  -2  -6   62.39    1.72
   0  -2   6   62.68    1.82
   0   2   6   60.21    1.63
   0   2  -6   66.08    1.93
   0   2  -6   62.83    1.73
   0   2   6   61.65    1.71
   0   2  -6   63.38    1.84
   0   2   6   62.92    1.64
   0   2  -6   63.21    1.65
   0   2   6   61.83    1.84
   0   2  -6   62.22    1.85
  -1  -2  -6   77.44    2.03
   1  -2   6   79.47    2.19
   1  -2   6   77.59    2.31
   1  -2   6   78.61    2.06
  -1  -2  -6   80.53    2.17
  -1  -2  -6   77.45    2.25
  -1  -2  -6   77.54    2.05
  -1   2  -6   78.91    2.05
  -1   2  -6   74.77    2.28
  -1   2  -6   79.95    2.24
  -1   2  -6   78.54    2.04
   2  -2   6   76.97    2.09
   2  -2   6   80.08    2.15
  -2  -2  -6   77.28    2.09
   2  -2   6   78.55    2.32
  -2  -2  -6   79.43    2.27
   2  -2   6   73.80    2.15
  -2  -2  -6   75.90    2.08
  -2  -2  -6   75.97    1.96
  -2  -2  -6   77.08    2.19
  -2   2  -6   78.53    1.96
  -2   2  -6   74.75    2.30
  -2   2  -6   76.97    2.25
  -2   2  -6   77.83    2.08
  -3  -2  -6   98.45    2.69
   3  -2   6   98.57    2.65
   3  -2   6   99.04    2.86
  -3  -2  -6   95.03    2.58
  -3  -2  -6   95.78    2.60
  -3  -2  -6   97.07    2.72
  -3  -2  -6   95.69    2.73
  -3  -2  -6   97.05    2.72
   3  -2   6   97.22    2.62
  -3   2  -6   94.31    2.58
  -3   2  -6   95.23    2.82
  -3   2  -6   93.99    2.74
   4  -2   6   90.20    2.43
  -4  -2  -6   82.17    2.43
  -4  -2  -6   84.76    2.38
   4  -2   6   89.38    2.52
  -4  -2  -6   84.36    2.35
  -4  -2  -6   80.88    2.44
  -4  -2  -6   82.76    2.33
  -4  -2  -6   81.30    2.45
  -4  -2  -6   82.49    2.42
  -4   2  -6   83.13    2.49
  -4   2  -6   79.72    2.53
  -4   2  -6   81.06    2.32
  -5  -2  -6   37.45    1.30
  -5  -2  -6   38.61    1.38
  -5  -2  -6   38.11    1.44
   5  -2   6   38.86    1.20
  -5  -2  -6   37.77    1.40
  -5  -2  -6   38.75    1.41
   5  -2   6   38.56    1.33
  -5  -2  -6   38.41    1.31
  -5  -2  -6   37.54    1.32
  -5   2  -6   37.13    1.42
  -5   2  -6   39.87    1.33
  -5   2  -6   38.71    1.50
   6  -2   6   41.67    1.46
  -6  -2  -6   40.15    1.44
  -6  -2  -6   40.74    1.56
  -6  -2  -6   40.47    1.48
  -6  -2  -6   39.32    1.50
  -6  -2  -6   42.86    1.53
   6  -2   6   39.90    1.23
  -6  -2  -6   40.88    1.38
  -6  -2  -6   41.86    1.44
  -6   2  -6   37.69    1.52
  -6   2  -6   40.31    1.42
  -6   2  -6   38.22    1.58
  -7  -2  -6   14.60    0.78
  -7  -2  -6   14.93    0.78
   7  -2   6   15.52    0.80
   7  -2   6   14.97    0.58
  -7  -2  -6   14.00    0.78
  -7  -2  -6   14.22    0.83
  -7  -2  -6   16.25    0.75
  -7  -2  -6   14.45    0.87
  -7   2  -6   14.50    0.88
  -7   2  -6   15.15    0.87
  -7   2  -6   13.29    0.80
  -7   2  -6   13.11    0.73
   8  -2   6    6.50    0.33
  -8  -2  -6    5.23    0.49
  -8  -2  -6    6.42    0.54
  -8  -2  -6    6.29    0.46
   8  -2   6    6.55    0.58
  -8  -2  -6    6.48    0.52
  -8  -2  -6    6.65    0.61
  -8   2  -6    6.31    0.53
  -8   2  -6    5.75    0.57
  -9  -2  -6    1.86    0.38
  -9  -2  -6    1.25    0.26
  -9  -2  -6    1.86    0.30
  -9   2  -6    1.33    0.28
  -9   2  -6    1.18    0.31
 -12  -3   6   12.05    0.81
 -12  -3   6   12.39    0.85
 -12  -3   6   13.36    0.72
  12  -3  -6   12.47    0.84
  12   3  -6   13.12    0.90
  12   3  -6   12.89    0.71
 -12   3   6   13.35    0.88
 -12   3   6   12.81    0.87
 -11  -3   6    9.71    0.70
  11  -3  -6   10.76    0.72
 -11  -3   6   10.45    0.74
  11  -3  -6   12.13    0.79
 -11  -3   6   10.56    0.61
 -11   3   6   10.35    0.74
  11   3  -6   10.79    0.80
  11   3  -6   11.35    0.62
 -11   3   6   10.54    0.72
 -11   3   6   11.45    0.77
  10  -3  -6   10.63    0.68
  10  -3  -6    9.45    0.68
 -10  -3   6   10.48    0.68
 -10  -3   6    9.91    0.67
 -10  -3   6    9.83    0.66
  10  -3  -6    9.96    0.66
  10  -3  -6    9.28    0.67
 -10  -3   6    8.80    0.53
  10   3  -6   10.97    0.87
  10   3  -6    9.84    0.72
  10   3  -6    9.54    0.53
 -10   3   6    9.18    0.64
 -10   3   6    9.70    0.66
 -10   3   6   10.03    0.68
   9  -3  -6    4.20    0.43
  -9  -3   6    2.50    0.36
   9  -3  -6    4.11    0.41
   9  -3  -6    4.90    0.42
  -9  -3   6    3.34    0.30
   9  -3  -6    4.08    0.41
  -9  -3   6    3.35    0.38
  -9  -3   6    3.32    0.36
  -9  -3   6    3.78    0.44
  -9   3   6    4.39    0.42
  -9   3   6    3.93    0.40
  -9   3   6    3.70    0.40
   9   3  -6    3.62    0.41
   9   3  -6    4.65    0.34
  -9   3   6    4.30    0.39
   9   3  -6    3.65    0.42
  -8  -3   6    4.02    0.37
   8  -3  -6    3.36    0.31
   8  -3  -6    3.56    0.36
  -8  -3   6    3.22    0.28
  -8  -3   6    3.16    0.34
  -8  -3   6    3.02    0.37
   8  -3  -6    3.04    0.36
   8  -3  -6    3.24    0.35
  -8  -3   6    3.11    0.35
  -8   3   6    3.79    0.38
  -8   3   6    3.56    0.32
   8   3  -6    3.09    0.36
   8   3  -6    3.18    0.27
   8   3  -6    3.19    0.36
  -8   3   6    3.66    0.36
  -8   3   6    2.81    0.43
   7  -3  -6    2.64    0.30
   7  -3  -6    2.99    0.33
  -7  -3   6    2.47    0.24
  -7  -3   6    2.74    0.43
   7  -3  -6    2.80    0.39
  -7  -3   6    2.91    0.30
  -7  -3   6    2.78    0.38
  -7  -3   6    3.03    0.33
   7  -3  -6    2.94    0.27
  -7   3   6    2.80    0.26
  -7   3   6    2.77    0.29
   7   3  -6    3.25    0.25
   7   3  -6    2.90    0.33
  -7   3   6    3.06    0.34
   7   3  -6    2.86    0.34
  -7   3   6    2.76    0.33
  -6  -3   6   17.52    0.80
  -6  -3   6   22.48    0.98
   6  -3  -6   22.68    0.81
  -6  -3   6   22.35    0.94
  -6  -3   6   22.20    0.86
   6  -3  -6   23.24    0.99
   6  -3  -6   23.19    0.91
  -6  -3   6   20.87    0.76
  -6   3   6   22.59    0.94
  -6   3   6   21.90    0.95
  -6   3   6   22.19    0.80
   6   3  -6   21.46    0.98
  -6   3   6   21.22    0.86
   6   3  -6   23.62    1.00
  -5  -3   6   41.84    1.29
   5  -3  -6   41.05    1.42
   5  -3  -6   40.69    1.41
   5  -3  -6   41.00    1.20
  -5  -3   6   40.14    1.43
  -5  -3   6   39.52    1.21
  -5  -3   6   40.42    1.41
   5  -3  -6   40.37    1.31
  -5   3   6   39.58    1.39
  -5   3   6   40.60    1.21
  -5   3   6   40.42    1.30
   5   3  -6   40.61    1.22
  -5   3   6   41.04    1.39
   5   3  -6   40.92    1.45
   5   3  -6   40.03    1.42
   4  -3  -6   62.28    1.76
   4  -3  -6   63.80    1.90
   4  -3  -6   62.54    1.64
  -4  -3   6   59.04    1.86
   4  -3  -6   61.69    1.88
  -4  -3   6   58.70    1.70
  -4  -3   6   60.47    1.68
  -4  -3   6   60.81    1.90
   4   3  -6   63.45    1.72
  -4   3   6   60.21    1.82
  -4   3   6   59.45    1.73
   4   3  -6   50.79    1.83
   4   3  -6   63.84    1.94
  -4   3   6   60.63    1.86
  -4   3   6   59.87    1.61
  -3  -3   6  114.67    3.50
   3  -3  -6  130.38    3.38
  -3  -3   6  134.07    3.34
   3  -3  -6  131.87    3.24
   3  -3  -6  130.12    3.54
   3  -3  -6  128.27    3.51
  -3  -3   6  135.24    3.54
   3   3  -6  132.11    3.37
  -3   3   6  129.89    3.52
  -3   3   6  130.80    3.35
  -3   3   6  134.79    3.22
   3   3  -6  132.02    3.39
   3   3  -6  132.65    3.52
  -3   3   6  129.81    3.44
   3   3  -6  132.76    3.62
  -2  -3   6  110.13    3.06
   2  -3  -6  110.02    2.94
   2  -3  -6  109.55    2.69
  -2  -3   6  111.48    2.83
  -2  -3   6  108.59    3.02
   2  -3  -6  109.36    2.82
   2  -3  -6  111.18    3.00
   2   3  -6  110.74    2.93
  -2   3   6  108.22    2.91
  -2   3   6  108.67    2.84
   2   3  -6  109.95    2.81
  -2   3   6  109.52    2.71
   2   3  -6  107.09    3.04
   2   3  -6  102.44    2.86
  -2   3   6  111.19    3.02
   1  -3  -6  107.79    2.65
   1  -3  -6  102.67    2.80
  -1  -3   6  102.17    2.95
  -1  -3   6  104.95    2.72
  -1  -3   6  109.07    2.93
   1  -3  -6  102.96    2.73
   1  -3  -6  106.30    2.91
   1   3  -6  106.43    2.72
   1   3  -6  105.71    2.97
  -1   3   6  105.28    2.90
  -1   3   6  107.39    2.74
  -1   3   6  104.18    2.75
   1   3  -6  108.16    2.85
   1   3  -6  105.61    2.80
   1   3  -6  106.17    2.83
   0  -3  -6   99.92    2.67
   0  -3   6  105.64    2.71
   0  -3   6   92.70    2.91
   0  -3  -6  101.13    2.67
   0  -3   6  105.07    2.89
   0  -3  -6  102.42    2.62
   0  -3  -6  100.17    2.82
   0   3   6  108.01    2.74
   0   3   6  109.31    2.90
   0   3  -6  104.44    2.90
   0   3  -6  102.74    2.77
   0   3  -6  101.30    2.65
   0   3   6  106.19    2.65
   0   3  -6  102.80    2.66
   0   3  -6  104.18    2.81
   1  -3   6   39.70    1.33
  -1  -3  -6   44.85    1.27
  -1  -3  -6   45.87    1.47
  -1  -3  -6   44.00    1.32
   1  -3   6   42.56    1.45
   1  -3   6   42.58    1.24
  -1  -3  -6   44.44    1.33
  -1  -3  -6   45.16    1.31
   1   3   6   41.54    1.25
  -1   3  -6   45.48    1.53
  -1   3  -6   45.85    1.24
  -1   3  -6   44.72    1.44
  -1   3  -6   44.20    1.31
  -2  -3  -6   18.69    0.71
  -2  -3  -6   18.96    0.59
   2  -3   6   20.35    0.75
   2  -3   6   18.57    0.87
  -2  -3  -6   18.49    0.74
  -2  -3  -6   19.32    0.81
  -2  -3  -6   18.79    0.72
   2  -3   6   20.20    0.79
  -2   3  -6   18.94    0.72
  -2   3  -6   19.07    0.81
  -2   3  -6   19.27    0.87
  -3  -3  -6    9.51    0.49
   3  -3   6    9.80    0.60
  -3  -3  -6    9.74    0.55
  -3  -3  -6    9.55    0.53
  -3  -3  -6    9.72    0.52
   3  -3   6   10.43    0.52
   3  -3   6    9.99    0.51
  -3  -3  -6   10.01    0.51
  -3   3  -6    8.82    0.55
  -3   3  -6    8.81    0.58
  -3   3  -6    9.58    0.49
   4  -3   6    1.98    0.27
  -4  -3  -6    2.22    0.26
   4  -3   6    2.28    0.37
  -4  -3  -6    2.13    0.25
  -4  -3  -6    2.13    0.32
  -4  -3  -6    2.13    0.33
  -4  -3  -6    2.05    0.29
  -4  -3  -6    1.99    0.30
  -4  -3  -6    2.01    0.23
   4  -3   6    2.01    0.23
  -4   3  -6    2.39    0.37
  -4   3  -6    2.31    0.25
  -4   3  -6    1.93    0.35
  -5  -3  -6    2.99    0.33
  -5  -3  -6    2.95    0.32
   5  -3   6    2.92    0.31
  -5  -3  -6    2.61    0.38
  -5  -3  -6    2.77    0.30
  -5  -3  -6    2.95    0.31
  -5  -3  -6    2.72    0.30
   5  -3   6    2.53    0.26
  -5  -3  -6    2.72    0.29
  -5   3  -6    2.82    0.45
  -5   3  -6    2.95    0.29
  -5   3  -6    2.91    0.34
   6  -3   6    9.97    0.62
   6  -3   6   10.70    0.54
  -6  -3  -6   10.67    0.63
  -6  -3  -6   10.93    0.64
   6  -3   6   10.19    0.70
  -6  -3  -6   10.63    0.62
  -6  -3  -6   11.28    0.64
  -6  -3  -6   10.72    0.69
  -6  -3  -6   10.90    0.65
  -6  -3  -6   10.20    0.66
  -6   3  -6   10.26    0.67
  -6   3  -6    9.45    0.69
  -6   3  -6    9.91    0.60
  -7  -3  -6   14.14    0.79
  -7  -3  -6   14.59    0.80
   7  -3   6   17.19    0.89
  -7  -3  -6   17.65    0.84
   7  -3   6   17.72    0.99
  -7  -3  -6   16.28    0.85
  -7  -3  -6   15.40    0.86
  -7  -3  -6   16.29    0.85
  -7  -3  -6   15.45    0.90
  -7   3  -6   16.42    0.96
  -7   3  -6   14.33    0.80
   8  -3   6   14.37    0.93
  -8  -3  -6   14.11    0.81
  -8  -3  -6   14.63    0.85
  -8  -3  -6   14.00    0.82
  -8  -3  -6   14.39    0.90
  -8  -3  -6   14.36    0.77
   8  -3   6   14.54    0.86
  -8  -3  -6   13.50    0.89
  -8   3  -6   13.53    0.93
  -8   3  -6   14.14    0.81
  -9  -3  -6   13.06    0.91
  -9  -3  -6   14.30    0.78
  -9  -3  -6   13.20    0.84
  -9  -3  -6   14.44    0.88
  -9   3  -6   12.67    0.92
  -9   3  -6   14.67    0.87
  11  -4  -6    8.16    0.66
  11  -4  -6    8.19    0.65
 -11  -4   6    8.17    0.67
 -11  -4   6    7.99    0.64
 -11  -4   6    8.21    0.48
 -11   4   6    7.89    0.66
  11   4  -6    7.68    0.69
  11   4  -6    7.71    0.47
 -11   4   6    7.83    0.63
 -11   4   6    8.21    0.66
  10  -4  -6   11.90    0.80
  10  -4  -6   11.72    0.77
  10  -4  -6    9.97    0.68
 -10  -4   6   12.66    0.98
 -10  -4   6   10.81    0.72
 -10  -4   6   11.94    0.76
 -10  -4   6   11.66    0.57
  10   4  -6   11.00    0.54
  10   4  -6   10.32    0.75
 -10   4   6   11.85    0.78
 -10   4   6   11.78    0.76
 -10   4   6   10.77    0.68
   9  -4  -6   25.29    1.16
  -9  -4   6   23.23    0.84
  -9  -4   6   22.59    1.06
   9  -4  -6   24.58    1.15
  -9  -4   6   22.98    1.07
   9  -4  -6   24.34    1.11
  -9  -4   6   22.85    1.17
  -9  -4   6   23.81    1.08
  -9   4   6   23.21    1.08
  -9   4   6   24.81    1.15
   9   4  -6   23.41    1.15
   9   4  -6   24.00    1.17
  -9   4   6   22.57    1.13
   9   4  -6   23.69    0.85
  -9   4   6   23.48    1.00
   8  -4  -6   39.75    1.47
  -8  -4   6   34.91    1.51
  -8  -4   6   40.48    1.47
  -8  -4   6   38.61    1.43
  -8  -4   6   39.98    1.49
  -8  -4   6   40.04    1.21
   8  -4  -6   38.77    1.52
   8  -4  -6   40.19    1.52
  -8   4   6   37.30    1.52
   8   4  -6   38.61    1.19
  -8   4   6   39.16    1.51
   8   4  -6   36.91    1.52
   8   4  -6   39.64    1.55
  -8   4   6   41.33    1.49
  -8   4   6   38.50    1.33
  -7  -4   6   43.25    1.61
  -7  -4   6   44.87    1.55
  -7  -4   6   43.61    1.67
  -7  -4   6   46.34    1.34
  -7  -4   6   46.68    1.58
   7  -4  -6   50.50    1.73
   7  -4  -6   48.10    1.73
   7  -4  -6   49.63    1.66
  -7   4   6   45.65    1.43
   7   4  -6   50.42    1.78
  -7   4   6   47.24    1.60
   7   4  -6   45.53    1.37
  -7   4   6   45.95    1.66
   7   4  -6   45.95    1.72
  -7   4   6   48.14    1.66
   6  -4  -6   41.46    1.42
  -6  -4   6   40.02    1.39
  -6  -4   6   41.53    1.55
  -6  -4   6   40.11    1.53
   6  -4  -6   40.33    1.49
  -6  -4   6   40.83    1.21
   6  -4  -6   42.16    1.50
  -6  -4   6   41.23    1.49
  -6   4   6   40.78    1.25
  -6   4   6   41.53    1.49
  -6   4   6   42.23    1.51
   6   4  -6   41.10    1.51
   6   4  -6   39.97    1.50
   6   4  -6   39.57    1.18
  -6   4   6   45.00    1.45
  -5  -4   6   42.22    1.55
   5  -4  -6   44.28    1.45
   5  -4  -6   44.94    1.54
   5  -4  -6   43.79    1.53
  -5  -4   6   43.40    1.56
  -5  -4   6   46.35    1.56
  -5   4   6   44.70    1.45
   5   4  -6   43.39    1.26
  -5   4   6   43.26    1.52
  -5   4   6   44.55    1.25
  -5   4   6   44.99    1.52
   5   4  -6   44.11    1.57
  -4  -4   6   14.79    0.65
   4  -4  -6   14.92    0.73
  -4  -4   6   14.07    0.74
   4  -4  -6   15.03    0.73
   4  -4  -6   15.60    0.68
  -4  -4   6   16.28    0.77
  -4  -4   6   15.22    0.75
   4   4  -6   16.34    0.76
  -4   4   6   15.39    0.71
  -4   4   6   15.92    0.68
   4   4  -6   14.77    0.76
   4   4  -6   16.03    0.57
  -4   4   6   15.51    0.73
   4   4  -6   15.61    0.67
  -3  -4   6   11.52    0.63
   3  -4  -6   12.89    0.58
   3  -4  -6   13.58    0.66
  -3  -4   6   11.80    0.54
  -3  -4   6   11.27    0.59
  -3  -4   6   12.18    0.67
   3  -4  -6   13.09    0.64
  -3   4   6   12.16    0.55
   3   4  -6   12.58    0.63
  -3   4   6   12.60    0.63
   3   4  -6   13.30    0.52
   3   4  -6   13.93    0.59
   3   4  -6   12.78    0.52
   3   4  -6   13.20    0.70
  -2  -4   6    2.53    0.28
  -2  -4   6    1.89    0.20
   2  -4  -6    2.17    0.21
  -2  -4   6    2.04    0.29
   2  -4  -6    2.37    0.24
   2  -4  -6    2.23    0.24
   2   4  -6    1.73    0.27
  -2   4   6    1.83    0.27
  -2   4   6    1.89    0.21
   2   4  -6    2.42    0.24
  -2   4   6    2.00    0.21
   2   4  -6    2.34    0.20
   2   4  -6    2.06    0.21
   2   4  -6    2.19    0.21
   1  -4  -6   14.12    0.61
   1  -4  -6   14.25    0.66
  -1  -4   6   14.19    0.70
   1  -4  -6   13.52    0.58
  -1  -4   6   13.57    0.57
   1   4  -6   13.90    0.59
  -1   4   6   12.96    0.54
   1   4  -6   14.62    0.72
   1   4  -6   14.15    0.59
   1   4  -6   12.98    0.58
   1   4  -6   14.48    0.58
  -1   4   6   14.00    0.59
  -1   4   6   13.31    0.64
   0  -4  -6   16.30    0.65
   0  -4  -6   16.23    0.51
   0  -4   6   15.27    0.75
   0  -4  -6   17.47    0.73
   0  -4   6   13.74    0.59
   0  -4  -6   15.73    0.63
   0  -4  -6   15.95    0.50
   0   4   6   14.52    0.52
   0   4  -6   16.08    0.68
   0   4   6   13.92    0.61
   0   4   6   15.73    0.69
   0   4  -6   16.22    0.61
   0   4  -6   16.07    0.64
   0   4  -6   14.61    0.75
   1  -4   6   33.47    1.20
  -1  -4  -6   31.33    0.98
   1  -4   6   32.28    1.09
  -1  -4  -6   33.82    1.10
   1  -4   6   34.03    1.28
  -1  -4  -6   33.54    0.98
  -1  -4  -6   33.14    1.01
  -1  -4  -6   32.47    1.15
  -1   4  -6   31.18    1.23
  -1   4  -6   33.35    1.08
  -1   4  -6   26.87    1.09
   1   4   6   34.25    1.13
  -1   4  -6   33.28    0.96
  -2  -4  -6   52.30    1.52
   2  -4   6   55.10    1.84
  -2  -4  -6   44.12    1.50
  -2  -4  -6   54.29    1.43
  -2  -4  -6   52.89    1.65
   2  -4   6   55.84    1.75
  -2  -4  -6   52.61    1.60
   2  -4   6   54.39    1.66
  -2   4  -6   52.83    1.59
  -2   4  -6   53.52    1.68
  -2   4  -6   50.71    1.76
  -3  -4  -6   56.09    1.46
   3  -4   6   57.60    1.95
   3  -4   6   57.45    1.79
  -3  -4  -6   55.19    1.72
  -3  -4  -6   56.85    1.73
   3  -4   6   60.55    1.85
  -3  -4  -6   56.09    1.77
  -3  -4  -6   53.61    1.67
  -3  -4  -6   55.91    1.74
  -3   4  -6   55.18    1.72
  -3   4  -6   56.65    1.91
  -3   4  -6   56.08    1.83
   4  -4   6   44.84    1.63
  -4  -4  -6   42.46    1.42
  -4  -4  -6   40.61    1.44
  -4  -4  -6   41.67    1.52
  -4  -4  -6   44.05    1.44
   4  -4   6   44.96    1.62
   4  -4   6   42.86    1.46
   4  -4   6   41.23    1.45
  -4  -4  -6   41.57    1.43
  -4  -4  -6   41.09    1.45
  -4   4  -6   40.93    1.51
  -4   4  -6   42.21    1.60
  -4   4  -6   44.11    1.45
   5  -4   6   40.68    1.45
  -5  -4  -6   37.42    1.43
  -5  -4  -6   39.50    1.39
  -5  -4  -6   38.28    1.40
   5  -4   6   38.92    1.39
  -5  -4  -6   38.21    1.40
  -5  -4  -6   39.23    1.41
  -5  -4  -6   38.27    1.40
   5  -4   6   42.17    1.60
  -5  -4  -6   41.18    1.48
  -5   4  -6   39.20    1.50
  -5   4  -6   40.39    1.59
  -5   4  -6   40.78    1.42
  -6  -4  -6   14.48    0.76
  -6  -4  -6   13.83    0.77
   6  -4   6   13.78    0.86
   6  -4   6   15.95    0.81
  -6  -4  -6   13.71    0.75
  -6  -4  -6   15.06    0.79
   6  -4   6   15.38    0.73
  -6  -4  -6   13.45    0.75
  -6  -4  -6   14.86    0.74
  -6  -4  -6   14.22    0.80
  -6   4  -6   15.18    0.89
  -6   4  -6   13.59    0.81
  -6   4  -6   12.65    0.72
  -7  -4  -6    7.23    0.59
  -7  -4  -6    8.01    0.60
  -7  -4  -6    7.25    0.54
  -7  -4  -6    7.92    0.56
  -7  -4  -6    7.50    0.57
  -7  -4  -6    7.96    0.58
  -7  -4  -6    6.79    0.53
   7  -4   6    7.70    0.59
   7  -4   6    8.36    0.68
  -7   4  -6    7.55    0.67
  -7   4  -6    6.90    0.54
  -8  -4  -6    2.64    0.40
  -8  -4  -6    2.45    0.39
  -8  -4  -6    2.92    0.40
  -8  -4  -6    2.45    0.38
   8  -4   6    3.04    0.46
  -8  -4  -6    2.72    0.46
  -8   4  -6    2.92    0.53
  -8   4  -6    2.53    0.37
  11  -5  -6    7.94    0.66
  11  -5  -6    8.57    0.71
 -11  -5   6    7.65    0.64
 -11  -5   6    8.02    0.41
 -11  -5   6    7.71    0.67
 -11   5   6    8.16    0.59
 -11   5   6    7.66    0.71
 -11   5   6    7.47    0.65
  11   5  -6    8.07    0.41
 -11   5   6    8.44    0.65
  11   5  -6    8.25    0.69
 -10  -5   6    4.29    0.48
  10  -5  -6    3.68    0.52
 -10  -5   6    5.40    0.53
  10  -5  -6    5.73    0.53
 -10   5   6    4.83    0.43
 -10   5   6    4.98    0.47
  10   5  -6    4.83    0.53
 -10   5   6    4.55    0.51
 -10   5   6    5.45    0.55
  10   5  -6    4.71    0.28
   9  -5  -6    1.44    0.33
  -9  -5   6    2.32    0.45
  -9  -5   6    1.02    0.26
  -9  -5   6    1.12    0.29
   9  -5  -6    0.89    0.24
   9  -5  -6    1.54    0.35
  -9   5   6    1.38    0.33
  -9   5   6    1.96    0.31
  -9   5   6    1.77    0.28
  -9   5   6    1.44    0.32
   9   5  -6    1.51    0.34
  -8  -5   6    0.59    0.22
  -8  -5   6    0.39    0.18
   8  -5  -6    0.32    0.16
   8  -5  -6    0.76    0.24
  -8  -5   6    0.49    0.22
  -8  -5   6    0.51    0.17
   8  -5  -6    0.76    0.26
  -8  -5   6    0.39    0.16
   8   5  -6    0.93    0.27
  -8   5   6    0.73    0.22
  -8   5   6    0.94    0.26
  -8   5   6    0.36    0.16
  -8   5   6    0.79    0.18
  -8   5   6    0.81    0.17
   8   5  -6    0.61    0.19
  -7  -5   6    3.89    0.43
   7  -5  -6    4.75    0.43
  -7  -5   6    4.45    0.42
  -7  -5   6    4.57    0.46
   7  -5  -6    4.01    0.42
  -7  -5   6    4.41    0.43
   7  -5  -6    3.90    0.40
   7   5  -6    3.52    0.40
  -7   5   6    4.67    0.31
  -7   5   6    4.98    0.46
   7   5  -6    4.15    0.43
  -7   5   6    4.11    0.41
  -7   5   6    5.40    0.45
  -7   5   6    4.83    0.32
  -6  -5   6    5.32    0.41
  -6  -5   6    4.77    0.47
   6  -5  -6    5.09    0.42
  -6  -5   6    5.58    0.45
  -6  -5   6    4.64    0.45
   6  -5  -6    4.64    0.43
  -6   5   6    5.37    0.29
  -6   5   6    5.60    0.29
   6   5  -6    4.63    0.43
  -6   5   6    5.44    0.43
   6   5  -6    5.42    0.46
  -6   5   6    5.10    0.45
  -6   5   6    5.70    0.46
  -5  -5   6   15.21    0.80
   5  -5  -6   15.45    0.78
  -5  -5   6   15.42    0.72
  -5  -5   6   14.14    0.78
  -5  -5   6   14.95    0.80
   5  -5  -6   15.94    0.75
   5  -5  -6   16.32    0.82
   5   5  -6   15.51    0.80
   5   5  -6   14.55    0.49
  -5   5   6   15.71    0.74
  -5   5   6   14.41    0.75
   5   5  -6   15.05    0.50
   5   5  -6   14.09    0.79
  -5   5   6   15.61    0.79
  -4  -5   6   31.81    1.25
   4  -5  -6   32.88    1.26
   4  -5  -6   33.11    1.19
  -4  -5   6   33.08    1.16
   4  -5  -6   32.25    1.23
  -4  -5   6   32.73    1.29
  -4  -5   6   32.58    1.26
  -4   5   6   32.36    1.17
   4   5  -6   32.34    1.28
   4   5  -6   32.58    0.95
  -4   5   6   31.03    1.21
  -4   5   6   32.98    1.21
   4   5  -6   32.21    1.24
   4   5  -6   31.51    0.95
   4   5  -6   33.82    1.18
  -3  -5   6   30.28    1.19
   3  -5  -6   34.44    1.23
  -3  -5   6   30.70    1.15
  -3  -5   6   24.57    1.01
   3  -5  -6   31.83    1.15
   3  -5  -6   32.77    1.23
  -3  -5   6   30.71    1.21
   3   5  -6   32.32    1.14
   3   5  -6   33.43    1.00
  -3   5   6   29.84    1.08
   3   5  -6   32.84    1.20
   3   5  -6   32.59    1.00
   3   5  -6   32.02    1.27
  -3   5   6   32.44    1.17
  -2  -5   6   72.87    2.09
   2  -5  -6   73.39    2.19
  -2  -5   6   74.45    2.15
   2  -5  -6   71.98    2.17
  -2  -5   6   74.46    2.27
   2   5  -6   73.10    2.14
   2   5  -6   74.75    2.12
  -2   5   6   73.95    2.18
   2   5  -6   72.86    2.01
   2   5  -6   71.76    1.99
   2   5  -6   71.09    2.26
  -2   5   6   73.64    2.10
  -2   5   6   60.78    2.03
   1  -5  -6   67.63    2.01
  -1  -5   6   73.28    2.11
   1  -5  -6   65.43    1.98
  -1  -5   6   71.85    2.27
  -1  -5   6   74.09    2.12
   1  -5  -6   66.73    2.03
  -1   5   6   72.20    2.05
   1   5  -6   67.64    1.93
  -1   5   6   72.33    2.18
  -1   5   6   73.75    2.13
   1   5  -6   66.24    2.15
   1   5  -6   67.21    1.97
   1   5  -6   70.93    1.95
   1   5  -6   68.04    1.97
   0  -5   6   29.12    1.04
   0  -5  -6   27.39    1.05
   0  -5  -6   28.91    1.03
   0  -5   6   28.22    1.17
   0  -5  -6   30.59    1.10
   0   5  -6   30.62    0.99
   0   5   6   29.32    1.09
   0   5  -6   30.39    1.20
   0   5  -6   29.96    1.05
   0   5  -6   30.76    1.06
   0   5   6   29.41    1.06
  -1  -5  -6   20.95    0.85
   1  -5   6   19.60    0.94
  -1  -5  -6   20.35    0.85
  -1  -5  -6   20.47    0.77
  -1  -5  -6   20.90    0.67
   1  -5   6   20.75    0.91
   1  -5   6   20.95    0.83
  -1  -5  -6   20.79    0.66
   1   5   6   20.90    0.86
  -1   5  -6   21.40    0.84
  -1   5  -6   20.93    0.86
   1   5   6   20.68    0.85
  -1   5  -6   20.95    0.97
  -2  -5  -6   11.08    0.47
  -2  -5  -6   10.16    0.46
   2  -5   6   10.73    0.66
   2  -5   6   10.84    0.58
  -2  -5  -6   10.63    0.47
  -2  -5  -6    9.22    0.53
  -2  -5  -6   10.39    0.56
   2  -5   6   10.33    0.60
   2   5   6   10.24    0.58
  -2   5  -6    9.96    0.58
  -2   5  -6   10.17    0.64
  -2   5  -6   10.14    0.55
   3  -5   6    0.91    0.24
  -3  -5  -6    0.68    0.19
   3  -5   6    0.42    0.14
  -3  -5  -6    0.65    0.16
  -3  -5  -6    0.59    0.14
   3  -5   6    1.10    0.24
  -3  -5  -6    0.65    0.17
  -3  -5  -6    0.94    0.21
  -3  -5  -6    1.06    0.14
  -3   5  -6    0.69    0.19
  -3   5  -6    1.11    0.24
  -3   5  -6    0.48    0.16
  -4  -5  -6    0.73    0.21
  -4  -5  -6    0.99    0.22
   4  -5   6    0.68    0.20
   4  -5   6    0.59    0.18
  -4  -5  -6    0.67    0.18
  -4  -5  -6    0.72    0.18
  -4  -5  -6    0.70    0.18
  -4  -5  -6    0.96    0.22
   4  -5   6    0.89    0.22
   4  -5   6    0.95    0.22
  -4   5  -6    0.83    0.22
  -4   5  -6    0.61    0.20
  -4   5  -6    0.60    0.17
   5  -5   6    3.84    0.42
  -5  -5  -6    3.28    0.33
  -5  -5  -6    3.21    0.33
  -5  -5  -6    2.89    0.31
  -5  -5  -6    3.31    0.38
  -5  -5  -6    2.23    0.34
  -5  -5  -6    3.08    0.41
   5  -5   6    3.88    0.39
   5  -5   6    3.58    0.37
  -5   5  -6    3.18    0.35
  -5   5  -6    3.27    0.38
  -5   5  -6    3.07    0.44
   6  -5   6    4.52    0.48
  -6  -5  -6    3.80    0.40
  -6  -5  -6    4.45    0.43
  -6  -5  -6    3.83    0.41
  -6  -5  -6    3.77    0.42
  -6  -5  -6    3.87    0.39
   6  -5   6    4.66    0.46
  -6  -5  -6    3.47    0.36
  -6  -5  -6    4.09    0.38
  -6   5  -6    4.24    0.48
  -6   5  -6    4.15    0.42
  -7  -5  -6    7.64    0.54
   7  -5   6    7.64    0.66
  -7  -5  -6    7.65    0.60
  -7  -5  -6    7.65    0.59
  -7  -5  -6    7.93    0.60
  -7  -5  -6    7.08    0.52
  -7  -5  -6    7.13    0.60
  -7   5  -6    7.12    0.67
  -7   5  -6    8.20    0.60
  -8  -5  -6   10.44    0.76
  -8  -5  -6   10.81    0.75
  -8  -5  -6   10.42    0.66
  -8  -5  -6    9.79    0.70
  -8  -5  -6    9.07    0.62
   8  -5   6   10.64    0.81
  -8   5  -6   11.67    0.87
  -8   5  -6   10.34    0.74
 -10  -6   6    7.79    0.69
 -10  -6   6    5.53    0.56
 -10  -6   6    6.15    0.59
  10  -6  -6    6.45    0.60
  10  -6  -6    6.12    0.64
 -10   6   6    6.18    0.46
 -10   6   6    5.95    0.60
 -10   6   6    5.29    0.47
 -10   6   6    5.60    0.60
  10   6  -6    6.90    0.64
   9  -6  -6    7.56    0.65
   9  -6  -6    7.85    0.67
  -9  -6   6    7.18    0.60
  -9  -6   6    7.64    0.67
  -9  -6   6    7.80    0.63
  -9   6   6    8.43    0.66
   9   6  -6    8.31    0.67
  -9   6   6    8.22    0.50
  -9   6   6    7.99    0.66
  -9   6   6    7.93    0.50
   8  -6  -6   18.34    1.01
  -8  -6   6   15.74    0.90
  -8  -6   6   16.45    0.89
   8  -6  -6   16.84    0.95
   8  -6  -6   17.08    0.91
  -8  -6   6   17.33    1.01
  -8   6   6   16.59    0.69
   8   6  -6   17.75    0.99
  -8   6   6   16.97    0.93
  -8   6   6   17.67    0.98
  -8   6   6   17.24    0.71
  -7  -6   6   24.39    1.13
  -7  -6   6   22.49    1.14
  -7  -6   6   24.23    1.19
   7  -6  -6   23.70    1.09
   7  -6  -6   23.78    1.11
  -7  -6   6   19.95    1.01
   7  -6  -6   24.32    1.17
  -7   6   6   23.69    0.79
  -7   6   6   23.20    1.12
  -7   6   6   23.34    1.07
  -7   6   6   25.53    1.15
   7   6  -6   21.80    1.13
   7   6  -6   23.96    1.16
  -7   6   6   22.62    0.78
   6  -6  -6   17.79    0.89
  -6  -6   6   17.75    0.96
  -6  -6   6   16.73    0.91
  -6  -6   6   16.64    0.89
   6  -6  -6   17.35    0.87
  -6  -6   6   16.49    0.84
   6  -6  -6   18.47    0.96
  -6   6   6   16.69    0.89
   6   6  -6   16.02    0.91
  -6   6   6   15.51    0.82
   6   6  -6   17.55    0.93
  -6   6   6   19.21    0.93
   5  -6  -6   11.04    0.71
   5  -6  -6   12.74    0.70
  -5  -6   6   11.46    0.65
   5  -6  -6   11.35    0.68
  -5  -6   6   11.71    0.73
  -5  -6   6   11.51    0.73
  -5  -6   6   11.90    0.72
   5   6  -6   12.64    0.68
  -5   6   6   11.43    0.66
   5   6  -6   11.43    0.72
  -5   6   6   11.28    0.68
  -5   6   6   11.98    0.69
   5   6  -6   11.58    0.72
   4  -6  -6   10.15    0.61
   4  -6  -6   10.99    0.67
  -4  -6   6    9.30    0.64
  -4  -6   6   10.63    0.67
  -4  -6   6   10.52    0.60
   4  -6  -6    9.84    0.59
  -4  -6   6   10.37    0.67
   4   6  -6   10.35    0.60
  -4   6   6    9.88    0.61
   4   6  -6   11.51    0.70
   4   6  -6   10.84    0.65
  -4   6   6    9.31    0.59
  -4   6   6   10.23    0.60
   3  -6  -6    0.84    0.20
  -3  -6   6    1.18    0.28
  -3  -6   6    1.06    0.26
  -3  -6   6    0.85    0.23
   3  -6  -6    1.05    0.24
   3  -6  -6    1.08    0.21
  -3  -6   6    0.85    0.20
   3   6  -6    1.17    0.24
  -3   6   6    0.76    0.21
   3   6  -6    1.13    0.13
  -3   6   6    1.13    0.25
   3   6  -6    1.06    0.23
  -3   6   6    0.91    0.24
   3   6  -6    1.17    0.13
   3   6  -6    0.99    0.25
  -2  -6   6    7.30    0.47
  -2  -6   6    6.06    0.49
   2  -6  -6    7.27    0.48
  -2  -6   6    6.89    0.48
   2  -6  -6    6.97    0.50
   2  -6  -6    7.50    0.50
   2   6  -6    7.20    0.37
  -2   6   6    6.95    0.45
  -2   6   6    7.09    0.49
  -2   6   6    7.08    0.48
   2   6  -6    7.59    0.55
   2   6  -6    6.95    0.47
   2   6  -6    7.50    0.38
   2   6  -6    7.30    0.48
  -1  -6   6    2.42    0.34
   1  -6  -6    2.65    0.28
  -1  -6   6    2.29    0.26
   1  -6  -6    3.00    0.31
   1  -6  -6    2.74    0.30
  -1  -6   6    1.43    0.28
   1   6  -6    2.59    0.24
   1   6  -6    2.79    0.34
   1   6  -6    3.78    0.29
  -1   6   6    2.19    0.34
  -1   6   6    2.11    0.24
  -1   6   6    1.98    0.31
   1   6  -6    2.97    0.30
   1   6  -6    2.55    0.27
   0  -6   6    5.18    0.45
   0  -6  -6    4.92    0.37
   0  -6   6    5.15    0.45
   0  -6   6    4.60    0.33
   0  -6  -6    4.86    0.36
   0  -6   6    5.09    0.40
   0  -6  -6    5.09    0.40
   0   6  -6    4.94    0.35
   0   6   6    5.12    0.41
   0   6   6    4.58    0.38
   0   6  -6    4.79    0.38
   0   6  -6    5.14    0.45
   1  -6   6   15.65    0.81
  -1  -6  -6   14.77    0.69
   1  -6   6   14.63    0.81
  -1  -6  -6   15.52    0.73
  -1  -6  -6   14.22    0.65
   1  -6   6   14.50    0.71
  -1   6  -6   14.69    0.81
  -1   6  -6   14.99    0.72
  -1   6  -6   15.08    0.70
   1   6   6   14.08    0.68
   1   6   6   14.41    0.72
   2  -6   6   19.95    0.98
  -2  -6  -6   19.22    0.67
   2  -6   6   20.39    0.95
  -2  -6  -6   19.56    0.68
  -2  -6  -6   19.54    0.82
   2  -6   6   19.53    0.88
  -2  -6  -6   18.75    0.86
  -2  -6  -6   17.51    0.72
  -2   6  -6   19.40    0.86
   2   6   6   19.65    0.90
  -2   6  -6   18.75    0.86
  -2   6  -6   19.12    0.95
  -3  -6  -6   16.45    0.69
   3  -6   6   17.09    0.88
   3  -6   6   18.49    0.96
  -3  -6  -6   17.34    0.65
  -3  -6  -6   17.58    0.73
  -3  -6  -6   16.99    0.75
   3  -6   6   18.06    0.86
  -3  -6  -6   17.46    0.84
  -3  -6  -6   17.34    0.94
  -3  -6  -6   17.41    0.78
  -3   6  -6   17.44    0.85
  -3   6  -6   17.05    0.92
  -3   6  -6   17.29    0.83
  -4  -6  -6   26.27    1.04
  -4  -6  -6   26.49    1.03
  -4  -6  -6   25.25    1.12
   4  -6   6   26.96    1.21
  -4  -6  -6   28.73    1.26
   4  -6   6   28.88    1.29
   4  -6   6   28.53    1.21
  -4  -6  -6   26.54    0.85
  -4  -6  -6   27.77    1.06
   4  -6   6   27.07    1.17
  -4  -6  -6   26.16    1.00
  -4   6  -6   27.48    1.13
  -4   6  -6   24.45    1.13
  -4   6  -6   27.32    1.26
  -5  -6  -6   13.39    0.77
  -5  -6  -6   14.44    0.75
  -5  -6  -6   13.30    0.70
   5  -6   6   13.84    0.85
  -5  -6  -6   16.08    0.91
  -5  -6  -6   13.68    0.69
   5  -6   6   13.42    0.77
  -5  -6  -6   14.83    0.72
  -5   6  -6   13.83    0.82
  -5   6  -6   13.89    0.87
  -5   6  -6   13.91    0.78
  -6  -6  -6    5.53    0.45
   6  -6   6    6.16    0.94
   6  -6   6    5.82    0.56
  -6  -6  -6    5.32    0.43
  -6  -6  -6    5.26    0.48
  -6  -6  -6    5.45    0.53
  -6  -6  -6    6.13    0.49
  -6  -6  -6    5.92    0.55
  -6   6  -6    6.15    0.53
  -6   6  -6    5.40    0.57
   7  -6   6    2.04    0.37
  -7  -6  -6    3.66    0.37
  -7  -6  -6    3.11    0.46
  -7  -6  -6    3.05    0.46
  -7  -6  -6    2.67    0.41
  -7  -6  -6    3.34    0.47
  -7  -6  -6    3.05    0.35
  -7   6  -6    2.48    0.45
  -7   6  -6    2.26    0.37
  -9  -7   6    1.27    0.32
   9  -7  -6    1.15    0.30
  -9  -7   6    1.73    0.40
   9  -7  -6    1.12    0.35
  -9  -7   6    1.01    0.29
  -9   7   6    1.07    0.24
  -9   7   6    1.03    0.32
  -9   7   6    0.77    0.29
  -9   7   6    1.08    0.21
   9   7  -6    0.94    0.29
  -8  -7   6    0.90    0.29
  -8  -7   6    0.33    0.19
   8  -7  -6    0.80    0.33
   8  -7  -6    0.83    0.28
  -8   7   6    0.54    0.23
  -8   7   6    1.12    0.30
  -8   7   6    0.73    0.15
  -8   7   6    0.51    0.13
   8   7  -6    0.52    0.25
  -7  -7   6    0.52    0.21
   7  -7  -6    0.55    0.27
  -7  -7   6    0.26    0.18
  -7  -7   6    0.20    0.18
   7  -7  -6    0.14    0.16
   7   7  -6    0.41    0.17
  -7   7   6    0.27    0.17
  -7   7   6    0.58    0.21
   6  -7  -6    1.50    0.32
   6  -7  -6    1.32    0.26
  -6  -7   6    1.66    0.35
  -6  -7   6    2.07    0.40
  -6  -7   6    1.24    0.27
  -6  -7   6    1.40    0.29
   6  -7  -6    1.02    0.28
  -6   7   6    1.54    0.33
  -6   7   6    1.15    0.27
   6   7  -6    1.56    0.34
   6   7  -6    1.00    0.28
  -6   7   6    1.47    0.33
  -5  -7   6    4.86    0.44
  -5  -7   6    4.87    0.49
   5  -7  -6    5.17    0.46
   5  -7  -6    5.05    0.50
  -5  -7   6    5.18    0.50
   5  -7  -6    5.56    0.47
  -5  -7   6    4.35    0.45
  -5   7   6    5.17    0.47
   5   7  -6    4.94    0.46
   5   7  -6    5.09    0.48
  -5   7   6    4.61    0.45
  -5   7   6    4.64    0.46
   5   7  -6    5.11    0.51
  -4  -7   6    4.29    0.45
  -4  -7   6    4.69    0.43
  -4  -7   6    5.12    0.49
  -4  -7   6    4.99    0.46
   4  -7  -6    4.40    0.41
   4  -7  -6    5.04    0.43
   4   7  -6    3.62    0.37
  -4   7   6    4.77    0.45
   4   7  -6    4.91    0.44
  -4   7   6    4.96    0.43
  -4   7   6    5.33    0.47
   4   7  -6    5.13    0.47
   3  -7  -6   15.37    0.77
  -3  -7   6   14.76    0.81
   3  -7  -6   15.66    0.84
  -3  -7   6   16.00    0.80
  -3  -7   6   15.74    0.86
   3  -7  -6   14.88    0.78
   3   7  -6   14.09    0.78
   3   7  -6   14.92    0.84
  -3   7   6   15.19    0.80
  -3   7   6   16.44    0.82
   3   7  -6   14.44    0.77
  -3   7   6   15.46    0.78
  -2  -7   6   18.79    0.89
  -2  -7   6   18.66    0.89
  -2  -7   6   19.81    0.99
   2  -7  -6   19.27    0.87
   2  -7  -6   17.79    0.90
   2  -7  -6   20.19    0.92
  -2   7   6   18.82    0.89
   2   7  -6   18.77    0.68
   2   7  -6   19.81    0.90
  -2   7   6   19.56    0.86
   2   7  -6   19.21    0.67
   2   7  -6   16.86    0.93
  -2   7   6   19.30    0.89
   1  -7  -6   19.04    0.89
   1  -7  -6   18.20    0.82
  -1  -7   6   18.90    0.96
  -1  -7   6   19.97    0.98
   1  -7  -6   18.16    0.87
  -1  -7   6   19.31    0.89
  -1  -7   6   18.30    0.84
   1   7  -6   18.09    0.94
   1   7  -6   18.68    0.74
  -1   7   6   18.34    0.84
   1   7  -6   18.94    0.73
   1   7  -6   18.45    0.87
  -1   7   6   18.41    0.88
   0  -7   6   12.52    0.61
   0  -7   6   11.40    0.73
   0  -7   6   12.56    0.76
   0  -7  -6   11.00    0.64
   0  -7   6   12.36    0.68
   0  -7  -6   11.85    0.61
   0  -7  -6    9.89    0.60
   0   7  -6   11.36    0.65
   0   7   6   11.83    0.64
   0   7   6   11.71    0.68
   0   7  -6   11.08    0.71
   0   7  -6   12.32    0.59
   1  -7   6    3.84    0.43
   1  -7   6    5.18    0.49
  -1  -7  -6    4.48    0.42
   1  -7   6    4.57    0.42
  -1  -7  -6    4.67    0.37
   1   7   6    4.48    0.39
  -1   7  -6    4.80    0.39
  -1   7  -6    4.44    0.38
  -1   7  -6    4.49    0.45
   1   7   6    4.42    0.41
   2  -7   6    2.00    0.38
  -2  -7  -6    1.87    0.27
   2  -7   6    1.61    0.33
   2  -7   6    1.35    0.29
  -2  -7  -6    1.92    0.28
   2   7   6    1.63    0.31
  -2   7  -6    1.48    0.30
  -2   7  -6    1.68    0.34
  -2   7  -6    1.62    0.29
  -3  -7  -6    1.23    0.19
  -3  -7  -6    1.19    0.20
   3  -7   6    0.92    0.25
  -3  -7  -6    1.32    0.29
  -3  -7  -6    1.41    0.25
   3  -7   6    0.88    0.24
   3  -7   6    1.41    0.34
  -3  -7  -6    0.93    0.19
  -3  -7  -6    1.67    0.26
  -3   7  -6    0.72    0.22
   3   7   6    1.32    0.30
  -3   7  -6    1.25    0.28
  -3   7  -6    0.75    0.22
  -4  -7  -6    1.58    0.26
  -4  -7  -6    1.89    0.30
   4  -7   6    1.88    0.35
   4  -7   6    2.08    0.41
  -4  -7  -6    1.63    0.26
  -4  -7  -6    1.69    0.37
  -4  -7  -6    1.67    0.27
  -4  -7  -6    1.79    0.21
  -4   7  -6    1.85    0.35
  -4   7  -6    1.93    0.37
  -4   7  -6    1.31    0.29
  -5  -7  -6    0.74    0.20
  -5  -7  -6    0.61    0.19
  -5  -7  -6    0.44    0.12
  -5  -7  -6    0.47    0.23
  -5  -7  -6    0.42    0.18
   5  -7   6    0.38    0.20
  -5  -7  -6    0.70    0.18
  -5   7  -6    0.32    0.20
  -6  -7  -6    1.98    0.35
  -6  -7  -6    1.97    0.31
   6  -7   6    2.64    0.48
  -6  -7  -6    1.83    0.29
  -6  -7  -6    1.38    0.36
  -6  -7  -6    2.28    0.39
  -6   7  -6    2.17    0.43
  -6   7  -6    2.15    0.45
   8  -8  -6    6.02    0.67
   8  -8  -6    6.16    0.59
  -8  -8   6    5.51    0.57
  -8  -8   6    3.97    0.58
  -8   8   6    6.21    0.57
   8   8  -6    5.86    0.62
  -8   8   6    6.13    0.65
  -7  -8   6    5.22    0.56
  -7  -8   6    5.59    0.59
   7  -8  -6    6.60    0.66
   7  -8  -6    6.06    0.53
   7   8  -6    5.31    0.56
  -7   8   6    7.57    0.63
  -7   8   6    5.93    0.57
   6  -8  -6    5.48    0.50
  -6  -8   6    5.25    0.50
   6  -8  -6    4.00    0.57
  -6  -8   6    5.37    0.56
  -6   8   6    5.89    0.53
  -6   8   6    5.05    0.55
   6   8  -6    5.54    0.52
  -5  -8   6    3.56    0.63
  -5  -8   6    4.04    0.46
   5  -8  -6    4.40    0.51
   5  -8  -6    4.73    0.45
  -5  -8   6    3.91    0.46
  -5   8   6    4.14    0.46
   5   8  -6    3.56    0.41
   5   8  -6    4.73    0.48
  -5   8   6    3.75    0.50
  -5   8   6    4.86    0.46
   4  -8  -6    2.29    0.37
   4  -8  -6    2.32    0.41
  -4  -8   6    1.78    0.35
   4  -8  -6    2.59    0.46
  -4  -8   6    2.04    0.34
  -4  -8   6    1.65    0.33
  -4  -8   6    1.77    0.34
   4   8  -6    2.21    0.34
  -4   8   6    1.93    0.33
   4   8  -6    2.05    0.39
  -4   8   6    1.35    0.28
  -4   8   6    2.07    0.35
   3  -8  -6    1.13    0.29
   3  -8  -6    1.50    0.32
  -3  -8   6    1.31    0.31
  -3  -8   6    0.76    0.23
   3  -8  -6    2.03    0.34
  -3  -8   6    1.22    0.28
  -3   8   6    1.06    0.25
   3   8  -6    1.78    0.31
   3   8  -6    2.06    0.41
  -3   8   6    1.14    0.25
  -2  -8   6    0.72    0.22
  -2  -8   6    0.45    0.21
   2  -8  -6    0.71    0.20
  -2  -8   6    0.68    0.22
   2  -8  -6    0.81    0.20
   2  -8  -6    0.59    0.22
  -2  -8   6    0.73    0.24
   2   8  -6    0.57    0.11
   2   8  -6    0.92    0.25
  -2   8   6    0.76    0.21
  -2   8   6    0.84    0.20
   2   8  -6    0.61    0.18
   2   8  -6    0.84    0.14
  -1  -8   6    2.16    0.39
  -1  -8   6    2.21    0.40
   1  -8  -6    2.35    0.28
   1  -8  -6    1.64    0.33
  -1  -8   6    2.54    0.36
  -1  -8   6    1.49    0.28
   1  -8  -6    1.98    0.35
  -1   8   6    2.07    0.34
   1   8  -6    1.56    0.21
   1   8  -6    2.15    0.22
   1   8  -6    1.85    0.33
   1   8  -6    1.83    0.32
  -1   8   6    1.84    0.29
   0  -8   6    1.34    0.26
   0  -8   6    1.15    0.28
   0  -8  -6    1.47    0.27
   0  -8  -6    1.48    0.26
   0  -8  -6    1.83    0.36
   0  -8   6    1.54    0.34
   0  -8   6    1.69    0.33
   0   8  -6    1.49    0.30
   0   8   6    1.09    0.23
   0   8  -6    1.30    0.23
   0   8   6    1.05    0.24
   0   8  -6    2.10    0.39
   1  -8   6    4.62    0.50
  -1  -8  -6    4.66    0.47
  -1  -8  -6    4.38    0.36
   1  -8   6    4.46    0.47
   1  -8   6    4.29    0.48
   1  -8   6    4.74    0.36
  -1  -8  -6    4.78    0.41
  -1   8  -6    3.60    0.44
  -1   8  -6    3.93    0.36
   1   8   6    5.08    0.48
  -1   8  -6    4.99    0.46
   2  -8   6    4.32    0.50
  -2  -8  -6    4.78    0.52
  -2  -8  -6    4.20    0.35
  -2  -8  -6    4.88    0.56
  -2  -8  -6    4.25    0.39
   2  -8   6    4.12    0.47
   2  -8   6    4.16    0.55
  -2   8  -6    4.43    0.41
   2   8   6    5.47    0.51
  -2   8  -6    5.34    0.51
  -2   8  -6    4.55    0.45
  -3  -8  -6    7.13    0.45
  -3  -8  -6    7.84    0.49
  -3  -8  -6    6.97    0.63
  -3  -8  -6    7.99    0.49
   3  -8   6    7.14    0.63
  -3   8  -6    7.65    0.59
  -3   8  -6    6.74    0.55
   3   8   6    8.61    0.65
  -3   8  -6    8.02    0.67
  -4  -8  -6    4.67    0.35
  -4  -8  -6    4.38    0.36
  -4  -8  -6    4.30    0.36
  -4  -8  -6    3.01    0.48
  -4  -8  -6    5.04    0.38
  -4  -8  -6    5.02    0.37
  -4   8  -6    4.38    0.50
  -4   8  -6    5.52    0.51
  -5  -8  -6    4.71    0.37
  -5  -8  -6    4.60    0.33
  -5  -8  -6    4.53    0.61
  -5  -8  -6    4.15    0.41
  -5  -8  -6    4.87    0.40
  -5  -8  -6    4.67    0.42
  -5   8  -6    3.58    0.54
  -5   8  -6    4.02    0.47
  -6  -9   6    0.46    0.24
   6  -9  -6    0.14    0.18
   6  -9  -6    0.08    0.26
  -6  -9   6    0.03    0.22
  -6   9   6    0.02    0.22
  -6   9   6    0.05    0.17
   6   9  -6   -0.09    0.18
  -5  -9   6    1.77    0.40
   5  -9  -6    1.19    0.34
  -5  -9   6    0.96    0.32
   5   9  -6    0.82    0.27
  -5   9   6    0.48    0.26
   5   9  -6    1.12    0.27
  -5   9   6    1.05    0.28
   4  -9  -6    1.87    0.40
   4  -9  -6    1.87    0.33
  -4  -9   6    2.11    0.42
  -4  -9   6    1.74    0.38
  -4   9   6    1.36    0.31
   4   9  -6    2.00    0.36
  -4   9   6    2.09    0.40
   4   9  -6    1.97    0.41
   3  -9  -6    1.22    0.28
  -3  -9   6    1.81    0.40
  -3  -9   6    1.04    0.30
   3  -9  -6    1.26    0.32
  -3   9   6    1.08    0.29
   3   9  -6    1.13    0.29
   3   9  -6    0.95    0.27
  -3   9   6    1.64    0.35
  -2  -9   6    4.46    0.47
   2  -9  -6    4.15    0.40
  -2  -9   6    4.31    0.51
   2  -9  -6    4.30    0.48
  -2   9   6    5.47    0.48
   2   9  -6    4.65    0.49
  -2   9   6    5.28    0.52
   2   9  -6    4.20    0.45
  -1  -9   6    4.89    0.65
  -1  -9   6    3.63    0.40
   1  -9  -6    3.80    0.38
   1  -9  -6    3.32    0.47
  -1   9   6    3.84    0.41
   1   9  -6    3.35    0.41
  -1   9   6    3.89    0.57
   1   9  -6    3.93    0.28
   1   9  -6    4.70    0.48
   1   9  -6    4.40    0.30
   0  -9   6    1.73    0.39
   0  -9  -6    1.88    0.31
   0  -9  -6    1.89    0.31
   0  -9   6    2.31    0.37
   0   9  -6    1.75    0.27
   0   9   6    1.13    0.28
   0   9  -6    1.92    0.29
   0   9  -6    1.23    0.31
   0   9   6    1.48    0.29
   0   9  -6    2.03    0.39
  -1  -9  -6    1.03    0.33
  -1  -9  -6    1.25    0.25
  -1  -9  -6    0.62    0.23
   1  -9   6    0.92    0.23
   1  -9   6    0.88    0.31
  -1   9  -6    1.21    0.33
  -1   9  -6    1.00    0.24
   1   9   6    1.17    0.30
  -1   9  -6    0.98    0.32
  -2  -9  -6    0.81    0.22
  -2  -9  -6    0.80    0.17
   2  -9   6    0.50    0.25
  -2  -9  -6    0.90    0.29
  -2   9  -6    1.11    0.30
   2   9   6    0.66    0.25
  -2   9  -6    0.84    0.25
  -2   9  -6    0.46    0.23
  -3  -9  -6    0.12    0.20
  -3  -9  -6    0.04    0.17
  -3  -9  -6    0.78    0.29
  -3  -9  -6    0.03    0.13
  -3   9  -6    0.00    0.25
   3   9   6    0.18    0.22
  -3   9  -6    0.23    0.24
  -3   9  -6    0.22    0.20
  12   0  -7   -0.18    0.14
  12   0  -7    0.03    0.16
 -12   0   7    0.20    0.18
 -12   0   7   -0.23    0.15
 -11   0   7   -0.14    0.10
 -11   0   7   -0.21    0.12
  11   0  -7    0.05    0.13
 -11   0   7    0.34    0.16
  11   0  -7   -0.04    0.11
  10   0  -7   -0.05    0.12
  10   0  -7   -0.03    0.13
 -10   0   7   -0.09    0.11
 -10   0   7   -0.19    0.11
  10   0  -7   -0.03    0.13
 -10   0   7    0.03    0.10
  10   0  -7    0.07    0.11
 -10   0   7    0.04    0.12
   9   0  -7    0.03    0.08
  -9   0   7    0.15    0.11
   9   0  -7    0.03    0.08
   9   0  -7   -0.08    0.11
  -9   0   7    0.24    0.14
  -9   0   7    0.02    0.09
   9   0  -7    0.13    0.13
  -9   0   7    0.10    0.10
   8   0  -7    0.10    0.09
   8   0  -7   -0.02    0.09
  -8   0   7    0.06    0.10
  -8   0   7   -0.03    0.07
   8   0  -7   -0.02    0.07
   8   0  -7    0.09    0.10
  -8   0   7    0.06    0.11
  -8   0   7    0.09    0.11
  -7   0   7   -0.02    0.09
   7   0  -7    0.12    0.10
   7   0  -7   -0.02    0.06
  -7   0   7    0.01    0.06
  -7   0   7    0.01    0.10
   7   0  -7    0.13    0.10
  -7   0   7    0.00    0.07
   7   0  -7    0.05    0.08
  -6   0   7    0.00    0.06
   6   0  -7    0.08    0.07
   6   0  -7    0.02    0.07
  -6   0   7    0.08    0.09
   6   0  -7   -0.03    0.06
   6   0  -7    0.20    0.09
  -6   0   7    0.13    0.08
  -6   0   7    0.08    0.08
  -5   0   7    0.11    0.08
  -5   0   7    0.05    0.07
   5   0  -7    0.01    0.08
   5   0  -7    0.03    0.07
  -5   0   7    0.02    0.06
  -5   0   7    0.10    0.07
   5   0  -7    0.01    0.06
  -4   0   7    0.05    0.08
  -4   0   7   -0.04    0.05
   4   0  -7   -0.03    0.07
   4   0  -7   -0.06    0.05
  -4   0   7    0.03    0.05
  -4   0   7    0.00    0.06
   4   0  -7   -0.02    0.06
  -3   0   7    0.09    0.09
   3   0  -7    0.01    0.06
   3   0  -7    0.06    0.07
  -3   0   7    0.13    0.08
   3   0  -7    0.21    0.09
  -3   0   7    0.05    0.06
   2   0  -7    0.13    0.07
  -2   0   7    0.15    0.10
  -2   0   7    0.14    0.07
   2   0  -7    0.08    0.07
  -2   0   7    0.04    0.05
   2   0  -7    0.04    0.06
   1   0  -7    0.17    0.07
  -1   0   7    0.20    0.09
   1   0  -7    0.15    0.08
   1   0  -7    0.16    0.09
  -1   0   7    0.16    0.07
  -1   0   7    0.23    0.09
   0   0  -7    0.11    0.06
   0   0   7    0.13    0.07
   0   0   7    0.09    0.06
   0   0  -7    0.08    0.06
   0   0  -7    0.12    0.08
   1   0   7    0.11    0.06
  -1   0  -7    0.33    0.14
  -1   0  -7    0.10    0.08
   1   0   7    0.07    0.09
   2   0   7   -0.02    0.07
  -2   0  -7    0.09    0.04
   2   0   7    0.06    0.05
   2   0   7    0.10    0.05
  -2   0  -7    0.12    0.09
  -2   0  -7    0.05    0.08
  -2   0  -7    0.04    0.07
  -3   0  -7    0.04    0.08
  -3   0  -7    0.17    0.11
  -3   0  -7   -0.15    0.07
  -3   0  -7    0.11    0.06
  -4   0  -7   -0.01    0.08
  -4   0  -7    0.04    0.08
  -4   0  -7   -0.05    0.07
  -4   0  -7   -0.02    0.06
  -5   0  -7   -0.07    0.09
  -5   0  -7    0.12    0.12
  -5   0  -7    0.08    0.12
  -5   0  -7    0.13    0.08
  -6   0  -7   -0.11    0.09
  -6   0  -7   -0.03    0.11
  -6   0  -7    0.11    0.14
  -6   0  -7    0.05    0.08
  -6   0  -7    0.10    0.08
  -7   0  -7   -0.13    0.24
  -7   0  -7    0.13    0.11
  -7   0  -7    0.11    0.08
  -7   0  -7   -0.04    0.15
  -7   0  -7   -0.12    0.12
  -8   0  -7    0.15    0.16
  -8   0  -7   -0.13    0.14
  -8   0  -7    0.05    0.08
  -9   0  -7   -0.01    0.16
  -9   0  -7   -0.13    0.17
  12  -1  -7    0.31    0.20
  12  -1  -7   -0.02    0.16
 -12  -1   7    0.45    0.20
 -12  -1   7    0.10    0.23
 -12  -1   7    0.15    0.22
 -12   1   7    0.42    0.24
 -12   1   7    0.28    0.19
  12   1  -7    0.21    0.18
  12   1  -7   -0.04    0.17
  11  -1  -7    0.05    0.18
 -11  -1   7    0.68    0.20
  11  -1  -7    0.41    0.15
  11  -1  -7    0.21    0.18
  11  -1  -7    0.19    0.12
 -11  -1   7    0.08    0.15
 -11  -1   7    0.62    0.25
 -11   1   7    0.23    0.28
 -11   1   7    0.10    0.16
  11   1  -7    0.58    0.17
 -11   1   7    0.39    0.19
  11   1  -7    0.48    0.18
 -11   1   7    0.38    0.24
 -10  -1   7    0.68    0.20
  10  -1  -7    0.22    0.17
  10  -1  -7    0.15    0.15
  10  -1  -7    0.30    0.16
  10  -1  -7    0.32    0.17
 -10  -1   7    0.30    0.16
 -10  -1   7    0.21    0.15
 -10  -1   7    0.09    0.15
  10   1  -7    0.29    0.16
 -10   1   7    0.18    0.14
  10   1  -7    0.32    0.19
 -10   1   7    0.10    0.15
 -10   1   7    0.11    0.14
 -10   1   7    0.09    0.16
  10   1  -7    0.19    0.15
  10   1  -7    0.20    0.14
   9  -1  -7    1.51    0.28
   9  -1  -7    1.48    0.29
  -9  -1   7    1.12    0.21
  -9  -1   7    1.01    0.21
   9  -1  -7    1.56    0.31
  -9  -1   7    1.25    0.28
  -9  -1   7    0.93    0.24
   9  -1  -7    1.23    0.26
   9  -1  -7    1.28    0.26
   9   1  -7    1.38    0.25
  -9   1   7    1.77    0.37
   9   1  -7    1.31    0.31
  -9   1   7    0.98    0.25
   9   1  -7    1.23    0.25
  -9   1   7    1.26    0.29
   9   1  -7    1.12    0.27
  -9   1   7    1.31    0.26
   8  -1  -7    2.55    0.37
   8  -1  -7    2.37    0.36
   8  -1  -7    2.74    0.29
  -8  -1   7    2.39    0.37
  -8  -1   7    2.48    0.34
   8  -1  -7    2.71    0.31
  -8  -1   7    2.70    0.40
  -8  -1   7    2.65    0.28
   8  -1  -7    2.71    0.30
   8   1  -7    1.84    0.29
   8   1  -7    2.48    0.27
  -8   1   7    2.51    0.30
  -8   1   7    2.47    0.29
  -8   1   7    2.37    0.37
   8   1  -7    2.75    0.33
  -8   1   7    2.55    0.28
   8   1  -7    2.57    0.38
  -7  -1   7    9.87    0.61
   7  -1  -7    9.94    0.61
   7  -1  -7    9.85    0.53
  -7  -1   7   10.18    0.55
   7  -1  -7    9.78    0.55
   7  -1  -7   10.29    0.59
  -7  -1   7    9.99    0.61
  -7  -1   7   10.13    0.53
  -7   1   7   10.64    0.58
  -7   1   7   10.34    0.60
  -7   1   7    9.52    0.53
   7   1  -7   10.68    0.61
  -7   1   7   10.15    0.61
   7   1  -7    9.62    0.58
   7   1  -7   10.36    0.55
   7   1  -7   10.14    0.62
   6  -1  -7    4.55    0.33
  -6  -1   7    3.96    0.33
  -6  -1   7    3.64    0.29
  -6  -1   7    4.49    0.38
  -6  -1   7    3.93    0.29
   6  -1  -7    4.20    0.30
   6  -1  -7    4.04    0.36
   6  -1  -7    3.83    0.34
  -6  -1   7    4.18    0.36
  -6   1   7    4.35    0.38
  -6   1   7    4.88    0.35
  -6   1   7    3.98    0.30
   6   1  -7    3.95    0.35
  -6   1   7    4.05    0.35
   6   1  -7    4.12    0.33
   6   1  -7    4.03    0.36
   6   1  -7    4.43    0.38
  -5  -1   7    2.59    0.28
  -5  -1   7    2.69    0.28
   5  -1  -7    2.66    0.27
   5  -1  -7    2.50    0.24
   5  -1  -7    2.40    0.27
  -5  -1   7    2.69    0.22
  -5  -1   7    2.65    0.25
  -5  -1   7    2.34    0.20
   5  -1  -7    2.73    0.22
   5   1  -7    2.76    0.29
  -5   1   7    2.92    0.30
   5   1  -7    2.60    0.28
  -5   1   7    3.15    0.23
   5   1  -7    2.67    0.25
  -5   1   7    2.28    0.26
  -5   1   7    2.75    0.25
   5   1  -7    2.53    0.27
   4  -1  -7    7.24    0.33
   4  -1  -7    7.08    0.45
   4  -1  -7    7.33    0.40
   4  -1  -7    7.12    0.44
  -4  -1   7    7.23    0.45
  -4  -1   7    6.90    0.44
  -4  -1   7    6.72    0.31
  -4  -1   7    7.44    0.43
  -4  -1   7    7.75    0.32
  -4   1   7    7.16    0.44
   4   1  -7    6.97    0.41
   4   1  -7    7.15    0.44
   4   1  -7    7.88    0.47
   4   1  -7    7.02    0.44
  -4   1   7    7.78    0.41
  -4   1   7    6.80    0.44
  -4   1   7    7.43    0.33
   3  -1  -7    4.64    0.29
   3  -1  -7    3.19    0.28
  -3  -1   7    4.65    0.35
  -3  -1   7    4.47    0.34
  -3  -1   7    5.23    0.35
   3  -1  -7    4.00    0.33
   3   1  -7    4.78    0.33
   3   1  -7    4.65    0.34
  -3   1   7    4.64    0.30
   3   1  -7    4.35    0.33
  -3   1   7    4.88    0.34
  -3   1   7    4.72    0.35
   2  -1  -7   13.16    0.64
  -2  -1   7   13.58    0.62
   2  -1  -7   14.07    0.60
  -2  -1   7   13.07    0.60
   2  -1  -7   14.16    0.58
  -2  -1   7   14.81    0.65
   2   1  -7   14.05    0.63
  -2   1   7   13.80    0.65
  -2   1   7   13.74    0.57
  -2   1   7   14.30    0.59
   2   1  -7   13.31    0.61
   2   1  -7   13.82    0.64
  -1  -1   7    3.37    0.30
   1  -1  -7    2.96    0.24
   1  -1  -7    2.89    0.28
   1  -1  -7    3.17    0.25
  -1   1   7    3.20    0.25
  -1   1   7    2.97    0.28
   1   1  -7    3.39    0.30
  -1   1   7    2.81    0.22
   1   1  -7    3.26    0.28
   0  -1  -7    7.72    0.48
   0  -1   7    8.34    0.43
   0  -1  -7    7.98    0.39
   0  -1   7    8.54    0.49
   0  -1  -7    8.48    0.44
   0   1   7    8.59    0.45
   0   1  -7    8.23    0.48
   0   1   7    8.56    0.37
   0   1  -7    8.33    0.48
  -1  -1  -7    0.79    0.14
  -1  -1  -7    1.01    0.11
   1  -1   7    0.95    0.17
  -1  -1  -7    0.82    0.18
  -1  -1  -7    0.75    0.18
   1  -1   7    0.59    0.15
   1   1   7    0.82    0.11
  -1   1  -7    1.07    0.22
   1   1   7    0.76    0.16
  -1   1  -7    0.80    0.20
  -1   1  -7    0.98    0.21
   2  -1   7    4.43    0.27
  -2  -1  -7    5.06    0.37
  -2  -1  -7    4.88    0.37
   2  -1   7    4.43    0.28
  -2  -1  -7    4.58    0.26
  -2  -1  -7    4.87    0.39
   2  -1   7    4.35    0.37
  -2  -1  -7    4.50    0.26
   2  -1   7    4.50    0.27
  -2   1  -7    4.55    0.26
  -2   1  -7    4.78    0.38
  -2   1  -7    5.22    0.40
  -2   1  -7    4.44    0.38
   3  -1   7    3.33    0.22
   3  -1   7    3.16    0.23
   3  -1   7    3.05    0.25
  -3  -1  -7    2.92    0.24
  -3  -1  -7    3.19    0.24
  -3  -1  -7    2.94    0.33
  -3  -1  -7    3.19    0.32
  -3  -1  -7    3.32    0.32
   3  -1   7    3.25    0.34
  -3   1  -7    2.01    0.30
  -3   1  -7    3.86    0.35
  -3   1  -7    3.10    0.24
  -4  -1  -7    5.40    0.45
  -4  -1  -7    5.66    0.36
  -4  -1  -7    5.53    0.36
   4  -1   7    5.99    0.29
  -4  -1  -7    5.58    0.45
  -4  -1  -7    4.92    0.40
   4  -1   7    5.57    0.28
  -4   1  -7    5.24    0.35
  -4   1  -7    5.22    0.26
  -4   1  -7    4.99    0.42
  -4   1  -7    5.04    0.45
  -5  -1  -7    0.00    0.10
  -5  -1  -7    0.31    0.14
  -5  -1  -7   -0.02    0.09
  -5  -1  -7    0.05    0.08
  -5  -1  -7    0.02    0.10
  -5  -1  -7    0.07    0.11
  -5   1  -7    0.04    0.08
  -5   1  -7    0.17    0.12
  -5   1  -7    0.14    0.09
  -5   1  -7    0.20    0.07
  -6  -1  -7    0.54    0.14
  -6  -1  -7    0.46    0.16
  -6  -1  -7    0.80    0.28
  -6  -1  -7    0.82    0.20
  -6  -1  -7    0.65    0.22
  -6  -1  -7    0.67    0.18
  -6   1  -7    0.66    0.18
  -6   1  -7    0.69    0.24
  -6   1  -7    0.65    0.22
  -7  -1  -7    0.00    0.10
  -7  -1  -7    0.15    0.10
  -7  -1  -7    0.23    0.15
  -7  -1  -7    0.12    0.15
  -7  -1  -7    0.15    0.14
  -7  -1  -7   -0.09    0.15
  -7   1  -7    0.00    0.10
  -7   1  -7    0.18    0.11
  -8  -1  -7   -0.10    0.12
  -8  -1  -7   -0.02    0.10
  -8  -1  -7    0.14    0.18
  -8  -1  -7    0.16    0.16
  -8   1  -7    0.18    0.19
  -8   1  -7   -0.12    0.13
  -9  -1  -7    0.27    0.15
  -9  -1  -7    0.38    0.27
  -9  -1  -7    0.91    0.25
  -9   1  -7    0.16    0.21
  -9   1  -7    0.16    0.19
  12  -2  -7   -0.06    0.13
 -12  -2   7   -0.09    0.18
 -12  -2   7   -0.06    0.16
 -12  -2   7   -0.41    0.16
 -12   2   7   -0.20    0.16
 -12   2   7    0.06    0.20
  12   2  -7    0.15    0.16
  12   2  -7    0.03    0.15
 -11  -2   7   -0.07    0.12
  11  -2  -7    0.01    0.12
  11  -2  -7   -0.10    0.17
 -11  -2   7    0.03    0.14
 -11  -2   7    0.05    0.15
  11  -2  -7    0.19    0.17
  11   2  -7   -0.09    0.12
  11   2  -7   -0.14    0.13
 -11   2   7   -0.08    0.14
 -11   2   7   -0.13    0.18
 -11   2   7    0.01    0.16
 -10  -2   7    0.50    0.23
  10  -2  -7    0.62    0.20
 -10  -2   7    0.79    0.21
  10  -2  -7    0.83    0.26
 -10  -2   7    0.50    0.20
  10  -2  -7    0.74    0.21
 -10  -2   7    0.49    0.19
 -10  -2   7    0.47    0.22
  10  -2  -7    0.53    0.20
  10  -2  -7    0.63    0.22
 -10   2   7    0.67    0.20
  10   2  -7    0.56    0.19
  10   2  -7    0.68    0.21
 -10   2   7    0.46    0.22
  10   2  -7    0.83    0.28
 -10   2   7    0.39    0.19
 -10   2   7    0.51    0.19
  10   2  -7    0.62    0.18
   9  -2  -7    2.61    0.38
   9  -2  -7    2.70    0.39
  -9  -2   7    2.95    0.33
   9  -2  -7    2.79    0.32
  -9  -2   7    2.78    0.30
  -9  -2   7    2.06    0.36
   9  -2  -7    2.98    0.35
  -9  -2   7    3.02    0.34
   9  -2  -7    2.94    0.33
  -9  -2   7    3.16    0.37
  -9   2   7    3.09    0.34
   9   2  -7    2.41    0.36
  -9   2   7    2.93    0.41
   9   2  -7    3.09    0.35
  -9   2   7    3.42    0.45
   9   2  -7    3.23    0.38
  -9   2   7    2.37    0.37
   9   2  -7    2.97    0.29
  -8  -2   7    1.57    0.29
   8  -2  -7    1.13    0.27
  -8  -2   7    1.34    0.28
   8  -2  -7    1.26    0.23
   8  -2  -7    1.56    0.32
  -8  -2   7    1.05    0.21
  -8  -2   7    1.36    0.23
   8  -2  -7    1.05    0.20
  -8  -2   7    1.02    0.22
  -8   2   7    1.52    0.27
  -8   2   7    0.94    0.22
   8   2  -7    1.22    0.28
   8   2  -7    0.98    0.19
  -8   2   7    1.17    0.26
   8   2  -7    0.87    0.22
   8   2  -7    0.86    0.24
  -8   2   7    1.41    0.27
   7  -2  -7    6.08    0.46
   7  -2  -7    5.72    0.40
  -7  -2   7    5.71    0.47
  -7  -2   7    5.68    0.46
   7  -2  -7    6.06    0.46
   7  -2  -7    6.39    0.41
  -7  -2   7    6.02    0.41
  -7  -2   7    6.32    0.41
  -7  -2   7    5.88    0.41
   7   2  -7    5.86    0.46
  -7   2   7    6.28    0.42
  -7   2   7    5.74    0.40
   7   2  -7    6.17    0.39
   7   2  -7    5.72    0.46
  -7   2   7    5.85    0.47
   7   2  -7    5.92    0.48
  -7   2   7    6.12    0.47
  -6  -2   7    3.07    0.27
   6  -2  -7    3.81    0.35
  -6  -2   7    3.35    0.29
   6  -2  -7    3.46    0.28
  -6  -2   7    3.34    0.33
  -6  -2   7    3.03    0.32
  -6  -2   7    3.40    0.28
   6  -2  -7    4.03    0.31
   6  -2  -7    4.51    0.39
   6   2  -7    4.06    0.37
  -6   2   7    3.48    0.34
  -6   2   7    3.70    0.30
  -6   2   7    3.04    0.27
   6   2  -7    3.45    0.34
   6   2  -7    3.58    0.30
  -6   2   7    3.57    0.34
   6   2  -7    3.81    0.35
  -5  -2   7    1.28    0.18
  -5  -2   7    0.80    0.19
   5  -2  -7    1.22    0.20
   5  -2  -7    1.04    0.21
  -5  -2   7    1.12    0.18
   5  -2  -7    0.98    0.21
  -5  -2   7    0.76    0.16
   5  -2  -7    1.11    0.18
  -5  -2   7    0.81    0.20
  -5   2   7    0.86    0.18
   5   2  -7    0.87    0.19
   5   2  -7    0.84    0.20
   5   2  -7    1.10    0.23
   5   2  -7    1.02    0.19
  -5   2   7    1.23    0.19
  -5   2   7    1.01    0.18
  -5   2   7    0.88    0.20
  -4  -2   7    6.19    0.31
   4  -2  -7    6.13    0.33
   4  -2  -7    5.56    0.31
  -4  -2   7    5.70    0.41
   4  -2  -7    5.89    0.40
  -4  -2   7    6.05    0.43
  -4  -2   7    5.49    0.35
   4  -2  -7    5.26    0.39
  -4  -2   7    5.70    0.30
  -4   2   7    5.81    0.40
   4   2  -7    5.64    0.40
  -4   2   7    5.99    0.42
   4   2  -7    6.01    0.44
  -4   2   7    6.12    0.34
   4   2  -7    6.21    0.37
   4   2  -7    5.57    0.40
  -4   2   7    5.67    0.31
  -3  -2   7    0.34    0.13
  -3  -2   7    0.36    0.08
   3  -2  -7    0.48    0.10
   3  -2  -7    0.44    0.13
   3  -2  -7    0.55    0.12
  -3  -2   7    0.43    0.12
  -3  -2   7    0.37    0.12
   3  -2  -7    0.30    0.12
  -3   2   7    0.37    0.12
  -3   2   7    0.41    0.10
   3   2  -7    0.76    0.18
  -3   2   7    0.30    0.11
  -3   2   7    0.38    0.10
   3   2  -7    0.35    0.11
   3   2  -7    0.35    0.12
   2  -2  -7    3.70    0.28
  -2  -2   7    3.45    0.31
  -2  -2   7    3.39    0.29
   2  -2  -7    3.48    0.23
   2  -2  -7    3.79    0.32
   2   2  -7    3.15    0.27
  -2   2   7    2.62    0.27
  -2   2   7    3.45    0.27
   2   2  -7    3.28    0.28
  -2   2   7    3.24    0.22
   2   2  -7    3.46    0.31
  -1  -2   7    5.29    0.36
   1  -2  -7    4.77    0.31
   1  -2  -7    4.95    0.30
   1  -2  -7    5.73    0.39
  -1  -2   7    4.82    0.38
   1   2  -7    4.96    0.35
   1   2  -7    5.29    0.40
  -1   2   7    5.24    0.30
  -1   2   7    5.15    0.24
  -1   2   7    4.97    0.37
  -1   2   7    5.29    0.30
   1   2  -7    4.75    0.31
   0  -2  -7    0.25    0.09
   0  -2   7    0.32    0.13
   0  -2  -7    0.13    0.06
   0  -2  -7    0.15    0.07
   0  -2  -7    0.16    0.10
   0   2  -7    0.30    0.13
   0   2   7    0.15    0.07
   0   2  -7    0.12    0.11
   0   2   7    0.13    0.10
   0   2  -7    0.18    0.10
   0   2  -7    0.31    0.09
   0   2   7    0.09    0.06
   1  -2   7    0.85    0.16
  -1  -2  -7    0.89    0.18
  -1  -2  -7    0.84    0.14
   1  -2   7    1.04    0.15
  -1  -2  -7    0.78    0.19
   1  -2   7    0.87    0.21
  -1   2  -7    0.85    0.21
  -1   2  -7    0.89    0.13
  -1   2  -7    0.89    0.15
  -1   2  -7    0.86    0.19
  -1   2  -7    1.03    0.23
   2  -2   7    1.25    0.18
  -2  -2  -7    1.28    0.19
   2  -2   7    1.05    0.24
  -2  -2  -7    1.17    0.22
  -2  -2  -7    1.23    0.12
   2  -2   7    1.02    0.18
  -2  -2  -7    0.93    0.16
  -2  -2  -7    0.67    0.19
   2  -2   7    1.17    0.20
  -2   2  -7    1.04    0.11
  -2   2  -7    0.87    0.17
  -2   2  -7    1.19    0.17
  -2   2  -7    0.91    0.21
   3  -2   7    3.67    0.36
  -3  -2  -7    3.59    0.28
   3  -2   7    3.94    0.29
  -3  -2  -7    3.79    0.36
  -3  -2  -7    3.79    0.35
   3  -2   7    3.84    0.29
  -3  -2  -7    3.02    0.26
  -3  -2  -7    3.70    0.34
   3  -2   7    3.70    0.27
  -3   2  -7    3.52    0.34
  -3   2  -7    3.73    0.38
  -3   2  -7    3.54    0.27
  -4  -2  -7    1.28    0.27
  -4  -2  -7    1.01    0.24
  -4  -2  -7    1.44    0.23
   4  -2   7    1.53    0.21
  -4  -2  -7    1.63    0.27
  -4  -2  -7    1.54    0.29
   4  -2   7    1.43    0.21
   4  -2   7    1.45    0.24
  -4  -2  -7    0.97    0.21
  -4   2  -7    1.53    0.28
  -4   2  -7    1.35    0.30
  -4   2  -7    1.21    0.22
  -5  -2  -7    2.56    0.26
   5  -2   7    2.26    0.23
  -5  -2  -7    2.37    0.27
  -5  -2  -7    2.49    0.28
  -5  -2  -7    2.93    0.42
   5  -2   7    2.61    0.22
  -5  -2  -7    2.94    0.44
  -5  -2  -7    3.46    0.47
  -5  -2  -7    2.79    0.38
   5  -2   7    2.84    0.29
  -5   2  -7    2.93    0.45
  -5   2  -7    1.97    0.33
  -5   2  -7    2.42    0.33
   6  -2   7    0.79    0.14
  -6  -2  -7    1.06    0.28
  -6  -2  -7    0.36    0.21
   6  -2   7    0.81    0.24
  -6  -2  -7    1.04    0.21
  -6  -2  -7    0.97    0.22
  -6  -2  -7    0.63    0.20
   6  -2   7    0.52    0.13
  -6  -2  -7    0.78    0.17
  -6  -2  -7    1.13    0.23
  -6   2  -7    0.70    0.21
  -6   2  -7    0.90    0.27
  -6   2  -7    0.58    0.18
  -7  -2  -7    0.43    0.20
   7  -2   7    0.57    0.23
  -7  -2  -7    0.10    0.13
  -7  -2  -7    0.17    0.19
  -7  -2  -7    0.02    0.12
  -7  -2  -7   -0.02    0.13
   7  -2   7    0.18    0.10
   7  -2   7    0.33    0.10
  -7  -2  -7    0.10    0.18
  -7  -2  -7    0.18    0.19
  -7   2  -7    0.21    0.13
  -7   2  -7    0.34    0.19
  -8  -2  -7    1.18    0.24
  -8  -2  -7    1.55    0.31
  -8  -2  -7    1.98    0.44
  -8  -2  -7    0.97    0.28
  -8  -2  -7    1.56    0.34
  -8   2  -7    1.28    0.28
  -8   2  -7    1.56    0.41
  -9  -2  -7    0.57    0.25
  -9  -2  -7    0.30    0.18
  -9  -2  -7    0.41    0.20
  -9   2  -7   -0.13    0.21
  -9   2  -7   -0.02    0.18
 -12  -3   7    1.63    0.32
 -12  -3   7    1.63    0.33
 -12  -3   7    1.60    0.36
  12  -3  -7    1.17    0.28
 -12   3   7    1.83    0.35
 -12   3   7    2.14    0.44
  12   3  -7    1.51    0.35
  12   3  -7    1.17    0.24
  11  -3  -7    1.21    0.31
 -11  -3   7    0.81    0.25
 -11  -3   7    1.28    0.26
 -11  -3   7    1.09    0.31
  11  -3  -7    1.15    0.32
  11   3  -7    0.95    0.21
 -11   3   7    0.94    0.28
 -11   3   7    0.88    0.28
 -11   3   7    0.97    0.24
  11   3  -7    1.38    0.34
 -10  -3   7    1.85    0.34
  10  -3  -7    1.64    0.32
  10  -3  -7    2.04    0.37
 -10  -3   7    1.57    0.32
 -10  -3   7    1.23    0.28
  10  -3  -7    1.21    0.31
  10  -3  -7    1.92    0.39
 -10  -3   7    1.78    0.27
  10   3  -7    2.19    0.44
 -10   3   7    1.73    0.36
 -10   3   7    1.44    0.28
 -10   3   7    1.90    0.37
  10   3  -7    1.71    0.26
  -9  -3   7    0.55    0.20
   9  -3  -7    1.53    0.34
  -9  -3   7    1.86    0.35
  -9  -3   7    1.49    0.31
  -9  -3   7    1.31    0.24
   9  -3  -7    1.46    0.30
  -9  -3   7    0.71    0.22
   9  -3  -7    1.53    0.26
   9  -3  -7    1.64    0.29
   9   3  -7    1.59    0.24
  -9   3   7    1.00    0.26
  -9   3   7    1.08    0.25
   9   3  -7    1.02    0.26
  -9   3   7    1.21    0.26
   9   3  -7    1.10    0.29
  -9   3   7    1.31    0.29
  -8  -3   7    5.68    0.49
  -8  -3   7    5.83    0.45
  -8  -3   7    6.01    0.52
   8  -3  -7    5.86    0.45
  -8  -3   7    5.61    0.37
  -8  -3   7    6.51    0.46
   8  -3  -7    5.87    0.47
   8  -3  -7    5.52    0.40
   8  -3  -7    4.60    0.45
  -8   3   7    7.15    0.49
  -8   3   7    5.07    0.48
  -8   3   7    6.31    0.44
   8   3  -7    5.13    0.49
   8   3  -7    5.40    0.35
   8   3  -7    5.50    0.49
  -8   3   7    6.06    0.49
   7  -3  -7    2.41    0.37
  -7  -3   7    1.62    0.31
   7  -3  -7    2.62    0.26
  -7  -3   7    2.06    0.32
  -7  -3   7    1.81    0.26
  -7  -3   7    1.55    0.30
   7  -3  -7    2.62    0.41
   7  -3  -7    1.76    0.27
  -7  -3   7    1.95    0.27
   7   3  -7    1.83    0.21
   7   3  -7    2.32    0.39
  -7   3   7    2.59    0.38
   7   3  -7    1.49    0.27
  -7   3   7    2.12    0.29
  -7   3   7    2.18    0.24
  -7   3   7    1.80    0.29
   6  -3  -7    3.34    0.30
  -6  -3   7    3.99    0.31
   6  -3  -7    3.89    0.37
  -6  -3   7    3.39    0.36
   6  -3  -7    3.96    0.28
  -6  -3   7    3.58    0.31
  -6  -3   7    3.71    0.28
  -6  -3   7    3.89    0.37
   6  -3  -7    3.73    0.36
  -6   3   7    4.01    0.29
   6   3  -7    3.90    0.38
   6   3  -7    3.92    0.28
  -6   3   7    3.84    0.32
   6   3  -7    4.37    0.40
  -6   3   7    3.58    0.36
  -6   3   7    3.60    0.36
   5  -3  -7    2.93    0.22
   5  -3  -7    3.00    0.31
   5  -3  -7    2.99    0.26
  -5  -3   7    2.76    0.24
  -5  -3   7    2.02    0.31
  -5  -3   7    2.73    0.24
   5  -3  -7    2.85    0.31
  -5  -3   7    2.71    0.31
  -5   3   7    2.50    0.25
  -5   3   7    2.66    0.30
  -5   3   7    3.05    0.32
   5   3  -7    2.65    0.30
  -5   3   7    2.85    0.23
   5   3  -7    2.98    0.25
   5   3  -7    2.51    0.30
  -4  -3   7    4.31    0.38
  -4  -3   7    3.15    0.32
  -4  -3   7    4.61    0.29
   4  -3  -7    5.10    0.39
  -4  -3   7    4.22    0.30
   4  -3  -7    4.06    0.29
   4  -3  -7    4.67    0.25
   4  -3  -7    4.69    0.38
   4   3  -7    4.60    0.31
  -4   3   7    4.48    0.35
  -4   3   7    5.05    0.40
   4   3  -7    4.60    0.37
   4   3  -7    5.20    0.42
  -4   3   7    4.58    0.25
  -4   3   7    4.49    0.30
   3  -3  -7   20.49    0.85
  -3  -3   7   18.78    0.67
  -3  -3   7   18.20    0.85
   3  -3  -7   19.71    0.61
  -3  -3   7   20.69    0.86
   3  -3  -7   18.31    0.68
   3  -3  -7   18.07    0.79
  -3   3   7   19.03    0.69
   3   3  -7   19.82    0.88
   3   3  -7   18.79    0.74
  -3   3   7   19.44    0.62
   3   3  -7   19.07    0.81
  -3   3   7   19.50    0.84
  -2  -3   7    2.43    0.34
   2  -3  -7    1.99    0.18
   2  -3  -7    2.17    0.25
  -2  -3   7    2.87    0.29
   2  -3  -7    2.34    0.16
  -2  -3   7    2.49    0.19
   2  -3  -7    2.45    0.24
  -2   3   7    2.26    0.26
  -2   3   7    2.30    0.19
  -2   3   7    1.62    0.19
   2   3  -7    1.74    0.26
   2   3  -7    2.36    0.23
  -2   3   7    2.43    0.16
   2   3  -7    1.91    0.17
   2   3  -7    2.11    0.23
  -1  -3   7   19.32    0.87
   1  -3  -7   19.54    0.74
  -1  -3   7   19.12    0.65
  -1  -3   7   18.49    0.82
   1  -3  -7   18.69    0.66
   1  -3  -7   19.11    0.63
   1  -3  -7   19.29    0.83
  -1   3   7   19.50    0.70
   1   3  -7   18.58    0.86
   1   3  -7   18.94    0.64
   1   3  -7   19.52    0.74
   1   3  -7   18.44    0.77
   1   3  -7   18.85    0.76
  -1   3   7   20.70    0.68
  -1   3   7   20.62    0.85
   0  -3  -7    4.22    0.26
   0  -3   7    3.15    0.33
   0  -3  -7    4.05    0.28
   0  -3   7    3.83    0.24
   0  -3  -7    3.74    0.34
   0  -3  -7    4.05    0.26
   0  -3   7    3.86    0.33
   0   3  -7    3.96    0.26
   0   3  -7    4.18    0.34
   0   3  -7    4.14    0.37
   0   3   7    3.76    0.22
   0   3  -7    4.18    0.24
   0   3   7    3.35    0.32
   0   3   7    3.81    0.25
   0   3  -7    3.65    0.31
  -1  -3  -7    8.59    0.39
  -1  -3  -7    8.81    0.53
   1  -3   7    9.54    0.58
   1  -3   7    9.19    0.51
  -1  -3  -7    6.73    0.40
  -1  -3  -7    8.65    0.41
   1  -3   7    9.27    0.42
  -1   3  -7    9.50    0.52
  -1   3  -7    8.60    0.55
  -1   3  -7    9.45    0.41
  -1   3  -7    8.65    0.37
   2  -3   7    1.18    0.19
   2  -3   7    0.75    0.18
  -2  -3  -7    0.55    0.14
   2  -3   7    1.36    0.28
  -2  -3  -7    1.10    0.14
  -2  -3  -7    1.35    0.25
   2  -3   7    0.92    0.20
  -2  -3  -7    0.98    0.18
  -2  -3  -7    0.88    0.17
  -2   3  -7    0.74    0.20
  -2   3  -7    0.93    0.09
  -2   3  -7    0.81    0.16
  -2   3  -7    1.15    0.24
  -3  -3  -7    9.35    0.54
   3  -3   7   10.97    0.67
  -3  -3  -7   11.15    0.62
  -3  -3  -7    9.89    0.57
   3  -3   7   11.38    0.55
  -3  -3  -7   11.20    0.54
  -3  -3  -7   10.94    0.53
   3  -3   7   10.87    0.56
  -3  -3  -7   11.44    0.62
  -3   3  -7   10.64    0.52
  -3   3  -7   10.18    0.62
  -3   3  -7   10.81    0.68
   4  -3   7    1.76    0.26
  -4  -3  -7    2.64    0.38
  -4  -3  -7    2.33    0.26
  -4  -3  -7    2.57    0.27
  -4  -3  -7    2.68    0.30
   4  -3   7    2.72    0.28
  -4  -3  -7    2.63    0.29
   4  -3   7    2.48    0.40
  -4  -3  -7    3.03    0.42
  -4   3  -7    2.33    0.26
  -4   3  -7    2.75    0.41
  -4   3  -7    1.99    0.35
   5  -3   7    5.39    0.37
  -5  -3  -7    5.17    0.45
  -5  -3  -7    4.83    0.41
  -5  -3  -7    5.46    0.42
  -5  -3  -7    5.32    0.43
  -5  -3  -7    5.24    0.41
  -5  -3  -7    4.61    0.43
  -5  -3  -7    5.29    0.44
   5  -3   7    5.23    0.43
  -5   3  -7    5.43    0.48
  -5   3  -7    5.43    0.42
  -5   3  -7    4.22    0.47
  -6  -3  -7    0.15    0.15
  -6  -3  -7    0.36    0.17
  -6  -3  -7    0.86    0.27
  -6  -3  -7    0.16    0.13
   6  -3   7    0.45    0.14
   6  -3   7    0.83    0.24
  -6  -3  -7    0.17    0.12
  -6  -3  -7    0.36    0.14
  -6  -3  -7    0.29    0.15
  -6   3  -7    0.31    0.21
  -6   3  -7    0.33    0.15
  -6   3  -7    0.66    0.23
  -7  -3  -7    0.47    0.18
  -7  -3  -7    0.10    0.16
   7  -3   7    0.07    0.17
  -7  -3  -7    0.46    0.19
  -7  -3  -7    0.31    0.13
  -7  -3  -7    0.25    0.15
  -7  -3  -7    0.17    0.19
  -7  -3  -7    0.28    0.17
  -7   3  -7    0.25    0.15
  -7   3  -7    0.40    0.20
  -8  -3  -7    0.17    0.20
  -8  -3  -7   -0.27    0.16
  -8  -3  -7    0.27    0.18
   8  -3   7    0.06    0.15
  -8   3  -7   -0.04    0.16
  -8   3  -7    0.31    0.22
  11  -4  -7    0.43    0.18
 -11  -4   7    0.61    0.24
 -11  -4   7    0.33    0.17
 -11  -4   7    0.16    0.19
 -11   4   7    0.50    0.21
 -11   4   7    0.30    0.23
  11   4  -7    0.45    0.23
 -11   4   7    0.39    0.22
  11   4  -7    0.58    0.18
  10  -4  -7    1.80    0.34
 -10  -4   7    1.97    0.36
  10  -4  -7    1.71    0.37
 -10  -4   7    2.22    0.29
 -10  -4   7    1.79    0.36
 -10  -4   7    1.99    0.38
  10  -4  -7    1.64    0.38
  10   4  -7    1.69    0.24
  10   4  -7    2.07    0.42
 -10   4   7    2.44    0.41
 -10   4   7    2.38    0.37
 -10   4   7    1.44    0.29
   9  -4  -7    1.16    0.31
  -9  -4   7    0.87    0.26
  -9  -4   7    1.19    0.27
  -9  -4   7    0.92    0.18
   9  -4  -7    1.76    0.36
  -9  -4   7    0.85    0.24
   9  -4  -7    1.31    0.30
  -9   4   7    1.31    0.34
  -9   4   7    0.75    0.25
  -9   4   7    1.07    0.24
   9   4  -7    1.52    0.22
   9   4  -7    1.16    0.30
  -8  -4   7   10.08    0.71
  -8  -4   7   10.86    0.50
  -8  -4   7   11.44    0.70
   8  -4  -7   11.69    0.72
  -8  -4   7   10.67    0.63
  -8  -4   7   10.06    0.62
   8  -4  -7   11.09    0.72
   8  -4  -7   10.60    0.66
  -8   4   7   11.38    0.67
   8   4  -7   10.16    0.48
  -8   4   7    9.07    0.66
  -8   4   7   10.48    0.68
  -8   4   7    8.55    0.50
   8   4  -7   10.57    0.72
   8   4  -7   11.06    0.72
  -7  -4   7    4.58    0.37
  -7  -4   7    4.41    0.30
   7  -4  -7    5.42    0.46
   7  -4  -7    4.57    0.39
  -7  -4   7    4.68    0.39
   7  -4  -7    4.56    0.44
  -7  -4   7    4.39    0.41
  -7  -4   7    4.48    0.44
  -7   4   7    4.24    0.42
  -7   4   7    4.38    0.44
   7   4  -7    4.19    0.28
  -7   4   7    4.68    0.33
   7   4  -7    5.33    0.47
  -7   4   7    4.80    0.40
   7   4  -7    4.75    0.45
  -6  -4   7    8.09    0.59
  -6  -4   7    9.03    0.60
   6  -4  -7    9.34    0.59
   6  -4  -7    9.44    0.61
  -6  -4   7    8.82    0.43
   6  -4  -7    8.14    0.51
  -6  -4   7    8.65    0.50
  -6   4   7    9.31    0.60
  -6   4   7    8.60    0.51
  -6   4   7    9.11    0.42
  -6   4   7    8.65    0.59
   6   4  -7    8.21    0.59
   6   4  -7    9.18    0.60
   6   4  -7    7.09    0.38
   5  -4  -7   11.77    0.58
   5  -4  -7   12.60    0.68
  -5  -4   7   12.23    0.71
   5  -4  -7   11.50    0.65
  -5  -4   7   10.99    0.66
  -5  -4   7   11.51    0.57
   5   4  -7   11.86    0.67
   5   4  -7   11.54    0.50
  -5   4   7   12.30    0.45
  -5   4   7   12.63    0.66
   5   4  -7   11.80    0.70
  -5   4   7   11.50    0.67
  -5   4   7   11.18    0.58
   4  -4  -7    1.34    0.21
   4  -4  -7    1.09    0.24
  -4  -4   7    1.18    0.19
  -4  -4   7    0.89    0.22
  -4  -4   7    1.32    0.25
  -4   4   7    1.08    0.20
   4   4  -7    1.15    0.18
   4   4  -7    0.74    0.18
   4   4  -7    1.70    0.31
  -4   4   7    0.94    0.21
  -4   4   7    1.22    0.26
  -3  -4   7   13.01    0.71
   3  -4  -7   15.11    0.73
  -3  -4   7   11.11    0.66
   3  -4  -7   15.12    0.71
  -3  -4   7   14.10    0.58
   3  -4  -7   14.15    0.62
   3   4  -7   15.06    0.62
  -3   4   7   14.55    0.72
  -3   4   7   13.47    0.64
   3   4  -7   15.87    0.63
   3   4  -7   13.76    0.59
  -3   4   7   13.34    0.58
   3   4  -7   13.95    0.68
  -2  -4   7    4.37    0.30
  -2  -4   7    4.43    0.39
   2  -4  -7    4.02    0.33
  -2  -4   7    3.93    0.38
   2  -4  -7    3.78    0.34
   2  -4  -7    4.35    0.30
   2   4  -7    3.55    0.28
  -2   4   7    4.83    0.38
  -2   4   7    4.38    0.30
   2   4  -7    4.08    0.32
   2   4  -7    4.05    0.28
   2   4  -7    4.10    0.31
  -2   4   7    4.48    0.32
   2   4  -7    3.91    0.38
   1  -4  -7    3.18    0.27
  -1  -4   7    4.06    0.38
  -1  -4   7    3.56    0.26
   1  -4  -7    3.00    0.32
   1  -4  -7    2.75    0.24
  -1  -4   7    3.60    0.35
  -1   4   7    3.61    0.33
   1   4  -7    2.97    0.23
  -1   4   7    3.07    0.25
   1   4  -7    3.41    0.29
  -1   4   7    3.26    0.26
   1   4  -7    3.15    0.28
   1   4  -7    3.05    0.26
   1   4  -7    3.18    0.34
   0  -4  -7    7.11    0.31
   0  -4   7    6.83    0.38
   0  -4  -7    7.18    0.47
   0  -4  -7    6.77    0.38
   0  -4   7    6.44    0.49
   0  -4   7    6.98    0.49
   0  -4  -7    6.94    0.39
   0  -4  -7    7.67    0.32
   0   4   7    6.99    0.40
   0   4  -7    6.26    0.49
   0   4   7    7.29    0.47
   0   4  -7    7.15    0.37
   0   4   7    6.97    0.32
   0   4  -7    6.54    0.43
   0   4  -7    6.79    0.44
   0   4  -7    6.68    0.38
  -1  -4  -7    1.43    0.17
   1  -4   7    1.49    0.28
  -1  -4  -7    1.34    0.23
  -1  -4  -7    1.58    0.16
   1  -4   7    1.62    0.23
   1  -4   7    1.61    0.28
  -1  -4  -7    1.34    0.16
  -1  -4  -7    1.77    0.26
  -1   4  -7    1.50    0.27
  -1   4  -7    1.20    0.14
  -1   4  -7    1.07    0.24
  -1   4  -7    1.56    0.22
   1   4   7    1.54    0.23
   2  -4   7    1.87    0.31
  -2  -4  -7    1.24    0.19
  -2  -4  -7    1.28    0.14
   2  -4   7    1.23    0.25
  -2  -4  -7    1.70    0.30
  -2  -4  -7    1.39    0.24
   2  -4   7    1.66    0.25
  -2  -4  -7    1.50    0.23
  -2   4  -7    1.35    0.22
  -2   4  -7    1.02    0.24
  -2   4  -7    1.21    0.25
  -3  -4  -7    0.82    0.23
  -3  -4  -7    0.49    0.16
   3  -4   7    0.46    0.14
   3  -4   7    0.75    0.19
  -3  -4  -7    0.61    0.17
   3  -4   7    0.39    0.17
  -3  -4  -7    0.88    0.19
  -3  -4  -7    0.54    0.15
  -3   4  -7    0.41    0.17
  -3   4  -7    0.76    0.18
  -3   4  -7    0.63    0.17
  -4  -4  -7    8.30    0.52
  -4  -4  -7    8.54    0.54
   4  -4   7    8.08    0.61
  -4  -4  -7    8.79    0.58
   4  -4   7    7.98    0.50
  -4  -4  -7    7.93    0.53
  -4  -4  -7    8.58    0.54
  -4  -4  -7    7.58    0.49
   4  -4   7    7.49    0.50
  -4  -4  -7    8.23    0.51
  -4   4  -7    8.87    0.65
  -4   4  -7    8.14    0.58
  -4   4  -7    7.45    0.49
  -5  -4  -7    0.40    0.15
  -5  -4  -7    0.23    0.16
  -5  -4  -7    0.57    0.20
  -5  -4  -7    0.61    0.20
   5  -4   7    0.66    0.18
  -5  -4  -7    0.43    0.15
  -5  -4  -7    0.24    0.14
  -5  -4  -7    0.37    0.16
   5  -4   7    0.48    0.20
  -5   4  -7    0.58    0.17
  -5   4  -7    0.32    0.18
  -5   4  -7    0.68    0.19
  -6  -4  -7    3.50    0.38
  -6  -4  -7    2.97    0.36
  -6  -4  -7    3.72    0.39
   6  -4   7    3.38    0.48
  -6  -4  -7    4.04    0.56
  -6  -4  -7    3.93    0.39
  -6  -4  -7    3.03    0.45
  -6  -4  -7    3.37    0.37
  -6   4  -7    2.55    0.41
  -6   4  -7    3.09    0.44
  -7  -4  -7    2.95    0.43
  -7  -4  -7    2.57    0.39
  -7  -4  -7    2.33    0.40
  -7  -4  -7    2.93    0.43
   7  -4   7    3.31    0.47
  -7  -4  -7    3.32    0.39
  -7  -4  -7    1.83    0.36
  -7  -4  -7    3.56    0.55
  -7   4  -7    2.12    0.35
  -7   4  -7    2.69    0.50
  -8  -4  -7    0.66    0.27
  -8  -4  -7    0.91    0.24
  -8  -4  -7    0.74    0.22
  -8  -4  -7    0.69    0.20
  -8   4  -7    0.78    0.28
  -8   4  -7    0.78    0.29
 -11  -5   7    2.92    0.27
  11  -5  -7    2.84    0.50
 -11  -5   7    3.13    0.49
 -11  -5   7    1.75    0.38
  11   5  -7    2.85    0.27
  11   5  -7    2.51    0.47
 -11   5   7    3.15    0.37
 -11   5   7    3.22    0.54
 -11   5   7    2.42    0.43
 -11   5   7    1.90    0.37
 -10  -5   7    1.87    0.21
 -10  -5   7    2.21    0.39
  10  -5  -7    1.50    0.31
  10  -5  -7    1.93    0.41
 -10  -5   7    2.18    0.44
  10   5  -7    2.28    0.45
 -10   5   7    1.81    0.30
  10   5  -7    2.01    0.21
 -10   5   7    1.64    0.34
 -10   5   7    1.83    0.31
 -10   5   7    1.93    0.41
  -9  -5   7    3.70    0.42
   9  -5  -7    3.03    0.43
  -9  -5   7    3.91    0.44
   9  -5  -7    3.69    0.43
   9  -5  -7    3.15    0.49
  -9  -5   7    3.39    0.47
  -9  -5   7    3.01    0.23
  -9   5   7    3.44    0.32
  -9   5   7    3.24    0.33
  -9   5   7    3.44    0.48
  -9   5   7    3.93    0.43
   9   5  -7    4.07    0.46
   9   5  -7    3.21    0.23
   8  -5  -7    1.23    0.26
   8  -5  -7    1.72    0.38
  -8  -5   7    0.96    0.31
  -8  -5   7    1.30    0.30
  -8  -5   7    0.99    0.25
   8  -5  -7    1.07    0.26
  -8  -5   7    1.63    0.33
  -8   5   7    1.28    0.29
   8   5  -7    1.24    0.28
  -8   5   7    0.98    0.27
   8   5  -7    0.79    0.27
  -8   5   7    0.81    0.21
  -8   5   7    1.22    0.22
   8   5  -7    1.33    0.15
  -8   5   7    1.35    0.23
  -7  -5   7    3.38    0.35
   7  -5  -7    4.27    0.45
   7  -5  -7    4.00    0.41
   7  -5  -7    3.48    0.37
  -7  -5   7    2.70    0.39
  -7  -5   7    3.74    0.42
   7   5  -7    2.99    0.41
  -7   5   7    3.81    0.27
   7   5  -7    3.22    0.21
  -7   5   7    3.64    0.40
  -7   5   7    3.87    0.38
  -7   5   7    3.83    0.42
  -7   5   7    3.74    0.26
   7   5  -7    3.95    0.42
  -6  -5   7    1.05    0.25
   6  -5  -7    1.59    0.32
  -6  -5   7    0.79    0.23
  -6  -5   7    1.01    0.22
   6  -5  -7    1.07    0.25
   6  -5  -7    1.46    0.31
   6   5  -7    0.92    0.14
  -6   5   7    1.10    0.15
  -6   5   7    1.22    0.30
  -6   5   7    1.11    0.24
   6   5  -7    1.02    0.22
   6   5  -7    0.92    0.23
  -6   5   7    1.47    0.14
  -6   5   7    1.24    0.28
  -5  -5   7    0.28    0.16
   5  -5  -7    0.20    0.10
   5  -5  -7    0.07    0.12
   5  -5  -7    0.21    0.14
  -5  -5   7    0.18    0.11
  -5  -5   7    0.15    0.11
  -5   5   7    0.12    0.11
  -5   5   7    0.11    0.12
  -5   5   7    0.21    0.13
   5   5  -7    0.25    0.08
   5   5  -7    0.30    0.13
   5   5  -7    0.14    0.11
   5   5  -7    0.26    0.09
  -4  -5   7    5.22    0.38
   4  -5  -7    4.64    0.43
  -4  -5   7    5.66    0.48
   4  -5  -7    5.17    0.39
  -4  -5   7    5.14    0.45
   4  -5  -7    5.59    0.44
   4   5  -7    5.69    0.39
  -4   5   7    5.25    0.39
  -4   5   7    5.26    0.43
  -4   5   7    5.91    0.44
   4   5  -7    5.57    0.47
   4   5  -7    5.84    0.44
   4   5  -7    5.68    0.32
   4   5  -7    4.80    0.29
  -3  -5   7    2.19    0.25
   3  -5  -7    3.42    0.30
   3  -5  -7    3.42    0.34
   3  -5  -7    3.01    0.32
  -3  -5   7    2.77    0.34
  -3  -5   7    3.53    0.37
   3   5  -7    3.14    0.26
   3   5  -7    3.64    0.34
   3   5  -7    3.04    0.24
  -3   5   7    3.43    0.34
  -3   5   7    3.06    0.30
   3   5  -7    3.18    0.36
  -3   5   7    3.20    0.29
   3   5  -7    3.18    0.29
  -2  -5   7   21.88    1.01
   2  -5  -7   22.30    0.93
   2  -5  -7   17.46    0.79
   2  -5  -7   20.53    0.88
  -2  -5   7   22.83    1.02
  -2  -5   7   22.05    0.86
  -2   5   7   21.74    0.85
  -2   5   7   21.86    0.86
   2   5  -7   21.38    0.98
   2   5  -7   22.23    0.81
   2   5  -7   20.50    0.85
   2   5  -7   20.57    0.78
   2   5  -7   21.02    0.82
  -2   5   7   23.28    0.97
   1  -5  -7    4.34    0.35
   1  -5  -7    4.85    0.37
  -1  -5   7    5.13    0.36
   1  -5  -7    5.89    0.43
  -1  -5   7    5.10    0.45
  -1   5   7    5.51    0.38
   1   5  -7    5.70    0.38
   1   5  -7    5.79    0.38
   1   5  -7    5.69    0.37
  -1   5   7    4.72    0.32
   1   5  -7    5.59    0.37
  -1   5   7    5.08    0.41
   1   5  -7    5.81    0.48
   0  -5  -7   14.46    0.71
   0  -5  -7   14.24    0.66
   0  -5  -7   13.37    0.62
   0  -5   7   14.13    0.78
   0  -5   7   13.99    0.64
   0   5   7   13.40    0.70
   0   5  -7   13.61    0.58
   0   5  -7   13.83    0.66
   0   5  -7   13.91    0.78
   0   5  -7   14.35    0.64
   0   5  -7   14.79    0.69
   0   5   7   14.38    0.66
   1  -5   7    4.45    0.39
  -1  -5  -7    4.57    0.25
  -1  -5  -7    4.31    0.30
  -1  -5  -7    4.51    0.36
   1  -5   7    4.73    0.36
  -1  -5  -7    4.70    0.39
   1  -5   7    5.31    0.46
  -1  -5  -7    4.30    0.25
  -1   5  -7    4.79    0.38
  -1   5  -7    4.04    0.42
   1   5   7    5.08    0.38
  -1   5  -7    4.84    0.36
   2  -5   7   12.18    0.73
  -2  -5  -7   11.40    0.48
  -2  -5  -7   10.93    0.59
  -2  -5  -7   11.06    0.52
  -2  -5  -7   11.46    0.50
  -2  -5  -7   11.93    0.63
   2  -5   7   11.13    0.65
   2  -5   7   11.74    0.60
  -2   5  -7   12.02    0.66
  -2   5  -7    9.99    0.68
  -2   5  -7   11.14    0.58
  -3  -5  -7    3.97    0.36
  -3  -5  -7    3.93    0.31
  -3  -5  -7    4.63    0.39
   3  -5   7    3.25    0.39
  -3  -5  -7    4.49    0.35
   3  -5   7    3.26    0.33
   3  -5   7    3.55    0.35
  -3  -5  -7    4.30    0.24
  -3  -5  -7    4.10    0.36
  -3   5  -7    3.97    0.43
  -3   5  -7    4.48    0.41
  -3   5  -7    4.06    0.36
  -4  -5  -7    8.58    0.63
   4  -5   7    8.83    0.67
   4  -5   7    9.43    0.59
  -4  -5  -7    9.67    0.59
  -4  -5  -7    8.10    0.53
  -4  -5  -7    8.81    0.52
  -4  -5  -7    8.20    0.53
  -4  -5  -7    9.14    0.56
   4  -5   7    9.78    0.60
  -4   5  -7    9.01    0.66
  -4   5  -7    8.65    0.61
  -4   5  -7    8.72    0.55
  -5  -5  -7    1.63    0.31
  -5  -5  -7    1.05    0.24
  -5  -5  -7    1.14    0.28
   5  -5   7    0.95    0.25
  -5  -5  -7    1.25    0.25
  -5  -5  -7    1.62    0.31
  -5  -5  -7    1.14    0.23
  -5  -5  -7    0.87    0.25
  -5   5  -7    1.64    0.29
  -5   5  -7    1.21    0.30
  -5   5  -7    0.89    0.25
  -6  -5  -7    1.91    0.36
   6  -5   7    2.03    0.34
  -6  -5  -7    1.66    0.36
  -6  -5  -7    2.15    0.36
  -6  -5  -7    1.93    0.35
  -6  -5  -7    1.38    0.30
  -6  -5  -7    1.60    0.27
  -6  -5  -7    1.38    0.30
  -6   5  -7    2.37    0.38
  -6   5  -7    1.49    0.33
  -7  -5  -7   -0.22    0.12
  -7  -5  -7    0.13    0.20
  -7  -5  -7    0.22    0.18
  -7  -5  -7   -0.12    0.17
  -7  -5  -7   -0.09    0.15
  -7  -5  -7   -0.04    0.14
  -7   5  -7    0.28    0.19
  -7   5  -7    0.09    0.18
 -10  -6   7    0.79    0.28
 -10  -6   7    0.35    0.22
  10  -6  -7    0.36    0.31
  10  -6  -7    0.86    0.27
  10   6  -7    0.55    0.24
 -10   6   7    0.98    0.33
 -10   6   7    1.07    0.28
 -10   6   7    0.82    0.24
 -10   6   7    1.04    0.27
  -9  -6   7    5.29    0.53
  -9  -6   7    5.33    0.54
   9  -6  -7    5.20    0.52
   9  -6  -7    4.89    0.66
  -9   6   7    4.56    0.35
   9   6  -7    4.36    0.51
  -9   6   7    4.57    0.38
  -9   6   7    4.82    0.51
  -9   6   7    4.18    0.58
  -8  -6   7    1.89    0.32
  -8  -6   7    2.18    0.40
   8  -6  -7    2.74    0.43
  -8  -6   7    2.02    0.39
   8  -6  -7    1.69    0.32
  -8   6   7    2.06    0.37
  -8   6   7    2.21    0.23
  -8   6   7    1.96    0.37
  -8   6   7    1.88    0.22
   8   6  -7    1.46    0.29
   7  -6  -7   10.10    0.67
   7  -6  -7    9.63    0.69
  -7  -6   7   10.35    0.72
  -7  -6   7   12.12    1.00
   7  -6  -7   10.72    0.71
  -7  -6   7   12.08    0.69
  -7  -6   7   10.24    0.75
   7   6  -7   10.82    0.74
  -7   6   7   10.29    0.71
  -7   6   7   10.41    0.67
  -7   6   7   10.60    0.75
   7   6  -7   10.44    0.78
  -6  -6   7    7.29    0.53
  -6  -6   7    8.94    0.65
   6  -6  -7    9.63    0.68
   6  -6  -7    8.24    0.59
  -6  -6   7    7.72    0.59
   6  -6  -7    8.16    0.58
  -6  -6   7    8.42    0.66
   6   6  -7    8.64    0.64
  -6   6   7    8.10    0.60
  -6   6   7    7.77    0.55
  -6   6   7    8.85    0.63
   6   6  -7    7.31    0.59
   5  -6  -7    6.91    0.51
  -5  -6   7    5.50    0.49
   5  -6  -7    5.30    0.49
  -5  -6   7    5.58    0.44
   5  -6  -7    5.93    0.47
  -5  -6   7    6.09    0.52
  -5  -6   7    4.53    0.46
  -5   6   7    6.75    0.49
   5   6  -7    5.48    0.51
   5   6  -7    5.49    0.48
  -5   6   7    5.41    0.49
  -5   6   7    6.00    0.47
  -4  -6   7   12.75    0.77
   4  -6  -7   12.68    0.68
  -4  -6   7   12.80    0.74
  -4  -6   7   13.17    0.77
  -4  -6   7   13.44    0.68
   4  -6  -7   13.37    0.73
   4  -6  -7   12.91    0.76
   4   6  -7   12.56    0.48
   4   6  -7   12.94    0.77
   4   6  -7   12.46    0.48
  -4   6   7   13.27    0.75
  -4   6   7   12.74    0.73
   4   6  -7   12.36    0.71
   4   6  -7   13.16    0.68
  -4   6   7   12.88    0.69
  -3  -6   7    2.26    0.33
  -3  -6   7    2.98    0.32
   3  -6  -7    3.21    0.43
  -3  -6   7    2.40    0.38
  -3  -6   7    3.00    0.43
   3  -6  -7    2.88    0.41
   3  -6  -7    2.42    0.35
  -3   6   7    2.25    0.32
   3   6  -7    2.95    0.42
   3   6  -7    2.80    0.30
   3   6  -7    1.71    0.28
  -3   6   7    2.55    0.29
  -3   6   7    3.18    0.35
   3   6  -7    2.58    0.22
   3   6  -7    2.58    0.22
   2  -6  -7    4.63    0.38
   2  -6  -7    4.86    0.40
  -2  -6   7    5.50    0.48
   2  -6  -7    4.57    0.41
  -2  -6   7    4.79    0.39
  -2  -6   7    4.61    0.46
   2   6  -7    4.72    0.33
   2   6  -7    4.76    0.38
   2   6  -7    5.32    0.40
  -2   6   7    5.17    0.42
  -2   6   7    4.43    0.38
  -2   6   7    4.78    0.36
   2   6  -7    5.19    0.47
   2   6  -7    4.86    0.33
  -1  -6   7    5.68    0.49
  -1  -6   7    5.24    0.40
   1  -6  -7    4.58    0.40
   1  -6  -7    5.54    0.42
   1  -6  -7    5.10    0.40
   1   6  -7    5.49    0.48
   1   6  -7    4.91    0.39
   1   6  -7    5.35    0.37
  -1   6   7    4.42    0.40
   1   6  -7    4.89    0.37
   1   6  -7    6.02    0.39
  -1   6   7    5.19    0.35
  -1   6   7    4.92    0.40
   0  -6  -7   -0.04    0.09
   0  -6   7    0.12    0.12
   0  -6   7    0.08    0.12
   0  -6   7    0.00    0.10
   0  -6  -7    0.09    0.10
   0  -6  -7    0.16    0.10
   0   6   7    0.02    0.11
   0   6  -7    0.00    0.09
   0   6  -7   -0.03    0.08
   0   6   7    0.03    0.10
   0   6  -7    0.01    0.10
  -1  -6  -7    0.40    0.13
   1  -6   7    0.29    0.12
   1  -6   7    0.32    0.16
  -1  -6  -7    0.33    0.16
   1  -6   7    0.33    0.17
  -1  -6  -7    0.19    0.15
  -1   6  -7    0.31    0.17
  -1   6  -7    0.22    0.12
  -1   6  -7    0.41    0.16
   1   6   7    0.33    0.15
  -2  -6  -7    0.98    0.16
  -2  -6  -7    1.30    0.26
   2  -6   7    0.76    0.24
   2  -6   7    0.73    0.20
  -2  -6  -7    0.94    0.17
  -2  -6  -7    0.98    0.21
  -2  -6  -7    0.73    0.17
   2  -6   7    0.86    0.20
  -2   6  -7    0.97    0.24
  -2   6  -7    0.81    0.19
   2   6   7    0.78    0.21
  -2   6  -7    1.06    0.27
  -3  -6  -7    4.58    0.39
  -3  -6  -7    3.72    0.31
   3  -6   7    4.18    0.46
   3  -6   7    4.53    0.41
  -3  -6  -7    4.28    0.38
   3  -6   7    3.71    0.48
  -3  -6  -7    3.68    0.29
  -3  -6  -7    3.51    0.25
  -3  -6  -7    4.58    0.41
  -3   6  -7    3.98    0.44
  -3   6  -7    3.69    0.36
  -4  -6  -7    0.92    0.20
  -4  -6  -7    0.88    0.23
  -4  -6  -7    0.83    0.23
  -4  -6  -7    1.07    0.24
  -4  -6  -7    1.07    0.23
   4  -6   7    0.90    0.40
   4  -6   7    0.80    0.23
  -4  -6  -7    0.59    0.24
  -4   6  -7    0.52    0.16
  -4   6  -7    0.69    0.24
  -4   6  -7    1.12    0.28
  -5  -6  -7    6.20    0.54
  -5  -6  -7    6.52    0.49
   5  -6   7    6.51    0.54
  -5  -6  -7    6.14    0.47
  -5  -6  -7    6.76    0.59
  -5  -6  -7    6.82    0.50
  -5  -6  -7    7.00    0.52
  -5   6  -7    6.96    0.61
  -5   6  -7    7.37    0.55
  -6  -6  -7    1.87    0.33
  -6  -6  -7    1.63    0.35
  -6  -6  -7    2.30    0.39
  -6  -6  -7    2.23    0.41
  -6  -6  -7    2.26    0.36
  -6  -6  -7    2.38    0.38
  -6   6  -7    1.54    0.36
  -6   6  -7    1.85    0.37
  -9  -7   7    0.90    0.28
  -9  -7   7    1.32    0.36
  -9  -7   7    1.46    0.35
   9  -7  -7    1.52    0.39
   9  -7  -7    1.37    0.31
  -9   7   7    1.01    0.21
   9   7  -7    1.38    0.32
  -9   7   7    0.99    0.29
  -9   7   7    1.04    0.33
  -9   7   7    1.54    0.23
  -8  -7   7    2.80    0.49
   8  -7  -7    2.76    0.42
  -8  -7   7    2.25    0.41
   8  -7  -7    1.58    0.39
   8   7  -7    2.49    0.42
  -8   7   7    2.43    0.40
  -8   7   7    2.35    0.43
  -7  -7   7    0.20    0.18
  -7  -7   7    0.37    0.23
  -7  -7   7    0.46    0.24
   7  -7  -7    0.33    0.18
   7  -7  -7    0.50    0.24
   7   7  -7    0.41    0.17
  -7   7   7    0.22    0.22
  -7   7   7    0.49    0.19
   6  -7  -7    0.40    0.17
  -6  -7   7    0.02    0.13
   6  -7  -7    0.37    0.21
  -6  -7   7    0.02    0.11
  -6  -7   7   -0.02    0.14
   6  -7  -7   -0.05    0.15
  -6   7   7    0.09    0.15
   6   7  -7    0.36    0.19
  -6   7   7    0.45    0.32
  -6   7   7    0.34    0.17
   5  -7  -7    1.13    0.31
  -5  -7   7    0.65    0.25
  -5  -7   7    0.88    0.21
   5  -7  -7    0.90    0.26
  -5  -7   7    0.85    0.29
  -5  -7   7    0.71    0.25
   5  -7  -7    0.41    0.17
  -5   7   7    1.01    0.28
  -5   7   7    1.02    0.26
   5   7  -7    0.94    0.26
   5   7  -7    0.83    0.22
  -5   7   7    0.90    0.24
   5   7  -7    0.57    0.22
  -4  -7   7    0.41    0.18
  -4  -7   7    0.51    0.17
  -4  -7   7    0.39    0.19
  -4  -7   7    0.64    0.23
   4  -7  -7    0.48    0.21
   4  -7  -7    0.54    0.19
   4  -7  -7    0.28    0.16
   4   7  -7    0.30    0.17
  -4   7   7    0.32    0.17
   4   7  -7    0.29    0.16
   4   7  -7    0.29    0.18
  -4   7   7    0.25    0.18
  -3  -7   7    6.14    0.55
   3  -7  -7    6.64    0.50
  -3  -7   7    6.20    0.55
  -3  -7   7    5.88    0.49
  -3  -7   7    6.22    0.49
   3  -7  -7    6.74    0.55
   3  -7  -7    6.23    0.48
   3   7  -7    6.62    0.50
   3   7  -7    5.86    0.31
  -3   7   7    6.74    0.49
   3   7  -7    6.35    0.50
   3   7  -7    6.31    0.33
  -3   7   7    6.99    0.53
   3   7  -7    6.71    0.57
  -3   7   7    6.44    0.50
   2  -7  -7    4.31    0.40
   2  -7  -7    4.80    0.42
  -2  -7   7    3.61    0.39
   2  -7  -7    4.29    0.42
  -2  -7   7    3.21    0.35
  -2  -7   7    4.10    0.46
   2   7  -7    4.12    0.30
  -2   7   7    3.59    0.35
  -2   7   7    4.25    0.39
   2   7  -7    4.87    0.49
   2   7  -7    4.69    0.30
   2   7  -7    4.63    0.42
  -2   7   7    4.41    0.42
   1  -7  -7   13.61    0.73
   1  -7  -7   13.59    0.72
  -1  -7   7   14.55    0.76
  -1  -7   7   14.26    0.82
   1  -7  -7   12.68    0.72
  -1  -7   7   13.26    0.83
   1   7  -7   12.15    0.59
   1   7  -7   13.82    0.82
  -1   7   7   14.25    0.76
   1   7  -7   13.08    0.63
   1   7  -7   14.00    0.74
  -1   7   7   13.16    0.73
   0  -7   7    5.58    0.50
   0  -7  -7    5.27    0.45
   0  -7   7    5.07    0.44
   0  -7  -7    4.70    0.41
   0  -7  -7    4.20    0.38
   0  -7   7    4.59    0.49
   0   7   7    5.04    0.43
   0   7  -7    4.85    0.39
   0   7  -7    5.06    0.43
   0   7   7    6.57    0.50
   0   7  -7    4.94    0.48
   0   7  -7    4.52    0.36
  -1  -7  -7    9.06    0.56
  -1  -7  -7    9.31    0.61
   1  -7   7    9.71    0.68
  -1  -7  -7    8.70    0.53
   1  -7   7    8.36    0.57
   1  -7   7    9.72    0.69
  -1   7  -7    9.39    0.57
  -1   7  -7    9.23    0.67
   1   7   7    7.36    0.55
  -1   7  -7    8.77    0.56
   2  -7   7    4.28    0.45
   2  -7   7    5.33    0.52
  -2  -7  -7    5.49    0.42
  -2  -7  -7    5.65    0.40
  -2  -7  -7    4.29    0.44
   2  -7   7    5.34    0.53
   2   7   7    5.73    0.49
  -2   7  -7    5.38    0.53
  -2   7  -7    5.34    0.46
  -2   7  -7    5.15    0.44
  -3  -7  -7    6.82    0.39
  -3  -7  -7    7.56    0.64
   3  -7   7    6.71    0.55
  -3  -7  -7    7.06    0.41
  -3  -7  -7    6.31    0.52
  -3  -7  -7    6.65    0.38
   3  -7   7    6.68    0.58
  -3  -7  -7    6.94    0.48
  -3  -7  -7    6.20    0.46
  -3   7  -7    7.59    0.64
  -3   7  -7    6.87    0.55
  -3   7  -7    6.76    0.51
  -4  -7  -7    2.00    0.30
  -4  -7  -7    1.57    0.31
   4  -7   7    0.80    0.24
  -4  -7  -7    2.03    0.21
  -4  -7  -7    1.85    0.29
  -4  -7  -7    1.78    0.30
  -4  -7  -7    2.16    0.40
  -4   7  -7    1.64    0.36
  -4   7  -7    1.68    0.32
  -5  -7  -7    2.34    0.37
  -5  -7  -7    2.90    0.39
  -5  -7  -7    3.08    0.35
  -5  -7  -7    2.99    0.38
  -5  -7  -7    2.97    0.49
  -5   7  -7    2.91    0.49
  -5   7  -7    1.59    0.30
   7  -8  -7    1.90    0.46
  -7  -8   7    3.00    0.51
   7  -8  -7    3.20    0.49
  -7  -8   7    2.98    0.49
   7   8  -7    2.99    0.49
  -7   8   7    2.62    0.46
  -7   8   7    2.82    0.43
  -6  -8   7    6.00    0.60
   6  -8  -7    5.07    0.49
   6  -8  -7    5.01    0.56
  -6  -8   7    5.63    0.57
   6   8  -7    5.65    0.57
  -6   8   7    5.55    0.55
  -6   8   7    5.95    0.54
   5  -8  -7    6.65    0.56
  -5  -8   7    7.37    0.63
  -5  -8   7    6.66    0.60
  -5  -8   7    6.97    0.76
   5  -8  -7    6.18    0.62
   5   8  -7    7.36    0.65
  -5   8   7    6.48    0.56
  -5   8   7    6.56    0.57
   5   8  -7    6.34    0.55
   4  -8  -7    4.50    0.44
   4  -8  -7    4.65    0.45
  -4  -8   7    4.03    0.57
  -4  -8   7    4.56    0.48
  -4  -8   7    3.87    0.45
   4  -8  -7    4.59    0.49
  -4   8   7    4.55    0.46
   4   8  -7    4.22    0.44
   4   8  -7    4.10    0.47
  -4   8   7    4.45    0.42
  -4   8   7    4.66    0.51
   3  -8  -7    4.34    0.45
   3  -8  -7    4.31    0.46
  -3  -8   7    4.77    0.46
  -3  -8   7    3.80    0.42
   3  -8  -7    5.02    0.44
  -3  -8   7    4.51    0.51
  -3   8   7    4.50    0.46
   3   8  -7    4.23    0.43
  -3   8   7    4.69    0.45
   3   8  -7    4.54    0.47
  -3   8   7    4.74    0.48
  -2  -8   7    1.83    0.36
  -2  -8   7    2.21    0.38
  -2  -8   7    2.14    0.36
   2  -8  -7    2.33    0.37
   2  -8  -7    1.77    0.31
   2  -8  -7    2.23    0.39
  -2  -8   7    2.06    0.40
   2   8  -7    2.27    0.21
  -2   8   7    2.51    0.39
   2   8  -7    2.37    0.46
   2   8  -7    1.94    0.32
  -2   8   7    2.17    0.40
   2   8  -7    1.97    0.20
  -1  -8   7    1.32    0.35
   1  -8  -7    1.13    0.29
  -1  -8   7    1.02    0.30
  -1  -8   7    1.41    0.28
   1  -8  -7    0.96    0.24
  -1  -8   7    0.64    0.25
   1  -8  -7    1.06    0.24
   1   8  -7    0.87    0.25
  -1   8   7    0.25    0.17
  -1   8   7    0.74    0.24
   1   8  -7    0.75    0.17
   1   8  -7    0.86    0.22
   1   8  -7    0.57    0.17
   0  -8   7    0.65    0.27
   0  -8  -7    0.89    0.25
   0  -8  -7    0.93    0.18
   0  -8   7    0.62    0.26
   0  -8  -7    0.36    0.21
   0   8  -7    0.15    0.14
   0   8  -7    0.51    0.20
   0   8   7    0.43    0.21
   0   8  -7    0.44    0.16
   0   8   7    0.55    0.22
   0   8  -7    1.14    0.24
  -1  -8  -7    0.11    0.17
   1  -8   7    0.31    0.17
  -1  -8  -7    0.23    0.16
  -1  -8  -7    0.01    0.11
   1  -8   7    0.26    0.21
  -1   8  -7    0.33    0.16
   1   8   7    0.09    0.16
  -1   8  -7    0.00    0.14
  -1   8  -7    0.20    0.19
  -2  -8  -7    0.34    0.18
  -2  -8  -7    0.29    0.14
  -2  -8  -7    0.59    0.29
   2  -8   7    0.07    0.23
   2  -8   7    0.31    0.20
  -2   8  -7    0.32    0.21
   2   8   7    0.46    0.22
  -2   8  -7    0.51    0.24
  -2   8  -7    0.63    0.17
  -3  -8  -7    0.48    0.18
  -3  -8  -7    0.53    0.16
  -3  -8  -7    0.58    0.25
  -3  -8  -7    0.50    0.20
  -3   8  -7    0.62    0.27
  -3   8  -7    0.03    0.14
  -3   8  -7    0.52    0.25
  -4  -8  -7    2.87    0.29
  -4  -8  -7    2.71    0.36
  -4  -8  -7    3.02    0.29
  -4  -8  -7    2.63    0.30
  -4  -8  -7    2.77    0.33
  -4  -8  -7    1.90    0.40
  -4   8  -7    2.14    0.43
  -4   8  -7    3.08    0.43
   5  -9  -7   -0.27    0.14
   5  -9  -7    0.02    0.33
  -5  -9   7    0.23    0.22
  -5  -9   7   -0.05    0.22
   5   9  -7    0.09    0.20
  -5   9   7   -0.18    0.17
   5   9  -7   -0.14    0.19
  -5   9   7   -0.12    0.19
  -4  -9   7    0.92    0.30
  -4  -9   7    0.45    0.27
   4  -9  -7    0.72    0.29
   4  -9  -7    0.62    0.24
   4   9  -7    0.70    0.26
  -4   9   7    1.32    0.33
   4   9  -7    0.73    0.26
  -3  -9   7    1.03    0.32
   3  -9  -7    1.23    0.29
  -3  -9   7    0.66    0.29
   3  -9  -7    1.69    0.32
  -3  -9   7    1.18    0.31
  -3   9   7    0.40    0.23
   3   9  -7    1.58    0.38
   3   9  -7    0.98    0.29
  -3   9   7    0.80    0.24
  -2  -9   7    4.63    0.63
  -2  -9   7    4.94    0.47
   2  -9  -7    4.86    0.52
   2  -9  -7    4.92    0.46
  -2   9   7    4.57    0.47
   2   9  -7    5.05    0.48
   2   9  -7    5.43    0.55
  -2   9   7    4.94    0.51
  -1  -9   7    1.85    0.32
   1  -9  -7    2.22    0.33
  -1  -9   7    1.38    0.34
   1   9  -7    2.04    0.25
   1   9  -7    2.35    0.27
   1   9  -7    1.54    0.32
  -1   9   7    1.70    0.32
   1   9  -7    2.15    0.44
  -1   9   7    2.25    0.42
   0  -9   7    6.44    0.64
   0  -9  -7    5.27    0.54
   0  -9  -7    5.87    0.47
   0   9  -7    5.40    0.41
   0   9   7    5.74    0.51
   0   9  -7    5.75    0.57
   0   9   7    5.39    0.53
   0   9  -7    5.61    0.53
   0   9  -7    4.94    0.42
  -1  -9  -7    4.08    0.46
   1  -9   7    4.22    0.93
  -1  -9  -7    2.95    0.35
  -1  -9  -7    3.07    0.56
  -1   9  -7    3.63    0.53
  -1   9  -7    3.63    0.40
   1   9   7    4.11    0.57
  -1   9  -7    4.84    0.50
  -2   9  -7    4.97    0.51
  -2   9  -7    3.80    0.56
   2   9   7    3.58    0.53
 -12   0   8   11.91    0.79
 -12   0   8   13.07    0.87
  12   0  -8   12.16    0.80
  12   0  -8   12.42    0.79
 -11   0   8    4.10    0.47
 -11   0   8    6.61    0.56
 -11   0   8    5.58    0.50
  11   0  -8    5.48    0.48
  11   0  -8    5.55    0.52
  10   0  -8    9.31    0.63
 -10   0   8    9.52    0.65
 -10   0   8   10.68    0.72
  10   0  -8    9.73    0.69
 -10   0   8    9.03    0.67
  10   0  -8   10.07    0.67
 -10   0   8    8.92    0.62
  10   0  -8   10.32    0.71
   9   0  -8    0.96    0.26
  -9   0   8    1.55    0.28
  -9   0   8    1.60    0.30
   9   0  -8    1.09    0.22
  -9   0   8    1.09    0.27
   9   0  -8    0.74    0.23
  -9   0   8    1.42    0.30
   8   0  -8    2.61    0.31
  -8   0   8    1.90    0.28
  -8   0   8    2.73    0.42
   8   0  -8    2.63    0.43
  -8   0   8    2.16    0.38
   8   0  -8    2.26    0.37
  -8   0   8    2.31    0.33
   8   0  -8    1.99    0.29
  -7   0   8    6.27    0.46
  -7   0   8    6.82    0.48
   7   0  -8    7.54    0.54
   7   0  -8    7.65    0.54
  -7   0   8    6.34    0.41
   7   0  -8    7.78    0.50
   7   0  -8    6.86    0.47
  -7   0   8    6.61    0.50
  -6   0   8   83.23    2.45
  -6   0   8   80.34    2.43
   6   0  -8   82.76    2.52
   6   0  -8   85.47    2.47
   6   0  -8   81.98    2.51
  -6   0   8   83.96    2.50
  -6   0   8   82.39    2.26
   6   0  -8   83.70    2.46
  -5   0   8   81.63    2.40
   5   0  -8   84.06    2.47
  -5   0   8   73.62    2.31
  -5   0   8   81.97    2.37
   5   0  -8   86.16    2.53
   5   0  -8   86.20    2.49
  -5   0   8   81.98    2.13
  -4   0   8   84.44    2.51
  -4   0   8   94.16    2.52
   4   0  -8   82.39    2.39
   4   0  -8   82.82    2.35
   4   0  -8   78.20    2.36
  -4   0   8   83.95    2.52
  -3   0   8  151.09    3.97
   3   0  -8  151.41    3.98
  -3   0   8  148.68    3.95
  -3   0   8  148.20    4.00
   3   0  -8  148.99    3.99
   3   0  -8  150.69    4.02
   2   0  -8   58.47    1.78
  -2   0   8   54.32    1.71
  -2   0   8   54.11    1.67
   2   0  -8   56.70    1.75
   2   0  -8   59.09    1.83
   1   0  -8  113.60    3.13
   1   0  -8  116.52    3.08
  -1   0   8  116.40    3.15
   1   0  -8  112.85    3.19
  -1   0   8  113.65    3.06
   0   0  -8   61.88    1.87
   0   0   8   62.49    1.77
   0   0   8   62.44    1.91
   0   0  -8   59.05    1.90
   1   0   8   45.30    1.52
   1   0   8   46.56    1.33
  -1   0  -8   49.80    1.61
  -1   0  -8   45.49    1.61
  -1   0  -8   47.96    1.59
   2   0   8   47.27    1.59
  -2   0  -8   43.29    1.51
  -2   0  -8   42.79    1.22
   2   0   8   45.65    1.27
  -2   0  -8   43.33    1.51
  -2   0  -8   42.90    1.52
   2   0   8   45.80    1.26
  -2   0  -8   41.76    1.21
  -3   0  -8    8.59    0.41
  -3   0  -8    8.05    0.54
  -3   0  -8    8.93    0.59
  -3   0  -8    7.43    0.39
  -3   0  -8    7.90    0.55
  -4   0  -8    2.85    0.33
  -4   0  -8    1.96    0.33
  -4   0  -8    2.08    0.23
  -4   0  -8    2.11    0.33
  -5   0  -8    6.13    0.41
  -5   0  -8    5.26    0.47
  -5   0  -8    6.52    0.55
  -5   0  -8    5.98    0.35
  -5   0  -8    6.44    0.55
  -6   0  -8   18.11    0.96
  -6   0  -8   18.57    1.03
  -6   0  -8   18.34    0.99
  -6   0  -8   19.02    0.70
  -6   0  -8   18.39    0.84
  -7   0  -8   11.84    0.68
  -7   0  -8   11.93    0.50
  -7   0  -8   11.88    0.83
  -8   0  -8   11.87    0.87
  -8   0  -8   13.21    0.78
  -8   0  -8   12.72    0.51
  -8   0  -8   13.56    0.77
 -12  -1   8    8.22    0.66
 -12  -1   8    8.55    0.70
  12  -1  -8    7.37    0.63
  12  -1  -8    9.00    0.68
 -12   1   8    7.77    0.67
  12   1  -8    6.12    0.59
 -12   1   8    7.92    0.65
  12   1  -8    7.33    0.57
 -11  -1   8   18.19    0.94
  11  -1  -8   18.14    0.97
 -11  -1   8   17.97    0.97
 -11  -1   8   17.89    0.99
  11  -1  -8   18.02    0.96
  11  -1  -8   17.32    1.03
 -11  -1   8   17.02    0.92
 -11   1   8   15.82    0.98
  11   1  -8   17.54    1.00
 -11   1   8   17.36    0.93
  11   1  -8   16.46    0.87
 -11   1   8   17.89    1.00
  10  -1  -8   26.67    1.24
 -10  -1   8   25.15    1.20
 -10  -1   8   28.37    1.15
  10  -1  -8   27.21    1.23
 -10  -1   8   26.77    1.16
  10  -1  -8   27.96    1.19
 -10  -1   8   25.84    1.25
  10  -1  -8   26.90    1.19
 -10   1   8   27.77    1.24
 -10   1   8   26.04    1.15
  10   1  -8   27.18    1.25
  10   1  -8   24.83    1.09
 -10   1   8   25.39    1.18
  10   1  -8   26.59    1.28
 -10   1   8   25.57    1.17
  10   1  -8   27.57    1.22
   9  -1  -8   46.02    1.62
  -9  -1   8   44.01    1.69
   9  -1  -8   45.04    1.65
   9  -1  -8   42.22    1.67
  -9  -1   8   45.00    1.58
  -9  -1   8   45.21    1.69
  -9  -1   8   45.48    1.56
   9  -1  -8   47.82    1.73
   9   1  -8   44.29    1.56
   9   1  -8   45.57    1.69
  -9   1   8   42.52    1.62
   9   1  -8   46.82    1.70
  -9   1   8   44.08    1.56
  -9   1   8   43.52    1.62
  -9   1   8   46.69    1.70
   8  -1  -8   53.38    1.72
  -8  -1   8   53.10    1.85
   8  -1  -8   56.72    1.81
   8  -1  -8   55.87    1.90
  -8  -1   8   50.27    1.81
  -8  -1   8   53.55    1.69
  -8  -1   8   52.85    1.69
   8  -1  -8   53.83    1.88
   8  -1  -8   52.64    1.82
  -8  -1   8   52.89    1.74
  -8   1   8   52.20    1.84
  -8   1   8   50.61    1.75
   8   1  -8   53.70    1.86
   8   1  -8   54.13    1.87
   8   1  -8   51.22    1.87
  -8   1   8   54.51    1.71
  -8   1   8   50.93    1.79
   8   1  -8   54.07    1.76
  -7  -1   8   47.20    1.46
  -7  -1   8   45.53    1.63
   7  -1  -8   47.65    1.69
  -7  -1   8   43.54    1.60
  -7  -1   8   45.21    1.46
   7  -1  -8   47.10    1.50
  -7  -1   8   47.34    1.56
   7  -1  -8   49.60    1.67
   7  -1  -8   47.81    1.59
   7   1  -8   47.58    1.68
   7   1  -8   47.80    1.70
  -7   1   8   44.57    1.54
  -7   1   8   46.37    1.46
   7   1  -8   47.60    1.67
   7   1  -8   48.98    1.59
  -7   1   8   46.86    1.64
  -7   1   8   45.06    1.60
  -6  -1   8   39.64    1.44
  -6  -1   8   40.07    1.24
   6  -1  -8   42.31    1.45
   6  -1  -8   39.03    1.24
  -6  -1   8   39.57    1.36
   6  -1  -8   39.67    1.45
  -6  -1   8   38.00    1.21
   6  -1  -8   39.67    1.35
  -6  -1   8   38.53    1.42
   6   1  -8   40.28    1.38
   6   1  -8   41.23    1.49
   6   1  -8   41.21    1.46
  -6   1   8   39.78    1.42
  -6   1   8   38.44    1.33
  -6   1   8   41.03    1.44
  -6   1   8   38.55    1.22
   6   1  -8   40.13    1.43
   5  -1  -8   32.68    1.23
  -5  -1   8   34.62    1.20
  -5  -1   8   32.37    1.24
  -5  -1   8   33.77    1.01
  -5  -1   8   33.62    1.24
   5  -1  -8   33.85    1.03
  -5  -1   8   33.10    1.02
   5  -1  -8   32.96    1.24
   5  -1  -8   32.85    1.15
   5   1  -8   34.61    1.26
  -5   1   8   33.48    1.15
   5   1  -8   34.89    1.26
  -5   1   8   31.99    1.22
  -5   1   8   33.12    1.01
  -5   1   8   32.81    1.22
   5   1  -8   32.67    1.25
   5   1  -8   35.76    1.22
   4  -1  -8   26.08    1.05
   4  -1  -8   26.19    1.04
  -4  -1   8   27.01    1.05
  -4  -1   8   25.31    1.03
   4  -1  -8   27.91    0.98
  -4  -1   8   23.87    0.98
   4   1  -8   26.90    1.05
  -4   1   8   28.85    1.06
   4   1  -8   28.29    1.07
   4   1  -8   27.43    1.06
  -4   1   8   28.28    0.99
  -4   1   8   30.52    1.10
   4   1  -8   28.37    1.04
   3  -1  -8    3.79    0.30
  -3  -1   8    3.39    0.32
  -3  -1   8    3.37    0.31
   3  -1  -8    3.78    0.32
  -3  -1   8    3.24    0.29
   3  -1  -8    2.95    0.30
  -3   1   8    3.41    0.28
  -3   1   8    3.44    0.32
  -3   1   8    3.61    0.30
   3   1  -8    3.94    0.33
   3   1  -8    4.22    0.34
   3   1  -8    3.24    0.31
  -2  -1   8    7.58    0.48
   2  -1  -8    8.82    0.45
   2  -1  -8    8.59    0.51
  -2  -1   8    8.50    0.48
   2  -1  -8    8.01    0.45
  -2   1   8    7.64    0.43
  -2   1   8    7.45    0.42
   2   1  -8    6.77    0.44
   2   1  -8    8.39    0.50
  -2   1   8    7.77    0.49
   2   1  -8    8.17    0.50
   1  -1  -8   23.11    0.85
  -1  -1   8   22.58    0.84
   1  -1  -8   20.95    0.80
  -1  -1   8   17.95    0.84
   1  -1  -8   21.20    0.91
   1   1  -8   21.48    0.89
  -1   1   8   21.97    0.82
  -1   1   8   21.73    0.90
   1   1  -8   21.50    0.91
  -1   1   8   21.50    0.77
   0  -1  -8   66.93    2.13
   0  -1   8   69.07    1.98
   0  -1  -8   73.23    2.06
   0  -1   8   68.44    2.11
   0  -1  -8   68.53    1.95
   0   1   8   68.24    1.87
   0   1  -8   73.13    2.15
   0   1  -8   65.50    2.11
   0   1   8   69.97    2.03
  -1  -1  -8   60.71    1.86
  -1  -1  -8   61.85    1.72
   1  -1   8   63.38    1.80
   1  -1   8   61.62    1.97
  -1  -1  -8   58.85    1.92
  -1   1  -8   59.01    1.93
  -1   1  -8   61.55    1.94
  -1   1  -8   60.75    1.91
   1   1   8   64.01    1.91
   1   1   8   61.70    1.65
   2  -1   8   54.61    1.55
   2  -1   8   53.27    1.53
  -2  -1  -8   52.79    1.74
  -2  -1  -8   52.49    1.73
  -2  -1  -8   51.59    1.46
  -2  -1  -8   50.90    1.46
   2  -1   8   52.39    1.78
  -2   1  -8   52.20    1.45
  -2   1  -8   52.20    1.79
  -2   1  -8   53.82    1.75
  -2   1  -8   54.47    1.81
   3  -1   8   49.36    1.76
  -3  -1  -8   54.51    1.80
   3  -1   8   52.95    1.46
  -3  -1  -8   51.48    1.53
  -3  -1  -8   55.93    1.83
   3  -1   8   51.07    1.44
  -3  -1  -8   51.37    1.52
  -3  -1  -8   51.08    1.75
  -3   1  -8   51.25    1.82
  -3   1  -8   51.78    1.77
  -3   1  -8   51.89    1.82
  -3   1  -8   51.34    1.52
  -4  -1  -8   47.67    1.51
  -4  -1  -8   48.84    1.52
   4  -1   8   49.59    1.34
  -4  -1  -8   49.69    1.76
  -4  -1  -8   52.32    1.80
  -4  -1  -8   48.48    1.73
   4  -1   8   48.28    1.33
  -4   1  -8   50.46    1.82
  -4   1  -8   48.81    1.51
  -4   1  -8   49.29    1.75
  -4   1  -8   49.14    1.38
  -5  -1  -8   37.42    1.49
  -5  -1  -8   37.46    1.27
  -5  -1  -8   35.95    1.26
  -5  -1  -8   35.77    1.47
  -5  -1  -8   36.26    1.43
  -5  -1  -8   32.74    1.38
  -5  -1  -8   36.94    1.23
  -5   1  -8   36.29    1.44
  -5   1  -8   35.78    1.50
  -5   1  -8   34.44    1.24
  -6  -1  -8   14.71    0.86
  -6  -1  -8   17.12    0.94
  -6  -1  -8   14.80    0.75
  -6  -1  -8   15.13    0.69
  -6  -1  -8   14.76    0.90
  -6  -1  -8   15.44    0.76
  -6  -1  -8   16.09    0.89
  -6   1  -8   15.71    0.95
  -6   1  -8   17.06    0.78
  -7  -1  -8    7.87    0.65
  -7  -1  -8    7.50    0.45
  -7  -1  -8    7.95    0.55
  -7  -1  -8    8.52    0.69
  -7  -1  -8    7.14    0.54
  -7   1  -8    8.45    0.70
  -7   1  -8    7.43    0.53
  -8  -1  -8    3.22    0.52
  -8  -1  -8    2.62    0.44
  -8  -1  -8    3.24    0.56
  -8  -1  -8    2.84    0.42
  -8  -1  -8    2.65    0.29
  -8   1  -8    1.97    0.46
  -8   1  -8    2.37    0.39
 -12  -2   8    8.44    0.71
 -12  -2   8    6.45    0.55
 -12  -2   8    8.06    0.66
  12  -2  -8    7.32    0.64
  12   2  -8    7.51    0.56
  12   2  -8    7.61    0.68
 -12   2   8    7.81    0.64
 -12   2   8    7.67    0.67
  11  -2  -8   10.36    0.72
  11  -2  -8   10.34    0.69
 -11  -2   8   10.22    0.72
 -11  -2   8   10.41    0.65
 -11  -2   8    9.23    0.76
 -11  -2   8   10.17    0.69
  11  -2  -8   10.13    0.74
 -11   2   8    9.16    0.70
  11   2  -8   10.07    0.62
 -11   2   8    9.69    0.67
  11   2  -8   10.21    0.74
 -11   2   8   10.28    0.75
  10  -2  -8    2.62    0.42
  10  -2  -8    2.09    0.35
 -10  -2   8    1.93    0.37
  10  -2  -8    2.19    0.36
 -10  -2   8    1.80    0.31
 -10  -2   8    2.13    0.37
 -10  -2   8    1.87    0.36
  10  -2  -8    1.88    0.36
 -10   2   8    2.16    0.40
 -10   2   8    1.50    0.31
  10   2  -8    2.17    0.38
 -10   2   8    2.32    0.38
 -10   2   8    1.97    0.34
  10   2  -8    1.56    0.33
  10   2  -8    1.91    0.32
  -9  -2   8    2.18    0.38
  -9  -2   8    2.54    0.29
   9  -2  -8    3.19    0.49
  -9  -2   8    3.12    0.43
   9  -2  -8    3.09    0.47
   9  -2  -8    2.95    0.32
   9  -2  -8    2.64    0.39
  -9  -2   8    2.46    0.36
   9  -2  -8    2.84    0.32
  -9  -2   8    2.17    0.36
  -9   2   8    2.33    0.36
   9   2  -8    2.70    0.29
   9   2  -8    2.93    0.47
  -9   2   8    2.21    0.35
  -9   2   8    2.38    0.39
   9   2  -8    3.52    0.37
  -9   2   8    2.45    0.39
   9   2  -8    1.80    0.32
   8  -2  -8    1.64    0.27
  -8  -2   8    1.45    0.28
  -8  -2   8    2.20    0.33
   8  -2  -8    2.62    0.36
   8  -2  -8    2.28    0.27
   8  -2  -8    2.07    0.36
  -8  -2   8    2.08    0.30
  -8  -2   8    1.80    0.31
  -8  -2   8    1.66    0.26
   8   2  -8    2.02    0.35
  -8   2   8    2.25    0.34
  -8   2   8    1.77    0.30
   8   2  -8    1.60    0.33
  -8   2   8    2.08    0.36
   8   2  -8    2.06    0.33
   8   2  -8    1.87    0.28
  -8   2   8    1.99    0.34
  -7  -2   8   11.54    0.60
  -7  -2   8   13.22    0.76
  -7  -2   8   14.33    0.68
  -7  -2   8   14.39    0.66
   7  -2  -8   15.53    0.81
  -7  -2   8   14.18    0.78
   7  -2  -8   15.26    0.79
   7  -2  -8   16.29    0.71
   7  -2  -8   14.53    0.68
  -7   2   8   14.68    0.67
  -7   2   8   13.87    0.67
   7   2  -8   14.60    0.77
  -7   2   8   14.37    0.76
   7   2  -8   13.61    0.77
   7   2  -8   15.24    0.70
   7   2  -8   14.07    0.79
  -7   2   8   14.70    0.77
  -6  -2   8   30.37    1.21
   6  -2  -8   33.67    1.13
  -6  -2   8   31.17    1.01
  -6  -2   8   30.34    1.02
   6  -2  -8   34.25    1.31
   6  -2  -8   34.53    1.16
  -6  -2   8   29.57    1.19
  -6  -2   8   24.62    1.02
   6  -2  -8   33.25    1.28
   6   2  -8   34.23    1.30
  -6   2   8   30.14    1.02
   6   2  -8   34.23    1.32
   6   2  -8   32.04    1.30
  -6   2   8   30.19    1.06
  -6   2   8   31.26    1.21
  -6   2   8   28.80    1.16
   6   2  -8   34.20    1.19
  -5  -2   8   86.06    2.28
  -5  -2   8   84.99    2.26
   5  -2  -8   85.01    2.34
  -5  -2   8   86.73    2.42
   5  -2  -8   85.91    2.54
  -5  -2   8   74.64    2.48
  -5  -2   8   82.54    2.54
   5  -2  -8   83.90    2.29
   5  -2  -8   83.83    2.53
   5   2  -8   83.58    2.53
  -5   2   8   83.51    2.49
  -5   2   8   85.79    2.54
   5   2  -8   83.01    2.53
   5   2  -8   87.83    2.43
   5   2  -8   83.53    2.55
  -5   2   8   90.10    2.37
   4  -2  -8   78.44    2.29
   4  -2  -8   85.24    2.51
  -4  -2   8   85.19    2.39
   4  -2  -8   85.89    2.49
   4  -2  -8   84.81    2.22
  -4  -2   8   83.05    2.19
  -4  -2   8   84.76    2.51
  -4  -2   8   84.67    2.18
  -4  -2   8   83.96    2.49
   4   2  -8   85.36    2.41
  -4   2   8   80.66    2.41
   4   2  -8   84.09    2.48
   4   2  -8   87.26    2.54
  -4   2   8   82.80    2.20
  -4   2   8   84.51    2.29
  -3  -2   8   59.79    1.85
   3  -2  -8   58.38    1.78
   3  -2  -8   59.86    1.66
  -3  -2   8   56.65    1.86
   3  -2  -8   57.98    1.53
   3  -2  -8   59.91    1.86
  -3   2   8   57.85    1.85
   3   2  -8   58.51    1.87
   3   2  -8   48.64    1.74
  -3   2   8   58.04    1.66
   3   2  -8   59.05    1.77
  -2  -2   8  128.27    3.52
  -2  -2   8  128.84    3.46
   2  -2  -8  129.61    3.34
   2  -2  -8  126.11    3.43
   2  -2  -8  127.82    3.55
  -2   2   8  130.38    3.51
  -2   2   8  128.03    3.29
   2   2  -8  130.98    3.59
  -2   2   8  115.32    3.31
   2   2  -8  128.77    3.45
   2   2  -8  128.45    3.49
  -1  -2   8   48.55    1.65
   1  -2  -8   52.12    1.52
   1  -2  -8   44.61    1.45
  -1  -2   8   51.26    1.60
   1  -2  -8   50.17    1.64
   1   2  -8   48.64    1.50
   1   2  -8   50.21    1.66
   1   2  -8   49.56    1.60
  -1   2   8   49.54    1.47
  -1   2   8   47.91    1.43
  -1   2   8   49.60    1.63
   0  -2  -8   53.90    1.77
   0  -2   8   52.29    1.62
   0  -2  -8   55.77    1.62
   0  -2  -8   53.87    1.57
   0  -2   8   50.65    1.72
   0   2  -8   55.92    1.77
   0   2   8   50.56    1.42
   0   2  -8   53.68    1.58
   0   2  -8   50.20    1.77
   0   2   8   53.09    1.56
   0   2  -8   52.73    1.71
  -1  -2  -8   50.81    1.62
  -1  -2  -8   51.52    1.44
  -1  -2  -8   53.18    1.75
   1  -2   8   56.46    1.51
   1  -2   8   53.33    1.82
   1  -2   8   55.49    1.69
  -1  -2  -8   53.28    1.50
  -1  -2  -8   50.18    1.44
  -1   2  -8   52.78    1.78
  -1   2  -8   52.96    1.75
  -1   2  -8   53.10    1.71
  -1   2  -8   53.80    1.51
   2  -2   8   14.31    0.56
   2  -2   8   13.87    0.62
  -2  -2  -8   14.20    0.59
   2  -2   8   15.27    0.65
  -2  -2  -8   16.11    0.57
   2  -2   8   13.80    0.76
  -2  -2  -8   16.18    0.75
  -2  -2  -8   16.25    0.80
  -2  -2  -8   16.28    0.61
  -2   2  -8   15.96    0.57
  -2   2  -8   15.92    0.78
  -2   2  -8   16.79    0.84
  -2   2  -8   17.30    0.85
  -2   2  -8   16.11    0.60
  -3  -2  -8    2.87    0.32
   3  -2   8    4.18    0.31
  -3  -2  -8    3.57    0.27
   3  -2   8    3.44    0.27
  -3  -2  -8    3.65    0.37
   3  -2   8    3.08    0.26
   3  -2   8    3.21    0.38
  -3  -2  -8    3.84    0.36
  -3  -2  -8    3.27    0.27
  -3   2  -8    3.35    0.27
  -3   2  -8    3.32    0.35
  -3   2  -8    3.45    0.19
  -3   2  -8    3.02    0.36
  -4  -2  -8    7.30    0.51
  -4  -2  -8    6.75    0.43
   4  -2   8    7.14    0.44
   4  -2   8    6.73    0.38
  -4  -2  -8    7.08    0.43
  -4  -2  -8    6.33    0.49
   4  -2   8    7.19    0.40
  -4  -2  -8    7.13    0.53
  -4  -2  -8    7.07    0.53
  -4   2  -8    7.36    0.58
  -4   2  -8    6.44    0.51
  -4   2  -8    6.35    0.41
  -5  -2  -8    7.70    0.49
   5  -2   8    9.02    0.43
  -5  -2  -8    6.64    0.55
   5  -2   8    8.82    0.54
  -5  -2  -8    9.18    0.60
  -5  -2  -8    8.94    0.52
  -5  -2  -8    8.23    0.59
  -5  -2  -8    7.22    0.55
  -5  -2  -8    8.27    0.51
   5  -2   8    9.16    0.44
  -5   2  -8    8.68    0.66
  -5   2  -8    8.20    0.50
  -5   2  -8    7.96    0.60
  -6  -2  -8    7.59    0.51
  -6  -2  -8    8.08    0.63
   6  -2   8    8.76    0.38
  -6  -2  -8    7.57    0.57
  -6  -2  -8    7.87    0.53
  -6  -2  -8    7.43    0.59
  -6  -2  -8    7.38    0.59
   6  -2   8    7.55    0.36
  -6  -2  -8    8.05    0.50
  -6   2  -8    8.07    0.53
  -6   2  -8    7.41    0.65
  -7  -2  -8   13.08    0.87
  -7  -2  -8   13.59    0.70
  -7  -2  -8   13.51    0.75
  -7  -2  -8   13.91    0.78
  -7  -2  -8   13.94    0.86
  -7   2  -8   13.79    0.92
  -7   2  -8   13.20    0.75
  -8  -2  -8   10.16    0.76
  -8  -2  -8   11.31    0.85
  -8  -2  -8   10.31    0.59
  -8  -2  -8    9.51    0.68
  -8   2  -8    9.36    0.79
  -8   2  -8   10.13    0.67
  12   3  -8    3.25    0.49
 -12   3   8    2.97    0.48
  11  -3  -8   11.43    0.79
 -11  -3   8   10.65    0.73
 -11  -3   8   12.19    0.67
 -11  -3   8   11.74    0.81
  11  -3  -8   13.99    1.31
 -11   3   8   12.24    0.79
  11   3  -8   11.84    0.85
  11   3  -8   11.71    0.64
 -11   3   8   12.54    0.84
 -11   3   8   11.95    0.78
 -10  -3   8   21.21    1.03
 -10  -3   8   21.67    0.92
 -10  -3   8   22.11    1.04
 -10  -3   8   22.03    1.11
  10  -3  -8   23.25    1.14
  10  -3  -8   21.20    1.13
  10  -3  -8   22.68    1.00
  10  -3  -8   22.96    1.12
  10  -3  -8   22.41    1.06
 -10   3   8   21.65    1.10
  10   3  -8   21.28    0.90
  10   3  -8   21.52    1.13
 -10   3   8   22.00    1.04
 -10   3   8   20.52    0.99
  -9  -3   8   28.63    1.26
  -9  -3   8   27.07    1.14
   9  -3  -8   30.46    1.22
   9  -3  -8   29.30    1.14
   9  -3  -8   31.04    1.31
  -9  -3   8   29.24    1.16
   9  -3  -8   27.85    1.29
  -9  -3   8   26.58    1.05
  -9  -3   8   27.19    1.29
  -9   3   8   28.82    1.17
   9   3  -8   27.85    1.30
  -9   3   8   27.20    1.25
   9   3  -8   29.41    1.07
  -9   3   8   27.92    1.13
   9   3  -8   28.71    1.32
  -9   3   8   27.62    1.25
   8  -3  -8   39.44    1.35
  -8  -3   8   42.31    1.57
  -8  -3   8   39.38    1.33
  -8  -3   8   38.08    1.57
   8  -3  -8   40.74    1.43
  -8  -3   8   39.53    1.42
   8  -3  -8   41.12    1.57
   8  -3  -8   38.96    1.53
  -8  -3   8   39.69    1.39
  -8   3   8   38.84    1.53
  -8   3   8   37.88    1.36
   8   3  -8   38.80    1.57
  -8   3   8   39.86    1.42
   8   3  -8   37.81    1.55
  -8   3   8   41.69    1.57
   8   3  -8   38.82    1.31
   7  -3  -8   32.69    1.18
   7  -3  -8   31.92    1.10
  -7  -3   8   33.14    1.16
  -7  -3   8   30.54    1.33
   7  -3  -8   32.42    1.31
  -7  -3   8   33.17    1.19
  -7  -3   8   31.82    1.12
   7  -3  -8   31.82    1.29
  -7  -3   8   33.44    1.33
  -7   3   8   32.82    1.13
  -7   3   8   27.65    1.24
   7   3  -8   33.84    1.13
   7   3  -8   33.90    1.36
   7   3  -8   27.38    1.27
  -7   3   8   33.19    1.32
  -7   3   8   33.71    1.19
  -6  -3   8   23.59    1.06
   6  -3  -8   25.57    0.96
   6  -3  -8   25.74    1.11
  -6  -3   8   24.40    1.09
  -6  -3   8   23.14    0.90
   6  -3  -8   26.09    1.10
   6  -3  -8   25.91    0.90
  -6  -3   8   23.56    0.89
  -6  -3   8   24.07    0.91
   6   3  -8   25.15    1.13
  -6   3   8   25.30    1.06
  -6   3   8   25.46    0.89
   6   3  -8   25.62    1.11
   6   3  -8   25.46    0.94
  -6   3   8   23.01    1.04
  -6   3   8   25.51    0.93
  -5  -3   8   31.01    1.27
  -5  -3   8   31.88    1.05
   5  -3  -8   33.20    1.27
   5  -3  -8   33.33    1.28
  -5  -3   8   32.17    1.11
   5  -3  -8   32.79    1.10
  -5  -3   8   32.34    1.05
  -5  -3   8   30.98    1.25
   5  -3  -8   33.25    1.04
  -5   3   8   32.10    1.07
  -5   3   8   32.60    1.03
  -5   3   8   32.53    1.26
   5   3  -8   32.09    1.29
   5   3  -8   32.71    1.27
  -5   3   8   32.64    1.22
   5   3  -8   33.41    1.14
   4  -3  -8    8.37    0.54
  -4  -3   8    8.02    0.39
  -4  -3   8    7.81    0.53
   4  -3  -8    7.86    0.40
   4  -3  -8    8.11    0.51
  -4  -3   8    8.05    0.55
   4  -3  -8    8.02    0.37
   4   3  -8    7.87    0.45
  -4   3   8    7.65    0.39
   4   3  -8    7.91    0.52
   4   3  -8    9.07    0.57
  -4   3   8    8.37    0.38
  -4   3   8    7.77    0.49
  -4   3   8    7.11    0.51
   3  -3  -8    3.76    0.33
   3  -3  -8    4.52    0.26
   3  -3  -8    4.32    0.27
  -3  -3   8    4.28    0.40
  -3  -3   8    4.75    0.27
   3  -3  -8    3.92    0.36
  -3  -3   8    4.47    0.39
   3   3  -8    4.36    0.40
   3   3  -8    3.99    0.32
  -3   3   8    4.65    0.26
  -3   3   8    5.07    0.36
   3   3  -8    4.74    0.37
  -3   3   8    4.72    0.28
  -3   3   8    4.15    0.38
   2  -3  -8    3.51    0.24
  -2  -3   8    3.29    0.22
   2  -3  -8    3.62    0.34
  -2  -3   8    3.20    0.33
   2  -3  -8    3.21    0.22
  -2  -3   8    3.89    0.37
   2   3  -8    3.42    0.30
   2   3  -8    3.49    0.36
  -2   3   8    3.48    0.23
   2   3  -8    3.59    0.22
   2   3  -8    3.58    0.32
  -2   3   8    3.16    0.27
  -2   3   8    3.74    0.35
  -2   3   8    3.24    0.22
  -1  -3   8   27.05    1.05
   1  -3  -8   25.39    0.92
  -1  -3   8   25.58    0.80
   1  -3  -8   25.16    0.84
   1  -3  -8   25.26    0.81
   1  -3  -8   25.56    1.04
  -1  -3   8   27.21    1.11
   1   3  -8   25.07    0.97
   1   3  -8   25.10    0.92
  -1   3   8   24.98    0.86
  -1   3   8   24.73    1.03
   1   3  -8   24.98    0.79
  -1   3   8   26.89    0.83
   1   3  -8   27.38    1.02
   1   3  -8   26.47    1.10
  -1   3   8   25.98    0.85
   0  -3   8   24.11    0.97
   0  -3  -8   21.61    0.79
   0  -3  -8   22.12    0.75
   0  -3  -8   22.89    0.97
   0  -3   8   22.22    0.75
   0  -3   8   24.32    1.05
   0  -3  -8   23.27    0.82
   0   3  -8   21.77    0.93
   0   3   8   23.01    0.73
   0   3   8   24.16    1.00
   0   3  -8   22.30    1.01
   0   3  -8   22.73    0.81
   0   3  -8   22.00    0.72
   0   3  -8   22.93    0.92
  -1  -3  -8   53.79    1.57
  -1  -3  -8   55.14    1.68
   1  -3   8   59.24    1.94
   1  -3   8   57.63    1.80
  -1  -3  -8   55.07    1.59
   1  -3   8   55.16    1.59
   1  -3   8   55.14    1.76
  -1  -3  -8   55.73    1.84
  -1   3  -8   57.90    1.92
  -1   3  -8   54.50    1.80
  -1   3  -8   57.57    1.86
  -1   3  -8   56.03    1.58
  -1   3  -8   56.75    1.56
  -2  -3  -8   36.46    1.17
  -2  -3  -8   37.71    1.25
   2  -3   8   38.44    1.20
  -2  -3  -8   35.94    1.37
   2  -3   8   37.03    1.29
   2  -3   8   37.76    1.32
   2  -3   8   36.79    1.45
  -2  -3  -8   37.59    1.08
  -2  -3  -8   37.10    1.18
  -2  -3  -8   36.55    1.28
  -2   3  -8   37.33    1.03
  -2   3  -8   36.64    1.37
  -2   3  -8   35.61    1.43
  -2   3  -8   36.70    1.16
  -3  -3  -8   31.21    1.28
  -3  -3  -8   34.65    1.16
  -3  -3  -8   33.85    1.25
   3  -3   8   36.54    1.29
   3  -3   8   36.58    1.21
   3  -3   8   36.86    1.25
  -3  -3  -8   32.74    1.28
  -3  -3  -8   34.27    1.23
   3  -3   8   35.06    1.44
  -3  -3  -8   35.66    1.15
  -3   3  -8   31.97    1.38
  -3   3  -8   32.87    1.31
  -3   3  -8   33.62    1.12
   4  -3   8   37.14    1.28
  -4  -3  -8   36.11    1.24
  -4  -3  -8   36.46    1.38
   4  -3   8   38.94    1.32
  -4  -3  -8   35.71    1.26
   4  -3   8   36.52    1.52
   4  -3   8   38.67    1.32
  -4  -3  -8   36.53    1.34
  -4  -3  -8   35.38    1.39
  -4  -3  -8   35.93    1.38
  -4   3  -8   35.07    1.48
  -4   3  -8   35.48    1.43
  -4   3  -8   35.66    1.23
   5  -3   8   21.78    0.86
  -5  -3  -8   20.80    0.94
   5  -3   8   22.41    0.95
  -5  -3  -8   20.49    0.88
  -5  -3  -8   19.94    0.97
   5  -3   8   22.03    0.89
  -5  -3  -8   19.90    1.00
  -5  -3  -8   20.41    1.00
  -5  -3  -8   19.60    0.88
  -5  -3  -8   19.81    0.96
  -5   3  -8   18.83    1.05
  -5   3  -8   20.87    1.04
  -5   3  -8   20.41    0.88
  -6  -3  -8   14.32    0.81
   6  -3   8   18.99    0.88
  -6  -3  -8   13.21    0.74
  -6  -3  -8   15.13    0.84
  -6  -3  -8   13.52    0.75
  -6  -3  -8   14.27    0.84
  -6  -3  -8   16.19    0.91
  -6  -3  -8   12.28    0.72
   6  -3   8   15.52    0.71
  -6   3  -8   15.17    0.96
  -6   3  -8   15.23    0.76
   7  -3   8    6.77    0.41
   7  -3   8    6.23    0.57
  -7  -3  -8    5.40    0.50
  -7  -3  -8    6.54    0.60
  -7  -3  -8    6.72    0.54
  -7  -3  -8    5.66    0.52
  -7  -3  -8    6.68    0.50
  -7   3  -8    5.69    0.49
  -7   3  -8    6.20    0.61
 -11  -4   8    2.78    0.42
 -11  -4   8    3.77    0.54
  11  -4  -8    4.15    0.48
 -11  -4   8    3.51    0.35
 -11   4   8    4.51    0.61
 -11   4   8    3.14    0.47
  11   4  -8    3.75    0.34
 -11   4   8    3.60    0.54
  11   4  -8    2.88    0.45
 -10  -4   8    3.86    0.45
 -10  -4   8    3.52    0.41
 -10  -4   8    3.76    0.33
  10  -4  -8    4.68    0.53
 -10  -4   8    4.09    0.54
  10  -4  -8    4.93    0.54
  10  -4  -8    4.26    0.48
 -10   4   8    3.26    0.37
  10   4  -8    3.94    0.48
 -10   4   8    3.52    0.50
  10   4  -8    4.38    0.35
 -10   4   8    3.93    0.43
  -9  -4   8    1.30    0.30
  -9  -4   8    0.93    0.23
  -9  -4   8    0.73    0.17
   9  -4  -8    1.20    0.27
  -9  -4   8    0.76    0.22
   9  -4  -8    0.68    0.17
   9  -4  -8    1.30    0.31
  -9   4   8    0.90    0.22
   9   4  -8    1.34    0.32
   9   4  -8    1.04    0.20
  -9   4   8    0.80    0.21
  -9   4   8    1.33    0.33
   8  -4  -8    0.80    0.21
  -8  -4   8    0.27    0.16
  -8  -4   8    0.44    0.16
   8  -4  -8    0.37    0.17
   8  -4  -8    1.17    0.31
  -8  -4   8    0.41    0.19
  -8  -4   8    0.94    0.27
  -8  -4   8    0.32    0.13
  -8   4   8    0.69    0.20
  -8   4   8    0.62    0.23
   8   4  -8    0.53    0.18
  -8   4   8    0.51    0.19
   8   4  -8    0.59    0.14
   8   4  -8    0.49    0.18
  -8   4   8    0.63    0.15
   7  -4  -8    6.19    0.51
  -7  -4   8    5.88    0.52
  -7  -4   8    5.94    0.42
   7  -4  -8    6.05    0.44
  -7  -4   8    5.25    0.35
  -7  -4   8    5.41    0.42
  -7  -4   8    6.37    0.55
   7  -4  -8    5.98    0.52
   7   4  -8    5.45    0.50
  -7   4   8    6.14    0.52
   7   4  -8    4.99    0.47
  -7   4   8    5.51    0.35
  -7   4   8    5.75    0.44
   7   4  -8    6.39    0.37
  -7   4   8    5.77    0.49
  -6  -4   8   16.00    0.71
   6  -4  -8   17.46    0.62
  -6  -4   8   16.54    0.75
  -6  -4   8   14.85    0.85
   6  -4  -8   16.24    0.74
  -6  -4   8   16.52    0.87
   6  -4  -8   16.09    0.85
   6  -4  -8   16.49    0.86
   6   4  -8   15.11    0.83
  -6   4   8   16.54    0.74
  -6   4   8   15.78    0.82
   6   4  -8   16.56    0.90
   6   4  -8   16.41    0.66
  -6   4   8   16.91    0.62
  -6   4   8   16.88    0.87
   5  -4  -8   36.85    1.38
  -5  -4   8   32.52    1.36
  -5  -4   8   34.87    1.17
   5  -4  -8   36.63    1.03
   5  -4  -8   37.21    1.39
  -5  -4   8   34.44    1.36
   5  -4  -8   29.09    1.16
   5   4  -8   36.39    1.43
   5   4  -8   34.89    1.35
  -5   4   8   34.51    1.01
  -5   4   8   34.68    1.35
  -5   4   8   35.16    1.30
   5   4  -8   38.26    1.18
  -5   4   8   33.32    1.16
   4  -4  -8   48.72    1.49
   4  -4  -8   47.76    1.67
  -4  -4   8   46.45    1.67
  -4  -4   8   48.27    1.45
   4  -4  -8   46.72    1.63
   4   4  -8   48.10    1.72
   4   4  -8   48.02    1.49
  -4   4   8   47.28    1.67
  -4   4   8   50.34    1.48
  -4   4   8   44.89    1.71
   4   4  -8   47.59    1.63
   3  -4  -8   50.70    1.54
   3  -4  -8   52.19    1.70
   3  -4  -8   51.29    1.74
  -3  -4   8   52.39    1.55
  -3  -4   8   51.91    1.80
  -3  -4   8   52.04    1.82
   3   4  -8   51.46    1.81
  -3   4   8   52.82    1.66
   3   4  -8   52.58    1.58
  -3   4   8   55.12    1.59
   3   4  -8   52.50    1.53
   3   4  -8   52.42    1.61
  -3   4   8   51.82    1.78
   3   4  -8   50.83    1.68
   2  -4  -8   37.73    1.19
   2  -4  -8   39.17    1.40
  -2  -4   8   37.70    1.19
   2  -4  -8   37.78    1.30
  -2  -4   8   37.99    1.46
  -2  -4   8   39.70    1.44
  -2   4   8   38.91    1.26
   2   4  -8   38.54    1.29
   2   4  -8   38.52    1.47
   2   4  -8   37.37    1.26
  -2   4   8   38.61    1.21
   2   4  -8   37.44    1.17
   2   4  -8   37.29    1.29
  -2   4   8   38.77    1.41
  -1  -4   8   42.28    1.28
   1  -4  -8   40.97    1.29
   1  -4  -8   43.23    1.16
  -1  -4   8   43.94    1.54
  -1  -4   8   42.03    1.57
   1  -4  -8   41.37    1.49
   1  -4  -8   42.37    1.16
   1  -4  -8   41.59    1.37
   1   4  -8   42.85    1.44
  -1   4   8   43.25    1.52
   1   4  -8   41.93    1.27
   1   4  -8   42.93    1.58
  -1   4   8   42.17    1.31
   1   4  -8   41.98    1.40
   1   4  -8   43.02    1.35
  -1   4   8   43.24    1.29
   0  -4   8   33.42    1.09
   0  -4  -8   32.84    1.02
   0  -4  -8   32.58    1.08
   0  -4  -8   33.12    1.26
   0  -4  -8   34.02    1.12
   0  -4   8   34.50    1.32
   0  -4  -8   32.32    0.99
   0  -4   8   33.57    1.36
   0   4  -8   33.88    1.22
   0   4   8   34.64    1.29
   0   4  -8   33.32    1.34
   0   4  -8   32.16    1.23
   0   4  -8   32.91    1.07
   0   4   8   35.67    1.13
   0   4  -8   33.33    1.07
   0   4   8   34.28    0.99
  -1  -4  -8   21.16    0.78
  -1  -4  -8   21.71    0.96
   1  -4   8   20.37    1.00
   1  -4   8   21.03    0.78
  -1  -4  -8   21.56    0.79
   1  -4   8   21.46    0.95
   1  -4   8   19.99    0.89
  -1  -4  -8   22.55    0.78
  -1  -4  -8   22.20    0.83
  -1   4  -8   21.68    0.72
  -1   4  -8   22.17    0.81
  -1   4  -8   20.69    1.03
  -1   4  -8   21.56    0.93
  -1   4  -8   22.34    0.98
   2  -4   8    5.62    0.46
   2  -4   8    5.02    0.35
  -2  -4  -8    5.64    0.36
  -2  -4  -8    4.97    0.42
   2  -4   8    4.72    0.48
  -2  -4  -8    4.07    0.33
  -2  -4  -8    5.12    0.36
   2  -4   8    5.73    0.43
  -2  -4  -8    4.96    0.28
  -2   4  -8    5.13    0.48
  -2   4  -8    5.05    0.35
  -3  -4  -8    3.28    0.31
   3  -4   8    3.36    0.33
   3  -4   8    3.55    0.52
  -3  -4  -8    3.46    0.31
  -3  -4  -8    3.90    0.38
   3  -4   8    2.63    0.30
  -3  -4  -8    3.49    0.32
  -3  -4  -8    3.23    0.34
  -3  -4  -8    3.48    0.33
  -3   4  -8    3.65    0.39
  -3   4  -8    3.35    0.41
  -3   4  -8    3.97    0.32
  -4  -4  -8    1.81    0.30
   4  -4   8    1.50    0.26
  -4  -4  -8    1.32    0.22
  -4  -4  -8    1.42    0.28
  -4  -4  -8    1.54    0.27
   4  -4   8    1.57    0.30
  -4  -4  -8    1.81    0.31
   4  -4   8    1.97    0.30
  -4  -4  -8    1.69    0.31
  -4   4  -8    1.72    0.34
  -4   4  -8    1.79    0.37
  -4   4  -8    1.69    0.27
  -5  -4  -8    5.33    0.46
  -5  -4  -8    6.45    0.48
   5  -4   8    5.92    0.47
  -5  -4  -8    6.80    0.54
  -5  -4  -8    5.84    0.50
  -5  -4  -8    5.91    0.46
  -5  -4  -8    5.95    0.51
  -5  -4  -8    6.47    0.50
  -5   4  -8    6.85    0.49
  -5   4  -8    7.69    0.63
  -6  -4  -8    6.41    0.54
  -6  -4  -8    6.97    0.56
   6  -4   8    6.92    0.50
   6  -4   8    6.58    0.55
  -6  -4  -8    6.45    0.53
  -6  -4  -8    7.41    0.60
  -6  -4  -8    7.32    0.56
  -6  -4  -8    7.16    0.56
  -6  -4  -8    7.35    0.54
  -6   4  -8    7.03    0.66
  -6   4  -8    7.68    0.55
   7  -4   8    7.04    0.52
  -7  -4  -8    7.21    0.60
  -7  -4  -8    7.61    0.59
   7  -4   8    8.43    0.71
  -7  -4  -8    7.62    0.66
  -7  -4  -8    6.67    0.56
  -7   4  -8    7.14    0.57
  -7   4  -8    6.56    0.65
 -10  -5   8    9.97    0.49
 -10  -5   8   11.51    0.79
 -10  -5   8   11.16    0.75
  10  -5  -8   11.23    0.80
  10  -5  -8   12.02    0.85
 -10   5   8   10.71    0.61
 -10   5   8   11.38    0.81
  10   5  -8   10.10    0.48
 -10   5   8   12.18    0.78
  10   5  -8   10.91    0.81
 -10   5   8   10.44    0.63
  -9  -5   8   16.21    0.94
  -9  -5   8   15.90    0.87
   9  -5  -8   15.47    0.88
  -9  -5   8   15.98    0.88
   9  -5  -8   15.63    0.96
   9  -5  -8   15.45    0.92
  -9   5   8   15.82    0.73
   9   5  -8   15.92    0.61
  -9   5   8   15.78    0.93
   9   5  -8   16.15    0.97
  -9   5   8   15.56    0.87
  -8  -5   8   16.26    0.84
   8  -5  -8   17.06    0.94
   8  -5  -8   16.37    0.85
  -8  -5   8   15.76    0.90
  -8  -5   8   16.06    0.85
   8  -5  -8   17.59    0.96
   8   5  -8   15.66    0.93
  -8   5   8   17.09    0.88
  -8   5   8   17.19    0.95
   8   5  -8   13.53    0.57
  -8   5   8   15.83    0.67
  -7  -5   8   18.11    0.86
  -7  -5   8   16.62    0.96
   7  -5  -8   17.99    0.94
  -7  -5   8   18.16    0.96
   7  -5  -8   18.25    0.86
   7  -5  -8   18.14    0.97
  -7  -5   8   16.78    0.83
   7   5  -8   17.30    0.95
  -7   5   8   19.44    0.97
  -7   5   8   17.79    0.65
  -7   5   8   18.49    0.87
  -7   5   8   18.58    0.97
   7   5  -8   16.96    0.95
   7   5  -8   16.00    0.62
  -6  -5   8   18.63    0.96
  -6  -5   8   17.05    0.96
   6  -5  -8   18.34    0.83
  -6  -5   8   17.63    0.81
   6  -5  -8   19.68    0.97
   6  -5  -8   17.00    0.89
  -6   5   8   18.37    0.83
   6   5  -8   16.39    0.89
  -6   5   8   18.08    0.94
   6   5  -8   15.16    0.62
  -6   5   8   18.56    0.92
   6   5  -8   17.83    0.95
   5  -5  -8    5.18    0.46
   5  -5  -8    4.69    0.39
  -5  -5   8    4.90    0.46
  -5  -5   8    4.18    0.35
   5  -5  -8    5.07    0.45
  -5  -5   8    5.10    0.47
   5   5  -8    4.59    0.42
  -5   5   8    5.21    0.40
   5   5  -8    4.93    0.31
   5   5  -8    5.17    0.48
  -5   5   8    4.46    0.41
   5   5  -8    5.00    0.32
  -5   5   8    5.00    0.45
   4  -5  -8    9.17    0.59
   4  -5  -8    8.68    0.59
  -4  -5   8    8.20    0.60
  -4  -5   8    8.61    0.62
   4  -5  -8    8.76    0.51
  -4  -5   8    8.51    0.48
   4   5  -8    8.87    0.44
   4   5  -8    7.85    0.60
   4   5  -8    8.06    0.55
   4   5  -8    8.83    0.45
  -4   5   8    8.45    0.59
   4   5  -8    8.98    0.50
  -4   5   8    8.05    0.50
  -3  -5   8    4.28    0.43
  -3  -5   8    3.71    0.30
  -3  -5   8    4.59    0.44
   3  -5  -8    3.80    0.32
   3  -5  -8    4.43    0.39
   3  -5  -8    4.23    0.39
   3   5  -8    4.08    0.36
   3   5  -8    4.21    0.42
   3   5  -8    4.46    0.33
   3   5  -8    3.65    0.29
   3   5  -8    3.46    0.29
  -3   5   8    3.68    0.38
  -3   5   8    3.46    0.33
  -3   5   8    3.52    0.31
   2  -5  -8    2.94    0.31
  -2  -5   8    2.27    0.36
   2  -5  -8    1.98    0.31
  -2  -5   8    2.77    0.27
   2  -5  -8    2.29    0.25
  -2  -5   8    2.74    0.40
  -2   5   8    2.61    0.28
   2   5  -8    2.09    0.33
  -2   5   8    3.05    0.35
   2   5  -8    2.48    0.28
   2   5  -8    2.41    0.25
   2   5  -8    2.58    0.26
  -2   5   8    2.58    0.26
   2   5  -8    2.53    0.27
  -1  -5   8    7.13    0.55
  -1  -5   8    7.89    0.58
  -1  -5   8    7.83    0.44
   1  -5  -8    6.48    0.42
   1  -5  -8    7.53    0.48
   1  -5  -8    8.36    0.55
  -1   5   8    7.76    0.45
   1   5  -8    7.74    0.46
  -1   5   8    7.59    0.40
   1   5  -8    7.56    0.48
   1   5  -8    7.86    0.44
  -1   5   8    7.21    0.53
   1   5  -8    7.42    0.44
   1   5  -8    7.72    0.58
   0  -5   8   22.61    1.06
   0  -5   8   21.61    1.02
   0  -5  -8   21.73    0.85
   0  -5  -8   21.95    0.86
   0  -5   8   20.53    0.83
   0  -5  -8   23.54    0.99
   0   5  -8   20.94    0.79
   0   5  -8   22.36    0.95
   0   5  -8   18.25    0.97
   0   5  -8   22.90    0.93
   0   5  -8   21.57    0.83
   0   5   8   21.66    0.86
   0   5   8   21.72    0.96
   1  -5   8   10.30    0.55
  -1  -5  -8    9.99    0.55
  -1  -5  -8   10.43    0.45
   1  -5   8   11.45    0.73
  -1  -5  -8   10.26    0.44
  -1  -5  -8   11.34    0.66
   1  -5   8   11.69    0.67
  -1  -5  -8   10.45    0.50
  -1   5  -8    9.94    0.44
   1   5   8   11.18    0.58
  -1   5  -8   11.82    0.65
  -1   5  -8   10.68    0.55
  -1   5  -8   10.74    0.72
  -2  -5  -8   23.60    1.02
  -2  -5  -8   21.84    0.91
   2  -5   8   22.22    1.10
   2  -5   8   23.39    1.02
  -2  -5  -8   22.63    0.85
  -2  -5  -8   22.65    0.83
   2  -5   8   22.98    0.92
  -2  -5  -8   23.47    0.80
  -2   5  -8   22.96    0.91
  -2   5  -8   22.95    1.03
  -2   5  -8   23.75    1.14
  -3  -5  -8   20.87    0.67
  -3  -5  -8   21.41    0.95
  -3  -5  -8   21.94    0.99
   3  -5   8   20.34    0.94
   3  -5   8   19.90    0.88
  -3  -5  -8   20.86    0.90
   3  -5   8   20.21    1.06
  -3  -5  -8   20.93    0.87
  -3  -5  -8   18.23    0.80
  -3   5  -8   20.93    1.01
  -3   5  -8   21.47    0.89
  -3   5  -8   21.49    1.09
  -4  -5  -8   13.88    0.70
  -4  -5  -8   15.10    0.85
  -4  -5  -8   12.92    0.71
  -4  -5  -8   13.46    0.72
   4  -5   8   14.87    0.76
  -4  -5  -8   12.96    0.72
  -4  -5  -8   14.15    0.77
  -4  -5  -8   13.86    0.77
  -4   5  -8   14.04    0.82
  -4   5  -8   13.56    0.87
  -4   5  -8   12.99    0.70
  -5  -5  -8   12.60    0.73
  -5  -5  -8   12.65    0.74
  -5  -5  -8   11.91    0.77
  -5  -5  -8   13.42    0.74
  -5  -5  -8   10.76    0.68
  -5  -5  -8   12.81    0.74
   5  -5   8   13.87    0.78
  -5  -5  -8   12.95    0.71
  -5   5  -8   12.33    0.70
  -5   5  -8   12.71    0.86
   6  -5   8    5.75    0.53
  -6  -5  -8    5.14    0.49
  -6  -5  -8    5.21    0.53
  -6  -5  -8    5.78    0.51
  -6  -5  -8    6.10    0.53
  -6  -5  -8    5.62    0.53
  -6  -5  -8    5.44    0.49
  -6  -5  -8    5.19    0.62
  -6   5  -8    5.28    0.48
  -6   5  -8    5.51    0.60
 -10  -6   8    1.68    0.37
  10  -6  -8    1.76    0.34
  10  -6  -8    1.29    0.38
 -10  -6   8    1.62    0.39
  10   6  -8    1.55    0.34
 -10   6   8    1.17    0.32
 -10   6   8    1.26    0.29
 -10   6   8    1.92    0.39
 -10   6   8    1.64    0.28
  -9  -6   8    0.71    0.26
   9  -6  -8    1.37    0.38
   9  -6  -8    0.73    0.23
  -9  -6   8    0.88    0.29
  -9   6   8    1.06    0.20
  -9   6   8    0.99    0.26
   9   6  -8    0.88    0.27
  -9   6   8    0.64    0.16
  -9   6   8    0.47    0.25
   8  -6  -8    0.57    0.25
  -8  -6   8    0.54    0.21
   8  -6  -8    0.46    0.18
  -8  -6   8    0.69    0.20
   8  -6  -8    0.36    0.21
  -8  -6   8    0.56    0.21
   8   6  -8    0.61    0.22
  -8   6   8    0.59    0.25
  -8   6   8    0.75    0.15
  -8   6   8    0.97    0.28
   7  -6  -8    0.85    0.25
  -7  -6   8    0.78    0.21
  -7  -6   8    0.93    0.27
   7  -6  -8    0.98    0.24
   7  -6  -8    1.09    0.28
  -7   6   8    0.84    0.24
  -7   6   8    0.57    0.24
   7   6  -8    1.08    0.27
  -6  -6   8    6.02    0.49
   6  -6  -8    7.79    0.63
  -6  -6   8    7.75    0.62
   6  -6  -8    8.64    0.58
  -6  -6   8    7.27    0.62
   6  -6  -8    8.24    0.62
  -6   6   8    6.77    0.56
  -6   6   8    6.52    0.49
   6   6  -8    7.18    0.61
  -6   6   8    7.02    0.58
   6   6  -8    7.53    0.61
   5  -6  -8    8.14    0.59
  -5  -6   8    8.69    0.66
  -5  -6   8    7.77    0.61
  -5  -6   8    7.33    0.51
   5  -6  -8    7.96    0.52
   5  -6  -8    7.32    0.59
   5   6  -8    7.76    0.57
  -5   6   8    8.09    0.54
  -5   6   8    8.52    0.59
  -5   6   8    7.67    0.59
   5   6  -8    7.89    0.37
   5   6  -8    8.88    0.64
   5   6  -8    7.67    0.37
  -4  -6   8   20.55    0.88
   4  -6  -8   22.50    1.02
   4  -6  -8   19.52    0.99
   4  -6  -8   22.36    0.95
  -4  -6   8   20.56    1.05
  -4  -6   8   20.14    1.02
   4   6  -8   21.49    0.91
   4   6  -8   20.86    0.98
  -4   6   8   20.07    0.99
  -4   6   8   20.73    0.94
   4   6  -8   21.46    0.76
   4   6  -8   20.99    0.75
  -4   6   8   19.90    0.89
   4   6  -8   21.51    1.09
   3  -6  -8   24.66    1.00
  -3  -6   8   25.29    1.18
  -3  -6   8   26.42    1.02
   3  -6  -8   25.13    1.09
  -3  -6   8   24.64    1.17
   3  -6  -8   20.98    1.02
   3   6  -8   24.64    1.17
  -3   6   8   24.24    1.01
  -3   6   8   25.27    1.12
   3   6  -8   25.81    1.00
   3   6  -8   24.35    0.89
   3   6  -8   24.32    0.87
   3   6  -8   23.77    1.03
  -3   6   8   25.72    1.01
   2  -6  -8    9.90    0.62
   2  -6  -8    9.24    0.59
  -2  -6   8    9.62    0.68
  -2  -6   8    9.68    0.55
   2  -6  -8    9.70    0.56
  -2  -6   8    8.10    0.61
   2   6  -8    9.36    0.56
  -2   6   8    9.39    0.55
   2   6  -8    9.73    0.51
  -2   6   8    9.23    0.52
  -2   6   8    9.29    0.61
   2   6  -8    9.71    0.52
   2   6  -8    9.23    0.65
   2   6  -8    8.99    0.53
  -1  -6   8   19.46    1.01
  -1  -6   8   20.09    0.85
  -1  -6   8   21.00    1.04
   1  -6  -8   18.90    0.86
   1  -6  -8   19.34    0.91
   1  -6  -8   19.32    0.86
   1   6  -8   18.23    0.79
   1   6  -8   19.53    0.84
   1   6  -8   19.41    1.01
  -1   6   8   18.90    0.76
   1   6  -8   19.94    0.84
  -1   6   8   19.54    0.93
  -1   6   8   21.28    0.88
   1   6  -8   20.10    0.84
   0  -6  -8   14.49    0.73
   0  -6   8   13.13    0.82
   0  -6  -8   15.47    0.72
   0  -6  -8   14.50    0.78
   0  -6   8   13.65    0.69
   0  -6   8   14.20    0.81
   0   6  -8   15.01    0.88
   0   6   8   15.75    0.74
   0   6  -8   15.22    0.72
   0   6   8   16.31    0.81
   0   6  -8   15.40    0.76
   0   6  -8   15.40    0.75
   1  -6   8    3.49    0.35
   1  -6   8    3.74    0.45
  -1  -6  -8    3.22    0.36
   1  -6   8    3.62    0.38
  -1  -6  -8    3.48    0.30
  -1  -6  -8    3.36    0.33
   1   6   8    3.43    0.34
  -1   6  -8    3.08    0.31
  -1   6  -8    3.27    0.40
  -1   6  -8    3.34    0.34
   2  -6   8    3.48    0.37
   2  -6   8    4.96    0.50
  -2  -6  -8    4.19    0.28
  -2  -6  -8    4.49    0.39
  -2  -6  -8    4.25    0.27
  -2  -6  -8    4.50    0.32
  -2  -6  -8    4.29    0.39
   2  -6   8    4.42    0.44
  -2   6  -8    4.10    0.46
  -2   6  -8    3.87    0.39
  -2   6  -8    4.33    0.37
   3  -6   8    0.46    0.19
  -3  -6  -8    0.49    0.14
  -3  -6  -8    0.34    0.13
  -3  -6  -8    0.50    0.12
  -3  -6  -8    0.31    0.17
  -3  -6  -8    0.50    0.19
  -3  -6  -8    0.64    0.22
  -3   6  -8    0.38    0.15
  -3   6  -8    0.67    0.22
  -3   6  -8    0.21    0.18
  -4  -6  -8    2.41    0.44
  -4  -6  -8    2.40    0.34
  -4  -6  -8    2.17    0.31
  -4  -6  -8    2.47    0.40
  -4  -6  -8    2.82    0.40
   4  -6   8    2.25    0.38
  -4  -6  -8    2.89    0.40
  -4   6  -8    2.25    0.44
  -4   6  -8    2.92    0.42
  -5  -6  -8    2.55    0.40
  -5  -6  -8    3.20    0.36
  -5  -6  -8    3.14    0.46
  -5  -6  -8    3.40    0.44
   5  -6   8    2.31    0.40
  -5  -6  -8    1.81    0.37
  -5  -6  -8    3.12    0.45
  -5  -6  -8    2.96    0.43
  -5   6  -8    2.90    0.42
  -5   6  -8    2.51    0.46
  -6  -6  -8    4.39    0.50
  -6   6  -8    5.42    0.56
  -6   6  -8    4.13    0.45
  -8  -7   8    5.35    0.59
   8  -7  -8    5.40    0.74
   8  -7  -8    4.84    0.50
  -8   7   8    4.86    0.58
   8   7  -8    5.00    0.55
  -8   7   8    5.53    0.52
   7  -7  -8    7.85    0.63
  -7  -7   8    6.04    0.53
   7  -7  -8    6.33    0.63
  -7  -7   8    6.63    0.60
  -7   7   8    6.80    0.55
   7   7  -8    7.03    0.63
  -7   7   8    6.59    0.60
  -6  -7   8    4.73    0.52
  -6  -7   8    4.51    0.47
   6  -7  -8    4.32    0.51
   6  -7  -8    4.40    0.45
   6  -7  -8    5.34    0.51
  -6   7   8    4.95    0.45
  -6   7   8    4.95    0.49
   6   7  -8    4.92    0.53
   5  -7  -8    4.22    0.43
  -5  -7   8    3.89    0.44
  -5  -7   8    4.54    0.49
   5  -7  -8    4.02    0.53
   5  -7  -8    4.39    0.45
   5   7  -8    4.03    0.54
   5   7  -8    4.68    0.48
  -5   7   8    4.10    0.40
  -5   7   8    3.62    0.54
  -5   7   8    3.57    0.40
   4  -7  -8    1.50    0.31
   4  -7  -8    1.68    0.34
  -4  -7   8    1.40    0.28
   4  -7  -8    2.21    0.37
  -4  -7   8    1.87    0.36
   4   7  -8    1.88    0.17
   4   7  -8    2.51    0.42
  -4   7   8    2.37    0.41
   4   7  -8    1.82    0.18
   4   7  -8    1.60    0.33
  -4   7   8    1.66    0.28
  -4   7   8    1.35    0.27
   4   7  -8    1.29    0.23
  -3  -7   8    0.72    0.24
   3  -7  -8    0.76    0.19
   3  -7  -8    1.07    0.25
  -3  -7   8    0.99    0.29
  -3  -7   8    1.09    0.24
   3  -7  -8    1.07    0.27
   3   7  -8    1.06    0.17
  -3   7   8    0.82    0.27
   3   7  -8    1.40    0.29
   3   7  -8    1.06    0.18
   3   7  -8    0.77    0.22
  -3   7   8    0.91    0.24
   3   7  -8    0.99    0.24
  -3   7   8    1.18    0.23
  -2  -7   8    0.89    0.26
  -2  -7   8    0.69    0.23
   2  -7  -8    1.22    0.27
   2  -7  -8    0.63    0.20
  -2  -7   8    0.99    0.26
   2  -7  -8    0.95    0.23
   2   7  -8    0.67    0.17
  -2   7   8    0.50    0.18
  -2   7   8    1.17    0.21
   2   7  -8    0.75    0.21
   2   7  -8    0.69    0.19
   2   7  -8    0.85    0.19
  -2   7   8    1.10    0.24
   2   7  -8    0.89    0.26
   1  -7  -8    5.04    0.44
   1  -7  -8    5.31    0.44
  -1  -7   8    4.97    0.52
  -1  -7   8    4.68    0.52
   1  -7  -8    5.18    0.44
  -1  -7   8    4.70    0.49
  -1  -7   8    4.94    0.45
   1   7  -8    5.71    0.53
   1   7  -8    5.00    0.42
   1   7  -8    4.67    0.37
  -1   7   8    4.51    0.41
   1   7  -8    4.80    0.38
  -1   7   8    5.60    0.49
   0  -7  -8    3.68    0.37
   0  -7   8    2.50    0.43
   0  -7   8    3.23    0.48
   0  -7   8    2.78    0.37
   0  -7  -8    3.89    0.39
   0  -7  -8    2.93    0.32
   0   7  -8    3.81    0.35
   0   7   8    3.87    0.38
   0   7  -8    3.02    0.32
   0   7   8    3.53    0.39
   0   7  -8    4.00    0.44
   0   7  -8    3.35    0.36
  -1  -7  -8    8.48    0.51
   1  -7   8    7.57    0.53
  -1  -7  -8    7.04    0.53
  -1  -7  -8    7.30    0.55
   1  -7   8    5.93    0.56
   1   7   8    8.22    0.55
  -1   7  -8    6.82    0.51
  -1   7  -8    7.79    0.62
  -1   7  -8    7.34    0.53
  -1   7  -8    7.88    0.56
  -2  -7  -8    6.30    0.49
   2  -7   8    7.36    0.75
  -2  -7  -8    7.60    0.56
  -2  -7  -8    7.39    0.45
   2  -7   8    7.06    0.54
  -2   7  -8    7.74    0.54
  -2   7  -8    7.32    0.64
  -2   7  -8    6.68    0.53
  -3  -7  -8    6.32    0.51
  -3  -7  -8    6.85    0.39
  -3  -7  -8    6.60    0.51
  -3  -7  -8    6.46    0.38
  -3  -7  -8    6.62    0.37
  -3  -7  -8    7.62    0.67
  -3  -7  -8    5.53    0.51
   3  -7   8    7.71    0.58
  -3   7  -8    6.76    0.67
  -3   7  -8    6.72    0.65
  -3   7  -8    6.37    0.51
  -4  -7  -8    3.67    0.46
  -4  -7  -8    3.79    0.25
  -4  -7  -8    3.75    0.38
  -4  -7  -8    3.71    0.59
  -4  -7  -8    4.24    0.36
  -4  -7  -8    4.19    0.38
   4  -7   8    3.98    0.61
  -4   7  -8    3.72    0.60
  -4   7  -8    4.11    0.43
   7  -8  -8    1.39    0.40
   7  -8  -8    1.57    0.33
  -7  -8   8    1.04    0.32
  -7   8   8    0.22    0.25
   7   8  -8    0.95    0.29
  -7   8   8    1.01    0.34
   6  -8  -8    0.12    0.18
  -6  -8   8   -0.08    0.16
  -6  -8   8    0.45    0.25
   6  -8  -8    0.38    0.28
  -6   8   8    0.07    0.16
  -6   8   8    0.22    0.23
   6   8  -8    0.09    0.24
  -5  -8   8    4.02    0.47
  -5  -8   8    3.80    0.57
   5  -8  -8    4.48    0.61
   5  -8  -8    3.92    0.45
   5   8  -8    4.22    0.43
  -5   8   8    2.72    0.43
   5   8  -8    4.54    0.53
   4  -8  -8    5.25    0.59
  -4  -8   8    6.44    0.55
   4  -8  -8    6.54    0.56
  -4  -8   8    6.88    0.64
   4  -8  -8    6.11    0.51
   4   8  -8    6.19    0.59
  -4   8   8    6.57    0.53
  -4   8   8    6.60    0.56
   4   8  -8    6.48    0.52
  -3  -8   8    2.57    0.47
   3  -8  -8    3.65    0.42
  -3  -8   8    3.05    0.45
   3  -8  -8    3.00    0.47
   3  -8  -8    3.29    0.37
  -3   8   8    2.64    0.38
  -3   8   8    3.08    0.44
   3   8  -8    3.82    0.26
   3   8  -8    3.10    0.44
  -3   8   8    3.03    0.43
   3   8  -8    2.97    0.23
   3   8  -8    2.79    0.49
  -2  -8   8    7.11    0.57
  -2  -8   8    6.99    0.64
  -2  -8   8    8.71    0.71
   2  -8  -8    7.16    0.57
   2  -8  -8    6.66    0.57
   2  -8  -8    6.50    0.52
   2   8  -8    6.52    0.52
   2   8  -8    7.08    0.64
  -2   8   8    7.45    0.58
  -2   8   8    7.68    0.56
   2   8  -8    6.67    0.40
   2   8  -8    6.85    0.40
   1  -8  -8    4.37    0.57
  -1  -8   8    2.99    0.44
   1  -8  -8    2.69    0.43
  -1  -8   8    2.49    0.46
   1  -8  -8    3.04    0.35
   1   8  -8    3.02    0.52
  -1   8   8    2.36    0.39
   1   8  -8    2.72    0.30
   1   8  -8    3.27    0.44
   1   8  -8    2.92    0.31
  -1   8   8    2.06    0.38
   0  -8  -8    3.03    0.45
   0  -8   8    3.62    0.55
   0  -8  -8    3.81    0.40
   0  -8   8    4.21    0.46
   0  -8  -8    4.08    0.40
   0   8  -8    4.32    0.63
   0   8  -8    3.75    0.37
   0   8  -8    3.53    0.38
   0   8   8    3.18    0.44
   0   8   8    4.68    0.44
   0   8  -8    3.66    0.40
   1  -8   8    2.40    0.57
  -1  -8  -8    2.22    0.34
   1  -8   8    2.80    0.42
  -1  -8  -8    2.73    0.34
  -1   8  -8    2.63    0.37
  -1   8  -8    2.90    0.40
  -1   8  -8    2.12    0.42
  -1   8  -8    3.12    0.41
   1   8   8    2.70    0.40
  -2  -8  -8    0.19    0.15
  -2  -8  -8    0.23    0.14
  -2   8  -8    0.41    0.20
   2   8   8    0.42    0.20
  -2   8  -8    0.29    0.17
  -2   8  -8    0.33    0.22
  -3  -8  -8    0.63    0.26
  -3  -8  -8    0.63    0.17
  -3  -8  -8    0.15    0.18
  -3  -8  -8   -0.03    0.18
  -3   8  -8    0.62    0.24
  -3   8  -8    0.22    0.23
   4  -9  -8    0.23    0.24
   4  -9  -8    0.35    0.19
  -4  -9   8    0.35    0.20
  -4  -9   8    0.37    0.29
   4   9  -8    0.15    0.23
  -4   9   8    0.21    0.25
   4   9  -8    0.56    0.20
   3  -9  -8    0.61    0.28
  -3  -9   8    0.58    0.31
   3  -9  -8    0.61    0.25
  -3  -9   8    1.17    0.33
   3   9  -8    1.16    0.28
   3   9  -8    0.76    0.26
  -3   9   8    0.69    0.24
  -2  -9   8    0.67    0.34
   2  -9  -8    0.58    0.25
   2  -9  -8    0.09    0.16
  -2  -9   8    0.38    0.30
   2   9  -8    0.32    0.19
   2   9  -8    0.07    0.13
  -2   9   8    0.05    0.19
   2   9  -8    0.15    0.19
   2   9  -8    0.04    0.14
   1  -9  -8    1.08    0.25
   1  -9  -8    1.08    0.30
  -1  -9   8    0.23    0.30
   1   9  -8    0.84    0.26
  -1   9   8    0.95    0.32
   1   9  -8    1.04    0.24
  -1   9   8    0.77    0.29
   1   9  -8    0.79    0.31
   1   9  -8    0.96    0.21
   0  -9  -8    1.33    0.29
   0  -9  -8    1.35    0.34
   0   9  -8    0.95    0.32
   0   9  -8    1.58    0.30
   0   9   8    1.24    0.29
   0   9  -8    1.39    0.26
   0   9  -8    0.99    0.26
 -12   0   9   -0.25    0.21
  12   0  -9    0.07    0.20
  12   0  -9   -0.10    0.15
 -12   0   9   -0.05    0.20
 -11   0   9    0.17    0.15
 -11   0   9   -0.04    0.15
  11   0  -9   -0.17    0.10
  11   0  -9    0.13    0.15
  10   0  -9    0.02    0.13
 -10   0   9   -0.13    0.14
 -10   0   9   -0.12    0.09
  10   0  -9   -0.12    0.16
  10   0  -9   -0.03    0.11
 -10   0   9   -0.23    0.13
 -10   0   9   -0.12    0.15
  -9   0   9   -0.04    0.13
  -9   0   9   -0.14    0.09
   9   0  -9   -0.15    0.09
   9   0  -9   -0.01    0.13
  -9   0   9   -0.13    0.10
  -9   0   9   -0.04    0.10
   9   0  -9    0.00    0.07
   9   0  -9   -0.02    0.13
  -8   0   9   -0.16    0.10
  -8   0   9    0.19    0.12
   8   0  -9   -0.02    0.09
  -8   0   9    0.02    0.12
   8   0  -9    0.04    0.07
  -8   0   9    0.09    0.12
   8   0  -9    0.13    0.13
   8   0  -9    0.17    0.15
   7   0  -9    0.11    0.07
  -7   0   9    0.03    0.08
   7   0  -9    0.01    0.10
   7   0  -9   -0.05    0.07
  -7   0   9   -0.02    0.06
   7   0  -9   -0.09    0.08
  -7   0   9    0.10    0.12
  -7   0   9   -0.04    0.10
   6   0  -9    0.09    0.10
  -6   0   9    0.16    0.10
   6   0  -9    0.24    0.11
  -6   0   9    0.28    0.10
  -6   0   9    0.20    0.12
   6   0  -9   -0.05    0.09
  -6   0   9    0.11    0.07
   5   0  -9    0.03    0.07
   5   0  -9   -0.06    0.07
   5   0  -9    0.10    0.10
  -5   0   9    0.07    0.10
  -5   0   9   -0.03    0.07
  -5   0   9   -0.04    0.07
   4   0  -9    0.18    0.10
   4   0  -9    0.11    0.09
  -4   0   9    0.16    0.13
  -4   0   9    0.27    0.12
   4   0  -9    0.08    0.08
  -4   0   9    0.18    0.11
   3   0  -9    0.14    0.09
  -3   0   9    0.01    0.07
  -3   0   9    0.01    0.06
   3   0  -9   -0.07    0.06
  -3   0   9    0.15    0.09
   3   0  -9    0.01    0.07
   2   0  -9    0.03    0.07
   2   0  -9    0.03    0.08
  -2   0   9   -0.04    0.06
   2   0  -9    0.09    0.11
  -2   0   9    0.10    0.08
  -2   0   9    0.11    0.09
   1   0  -9    0.06    0.08
  -1   0   9    0.01    0.07
   1   0  -9    0.00    0.06
   1   0  -9   -0.05    0.08
  -1   0   9    0.01    0.05
   0   0  -9    0.06    0.11
   0   0   9    0.04    0.07
   0   0   9   -0.02    0.08
   0   0  -9    0.00    0.09
  -1   0  -9    0.27    0.12
  -1   0  -9   -0.05    0.08
   1   0   9    0.08    0.07
   1   0   9    0.02    0.08
  -1   0  -9    0.17    0.11
  -2   0  -9    0.23    0.12
   2   0   9    0.05    0.06
   2   0   9    0.16    0.07
  -2   0  -9    0.13    0.11
  -2   0  -9    0.12    0.10
   2   0   9    0.03    0.11
  -3   0  -9    0.02    0.09
  -3   0  -9    0.27    0.16
  -3   0  -9    0.05    0.09
  -3   0  -9    0.19    0.07
  -3   0  -9    0.17    0.09
  -4   0  -9   -0.08    0.10
  -4   0  -9   -0.15    0.07
  -4   0  -9    0.10    0.14
  -4   0  -9   -0.02    0.09
  -4   0  -9    0.00    0.12
  -5   0  -9    0.04    0.12
  -5   0  -9    0.21    0.15
  -5   0  -9    0.17    0.11
  -5   0  -9    0.38    0.12
  -5   0  -9    0.03    0.08
  -5   0  -9   -0.20    0.11
  -6   0  -9    0.15    0.12
  -6   0  -9   -0.01    0.09
  -6   0  -9    0.11    0.15
  -6   0  -9    0.17    0.14
  -6   0  -9   -0.16    0.13
  -7   0  -9    0.18    0.19
  -7   0  -9   -0.16    0.09
  -7   0  -9    0.10    0.17
  -7   0  -9    0.10    0.16
  -7   0  -9    0.25    0.19
  12  -1  -9    0.88    0.28
  12  -1  -9    0.90    0.31
 -12  -1   9    0.87    0.28
 -12  -1   9    0.89    0.27
 -12   1   9    0.75    0.25
  12   1  -9    1.35    0.35
 -12   1   9    0.57    0.26
  12   1  -9    0.90    0.25
  11  -1  -9    0.51    0.19
  11  -1  -9    0.54    0.22
 -11  -1   9    0.35    0.20
 -11  -1   9    0.42    0.22
 -11  -1   9    0.59    0.22
  11  -1  -9    0.22    0.25
 -11  -1   9    0.31    0.19
 -11   1   9    0.31    0.22
  11   1  -9    0.44    0.21
  11   1  -9    0.33    0.18
 -10  -1   9    0.25    0.13
 -10  -1   9    0.71    0.23
 -10  -1   9    0.52    0.21
  10  -1  -9    0.69    0.24
 -10  -1   9    0.44    0.21
  10  -1  -9    0.72    0.23
 -10  -1   9    0.64    0.25
  10  -1  -9    0.72    0.22
 -10   1   9    0.64    0.19
  10   1  -9    0.35    0.14
 -10   1   9    0.60    0.22
 -10   1   9    0.44    0.18
  10   1  -9    0.41    0.15
  10   1  -9    0.45    0.21
 -10   1   9    0.50    0.20
   9  -1  -9    1.50    0.30
   9  -1  -9    2.22    0.39
  -9  -1   9    0.91    0.22
  -9  -1   9    1.21    0.27
  -9  -1   9    0.77    0.22
  -9  -1   9    0.88    0.26
   9  -1  -9    1.10    0.26
   9  -1  -9    0.82    0.23
  -9  -1   9    0.78    0.22
  -9   1   9    1.16    0.29
   9   1  -9    1.34    0.29
   9   1  -9    1.25    0.31
  -9   1   9    0.99    0.22
   9   1  -9    0.69    0.25
  -9   1   9    0.82    0.24
   9   1  -9    1.13    0.24
  -9   1   9    0.95    0.27
  -8  -1   9    0.57    0.20
   8  -1  -9    0.76    0.23
  -8  -1   9    0.75    0.18
   8  -1  -9    0.68    0.16
   8  -1  -9    0.44    0.17
  -8  -1   9    0.77    0.21
  -8  -1   9    1.01    0.23
  -8  -1   9    0.91    0.21
   8  -1  -9    0.60    0.21
  -8   1   9    1.09    0.23
   8   1  -9    0.54    0.17
  -8   1   9    0.76    0.18
   8   1  -9    0.65    0.20
   8   1  -9    0.55    0.18
   8   1  -9    0.42    0.18
  -8   1   9    0.72    0.24
  -8   1   9    1.29    0.25
  -7  -1   9    1.38    0.25
  -7  -1   9    1.24    0.22
  -7  -1   9    1.55    0.29
   7  -1  -9    1.29    0.28
  -7  -1   9    1.47    0.24
  -7  -1   9    2.41    0.41
   7  -1  -9    1.32    0.25
   7  -1  -9    0.85    0.22
  -7   1   9    1.28    0.21
  -7   1   9    1.57    0.26
   7   1  -9    1.07    0.24
   7   1  -9    0.92    0.24
  -7   1   9    1.05    0.24
  -7   1   9    1.39    0.29
   7   1  -9    1.31    0.24
   7   1  -9    0.96    0.23
   6  -1  -9   11.75    0.70
  -6  -1   9   11.96    0.65
  -6  -1   9   13.70    0.74
   6  -1  -9   13.21    0.71
  -6  -1   9   11.45    0.50
   6  -1  -9   12.55    0.63
  -6  -1   9   11.06    0.51
  -6  -1   9   12.27    0.69
  -6   1   9   12.78    0.71
   6   1  -9   12.45    0.71
   6   1  -9   12.55    0.66
  -6   1   9   12.42    0.64
   6   1  -9   12.48    0.71
  -6   1   9   12.18    0.52
  -6   1   9   12.47    0.69
   6   1  -9   12.84    0.71
  -5  -1   9    2.76    0.20
   5  -1  -9    2.11    0.25
   5  -1  -9    1.77    0.31
  -5  -1   9    2.56    0.37
  -5  -1   9    2.76    0.32
   5  -1  -9    2.48    0.29
  -5  -1   9    2.96    0.33
   5   1  -9    2.34    0.28
  -5   1   9    2.91    0.20
  -5   1   9    2.71    0.32
   5   1  -9    2.37    0.28
   5   1  -9    2.52    0.37
  -5   1   9    3.06    0.32
   5   1  -9    2.19    0.33
  -5   1   9    2.41    0.27
   4  -1  -9    2.36    0.34
  -4  -1   9    1.60    0.25
   4  -1  -9    2.69    0.29
  -4  -1   9    1.47    0.26
   4  -1  -9    2.23    0.25
  -4  -1   9    2.12    0.31
  -4   1   9    2.26    0.24
  -4   1   9    2.53    0.28
  -4   1   9    1.93    0.28
   4   1  -9    1.88    0.29
   4   1  -9    2.49    0.29
   4   1  -9    2.18    0.31
  -3  -1   9    4.62    0.39
  -3  -1   9    5.07    0.39
   3  -1  -9    4.54    0.37
   3  -1  -9    4.93    0.36
  -3  -1   9    4.60    0.38
   3  -1  -9    4.29    0.38
   3   1  -9    5.64    0.42
  -3   1   9    4.84    0.41
  -3   1   9    4.40    0.33
   3   1  -9    4.74    0.38
   3   1  -9    4.83    0.39
  -2  -1   9    2.62    0.30
   2  -1  -9    2.97    0.28
  -2  -1   9    2.32    0.47
   2  -1  -9    2.45    0.29
   2  -1  -9    2.68    0.27
   2   1  -9    2.91    0.31
  -2   1   9    2.20    0.24
   2   1  -9    2.91    0.31
  -2   1   9    2.64    0.30
  -2   1   9    3.01    0.28
   1  -1  -9    3.08    0.43
   1  -1  -9    3.05    0.28
  -1  -1   9    2.69    0.29
   1  -1  -9    2.85    0.28
  -1  -1   9    2.85    0.27
   1   1  -9    2.64    0.32
  -1   1   9    2.46    0.23
  -1   1   9    2.53    0.26
   1   1  -9    3.05    0.31
   0  -1   9    2.04    0.24
   0  -1  -9    2.94    0.42
   0  -1  -9    2.09    0.25
   0  -1  -9    1.86    0.25
   0  -1   9    2.30    0.32
   0   1   9    2.64    0.21
   0   1   9    2.01    0.24
   0   1  -9    1.81    0.31
   0   1  -9    1.70    0.31
  -1  -1  -9    8.61    0.53
  -1  -1  -9    8.62    0.57
   1  -1   9    9.47    0.59
   1  -1   9    8.88    0.46
  -1   1  -9    7.03    0.53
  -1   1  -9    8.05    0.54
   1   1   9    8.66    0.53
  -1   1  -9    8.35    0.57
   1   1   9    8.82    0.36
   2  -1   9    6.33    0.36
  -2  -1  -9    4.98    0.44
  -2  -1  -9    5.59    0.44
   2  -1   9    5.72    0.33
  -2   1  -9    5.49    0.47
  -2   1  -9    4.96    0.45
  -2   1  -9    5.07    0.43
   3  -1   9    0.53    0.11
  -3  -1  -9    0.32    0.16
  -3  -1  -9    0.60    0.21
   3  -1   9    0.78    0.14
  -3  -1  -9    0.57    0.13
   3  -1   9    0.74    0.23
  -3  -1  -9    0.35    0.11
  -3  -1  -9    0.74    0.19
  -3   1  -9    0.36    0.18
  -3   1  -9    0.67    0.14
  -3   1  -9    0.22    0.17
  -3   1  -9    0.21    0.15
  -4  -1  -9    0.90    0.26
  -4  -1  -9    0.88    0.25
  -4  -1  -9    0.90    0.19
  -4  -1  -9    0.57    0.15
  -4  -1  -9    0.79    0.19
  -4   1  -9    0.50    0.16
  -4   1  -9    0.81    0.16
  -4   1  -9    0.67    0.16
  -4   1  -9    0.70    0.23
  -4   1  -9    0.62    0.22
  -5  -1  -9    0.19    0.16
  -5  -1  -9   -0.04    0.13
  -5  -1  -9    0.01    0.11
  -5  -1  -9    0.09    0.11
  -5  -1  -9    0.25    0.14
  -5  -1  -9    0.04    0.16
  -5  -1  -9    0.13    0.13
  -5   1  -9    0.27    0.17
  -5   1  -9   -0.08    0.08
  -5   1  -9    0.12    0.14
  -6  -1  -9    0.94    0.28
  -6  -1  -9    1.26    0.26
  -6  -1  -9    1.16    0.30
  -6  -1  -9    1.22    0.22
  -6  -1  -9    0.90    0.20
  -6   1  -9    0.91    0.28
  -6   1  -9    1.25    0.26
  -7  -1  -9    0.50    0.21
  -7  -1  -9    0.49    0.21
  -7  -1  -9    0.25    0.19
  -7  -1  -9    0.47    0.17
  -7  -1  -9   -0.30    0.16
  -7   1  -9    0.09    0.18
  -7   1  -9    0.12    0.15
 -12  -2   9    0.66    0.27
 -12  -2   9    0.45    0.27
  12  -2  -9    0.63    0.19
 -12  -2   9    0.61    0.27
  12  -2  -9    0.55    0.23
  12   2  -9    0.44    0.20
  12   2  -9    0.46    0.21
 -12   2   9    0.67    0.31
 -12   2   9    1.02    0.29
 -11  -2   9    0.16    0.21
  11  -2  -9    0.74    0.25
 -11  -2   9    0.54    0.22
  11  -2  -9    0.10    0.24
 -11  -2   9    0.51    0.22
  11  -2  -9    0.98    0.30
 -11  -2   9    0.53    0.20
 -11   2   9    1.12    0.31
 -11   2   9    0.55    0.23
  11   2  -9    0.72    0.22
 -11   2   9    0.50    0.24
  11   2  -9    0.56    0.19
 -10  -2   9    0.76    0.24
 -10  -2   9    0.87    0.25
  10  -2  -9    0.83    0.21
 -10  -2   9    1.05    0.25
  10  -2  -9    0.53    0.21
  10  -2  -9    0.79    0.24
 -10  -2   9    1.01    0.26
  10   2  -9    0.74    0.25
  10   2  -9    1.35    0.34
  10   2  -9    0.68    0.19
 -10   2   9    1.24    0.30
 -10   2   9    0.76    0.21
 -10   2   9    1.10    0.28
   9  -2  -9    0.46    0.17
  -9  -2   9    1.33    0.24
  -9  -2   9    1.39    0.24
  -9  -2   9    0.74    0.25
   9  -2  -9    0.88    0.25
   9  -2  -9    0.96    0.24
  -9  -2   9    0.98    0.24
   9  -2  -9    0.62    0.21
  -9  -2   9    1.09    0.26
   9  -2  -9    1.21    0.25
   9   2  -9    0.49    0.15
  -9   2   9    0.70    0.22
   9   2  -9    0.53    0.21
   9   2  -9    0.70    0.20
   9   2  -9    0.41    0.22
  -9   2   9    1.08    0.26
  -9   2   9    1.03    0.24
  -8  -2   9    0.09    0.11
  -8  -2   9   -0.02    0.14
   8  -2  -9    0.15    0.11
  -8  -2   9    0.25    0.15
  -8  -2   9    0.06    0.13
   8  -2  -9    0.12    0.11
   8  -2  -9    0.02    0.09
  -8  -2   9    0.02    0.09
   8  -2  -9    0.18    0.14
  -8   2   9    0.18    0.15
   8   2  -9    0.08    0.10
  -8   2   9    0.10    0.12
   8   2  -9   -0.01    0.11
  -8   2   9    0.18    0.15
   8   2  -9    0.04    0.11
   8   2  -9    0.11    0.15
  -8   2   9   -0.11    0.08
   7  -2  -9    0.93    0.22
  -7  -2   9    0.81    0.18
  -7  -2   9    0.64    0.23
   7  -2  -9    0.60    0.20
   7  -2  -9    0.84    0.20
  -7  -2   9    0.80    0.18
  -7  -2   9    0.67    0.22
  -7  -2   9    1.32    0.26
   7  -2  -9    0.91    0.25
  -7   2   9    0.92    0.21
  -7   2   9    0.79    0.18
   7   2  -9    0.77    0.22
  -7   2   9    0.83    0.24
  -7   2   9    0.32    0.16
   7   2  -9    0.68    0.20
   7   2  -9    0.71    0.21
   7   2  -9    0.69    0.17
   6  -2  -9    1.34    0.27
  -6  -2   9    1.84    0.19
  -6  -2   9    1.56    0.29
  -6  -2   9    1.80    0.21
   6  -2  -9    2.00    0.28
  -6  -2   9    1.53    0.24
   6  -2  -9    1.63    0.28
   6  -2  -9    1.50    0.22
  -6  -2   9    2.00    0.36
   6   2  -9    1.16    0.25
  -6   2   9    1.58    0.31
   6   2  -9    1.11    0.22
  -6   2   9    1.64    0.25
   6   2  -9    1.78    0.34
   6   2  -9    1.41    0.24
  -6   2   9    1.77    0.23
  -6   2   9    1.85    0.32
   5  -2  -9    2.27    0.32
  -5  -2   9    2.78    0.32
  -5  -2   9    2.68    0.21
  -5  -2   9    2.84    0.28
  -5  -2   9    2.17    0.34
   5  -2  -9    2.87    0.26
  -5  -2   9    2.60    0.21
   5  -2  -9    2.16    0.19
   5  -2  -9    2.66    0.31
  -5   2   9    2.47    0.21
  -5   2   9    2.69    0.26
   5   2  -9    1.98    0.31
   5   2  -9    2.70    0.32
  -5   2   9    1.75    0.27
   5   2  -9    2.69    0.38
   5   2  -9    2.22    0.26
  -5   2   9    2.23    0.33
   4  -2  -9    0.88    0.23
   4  -2  -9    0.61    0.16
  -4  -2   9    0.96    0.23
   4  -2  -9    0.62    0.18
  -4  -2   9    0.71    0.22
  -4  -2   9    0.68    0.18
   4   2  -9    0.58    0.16
   4   2  -9    0.79    0.22
  -4   2   9    0.75    0.19
  -4   2   9    0.68    0.12
  -4   2   9    0.59    0.17
   4   2  -9    0.52    0.17
  -4   2   9    0.69    0.17
   3  -2  -9    3.29    0.26
   3  -2  -9    3.53    0.36
   3  -2  -9    3.25    0.32
  -3  -2   9    3.27    0.33
  -3  -2   9    2.78    0.34
  -3   2   9    3.24    0.29
  -3   2   9    3.36    0.34
  -3   2   9    3.27    0.27
   3   2  -9    2.88    0.31
   3   2  -9    3.31    0.32
   3   2  -9    2.92    0.33
   2  -2  -9    2.86    0.28
   2  -2  -9    2.93    0.26
   2  -2  -9    3.03    0.33
  -2  -2   9    3.09    0.31
  -2  -2   9    3.01    0.34
   2   2  -9    2.42    0.26
   2   2  -9    2.72    0.29
  -2   2   9    3.01    0.33
   2   2  -9    2.52    0.31
  -2   2   9    3.24    0.26
  -2   2   9    2.96    0.27
   1  -2  -9    1.32    0.27
  -1  -2   9    0.92    0.23
   1  -2  -9    1.55    0.23
   1  -2  -9    1.16    0.19
  -1   2   9    1.49    0.23
  -1   2   9    1.37    0.27
   1   2  -9    0.99    0.21
   1   2  -9    1.25    0.27
  -1   2   9    1.40    0.20
   1   2  -9    1.43    0.22
   0  -2  -9    3.39    0.27
   0  -2  -9    3.58    0.30
   0  -2   9    3.05    0.30
   0  -2  -9    2.60    0.30
   0  -2   9    3.26    0.36
   0   2   9    3.29    0.22
   0   2  -9    3.07    0.35
   0   2   9    2.76    0.27
   0   2  -9    2.96    0.26
   0   2  -9    2.84    0.31
   0   2  -9    3.63    0.36
   1  -2   9    3.76    0.33
  -1  -2  -9    4.41    0.29
  -1  -2  -9    4.86    0.37
   1  -2   9    3.52    0.37
  -1  -2  -9    4.79    0.43
  -1   2  -9    4.49    0.39
  -1   2  -9    3.99    0.42
  -1   2  -9    4.23    0.41
  -1   2  -9    4.42    0.30
  -2  -2  -9    2.28    0.20
  -2  -2  -9    1.45    0.17
   2  -2   9    1.67    0.24
   2  -2   9    1.37    0.27
  -2  -2  -9    1.83    0.31
   2  -2   9    1.60    0.18
   2  -2   9    1.45    0.24
  -2  -2  -9    2.19    0.31
  -2  -2  -9    2.26    0.39
  -2   2  -9    1.72    0.18
  -2   2  -9    1.51    0.29
  -2   2  -9    1.46    0.27
  -2   2  -9    1.73    0.17
  -2   2  -9    1.68    0.31
   3  -2   9    2.46    0.25
  -3  -2  -9    2.01    0.33
   3  -2   9    1.95    0.22
  -3  -2  -9    2.15    0.23
  -3  -2  -9    2.28    0.34
   3  -2   9    1.83    0.32
  -3  -2  -9    2.35    0.24
   3  -2   9    2.41    0.26
  -3  -2  -9    2.42    0.37
  -3   2  -9    2.04    0.17
  -3   2  -9    2.04    0.22
  -3   2  -9    2.77    0.44
  -3   2  -9    2.12    0.36
  -3   2  -9    2.77    0.43
  -4  -2  -9    0.00    0.12
  -4  -2  -9    0.43    0.14
  -4  -2  -9    0.16    0.09
   4  -2   9    0.24    0.12
  -4  -2  -9    0.18    0.15
  -4  -2  -9    0.22    0.15
  -4  -2  -9    0.15    0.10
   4  -2   9    0.21    0.09
  -4   2  -9    0.17    0.15
  -4   2  -9    0.17    0.11
  -4   2  -9    0.26    0.16
  -5  -2  -9    0.52    0.22
  -5  -2  -9    0.78    0.25
  -5  -2  -9    0.52    0.16
  -5  -2  -9    0.39    0.19
   5  -2   9    0.57    0.14
  -5  -2  -9    0.46    0.21
   5  -2   9    0.43    0.13
  -5  -2  -9    0.47    0.19
  -5  -2  -9    0.24    0.14
  -5   2  -9    0.44    0.18
  -5   2  -9    0.43    0.19
  -6  -2  -9    0.43    0.18
  -6  -2  -9    0.13    0.17
  -6  -2  -9    0.27    0.18
  -6  -2  -9    0.32    0.18
  -6  -2  -9    0.24    0.21
  -6   2  -9    0.44    0.14
  -6   2  -9    0.22    0.25
  -7  -2  -9    0.41    0.21
  -7  -2  -9    0.45    0.14
  -7  -2  -9    0.27    0.17
  -7  -2  -9   -0.07    0.16
  -7  -2  -9    0.02    0.16
  -7   2  -9    0.04    0.15
  -7   2  -9    0.37    0.24
  11  -3  -9    1.31    0.41
 -11  -3   9    0.85    0.26
 -11  -3   9    0.91    0.31
 -11  -3   9    0.72    0.28
  11  -3  -9    0.66    0.23
 -11   3   9    0.56    0.29
  11   3  -9    0.82    0.24
 -11   3   9    0.84    0.29
 -11   3   9    0.47    0.23
  11   3  -9    1.07    0.22
  10  -3  -9    1.58    0.31
  10  -3  -9    2.10    0.42
  10  -3  -9    1.98    0.35
  10  -3  -9    1.72    0.36
 -10  -3   9    1.40    0.37
 -10  -3   9    1.83    0.34
 -10  -3   9    1.82    0.29
 -10  -3   9    2.18    0.40
  10   3  -9    0.90    0.26
 -10   3   9    1.71    0.34
 -10   3   9    1.47    0.33
 -10   3   9    1.86    0.38
  10   3  -9    1.91    0.29
  -9  -3   9    2.22    0.33
  -9  -3   9    2.11    0.32
   9  -3  -9    2.28    0.39
   9  -3  -9    2.52    0.35
  -9  -3   9    2.19    0.39
  -9  -3   9    2.66    0.31
   9  -3  -9    2.34    0.37
   9  -3  -9    1.74    0.33
   9   3  -9    2.63    0.29
  -9   3   9    2.89    0.45
  -9   3   9    2.50    0.36
   9   3  -9    1.76    0.31
  -9   3   9    2.67    0.40
   8  -3  -9    2.53    0.36
  -8  -3   9    2.57    0.36
  -8  -3   9    2.62    0.42
  -8  -3   9    2.89    0.32
  -8  -3   9    2.65    0.43
   8  -3  -9    2.66    0.44
   8  -3  -9    2.70    0.42
   8  -3  -9    2.55    0.27
  -8  -3   9    2.00    0.30
  -8   3   9    3.41    0.39
  -8   3   9    2.38    0.28
   8   3  -9    1.92    0.33
   8   3  -9    2.28    0.27
   8   3  -9    1.87    0.33
  -8   3   9    2.71    0.30
  -8   3   9    2.30    0.38
  -7  -3   9    6.75    0.54
   7  -3  -9    6.69    0.41
   7  -3  -9    5.67    0.49
  -7  -3   9    6.37    0.42
  -7  -3   9    5.63    0.52
   7  -3  -9    6.11    0.52
   7  -3  -9    5.99    0.42
  -7  -3   9    6.17    0.43
  -7  -3   9    5.82    0.41
   7   3  -9    5.70    0.40
  -7   3   9    6.57    0.44
  -7   3   9    6.83    0.43
  -7   3   9    6.85    0.54
   7   3  -9    5.47    0.49
   7   3  -9    5.73    0.50
  -7   3   9    5.54    0.50
   6  -3  -9    1.85    0.33
   6  -3  -9    1.42    0.28
  -6  -3   9    2.02    0.36
  -6  -3   9    2.19    0.31
  -6  -3   9    1.92    0.27
  -6  -3   9    1.42    0.30
   6  -3  -9    1.70    0.25
   6  -3  -9    1.67    0.19
  -6  -3   9    2.42    0.24
  -6   3   9    2.39    0.39
  -6   3   9    2.40    0.36
   6   3  -9    1.79    0.32
   6   3  -9    1.02    0.28
   6   3  -9    1.56    0.25
  -6   3   9    2.14    0.23
  -6   3   9    2.23    0.24
  -5  -3   9   15.41    0.62
   5  -3  -9   14.75    0.63
   5  -3  -9   16.14    0.62
  -5  -3   9   15.16    0.82
  -5  -3   9   14.38    0.81
  -5  -3   9   15.07    0.60
  -5  -3   9   15.20    0.70
   5  -3  -9   15.88    0.81
   5  -3  -9   16.54    0.84
   5   3  -9   15.60    0.71
   5   3  -9   15.99    0.82
  -5   3   9   15.46    0.62
  -5   3   9   14.34    0.79
  -5   3   9   15.62    0.63
   5   3  -9   15.39    0.83
  -5   3   9   15.51    0.77
   4  -3  -9    4.38    0.28
  -4  -3   9    4.19    0.26
   4  -3  -9    4.74    0.39
   4  -3  -9    4.75    0.28
  -4  -3   9    4.07    0.41
  -4  -3   9    3.74    0.37
   4  -3  -9    4.71    0.41
  -4  -3   9    3.65    0.25
   4   3  -9    3.69    0.39
  -4   3   9    4.46    0.28
   4   3  -9    3.50    0.35
   4   3  -9    3.88    0.34
  -4   3   9    3.98    0.40
  -4   3   9    4.33    0.28
   3  -3  -9    1.47    0.29
   3  -3  -9    1.87    0.30
  -3  -3   9    1.77    0.32
   3  -3  -9    1.51    0.16
  -3  -3   9    1.62    0.30
   3  -3  -9    1.60    0.16
  -3   3   9    1.79    0.17
   3   3  -9    1.37    0.27
  -3   3   9    2.01    0.29
  -3   3   9    2.04    0.35
   3   3  -9    1.27    0.23
  -3   3   9    1.72    0.19
   3   3  -9    2.00    0.34
  -2  -3   9    3.80    0.37
   2  -3  -9    3.33    0.25
  -2  -3   9    3.46    0.37
   2  -3  -9    3.16    0.31
   2  -3  -9    3.69    0.35
   2  -3  -9    3.36    0.22
  -2   3   9    2.97    0.21
  -2   3   9    3.40    0.25
  -2   3   9    3.23    0.35
   2   3  -9    3.41    0.37
  -2   3   9    3.29    0.28
   2   3  -9    4.20    0.36
   2   3  -9    3.34    0.30
   1  -3  -9    0.63    0.11
   1  -3  -9    0.67    0.18
  -1  -3   9    0.66    0.20
   1  -3  -9    0.50    0.15
   1  -3  -9    0.52    0.13
  -1  -3   9    0.40    0.15
  -1   3   9    0.44    0.19
   1   3  -9    0.48    0.14
  -1   3   9    0.75    0.14
  -1   3   9    0.60    0.13
   1   3  -9    0.43    0.16
   1   3  -9    0.48    0.14
   1   3  -9    0.71    0.20
   0  -3  -9    4.05    0.30
   0  -3  -9    3.79    0.29
   0  -3  -9    4.15    0.39
   0  -3   9    4.95    0.44
   0  -3  -9    4.03    0.25
   0   3  -9    3.87    0.29
   0   3  -9    4.09    0.42
   0   3  -9    4.00    0.37
   0   3   9    4.48    0.24
   0   3  -9    3.57    0.36
   1  -3   9    8.00    0.52
  -1  -3  -9    6.13    0.35
  -1  -3  -9    6.81    0.35
  -1  -3  -9    6.25    0.41
  -1  -3  -9    7.06    0.53
   1  -3   9    7.92    0.58
   1  -3   9    7.46    0.48
   1  -3   9    7.51    0.37
  -1  -3  -9    6.26    0.34
  -1   3  -9    6.87    0.36
  -1   3  -9    6.74    0.51
  -1   3  -9    6.71    0.54
  -1   3  -9    6.61    0.33
  -1   3  -9    6.17    0.48
  -2  -3  -9    2.56    0.28
  -2  -3  -9    3.03    0.31
   2  -3   9    2.57    0.24
  -2  -3  -9    2.56    0.23
   2  -3   9    2.74    0.45
  -2  -3  -9    2.70    0.21
  -2  -3  -9    2.36    0.24
   2  -3   9    2.91    0.30
   2  -3   9    3.31    0.32
  -2  -3  -9    2.79    0.42
  -2   3  -9    2.45    0.22
  -2   3  -9    2.23    0.37
  -2   3  -9    3.04    0.45
  -2   3  -9    2.71    0.40
  -2   3  -9    2.75    0.19
   3  -3   9    0.87    0.20
  -3  -3  -9    0.72    0.21
  -3  -3  -9    1.19    0.20
   3  -3   9    0.86    0.25
  -3  -3  -9    0.91    0.22
   3  -3   9    0.91    0.18
  -3  -3  -9    1.27    0.28
   3  -3   9    0.86    0.20
  -3  -3  -9    1.00    0.25
  -3  -3  -9    0.85    0.19
  -3   3  -9    0.78    0.20
  -3   3  -9    0.85    0.24
  -3   3  -9    0.85    0.17
  -4  -3  -9    0.84    0.23
  -4  -3  -9    1.09    0.24
  -4  -3  -9    0.93    0.24
  -4  -3  -9    0.97    0.20
  -4  -3  -9    1.04    0.21
   4  -3   9    1.37    0.25
   4  -3   9    1.00    0.22
  -4  -3  -9    0.65    0.24
   4  -3   9    1.14    0.24
  -4   3  -9    1.11    0.22
  -4   3  -9    0.59    0.19
  -4   3  -9    1.31    0.34
   5  -3   9    1.59    0.24
  -5  -3  -9    2.10    0.36
  -5  -3  -9    2.61    0.36
  -5  -3  -9    1.72    0.31
  -5  -3  -9    1.74    0.32
  -5  -3  -9    1.76    0.32
  -5  -3  -9    2.07    0.30
  -5  -3  -9    2.22    0.41
   5  -3   9    2.64    0.38
  -5   3  -9    2.02    0.40
  -5   3  -9    2.18    0.31
  -6  -3  -9    1.64    0.29
  -6  -3  -9    1.86    0.41
  -6  -3  -9    1.78    0.37
  -6  -3  -9    1.46    0.30
   6  -3   9    1.79    0.35
  -6  -3  -9    1.52    0.30
   6  -3   9    1.78    0.27
  -6  -3  -9    1.33    0.36
  -6   3  -9    1.26    0.27
  -6   3  -9    1.63    0.39
  -7  -3  -9    0.75    0.28
  -7  -3  -9    0.63    0.27
  -7  -3  -9    0.92    0.26
   7  -3   9    0.88    0.18
  -7  -3  -9    0.86    0.33
  -7  -3  -9    1.08    0.27
  -7   3  -9    0.84    0.35
  -7   3  -9    1.18    0.26
  11  -4  -9    2.34    0.43
 -11  -4   9    1.54    0.35
 -11  -4   9    2.24    0.32
 -11  -4   9    1.56    0.37
 -11   4   9    1.96    0.39
  11   4  -9    2.02    0.39
  11   4  -9    2.23    0.31
 -11   4   9    2.09    0.44
 -11   4   9    1.79    0.37
  10  -4  -9    1.26    0.36
 -10  -4   9    1.77    0.29
 -10  -4   9    0.82    0.24
  10  -4  -9    1.26    0.28
 -10  -4   9    1.39    0.30
  10  -4  -9    1.16    0.31
  10   4  -9    1.20    0.24
 -10   4   9    1.19    0.28
 -10   4   9    1.36    0.31
 -10   4   9    1.22    0.33
  10   4  -9    1.02    0.32
  -9  -4   9    0.79    0.19
  -9  -4   9    0.42    0.18
  -9  -4   9    0.48    0.22
  -9  -4   9    0.37    0.17
   9  -4  -9    0.97    0.29
   9  -4  -9    0.48    0.20
   9  -4  -9    0.71    0.28
  -9   4   9    0.27    0.22
   9   4  -9    0.42    0.19
  -9   4   9    0.62    0.19
   9   4  -9    0.68    0.18
  -9   4   9    0.60    0.20
   8  -4  -9    1.75    0.35
  -8  -4   9    1.66    0.32
   8  -4  -9    1.86    0.32
  -8  -4   9    1.68    0.25
   8  -4  -9    1.44    0.25
   8  -4  -9    1.17    0.25
  -8  -4   9    1.69    0.29
  -8  -4   9    1.50    0.27
   8   4  -9    1.10    0.25
  -8   4   9    1.58    0.25
  -8   4   9    1.46    0.24
   8   4  -9    1.39    0.22
  -8   4   9    1.23    0.29
   7  -4  -9    0.01    0.11
   7  -4  -9    0.02    0.08
   7  -4  -9   -0.01    0.13
   7  -4  -9    0.03    0.12
  -7  -4   9    0.13    0.11
  -7  -4   9   -0.05    0.09
  -7  -4   9    0.16    0.14
  -7  -4   9   -0.05    0.13
  -7  -4   9    0.13    0.13
  -7   4   9   -0.10    0.08
   7   4  -9   -0.10    0.11
  -7   4   9   -0.20    0.09
   7   4  -9    0.00    0.10
  -7   4   9   -0.01    0.11
  -7   4   9   -0.03    0.09
   7   4  -9    0.05    0.09
  -6  -4   9    0.53    0.17
   6  -4  -9    0.26    0.14
   6  -4  -9    0.63    0.21
  -6  -4   9    0.37    0.17
  -6  -4   9    0.33    0.14
   6  -4  -9    0.53    0.12
  -6  -4   9    0.47    0.14
   6  -4  -9    0.44    0.14
  -6   4   9    0.56    0.13
  -6   4   9    0.41    0.19
   6   4  -9    0.34    0.17
   6   4  -9    0.53    0.14
  -6   4   9    0.43    0.15
   6   4  -9    0.48    0.17
  -6   4   9    0.08    0.11
  -5  -4   9    2.24    0.38
   5  -4  -9    1.63    0.30
   5  -4  -9    2.31    0.18
   5  -4  -9    2.31    0.25
  -5  -4   9    1.93    0.26
  -5  -4   9    1.86    0.35
   5  -4  -9    2.55    0.38
  -5   4   9    1.85    0.17
   5   4  -9    2.32    0.26
   5   4  -9    2.30    0.42
  -5   4   9    2.14    0.33
   5   4  -9    2.56    0.38
  -5   4   9    2.17    0.29
  -5   4   9    2.29    0.38
   4  -4  -9    6.37    0.39
  -4  -4   9    7.37    0.57
   4  -4  -9    5.25    0.45
  -4  -4   9    7.85    0.41
   4  -4  -9    6.43    0.50
  -4  -4   9    7.27    0.55
  -4   4   9    7.20    0.54
   4   4  -9    6.37    0.48
   4   4  -9    5.79    0.51
  -4   4   9    7.84    0.43
   4   4  -9    6.29    0.42
  -4   4   9    7.42    0.49
  -3  -4   9    2.28    0.21
   3  -4  -9    2.08    0.22
   3  -4  -9    2.65    0.40
  -3  -4   9    1.95    0.33
   3  -4  -9    2.78    0.31
  -3  -4   9    2.30    0.35
  -3   4   9    2.92    0.29
   3   4  -9    1.73    0.29
   3   4  -9    2.61    0.35
  -3   4   9    2.06    0.31
   3   4  -9    2.37    0.26
   3   4  -9    2.55    0.36
  -3   4   9    2.38    0.23
   2  -4  -9    3.65    0.34
  -2  -4   9    3.91    0.39
   2  -4  -9    3.50    0.27
  -2  -4   9    3.82    0.41
   2  -4  -9    4.40    0.41
  -2  -4   9    3.67    0.26
   2   4  -9    3.75    0.40
  -2   4   9    3.50    0.37
  -2   4   9    4.29    0.29
   2   4  -9    3.91    0.33
   2   4  -9    3.85    0.35
   2   4  -9    3.75    0.33
   2   4  -9    2.89    0.23
  -2   4   9    4.02    0.32
   1  -4  -9   10.07    0.42
   1  -4  -9    9.30    0.46
  -1  -4   9   11.27    0.67
   1  -4  -9   11.24    0.66
  -1  -4   9    9.02    0.65
  -1  -4   9   10.49    0.46
   1  -4  -9   10.13    0.54
   1   4  -9    9.80    0.66
   1   4  -9    8.84    0.43
  -1   4   9   10.72    0.49
   1   4  -9   11.51    0.63
   1   4  -9    9.71    0.57
  -1   4   9   10.44    0.47
  -1   4   9   11.15    0.67
   1   4  -9    9.73    0.51
   0  -4  -9    7.05    0.40
   0  -4  -9    8.27    0.40
   0  -4   9    6.77    0.52
   0  -4   9    6.36    0.36
   0  -4  -9    8.35    0.46
   0  -4  -9    7.25    0.38
   0  -4  -9    8.60    0.57
   0  -4   9    6.31    0.53
   0   4   9    6.35    0.28
   0   4  -9    8.23    0.62
   0   4  -9    7.88    0.40
   0   4  -9    7.94    0.52
   0   4  -9    8.20    0.55
   0   4  -9    8.16    0.42
  -1  -4  -9    6.54    0.38
   1  -4   9    5.27    0.49
  -1  -4  -9    6.01    0.37
  -1  -4  -9    6.00    0.37
  -1  -4  -9    6.73    0.50
   1  -4   9    6.42    0.46
   1  -4   9    6.03    0.36
  -1  -4  -9    6.05    0.36
  -1   4  -9    6.45    0.50
  -1   4  -9    5.89    0.32
  -1   4  -9    5.63    0.50
  -1   4  -9    6.85    0.50
  -1   4  -9    6.24    0.36
  -2  -4  -9    3.81    0.25
   2  -4   9    3.73    0.43
   2  -4   9    3.88    0.37
   2  -4   9    4.17    0.32
  -2  -4  -9    3.78    0.31
  -2  -4  -9    3.25    0.38
   2  -4   9    3.87    0.39
  -2  -4  -9    3.17    0.30
  -2  -4  -9    3.55    0.32
  -2   4  -9    4.03    0.44
  -2   4  -9    3.01    0.36
  -2   4  -9    3.42    0.28
  -2   4  -9    4.41    0.45
   3  -4   9    1.47    0.23
   3  -4   9    0.83    0.24
   3  -4   9    1.49    0.35
  -3  -4  -9    1.16    0.22
  -3  -4  -9    1.21    0.23
  -3  -4  -9    1.39    0.28
  -3  -4  -9    1.13    0.28
   3  -4   9    1.18    0.24
  -3  -4  -9    1.23    0.25
  -3  -4  -9    1.26    0.22
  -3   4  -9    1.29    0.27
  -3   4  -9    0.58    0.21
  -3   4  -9    1.19    0.21
  -4  -4  -9    3.18    0.42
  -4  -4  -9    2.88    0.43
   4  -4   9    3.27    0.37
  -4  -4  -9    2.72    0.40
  -4  -4  -9    3.21    0.34
  -4  -4  -9    2.72    0.31
   4  -4   9    3.63    0.36
  -4  -4  -9    3.07    0.34
  -4   4  -9    2.67    0.30
  -4   4  -9    3.20    0.52
  -5  -4  -9    0.72    0.23
  -5  -4  -9    0.58    0.20
  -5  -4  -9    0.57    0.22
  -5  -4  -9    0.51    0.18
   5  -4   9    0.67    0.20
   5  -4   9    0.60    0.20
  -5  -4  -9    0.54    0.23
  -5  -4  -9    0.40    0.17
  -5  -4  -9    0.77    0.25
  -5   4  -9    0.81    0.19
  -5   4  -9    0.74    0.26
  -6  -4  -9   -0.25    0.16
  -6  -4  -9   -0.24    0.14
  -6  -4  -9    0.31    0.18
  -6  -4  -9   -0.05    0.19
   6  -4   9    0.16    0.20
  -6  -4  -9   -0.12    0.14
  -6  -4  -9    0.28    0.20
  -6   4  -9    0.08    0.17
 -10  -5   9    2.47    0.46
  10  -5  -9    2.00    0.38
  10  -5  -9    2.26    0.49
 -10  -5   9    2.45    0.40
  10   5  -9    2.38    0.25
 -10   5   9    2.42    0.35
 -10   5   9    2.87    0.43
 -10   5   9    2.33    0.44
  10   5  -9    2.24    0.44
   9  -5  -9    2.61    0.46
  -9  -5   9    2.40    0.36
  -9  -5   9    3.10    0.49
  -9  -5   9    2.38    0.38
   9  -5  -9    2.31    0.40
   9  -5  -9    2.25    0.39
  -9   5   9    1.99    0.29
  -9   5   9    3.03    0.45
   9   5  -9    2.87    0.51
  -9   5   9    2.90    0.49
   9   5  -9    2.59    0.24
  -8  -5   9    5.18    0.50
   8  -5  -9    4.47    0.52
   8  -5  -9    5.26    0.52
  -8  -5   9    3.93    0.40
   8  -5  -9    4.24    0.44
  -8  -5   9    4.98    0.45
  -8   5   9    4.99    0.32
  -8   5   9    4.77    0.50
   8   5  -9    4.20    0.47
  -8   5   9    4.72    0.43
   8   5  -9    6.05    0.35
   7  -5  -9    4.75    0.42
  -7  -5   9    4.92    0.43
  -7  -5   9    5.02    0.51
   7  -5  -9    5.20    0.49
   7  -5  -9    4.85    0.50
  -7  -5   9    5.48    0.44
   7   5  -9    5.01    0.50
   7   5  -9    5.18    0.33
  -7   5   9    5.80    0.43
  -7   5   9    5.20    0.29
   7   5  -9    4.93    0.50
  -7   5   9    5.36    0.49
   6  -5  -9    9.58    0.58
  -6  -5   9    9.04    0.54
  -6  -5   9    9.19    0.69
   6  -5  -9    9.55    0.67
   6  -5  -9    9.36    0.68
  -6  -5   9    9.95    0.72
   6   5  -9    9.54    0.48
  -6   5   9    8.82    0.54
   6   5  -9   10.42    0.70
  -6   5   9    9.61    0.68
   6   5  -9   10.48    0.73
  -6   5   9    9.90    0.66
  -5  -5   9    4.02    0.45
  -5  -5   9    4.08    0.34
  -5  -5   9    4.65    0.47
   5  -5  -9    4.31    0.45
   5  -5  -9    3.97    0.36
   5  -5  -9    4.44    0.42
   5   5  -9    3.96    0.44
  -5   5   9    3.82    0.40
   5   5  -9    3.95    0.31
  -5   5   9    4.10    0.43
  -5   5   9    3.96    0.34
   5   5  -9    4.27    0.31
   5   5  -9    3.79    0.40
  -4  -5   9    6.60    0.55
  -4  -5   9    6.88    0.57
   4  -5  -9    6.42    0.43
   4  -5  -9    6.21    0.50
  -4  -5   9    6.91    0.43
   4  -5  -9    7.70    0.56
  -4   5   9    7.76    0.47
   4   5  -9    6.86    0.42
   4   5  -9    7.05    0.56
  -4   5   9    6.52    0.54
  -4   5   9    7.80    0.52
   4   5  -9    7.06    0.44
   4   5  -9    6.65    0.50
   3  -5  -9    3.61    0.38
  -3  -5   9    3.65    0.41
  -3  -5   9    3.16    0.29
   3  -5  -9    3.03    0.35
  -3  -5   9    3.25    0.38
   3  -5  -9    3.04    0.28
  -3   5   9    3.59    0.33
   3   5  -9    2.91    0.33
   3   5  -9    3.23    0.31
   3   5  -9    3.25    0.29
   3   5  -9    3.22    0.51
  -3   5   9    3.60    0.31
   3   5  -9    3.31    0.30
  -3   5   9    3.11    0.37
  -2  -5   9    2.52    0.26
   2  -5  -9    2.71    0.36
   2  -5  -9    1.77    0.32
   2  -5  -9    1.70    0.25
  -2  -5   9    2.83    0.42
   2   5  -9    1.98    0.33
  -2   5   9    2.52    0.26
   2   5  -9    2.47    0.28
   2   5  -9    2.36    0.34
  -2   5   9    1.77    0.29
  -2   5   9    2.64    0.27
   2   5  -9    2.52    0.28
   2   5  -9    2.37    0.24
   1  -5  -9    0.92    0.21
   1  -5  -9    1.02    0.25
  -1  -5   9    2.00    0.26
  -1  -5   9    0.90    0.22
  -1  -5   9    1.21    0.27
   1   5  -9    0.82    0.22
   1   5  -9    0.99    0.20
   1   5  -9    0.86    0.19
   1   5  -9    1.27    0.26
  -1   5   9    1.06    0.26
  -1   5   9    1.24    0.19
  -1   5   9    1.38    0.23
   1   5  -9    1.14    0.19
   0  -5   9    1.35    0.27
   0  -5   9    2.00    0.37
   0  -5  -9    1.10    0.13
   0  -5   9    1.47    0.30
   0  -5  -9    1.29    0.23
   0  -5  -9    0.84    0.19
   0  -5   9    1.53    0.24
   0  -5  -9    0.76    0.22
   0   5  -9    0.92    0.21
   0   5  -9    1.15    0.21
   0   5   9    1.11    0.23
   0   5  -9    1.11    0.24
   0   5  -9    1.07    0.25
   0   5  -9    1.21    0.21
   0   5   9    1.44    0.30
  -1  -5  -9    1.01    0.22
   1  -5   9    1.25    0.22
   1  -5   9    1.18    0.28
  -1  -5  -9    1.11    0.19
  -1  -5  -9    0.82    0.16
  -1  -5  -9    1.11    0.17
  -1  -5  -9    1.17    0.25
   1  -5   9    0.88    0.23
   1  -5   9    1.12    0.29
  -1   5  -9    1.09    0.18
  -1   5  -9    0.86    0.23
  -1   5  -9    0.92    0.26
  -1   5  -9    1.17    0.21
  -1   5  -9    0.43    0.20
  -2  -5  -9    2.34    0.26
   2  -5   9    2.73    0.29
  -2  -5  -9    3.21    0.46
  -2  -5  -9    2.43    0.21
   2  -5   9    3.24    0.37
  -2  -5  -9    2.29    0.33
   2  -5   9    2.32    0.39
  -2  -5  -9    2.21    0.23
  -2   5  -9    2.61    0.41
  -2   5  -9    1.94    0.35
  -2   5  -9    2.33    0.25
  -2   5  -9    1.65    0.31
  -3  -5  -9    1.14    0.23
  -3  -5  -9    1.58    0.31
  -3  -5  -9    1.74    0.27
   3  -5   9    1.68    0.28
  -3  -5  -9    1.53    0.27
  -3  -5  -9    1.18    0.27
   3  -5   9    1.44    0.30
  -3   5  -9    0.99    0.31
  -3   5  -9    0.94    0.27
  -3   5  -9    1.20    0.24
  -4  -5  -9    2.64    0.42
  -4  -5  -9    2.24    0.34
  -4  -5  -9    2.66    0.40
   4  -5   9    1.93    0.36
  -4  -5  -9    2.19    0.35
  -4  -5  -9    2.43    0.39
  -4  -5  -9    2.94    0.47
  -4  -5  -9    2.30    0.34
   4  -5   9    2.22    0.35
  -4   5  -9    2.43    0.35
  -4   5  -9    2.37    0.40
  -5  -5  -9    3.27    0.49
  -5  -5  -9    2.46    0.42
   5  -5   9    2.29    0.37
  -5  -5  -9    3.78    0.48
  -5  -5  -9    3.50    0.50
  -5  -5  -9    3.54    0.47
  -5  -5  -9    3.14    0.38
   5  -5   9    2.93    0.43
  -5   5  -9    3.38    0.46
  -9  -6   9    1.86    0.35
  -9  -6   9    1.51    0.34
   9  -6  -9    1.00    0.33
   9  -6  -9    1.30    0.28
  -9   6   9    1.90    0.38
  -9   6   9    1.40    0.39
  -9   6   9    1.51    0.22
   9   6  -9    1.51    0.35
  -8  -6   9    0.03    0.15
   8  -6  -9    0.16    0.23
   8  -6  -9    0.32    0.17
   8  -6  -9    0.07    0.21
  -8  -6   9    0.26    0.18
  -8  -6   9    0.22    0.23
   8   6  -9    0.23    0.16
  -8   6   9    0.01    0.20
   7  -6  -9    0.24    0.20
  -7  -6   9    0.11    0.18
   7  -6  -9    0.49    0.22
   7  -6  -9   -0.10    0.08
  -7  -6   9    0.28    0.17
  -7   6   9    0.30    0.17
   7   6  -9    0.22    0.11
   7   6  -9    0.25    0.13
  -7   6   9    0.17    0.15
   6  -6  -9    0.13    0.18
   6  -6  -9    0.36    0.18
  -6  -6   9    0.61    0.19
  -6  -6   9    0.37    0.17
   6  -6  -9    0.08    0.15
  -6   6   9    0.39    0.18
   6   6  -9    0.42    0.11
   6   6  -9    0.39    0.16
   6   6  -9    0.16    0.16
  -6   6   9    0.49    0.18
   6   6  -9    0.27    0.12
   5  -6  -9    2.14    0.38
  -5  -6   9    1.60    0.27
   5  -6  -9    1.80    0.34
   5  -6  -9    1.73    0.32
  -5  -6   9    1.71    0.35
   5   6  -9    1.70    0.38
   5   6  -9    1.69    0.32
   5   6  -9    1.99    0.22
  -5   6   9    2.34    0.34
   5   6  -9    1.96    0.21
  -5   6   9    2.12    0.36
   4  -6  -9    0.97    0.25
   4  -6  -9    1.00    0.25
  -4  -6   9    0.81    0.27
   4  -6  -9    1.11    0.24
  -4  -6   9    0.78    0.24
  -4  -6   9    1.04    0.24
  -4   6   9    0.99    0.28
   4   6  -9    1.09    0.19
  -4   6   9    1.11    0.25
   4   6  -9    1.87    0.25
   4   6  -9    1.08    0.22
  -4   6   9    0.75    0.21
   4   6  -9    1.79    0.39
   4   6  -9    1.30    0.30
  -3  -6   9    4.98    0.40
  -3  -6   9    4.47    0.48
  -3  -6   9    4.53    0.52
   3  -6  -9    4.72    0.41
   3  -6  -9    5.52    0.48
   3  -6  -9    5.89    0.49
  -3   6   9    5.45    0.41
  -3   6   9    5.80    0.42
  -3   6   9    4.61    0.47
   3   6  -9    5.01    0.37
   3   6  -9    4.72    0.35
   3   6  -9    5.59    0.54
   3   6  -9    4.96    0.43
   3   6  -9    5.54    0.41
  -2  -6   9    6.09    0.54
   2  -6  -9    4.96    0.41
   2  -6  -9    6.64    0.49
  -2  -6   9    6.27    0.43
   2  -6  -9    6.08    0.50
  -2  -6   9    6.13    0.58
   2   6  -9    6.47    0.43
  -2   6   9    6.58    0.44
  -2   6   9    6.03    0.52
   2   6  -9    5.86    0.45
  -2   6   9    5.81    0.44
   2   6  -9    5.94    0.43
   2   6  -9    6.86    0.44
   2   6  -9    6.24    0.55
  -1  -6   9    3.20    0.48
   1  -6  -9    3.05    0.34
   1  -6  -9    3.11    0.32
   1  -6  -9    3.39    0.38
  -1  -6   9    2.80    0.31
  -1  -6   9    2.16    0.37
  -1   6   9    3.27    0.39
   1   6  -9    3.23    0.39
   1   6  -9    3.05    0.33
   1   6  -9    2.85    0.30
  -1   6   9    3.10    0.34
   1   6  -9    3.00    0.30
   1   6  -9    3.45    0.35
   0  -6  -9    7.60    0.49
   0  -6   9    9.30    0.68
   0  -6   9    7.72    0.49
   0  -6  -9    7.80    0.51
   0  -6   9    8.47    0.63
   0  -6   9    8.95    0.68
   0  -6  -9    9.01    0.61
   0   6  -9    8.42    0.56
   0   6  -9    8.32    0.50
   0   6   9    9.09    0.54
   0   6  -9    7.82    0.55
   0   6  -9    7.69    0.63
   0   6   9    8.59    0.61
   0   6  -9    8.32    0.45
   1  -6   9    5.60    0.43
   1  -6   9    6.17    0.53
  -1  -6  -9    6.79    0.53
  -1  -6  -9    5.94    0.46
   1  -6   9    6.07    0.56
  -1  -6  -9    6.22    0.42
  -1   6  -9    5.78    0.50
  -1   6  -9    6.70    0.58
  -1   6  -9    6.01    0.52
  -1   6  -9    5.96    0.42
   2  -6   9    3.25    0.37
   2  -6   9    3.62    0.52
  -2  -6  -9    3.85    0.27
  -2  -6  -9    3.34    0.37
  -2  -6  -9    4.42    0.42
  -2  -6  -9    3.73    0.30
  -2  -6  -9    3.95    0.29
  -2   6  -9    2.99    0.50
  -2   6  -9    4.21    0.44
  -2   6  -9    4.32    0.45
  -2   6  -9    3.11    0.33
  -3  -6  -9    3.94    0.48
  -3  -6  -9    3.73    0.25
  -3  -6  -9    3.32    0.31
  -3  -6  -9    3.79    0.38
  -3  -6  -9    3.55    0.32
   3  -6   9    3.76    0.40
  -3  -6  -9    3.67    0.40
  -3   6  -9    4.13    0.61
  -3   6  -9    3.26    0.36
  -4  -6  -9    0.81    0.26
  -4  -6  -9    0.70    0.27
  -4  -6  -9    0.44    0.22
  -4  -6  -9    0.97    0.22
  -4  -6  -9    0.66    0.21
  -4  -6  -9    0.75    0.29
  -4  -6  -9    0.41    0.22
   4  -6   9    0.70    0.23
  -4   6  -9    0.40    0.19
  -4   6  -9    0.46    0.19
  -5  -6  -9    0.15    0.19
  -5  -6  -9    0.54    0.22
  -5  -6  -9    0.36    0.20
  -5  -6  -9    0.38    0.16
  -5  -6  -9    0.13    0.20
   5  -6   9    0.38    0.30
  -5   6  -9    0.42    0.25
  -5   6  -9    0.28    0.21
  -8  -7   9    2.44    0.46
  -8  -7   9    2.96    0.43
   8  -7  -9    2.58    0.49
   8  -7  -9    3.24    0.54
   8   7  -9    3.14    0.55
  -8   7   9    2.69    0.48
  -8   7   9    3.74    0.53
   7  -7  -9    3.54    0.57
  -7  -7   9    3.74    0.53
  -7  -7   9    3.90    0.49
   7  -7  -9    4.40    0.48
   7   7  -9    3.21    0.48
  -7   7   9    2.79    0.42
  -7   7   9    4.20    0.46
  -6  -7   9    5.13    0.54
  -6  -7   9    4.70    0.49
   6  -7  -9    4.76    0.50
   6  -7  -9    4.35    0.51
   6  -7  -9    4.74    0.47
  -6   7   9    4.66    0.45
  -6   7   9    5.56    0.53
   6   7  -9    4.85    0.55
   5  -7  -9    5.22    0.54
  -5  -7   9    4.66    0.46
   5  -7  -9    5.30    0.48
  -5  -7   9    5.24    0.54
   5  -7  -9    5.83    0.53
  -5   7   9    4.89    0.48
   5   7  -9    5.69    0.56
   5   7  -9    5.01    0.28
   5   7  -9    5.43    0.30
   5   7  -9    4.43    0.53
  -5   7   9    6.46    0.51
   4  -7  -9    1.31    0.29
  -4  -7   9    2.39    0.41
   4  -7  -9    3.71    0.49
  -4  -7   9    3.04    0.43
   4  -7  -9    2.72    0.44
   4   7  -9    2.16    0.23
   4   7  -9    2.03    0.35
   4   7  -9    2.25    0.23
   4   7  -9    2.32    0.42
  -4   7   9    2.64    0.40
   4   7  -9    3.25    0.45
  -4   7   9    3.24    0.44
  -3  -7   9    4.21    0.41
  -3  -7   9    5.51    0.55
   3  -7  -9    3.98    0.41
   3  -7  -9    5.19    0.47
   3  -7  -9    4.54    0.47
  -3   7   9    4.14    0.48
   3   7  -9    4.84    0.53
   3   7  -9    3.76    0.43
   3   7  -9    3.81    0.31
   3   7  -9    4.42    0.39
  -3   7   9    4.34    0.42
   3   7  -9    4.41    0.34
  -3   7   9    4.73    0.42
  -2  -7   9    0.25    0.17
   2  -7  -9    1.08    0.29
   2  -7  -9    0.29    0.19
  -2  -7   9    0.19    0.23
   2  -7  -9    0.85    0.23
  -2   7   9    0.54    0.21
   2   7  -9    0.58    0.20
   2   7  -9    0.19    0.15
   2   7  -9    0.41    0.18
  -2   7   9    0.23    0.15
   2   7  -9    0.44    0.22
   2   7  -9    0.57    0.16
  -2   7   9    0.13    0.16
   1  -7  -9    1.65    0.30
   1  -7  -9    1.73    0.34
   1  -7  -9    1.68    0.33
  -1  -7   9    1.12    0.26
  -1  -7   9    1.52    0.35
  -1  -7   9    1.13    0.31
   1   7  -9    1.49    0.27
   1   7  -9    2.19    0.43
  -1   7   9    2.22    0.35
  -1   7   9    2.42    0.43
   1   7  -9    1.73    0.26
   0  -7  -9    0.32    0.17
   0  -7   9    0.13    0.16
   0  -7  -9    0.25    0.15
   0  -7  -9    0.01    0.16
   0  -7   9    0.21    0.22
   0  -7   9    0.48    0.22
   0   7  -9    0.46    0.20
   0   7  -9    0.37    0.17
   0   7  -9    0.33    0.16
   0   7   9    0.47    0.19
   0   7  -9    0.15    0.18
   1  -7   9    0.89    0.24
   1  -7   9    0.33    0.20
  -1  -7  -9    1.15    0.25
  -1  -7  -9    0.90    0.21
  -1  -7  -9    1.21    0.27
   1   7   9    0.75    0.23
  -1   7  -9    0.98    0.25
  -1   7  -9    0.86    0.25
  -1   7  -9    1.08    0.28
  -1   7  -9    1.12    0.31
  -2  -7  -9    0.16    0.14
  -2  -7  -9    0.52    0.24
   2  -7   9    1.12    0.29
  -2  -7  -9    0.57    0.15
  -2   7  -9    0.18    0.18
  -2   7  -9    0.82    0.27
  -2   7  -9    0.37    0.18
  -2   7  -9    0.52    0.22
  -3  -7  -9    2.02    0.25
  -3  -7  -9    2.18    0.40
  -3  -7  -9    2.24    0.41
   3  -7   9    1.92    0.37
  -3  -7  -9    2.05    0.37
  -3  -7  -9    1.81    0.23
  -3  -7  -9    2.09    0.23
  -3  -7  -9    1.83    0.36
  -3   7  -9    2.39    0.38
  -3   7  -9    2.67    0.52
   6  -8  -9    0.15    0.27
   6  -8  -9    0.02    0.20
  -6  -8   9    0.09    0.22
   6   8  -9    0.91    0.32
  -6   8   9   -0.26    0.20
  -6   8   9    0.29    0.22
   5  -8  -9    0.27    0.17
  -5  -8   9   -0.17    0.22
   5  -8  -9    0.32    0.27
  -5   8   9    0.82    0.26
   5   8  -9    0.45    0.22
  -5   8   9   -0.01    0.19
   4  -8  -9    1.90    0.35
  -4  -8   9    1.61    0.32
  -4  -8   9    1.41    0.32
   4   8  -9    2.16    0.43
   4   8  -9    2.15    0.38
  -4   8   9    1.66    0.34
  -4   8   9    1.37    0.31
  -3  -8   9    1.85    0.34
   3  -8  -9    1.63    0.34
   3  -8  -9    1.99    0.43
  -3  -8   9    1.80    0.39
   3  -8  -9    1.94    0.40
   3   8  -9    1.57    0.21
   3   8  -9    1.61    0.30
  -3   8   9    1.94    0.36
   3   8  -9    1.86    0.43
   3   8  -9    1.60    0.23
   2  -8  -9    2.09    0.39
  -2  -8   9    2.64    0.40
  -2  -8   9    2.88    0.48
   2  -8  -9    2.15    0.38
   2  -8  -9    2.19    0.37
  -2  -8   9    1.99    0.40
   2   8  -9    1.67    0.33
   2   8  -9    3.06    0.32
  -2   8   9    2.52    0.40
   2   8  -9    2.40    0.28
   2   8  -9    2.39    0.44
   1  -8  -9    5.19    0.51
  -1  -8   9    5.78    0.59
  -1  -8   9    5.08    0.59
   1  -8  -9    4.35    0.49
  -1  -8   9    4.94    0.49
   1  -8  -9    5.72    0.50
  -1   8   9    5.76    0.50
  -1   8   9    5.23    0.54
   1   8  -9    5.88    0.44
   1   8  -9    6.55    0.64
   1   8  -9    5.45    0.49
   1   8  -9    6.43    0.46
   0  -8  -9    3.99    0.42
   0  -8   9    4.03    0.60
   0  -8  -9    3.43    0.57
   0  -8  -9    4.31    0.43
   0   8   9    3.52    0.40
   0   8  -9    3.18    0.54
   0   8  -9    3.55    0.41
   0   8  -9    3.24    0.37
   0   8  -9    4.15    0.41
  -1  -8  -9    3.31    0.39
   1  -8   9    3.13    0.47
  -1  -8  -9    3.10    0.37
  -1   8  -9    3.31    0.47
  -1   8  -9    2.98    0.52
  -1   8  -9    3.50    0.40
  -1   8  -9    3.05    0.47
   1   8   9    3.76    0.51
  11   0 -10   11.30    0.74
  11   0 -10   11.27    0.77
 -11   0  10   10.72    0.69
 -11   0  10   12.57    0.85
 -10   0  10   23.78    1.16
  10   0 -10   26.51    1.19
  10   0 -10   26.70    1.21
 -10   0  10   25.23    1.09
 -10   0  10   28.42    1.30
  10   0 -10   23.68    1.22
 -10   0  10   24.97    1.22
   9   0 -10   19.37    0.95
  -9   0  10   18.48    0.83
   9   0 -10   16.51    0.95
  -9   0  10   17.76    0.98
   9   0 -10   17.57    0.91
  -9   0  10   15.16    0.89
  -9   0  10   18.03    0.93
   8   0 -10   58.42    2.10
   8   0 -10   59.96    2.02
   8   0 -10   59.86    2.01
   8   0 -10   60.14    2.10
  -8   0  10   57.87    2.02
  -8   0  10   56.79    1.94
  -8   0  10   52.33    1.91
  -8   0  10   56.83    1.74
   7   0 -10   32.27    1.38
   7   0 -10   34.17    1.38
   7   0 -10   34.63    1.32
  -7   0  10   31.92    1.31
  -7   0  10   33.02    1.09
  -7   0  10   32.85    1.30
  -7   0  10   33.17    1.08
   7   0 -10   34.31    1.33
  -7   0  10   34.40    1.38
  -6   0  10   26.23    1.13
   6   0 -10   26.61    1.13
  -6   0  10   29.48    1.19
   6   0 -10   27.87    1.13
  -6   0  10   30.35    1.22
   6   0 -10   27.96    1.18
  -5   0  10    3.78    0.37
  -5   0  10    3.26    0.34
  -5   0  10    3.28    0.36
   5   0 -10    2.99    0.34
   5   0 -10    3.36    0.33
   5   0 -10    2.27    0.32
   4   0 -10    7.71    0.53
   4   0 -10    7.95    0.53
   4   0 -10    8.00    0.51
  -4   0  10    7.11    0.49
  -4   0  10    8.43    0.55
  -4   0  10    8.39    0.54
   3   0 -10    7.90    0.51
   3   0 -10    7.19    0.52
  -3   0  10    7.99    0.51
  -3   0  10    7.59    0.53
   3   0 -10    7.75    0.51
   2   0 -10    4.50    0.41
   2   0 -10    4.68    0.40
  -2   0  10    5.09    0.38
  -2   0  10    4.95    0.40
   2   0 -10    5.06    0.40
  -1   0  10   30.54    1.19
   1   0 -10   29.43    1.21
   1   0 -10   29.61    1.16
  -1   0  10   31.14    1.09
   0   0  10   15.67    0.65
   0   0  10   14.29    0.75
   0   0 -10   15.11    0.78
   0   0 -10   14.82    0.81
   1   0  10   45.33    1.63
   1   0  10   47.88    1.39
  -1   0 -10   44.19    1.55
  -1   0 -10   44.01    1.55
  -1   0 -10   34.44    1.48
   2   0  10   41.94    1.55
  -2   0 -10   40.84    1.59
   2   0  10   41.63    1.17
  -2   0 -10   40.39    1.53
  -2   0 -10   38.05    1.50
   2   0  10   40.71    1.16
  -3   0 -10   59.99    2.12
  -3   0 -10   60.49    2.14
  -3   0 -10   61.21    2.09
  -4   0 -10   16.85    0.68
  -4   0 -10   16.43    0.95
  -4   0 -10   18.09    0.99
  -4   0 -10   15.29    0.66
  -5   0 -10   15.12    0.94
  -5   0 -10   14.49    0.68
  -5   0 -10   14.47    0.94
  -5   0 -10   15.12    0.64
  -5   0 -10   14.25    0.67
  -6   0 -10    4.53    0.39
  -6   0 -10    4.13    0.40
  -6   0 -10    4.78    0.56
  -6   0 -10    5.14    0.57
  -6   0 -10    4.69    0.31
 -11  -1  10    3.84    0.51
 -11  -1  10    2.96    0.43
  11  -1 -10    3.90    0.44
 -11  -1  10    3.74    0.52
  11  -1 -10    4.13    0.46
 -11   1  10    4.08    0.45
  11   1 -10    3.80    0.46
  11   1 -10    3.51    0.41
 -11   1  10    5.27    0.55
 -10  -1  10    1.12    0.25
 -10  -1  10    1.26    0.30
  10  -1 -10    0.93    0.24
 -10  -1  10    0.55    0.22
 -10  -1  10    1.20    0.31
  10  -1 -10    0.80    0.28
  10  -1 -10    0.71    0.22
  10   1 -10    1.06    0.29
 -10   1  10    0.84    0.24
 -10   1  10    1.19    0.31
 -10   1  10    0.91    0.25
  10   1 -10    0.70    0.21
  10   1 -10    0.87    0.26
   9  -1 -10    1.41    0.35
  -9  -1  10    1.33    0.32
   9  -1 -10    1.09    0.28
   9  -1 -10    1.18    0.28
  -9  -1  10    1.45    0.26
  -9  -1  10    0.93    0.27
  -9  -1  10    1.37    0.30
  -9  -1  10    1.31    0.25
   9   1 -10    1.42    0.34
   9   1 -10    1.31    0.31
  -9   1  10    1.23    0.32
  -9   1  10    1.35    0.29
  -9   1  10    0.92    0.22
  -9   1  10    1.19    0.31
   9   1 -10    1.13    0.25
   8  -1 -10   10.37    0.70
   8  -1 -10   10.55    0.68
  -8  -1  10    9.87    0.52
   8  -1 -10   10.19    0.71
   8  -1 -10   10.84    0.65
  -8  -1  10   10.04    0.64
  -8  -1  10    9.83    0.68
  -8  -1  10   10.90    0.72
  -8  -1  10   10.07    0.54
  -8   1  10    9.98    0.67
  -8   1  10   10.04    0.64
   8   1 -10   11.37    0.72
   8   1 -10    9.56    0.66
   8   1 -10   10.27    0.63
   8   1 -10    9.59    0.69
  -8   1  10    9.75    0.54
  -8   1  10   10.62    0.70
  -7  -1  10   14.98    0.61
   7  -1 -10   13.97    0.81
  -7  -1  10   14.93    0.82
   7  -1 -10   14.77    0.73
  -7  -1  10   13.91    0.60
  -7  -1  10   13.86    0.79
   7  -1 -10   14.59    0.80
  -7  -1  10   14.12    0.75
  -7   1  10   14.47    0.61
  -7   1  10   14.99    0.81
   7   1 -10   12.09    0.78
   7   1 -10   14.36    0.81
   7   1 -10   14.87    0.80
  -7   1  10   10.90    0.72
   7   1 -10   15.37    0.78
  -7   1  10   14.22    0.73
   6  -1 -10   18.24    0.89
   6  -1 -10   16.14    0.86
  -6  -1  10   17.98    0.87
  -6  -1  10   19.15    0.66
  -6  -1  10   17.63    0.90
   6  -1 -10   18.93    0.83
  -6  -1  10   18.84    0.93
   6   1 -10   17.44    0.89
  -6   1  10   18.63    0.92
   6   1 -10   16.59    0.88
   6   1 -10   18.04    0.85
   6   1 -10   18.78    0.91
  -6   1  10   19.63    0.86
  -6   1  10   19.08    0.93
  -6   1  10   18.97    0.68
  -5  -1  10   46.05    1.60
  -5  -1  10   42.05    1.59
   5  -1 -10   45.49    1.64
  -5  -1  10   46.92    1.64
   5  -1 -10   46.34    1.64
   5  -1 -10   46.61    1.53
  -5   1  10   48.21    1.55
   5   1 -10   47.12    1.61
   5   1 -10   44.92    1.63
  -5   1  10   46.29    1.61
   5   1 -10   47.05    1.64
  -5   1  10   44.84    1.63
   5   1 -10   44.02    1.63
   4  -1 -10   63.44    1.96
  -4  -1  10   62.22    2.02
   4  -1 -10   65.62    2.11
  -4  -1  10   63.39    2.05
   4  -1 -10   62.35    2.04
  -4  -1  10   64.07    2.05
  -4   1  10   64.21    2.08
   4   1 -10   64.70    2.07
   4   1 -10   62.43    2.05
  -4   1  10   63.63    2.01
  -4   1  10   63.00    1.94
   4   1 -10   64.72    2.05
   3  -1 -10   67.72    2.15
   3  -1 -10   72.76    2.27
   3  -1 -10   70.41    2.12
  -3  -1  10   69.57    2.12
  -3  -1  10   66.31    2.06
  -3   1  10   66.63    2.12
   3   1 -10   71.41    2.22
  -3   1  10   68.61    2.02
  -3   1  10   56.30    1.93
   3   1 -10   69.73    2.19
   3   1 -10   70.78    2.22
  -2  -1  10   62.75    2.01
  -2  -1  10   59.06    2.18
   2  -1 -10   61.59    1.89
   2  -1 -10   61.08    2.02
   2  -1 -10   60.63    1.90
  -2   1  10   62.93    1.87
  -2   1  10   60.02    1.88
  -2   1  10   61.38    2.02
   2   1 -10   59.57    1.99
   2   1 -10   61.41    2.00
  -1  -1  10   45.50    1.61
   1  -1 -10   43.23    1.51
   1  -1 -10   45.78    1.49
  -1  -1  10   44.25    1.49
   1  -1 -10   45.14    1.64
   1   1 -10   47.37    1.63
  -1   1  10   46.38    1.43
   1   1 -10   45.91    1.64
  -1   1  10   46.45    1.53
   0  -1 -10   22.80    0.88
   0  -1  10   23.81    0.92
   0  -1 -10   23.58    1.05
   0  -1  10   23.70    1.05
   0  -1 -10   21.63    0.95
   0   1 -10   22.72    1.02
   0   1 -10   21.91    1.02
   0   1  10   24.19    0.83
   0   1 -10   20.85    0.97
   0   1  10   23.82    0.99
  -1  -1 -10    4.12    0.42
   1  -1  10    4.50    0.33
   1  -1  10    3.41    0.39
  -1  -1 -10    4.36    0.39
  -1   1 -10    3.96    0.39
  -1   1 -10    4.26    0.41
  -1   1 -10    3.89    0.40
   1   1  10    4.85    0.40
   1   1  10    4.10    0.23
   2  -1  10    2.76    0.42
  -2  -1 -10    2.62    0.40
  -2  -1 -10    2.70    0.44
   2  -1  10    2.69    0.24
  -2  -1 -10    2.73    0.39
   2  -1  10    2.34    0.22
  -2   1 -10    2.30    0.40
  -2   1 -10    2.31    0.37
  -2   1 -10    2.45    0.41
   3  -1  10    1.81    0.18
  -3  -1 -10    1.29    0.28
  -3  -1 -10    1.74    0.21
  -3  -1 -10    1.67    0.21
  -3  -1 -10    1.78    0.33
  -3  -1 -10    1.51    0.31
   3  -1  10    2.15    0.20
  -3   1 -10    1.78    0.19
  -3   1 -10    2.09    0.39
  -3   1 -10    1.48    0.34
  -3   1 -10    2.11    0.40
  -4  -1 -10    3.76    0.42
  -4  -1 -10    3.75    0.30
  -4  -1 -10    3.69    0.44
  -4  -1 -10    3.93    0.31
  -4   1 -10    3.46    0.25
  -4   1 -10    4.42    0.48
  -4   1 -10    4.20    0.48
  -4   1 -10    3.72    0.30
  -5  -1 -10    5.32    0.41
  -5  -1 -10    5.93    0.41
  -5  -1 -10    4.54    0.38
  -5  -1 -10    5.40    0.55
  -5  -1 -10    6.02    0.56
  -5   1 -10    5.53    0.56
  -5   1 -10    5.60    0.57
  -5   1 -10    5.15    0.39
  -6  -1 -10    7.95    0.47
  -6  -1 -10    7.51    0.52
  -6  -1 -10    6.92    0.65
  -6  -1 -10    7.40    0.67
  -6  -1 -10    8.43    0.53
  -6   1 -10    7.52    0.70
  -6   1 -10    7.43    0.51
  -6   1 -10    7.73    0.70
  11  -2 -10   13.20    0.80
  11  -2 -10   14.32    0.89
  11  -2 -10   14.13    1.25
 -11  -2  10   13.63    0.81
 -11  -2  10   13.24    0.79
 -11  -2  10   14.22    0.91
 -11  -2  10   13.68    0.79
 -11   2  10   11.97    0.83
 -11   2  10   12.46    0.76
 -11   2  10   12.81    0.85
  11   2 -10   12.75    0.87
  11   2 -10   13.87    0.76
 -10  -2  10   16.72    0.84
 -10  -2  10   14.30    0.77
 -10  -2  10   14.26    0.91
  10  -2 -10   14.31    0.90
 -10  -2  10   14.99    0.79
  10  -2 -10   14.34    0.79
  10  -2 -10   13.57    0.85
 -10   2  10   13.88    0.77
  10   2 -10   13.55    0.86
 -10   2  10   15.32    0.92
  10   2 -10   13.66    0.87
 -10   2  10   11.78    0.76
  10   2 -10   14.34    0.77
  -9  -2  10   32.24    1.42
   9  -2 -10   33.88    1.28
  -9  -2  10   30.96    1.19
   9  -2 -10   35.63    1.51
   9  -2 -10   35.24    1.45
   9  -2 -10   33.91    1.30
  -9  -2  10   31.56    1.21
  -9  -2  10   32.16    1.27
   9   2 -10   32.40    1.44
  -9   2  10   32.46    1.22
  -9   2  10   32.66    1.29
   9   2 -10   34.45    1.31
  -9   2  10   33.02    1.42
   9   2 -10   34.71    1.47
  -8  -2  10   16.86    0.76
   8  -2 -10   17.71    0.77
   8  -2 -10   17.15    0.95
   8  -2 -10   19.04    0.84
   8  -2 -10   17.41    0.94
  -8  -2  10   17.56    0.75
  -8  -2  10   16.44    0.93
  -8  -2  10   17.19    0.96
  -8  -2  10   17.23    0.84
  -8   2  10   18.64    0.96
   8   2 -10   17.02    0.83
  -8   2  10   17.37    0.76
   8   2 -10   16.27    0.92
   8   2 -10   17.30    0.96
   8   2 -10   17.64    0.94
  -8   2  10   17.58    0.84
  -8   2  10   16.27    0.92
   7  -2 -10   44.92    1.71
  -7  -2  10   43.72    1.36
   7  -2 -10   45.07    1.68
  -7  -2  10   43.18    1.53
   7  -2 -10   45.94    1.52
  -7  -2  10   43.85    1.67
  -7  -2  10   43.05    1.37
  -7  -2  10   42.53    1.65
   7  -2 -10   45.85    1.44
  -7   2  10   42.66    1.48
  -7   2  10   43.32    1.62
   7   2 -10   45.95    1.73
   7   2 -10   44.85    1.70
   7   2 -10   45.80    1.70
  -7   2  10   43.94    1.38
  -7   2  10   43.01    1.64
   7   2 -10   45.33    1.57
  -6  -2  10   19.87    0.89
   6  -2 -10   19.24    0.73
  -6  -2  10   19.46    0.70
  -6  -2  10   18.27    0.95
   6  -2 -10   21.06    1.00
  -6  -2  10   21.77    1.01
   6  -2 -10   20.01    0.84
   6  -2 -10   19.97    0.97
  -6  -2  10   17.95    0.70
  -6   2  10   18.20    0.93
  -6   2  10   20.04    0.73
   6   2 -10   21.04    0.99
  -6   2  10   20.10    0.94
   6   2 -10   21.01    0.91
   6   2 -10   19.44    0.97
  -6   2  10   19.19    0.83
   6   2 -10   20.21    0.99
   5  -2 -10   10.92    0.66
  -5  -2  10    9.88    0.66
  -5  -2  10    9.65    0.58
   5  -2 -10   10.89    0.54
  -5  -2  10   12.07    0.70
   5  -2 -10    9.95    0.64
   5   2 -10   10.01    0.60
  -5   2  10   10.46    0.54
   5   2 -10   10.05    0.64
   5   2 -10   10.67    0.68
  -5   2  10   11.40    0.69
  -5   2  10   11.10    0.65
  -4  -2  10    2.09    0.34
   4  -2 -10    2.69    0.26
   4  -2 -10    2.48    0.39
   4  -2 -10    2.84    0.33
  -4  -2  10    2.85    0.33
  -4   2  10    3.02    0.44
   4   2 -10    2.43    0.38
   4   2 -10    2.94    0.44
   4   2 -10    2.17    0.32
  -4   2  10    2.57    0.26
  -3  -2  10    2.81    0.34
   3  -2 -10    2.81    0.30
   3  -2 -10    2.73    0.40
   3  -2 -10    2.90    0.27
  -3  -2  10    2.97    0.34
   3   2 -10    3.23    0.36
  -3   2  10    2.63    0.26
   3   2 -10    2.92    0.32
   3   2 -10    2.56    0.31
  -3   2  10    2.32    0.27
  -3   2  10    1.88    0.29
   2  -2 -10   15.42    0.83
   2  -2 -10   16.65    0.76
  -2  -2  10   17.24    0.87
  -2  -2  10   17.12    0.81
   2  -2 -10   16.93    0.72
  -2   2  10   16.79    0.85
   2   2 -10   16.92    0.82
   2   2 -10   15.91    0.75
   2   2 -10   15.65    0.84
  -2   2  10   16.26    0.71
  -2   2  10   15.87    0.71
   1  -2 -10    7.03    0.43
  -1  -2  10    8.44    0.53
   1  -2 -10    6.33    0.42
   1  -2 -10    7.37    0.54
  -1  -2  10    7.34    0.54
   1   2 -10    6.32    0.50
   1   2 -10    6.43    0.43
   1   2 -10    6.19    0.48
  -1   2  10    7.06    0.45
  -1   2  10    7.61    0.41
   1   2 -10    7.51    0.54
   0  -2  10   26.49    1.18
   0  -2 -10   25.60    1.14
   0  -2 -10   26.76    0.96
   0  -2 -10   25.80    1.02
   0  -2  10   28.00    1.07
   0   2 -10   26.42    0.97
   0   2  10   28.47    1.05
   0   2 -10   26.49    1.14
   0   2  10   26.66    0.86
   0   2 -10   26.36    1.16
   0   2 -10   25.57    1.10
   1  -2  10   32.64    1.36
   1  -2  10   33.57    1.18
   1  -2  10   33.25    1.19
  -1  -2 -10   32.72    1.36
  -1  -2 -10   33.35    1.11
  -1  -2 -10   35.27    1.28
  -1   2 -10   30.65    1.29
  -1   2 -10   32.74    1.38
  -1   2 -10   35.40    1.12
  -1   2 -10   33.72    1.38
  -2  -2 -10   55.94    1.98
   2  -2  10   56.03    1.68
   2  -2  10   57.23    1.72
  -2  -2 -10   57.41    1.89
  -2  -2 -10   51.46    1.90
   2  -2  10   50.58    1.92
  -2   2 -10   56.45    1.96
  -2   2 -10   55.59    2.01
  -2   2 -10   55.65    1.61
  -2   2 -10   59.35    2.03
   3  -2  10   18.16    0.74
  -3  -2 -10   17.41    0.91
  -3  -2 -10   17.94    0.70
   3  -2  10   16.96    0.96
  -3  -2 -10   17.24    0.90
   3  -2  10   17.72    0.72
  -3  -2 -10   17.89    0.96
  -3  -2 -10   17.33    0.68
  -3   2 -10   16.27    0.91
  -3   2 -10   17.92    0.68
  -3   2 -10   17.54    0.97
  -3   2 -10   17.47    0.62
  -3   2 -10   19.64    1.02
  -4  -2 -10   23.96    1.10
   4  -2  10   25.19    0.88
  -4  -2 -10   23.98    0.91
  -4  -2 -10   23.10    1.14
  -4  -2 -10   23.89    1.17
  -4  -2 -10   23.56    0.91
  -4   2 -10   25.18    1.24
  -4   2 -10   25.52    1.25
  -4   2 -10   24.40    0.90
  -5  -2 -10    9.39    0.56
  -5  -2 -10    9.98    0.61
  -5  -2 -10    9.59    0.56
  -5  -2 -10    8.90    0.66
  -5  -2 -10   10.83    0.76
  -5  -2 -10    9.82    0.72
  -5   2 -10    9.30    0.77
  -5   2 -10    8.99    0.76
  -5   2 -10    9.29    0.54
  -6  -2 -10    5.62    0.58
  -6  -2 -10    5.64    0.59
  -6  -2 -10    4.93    0.44
  -6  -2 -10    6.25    0.48
  -6  -2 -10    6.06    0.47
  -6   2 -10    6.01    0.46
  -6   2 -10    6.46    0.66
  -6   2 -10    6.39    0.66
 -11  -3  10    2.27    0.45
  11  -3 -10    2.88    0.45
 -11  -3  10    3.88    0.43
  11  -3 -10    3.37    0.37
 -11  -3  10    2.74    0.40
  11   3 -10    3.13    0.35
 -11   3  10    2.61    0.45
  11   3 -10    2.62    0.51
 -11   3  10    2.42    0.43
 -11   3  10    2.15    0.36
  10  -3 -10    2.72    0.49
 -10  -3  10    1.95    0.35
 -10  -3  10    2.53    0.45
  10  -3 -10    2.32    0.37
  10  -3 -10    2.42    0.38
 -10  -3  10    2.46    0.36
  10  -3 -10    2.83    0.48
 -10  -3  10    2.38    0.37
 -10   3  10    2.84    0.43
  10   3 -10    2.34    0.35
  10   3 -10    1.94    0.40
 -10   3  10    2.61    0.38
 -10   3  10    1.39    0.33
  -9  -3  10    2.27    0.35
   9  -3 -10    2.36    0.34
   9  -3 -10    2.65    0.39
   9  -3 -10    1.48    0.32
  -9  -3  10    2.19    0.33
   9  -3 -10    2.77    0.47
  -9  -3  10    2.78    0.33
  -9  -3  10    1.75    0.38
   9   3 -10    2.37    0.46
  -9   3  10    1.63    0.33
  -9   3  10    2.14    0.34
  -9   3  10    2.13    0.33
   9   3 -10    1.83    0.29
  -8  -3  10    2.04    0.37
  -8  -3  10    2.03    0.30
   8  -3 -10    2.20    0.36
  -8  -3  10    2.70    0.31
  -8  -3  10    3.17    0.33
   8  -3 -10    3.39    0.34
   8  -3 -10    2.29    0.27
  -8  -3  10    2.19    0.40
   8  -3 -10    3.03    0.45
  -8   3  10    2.50    0.42
   8   3 -10    2.50    0.28
  -8   3  10    2.47    0.33
   8   3 -10    2.32    0.43
  -8   3  10    2.40    0.33
  -7  -3  10   12.90    0.62
   7  -3 -10   13.03    0.79
   7  -3 -10   13.02    0.62
  -7  -3  10   12.36    0.80
   7  -3 -10   12.95    0.63
  -7  -3  10   12.70    0.59
  -7  -3  10   13.87    0.82
  -7  -3  10   13.41    0.68
   7  -3 -10   11.92    0.78
   7   3 -10   13.31    0.68
   7   3 -10   12.25    0.78
  -7   3  10   11.84    0.74
  -7   3  10   13.10    0.63
  -7   3  10   12.51    0.78
   7   3 -10   13.30    0.82
  -7   3  10   11.66    0.60
   6  -3 -10   21.29    1.02
  -6  -3  10   18.82    1.01
  -6  -3  10   19.80    0.77
  -6  -3  10   21.50    0.90
   6  -3 -10   19.68    1.00
   6  -3 -10   20.47    0.79
  -6  -3  10   21.46    1.04
  -6  -3  10   20.03    0.75
   6  -3 -10   20.22    0.79
   6   3 -10   20.55    0.89
  -6   3  10   20.21    0.78
  -6   3  10   19.89    0.95
  -6   3  10   20.28    0.80
   6   3 -10   20.28    1.01
  -6   3  10   19.56    0.99
   6   3 -10   21.06    1.04
   5  -3 -10   17.44    0.89
   5  -3 -10   16.26    0.65
  -5  -3  10   16.90    0.63
   5  -3 -10   17.99    0.89
  -5  -3  10   16.61    0.90
   5  -3 -10   16.59    0.67
  -5  -3  10   17.47    0.91
  -5   3  10   17.12    0.69
  -5   3  10   17.19    0.84
   5   3 -10   18.15    0.94
  -5   3  10   17.43    0.66
   5   3 -10   17.81    0.81
  -5   3  10   17.78    0.92
   5   3 -10   16.14    0.85
  -4  -3  10   48.02    1.71
   4  -3 -10   46.38    1.69
   4  -3 -10   47.16    1.33
  -4  -3  10   46.59    1.73
   4  -3 -10   47.63    1.39
   4  -3 -10   45.53    1.62
  -4   3  10   47.98    1.72
   4   3 -10   46.09    1.63
  -4   3  10   47.14    1.60
   4   3 -10   41.74    1.67
  -4   3  10   46.57    1.42
   4   3 -10   47.75    1.58
  -3  -3  10   44.83    1.69
   3  -3 -10   42.83    1.65
   3  -3 -10   48.11    1.41
   3  -3 -10   46.38    1.59
  -3  -3  10   45.73    1.65
   3   3 -10   46.30    1.60
   3   3 -10   47.92    1.61
  -3   3  10   47.21    1.40
   3   3 -10   47.17    1.72
  -3   3  10   44.91    1.67
  -3   3  10   46.78    1.52
  -2  -3  10   45.99    1.66
   2  -3 -10   42.38    1.47
   2  -3 -10   41.76    1.58
  -2  -3  10   42.63    1.55
   2  -3 -10   44.12    1.34
   2   3 -10   44.41    1.48
   2   3 -10   44.12    1.64
  -2   3  10   41.83    1.31
   2   3 -10   42.36    1.53
  -2   3  10   42.13    1.58
  -2   3  10   40.94    1.36
   2   3 -10   42.60    1.49
   1  -3 -10   34.47    1.11
  -1  -3  10   35.26    1.34
   1  -3 -10   34.08    1.17
   1  -3 -10   30.11    1.29
  -1  -3  10   33.66    1.39
   1   3 -10   34.45    1.27
  -1   3  10   34.93    1.10
   1   3 -10   30.86    1.14
  -1   3  10   34.59    1.37
   1   3 -10   26.94    1.27
   1   3 -10   33.87    1.30
   0  -3 -10    6.64    0.53
   0  -3 -10    6.58    0.42
   0  -3  10    7.00    0.57
   0  -3  10    6.68    0.49
   0  -3 -10    6.62    0.41
   0   3 -10    7.12    0.42
   0   3 -10    7.35    0.58
   0   3 -10    7.20    0.53
   0   3 -10    7.22    0.51
   0   3  10    6.32    0.29
   1  -3  10    4.77    0.40
   1  -3  10    6.46    0.54
  -1  -3 -10    5.85    0.42
  -1  -3 -10    6.12    0.52
  -1  -3 -10    5.79    0.32
  -1  -3 -10    6.00    0.36
   1  -3  10    6.16    0.46
  -1   3 -10    5.94    0.35
  -1   3 -10    6.18    0.55
  -1   3 -10    6.19    0.50
  -1   3 -10    5.77    0.50
  -2  -3 -10    3.91    0.29
   2  -3  10    3.88    0.36
   2  -3  10    4.38    0.30
  -2  -3 -10    4.36    0.43
  -2  -3 -10    4.02    0.36
   2  -3  10    5.33    0.42
  -2  -3 -10    3.14    0.34
  -2  -3 -10    3.56    0.26
   2  -3  10    4.28    0.59
  -2  -3 -10    3.85    0.40
  -2  -3 -10    3.28    0.27
  -2   3 -10    3.84    0.27
  -2   3 -10    3.51    0.23
  -2   3 -10    4.13    0.44
  -2   3 -10    4.19    0.45
  -2   3 -10    3.68    0.40
  -3  -3 -10    2.94    0.44
   3  -3  10    2.83    0.28
  -3  -3 -10    2.69    0.39
  -3  -3 -10    2.24    0.37
  -3  -3 -10    2.71    0.39
   3  -3  10    2.78    0.31
  -3  -3 -10    2.87    0.27
  -3  -3 -10    2.47    0.26
  -3   3 -10    2.77    0.44
  -3   3 -10    3.71    0.29
  -3   3 -10    2.52    0.42
  -3   3 -10    2.13    0.37
   4  -3  10    0.93    0.23
  -4  -3 -10    1.16    0.23
  -4  -3 -10    0.76    0.25
  -4  -3 -10    0.96    0.22
  -4  -3 -10    0.98    0.28
  -4  -3 -10    1.33    0.28
   4  -3  10    1.14    0.21
  -4   3 -10    1.16    0.31
  -4   3 -10    1.20    0.33
  -4   3 -10    1.00    0.20
  -5  -3 -10    8.67    0.60
  -5  -3 -10    7.40    0.63
  -5  -3 -10    7.83    0.52
  -5  -3 -10    7.33    0.50
  -5  -3 -10    8.10    0.63
   5  -3  10    8.62    0.50
  -5  -3 -10    7.97    0.63
  -5   3 -10    9.30    0.77
  -5   3 -10    8.40    0.53
  -5   3 -10    8.57    0.73
   6  -3  10    7.11    0.41
  -6  -3 -10    6.98    0.54
  -6  -3 -10    6.86    0.52
  -6  -3 -10    7.60    0.58
  -6  -3 -10    7.83    0.64
  -6  -3 -10    9.11    0.70
  -6   3 -10    8.05    0.74
  -6   3 -10    8.03    0.55
 -10  -4  10   12.50    0.76
  10  -4 -10   12.87    0.86
 -10  -4  10   12.77    0.67
  10  -4 -10   13.17    0.79
  10  -4 -10   13.08    0.93
 -10  -4  10   12.36    0.76
 -10  -4  10   12.29    0.85
 -10   4  10   12.25    0.74
 -10   4  10   12.56    0.71
  10   4 -10   12.89    0.65
 -10   4  10   12.47    0.87
  10   4 -10   14.06    0.93
  -9  -4  10    9.30    0.56
  -9  -4  10    9.21    0.72
   9  -4 -10    9.23    0.74
  -9  -4  10    7.58    0.56
   9  -4 -10    7.64    0.56
  -9  -4  10    8.66    0.59
   9  -4 -10    8.88    0.70
   9   4 -10    8.01    0.67
  -9   4  10    9.93    0.73
  -9   4  10    9.44    0.56
  -9   4  10    9.44    0.62
   9   4 -10    7.93    0.49
   8  -4 -10   25.12    0.94
   8  -4 -10   25.13    1.23
  -8  -4  10   26.28    1.24
  -8  -4  10   23.82    0.97
  -8  -4  10   25.09    1.03
   8  -4 -10   25.72    1.06
  -8  -4  10   24.57    1.01
   8  -4 -10   24.74    1.20
  -8   4  10   26.32    1.05
   8   4 -10   24.65    1.24
   8   4 -10   25.98    0.99
  -8   4  10   21.28    0.90
  -8   4  10   27.08    1.22
   7  -4 -10   11.45    0.64
   7  -4 -10   13.27    0.81
   7  -4 -10   11.47    0.75
  -7  -4  10   11.69    0.60
  -7  -4  10   12.36    0.79
   7  -4 -10   12.39    0.54
  -7  -4  10   11.26    0.61
  -7   4  10   12.49    0.63
   7   4 -10   12.12    0.78
  -7   4  10   11.87    0.74
   7   4 -10   10.55    0.76
   7   4 -10   12.40    0.62
  -7   4  10   10.93    0.53
   6  -4 -10   14.97    0.69
  -6  -4  10   14.77    0.65
   6  -4 -10   15.50    0.87
  -6  -4  10   14.34    0.85
  -6  -4  10   14.80    0.66
  -6  -4  10   12.73    0.85
   6  -4 -10   13.48    0.56
   6  -4 -10   14.75    0.86
  -6   4  10   15.24    0.68
  -6   4  10   15.38    0.59
   6   4 -10   15.81    0.91
  -6   4  10   14.31    0.80
   6   4 -10   16.09    0.73
  -6   4  10   13.90    0.84
   6   4 -10   15.39    0.87
  -5  -4  10    4.49    0.32
  -5  -4  10    3.62    0.43
  -5  -4  10    3.99    0.29
   5  -4 -10    4.66    0.27
   5  -4 -10    4.59    0.45
   5  -4 -10    4.85    0.34
  -5  -4  10    4.23    0.45
   5  -4 -10    4.35    0.44
  -5   4  10    4.52    0.43
   5   4 -10    3.96    0.35
  -5   4  10    4.69    0.33
   5   4 -10    4.80    0.49
  -5   4  10    4.37    0.26
  -5   4  10    4.44    0.46
   5   4 -10    4.44    0.43
   4  -4 -10    4.13    0.24
  -4  -4  10    5.31    0.48
  -4  -4  10    3.55    0.27
   4  -4 -10    4.23    0.40
  -4  -4  10    3.75    0.44
   4  -4 -10    3.99    0.29
   4  -4 -10    4.53    0.43
  -4   4  10    3.59    0.35
  -4   4  10    3.26    0.38
   4   4 -10    4.10    0.39
   4   4 -10    4.33    0.45
   4   4 -10    4.41    0.37
  -4   4  10    4.24    0.30
  -4   4  10    3.95    0.23
  -3  -4  10    4.19    0.43
   3  -4 -10    4.35    0.30
  -3  -4  10    4.00    0.44
  -3  -4  10    4.74    0.28
   3  -4 -10    4.73    0.41
   3  -4 -10    5.23    0.47
   3  -4 -10    4.80    0.26
   3   4 -10    4.63    0.40
  -3   4  10    4.62    0.30
   3   4 -10    4.37    0.37
  -3   4  10    4.06    0.34
   3   4 -10    4.89    0.41
   3   4 -10    4.60    0.45
  -3   4  10    4.12    0.42
   2  -4 -10    1.32    0.15
  -2  -4  10    1.81    0.32
   2  -4 -10    1.58    0.21
  -2  -4  10    1.39    0.29
   2  -4 -10    2.41    0.42
   2  -4 -10    1.61    0.28
  -2   4  10    1.25    0.27
   2   4 -10    1.61    0.34
  -2   4  10    1.62    0.18
   2   4 -10    2.06    0.31
   2   4 -10    1.66    0.28
  -2   4  10    1.89    0.25
   2   4 -10    1.49    0.26
   1  -4 -10   14.05    0.56
  -1  -4  10   13.08    0.75
   1  -4 -10   13.40    0.56
   1  -4 -10   14.81    0.81
  -1  -4  10   13.79    0.82
   1  -4 -10   14.03    0.69
   1   4 -10   15.05    0.87
  -1   4  10   13.37    0.78
   1   4 -10   13.79    0.75
  -1   4  10   13.29    0.55
   1   4 -10   13.51    0.72
   1   4 -10   14.06    0.66
   0  -4  10   14.57    0.80
   0  -4 -10   11.83    0.60
   0  -4 -10   13.03    0.76
   0  -4 -10   12.86    0.55
   0  -4  10   13.58    0.84
   0  -4 -10   12.81    0.56
   0  -4 -10   13.06    0.58
   0   4 -10   12.62    0.71
   0   4 -10   12.66    0.80
   0   4 -10   13.05    0.75
   0   4 -10   11.67    0.50
   0   4 -10   12.56    0.58
   1  -4  10   26.63    1.09
  -1  -4 -10   23.57    0.87
  -1  -4 -10   25.06    1.14
  -1  -4 -10   24.20    0.91
   1  -4  10   24.93    1.21
  -1  -4 -10   24.08    0.88
  -1  -4 -10   24.20    0.93
   1  -4  10   23.93    0.86
   1  -4  10   25.17    1.11
  -1   4 -10   24.36    1.20
  -1   4 -10   24.06    0.84
  -1   4 -10   25.57    1.15
  -1   4 -10   24.14    0.82
  -1   4 -10   22.93    1.07
   2  -4  10   14.57    0.81
  -2  -4 -10   16.07    0.61
   2  -4  10   15.91    0.97
  -2  -4 -10   15.53    0.88
  -2  -4 -10   15.59    0.69
   2  -4  10   16.85    0.69
  -2  -4 -10   14.55    0.65
  -2  -4 -10   14.67    0.73
  -2  -4 -10   15.73    0.73
  -2   4 -10   15.20    0.64
  -2   4 -10   14.10    0.89
  -2   4 -10   14.88    0.84
  -2   4 -10   18.01    0.96
  -3  -4 -10   27.08    1.20
   3  -4  10   26.92    1.00
   3  -4  10   25.73    1.11
  -3  -4 -10   24.68    1.04
  -3  -4 -10   26.21    1.21
  -3  -4 -10   24.97    1.08
  -3  -4 -10   24.58    0.98
  -3  -4 -10   26.35    1.00
  -3   4 -10   26.72    0.97
  -3   4 -10   26.88    1.28
  -3   4 -10   24.47    1.27
  -4  -4 -10    5.10    0.44
  -4  -4 -10    6.19    0.54
  -4  -4 -10    4.24    0.46
   4  -4  10    5.98    0.50
  -4  -4 -10    6.35    0.45
  -4  -4 -10    6.20    0.50
   4  -4  10    5.98    0.46
  -4   4 -10    5.89    0.59
  -4   4 -10    5.99    0.42
  -4   4 -10    5.34    0.57
  -5  -4 -10    7.03    0.52
  -5  -4 -10    6.64    0.56
  -5  -4 -10    6.46    0.58
   5  -4  10    7.08    0.53
   5  -4  10    7.83    0.53
  -5  -4 -10    7.44    0.60
  -5  -4 -10    7.02    0.61
  -5  -4 -10    6.19    0.50
  -5   4 -10    7.66    0.51
  -5   4 -10    6.89    0.66
  -9  -5  10    0.61    0.22
   9  -5 -10    0.91    0.29
   9  -5 -10    0.69    0.31
   9  -5 -10    0.23    0.23
  -9  -5  10    0.55    0.25
  -9  -5  10    0.63    0.24
  -9   5  10    0.59    0.23
  -9   5  10    0.64    0.18
   9   5 -10    0.81    0.18
   9   5 -10    0.74    0.31
  -9   5  10    0.43    0.24
  -8  -5  10    3.59    0.39
   8  -5 -10    2.45    0.40
   8  -5 -10    3.44    0.47
  -8  -5  10    3.42    0.37
  -8  -5  10    3.45    0.52
   8  -5 -10    4.29    0.48
  -8   5  10    2.64    0.44
  -8   5  10    3.36    0.37
  -8   5  10    3.59    0.28
   8   5 -10    3.17    0.28
   7  -5 -10    3.65    0.55
  -7  -5  10    3.03    0.46
   7  -5 -10    2.13    0.36
   7  -5 -10    4.02    0.38
  -7  -5  10    3.12    0.36
  -7  -5  10    3.29    0.35
  -7   5  10    3.10    0.34
   7   5 -10    2.31    0.39
   7   5 -10    3.33    0.30
  -7   5  10    3.21    0.46
  -6  -5  10    7.07    0.47
  -6  -5  10    7.86    0.63
  -6  -5  10    6.26    0.46
   6  -5 -10    7.09    0.58
   6  -5 -10    7.29    0.49
   6  -5 -10    6.97    0.61
  -6   5  10    7.71    0.49
   6   5 -10    7.53    0.58
  -6   5  10    7.47    0.57
   6   5 -10    7.79    0.45
   6   5 -10    7.42    0.64
   5  -5 -10   20.42    1.01
  -5  -5  10   20.24    1.05
  -5  -5  10   21.49    1.28
   5  -5 -10   19.53    1.01
  -5  -5  10   19.28    0.81
   5  -5 -10   19.05    0.82
   5   5 -10   19.06    1.04
  -5   5  10   21.03    0.86
   5   5 -10   20.52    0.82
   5   5 -10   18.34    0.79
  -5   5  10   20.29    1.04
   5   5 -10   16.40    0.91
   4  -5 -10   12.83    0.62
   4  -5 -10   12.41    0.75
  -4  -5  10   12.12    0.58
   4  -5 -10   13.00    0.79
  -4  -5  10   12.29    0.78
  -4  -5  10   11.64    0.79
   4   5 -10   13.04    0.66
  -4   5  10   11.87    0.76
  -4   5  10   12.17    0.68
   4   5 -10   12.83    0.74
  -4   5  10   12.58    0.60
   4   5 -10   13.19    0.64
   4   5 -10   12.93    0.83
  -3  -5  10   22.54    0.85
  -3  -5  10   23.88    1.12
   3  -5 -10   18.93    0.81
   3  -5 -10   21.57    1.00
  -3  -5  10   21.61    1.11
   3  -5 -10   22.86    1.07
   3   5 -10   22.14    0.83
   3   5 -10   21.94    0.92
  -3   5  10   22.23    1.09
  -3   5  10   22.38    0.93
   3   5 -10   22.77    0.95
   3   5 -10   22.23    0.97
  -3   5  10   23.92    0.89
   3   5 -10   21.92    1.12
   2  -5 -10   20.57    1.00
  -2  -5  10   19.65    0.77
   2  -5 -10   19.20    0.90
  -2  -5  10   21.14    1.09
  -2  -5  10   21.83    1.07
   2  -5 -10   19.87    0.79
  -2   5  10   20.62    0.81
   2   5 -10   20.68    1.07
   2   5 -10   19.33    0.88
   2   5 -10   19.29    0.75
  -2   5  10   20.14    0.82
   2   5 -10   18.81    0.86
  -2   5  10   21.02    1.03
   2   5 -10   19.47    0.90
  -1  -5  10    7.61    0.61
   1  -5 -10    7.23    0.44
   1  -5 -10    7.75    0.51
  -1  -5  10    6.90    0.59
  -1  -5  10    7.68    0.42
   1  -5 -10    8.04    0.61
   1   5 -10    7.86    0.54
   1   5 -10    8.68    0.45
  -1   5  10    7.27    0.43
   1   5 -10    7.91    0.47
   1   5 -10    7.00    0.61
   1   5 -10    7.40    0.54
  -1   5  10    7.57    0.60
  -1   5  10    7.50    0.38
   0  -5  10   11.49    0.70
   0  -5 -10   10.00    0.54
   0  -5  10   11.22    0.55
   0  -5 -10   11.84    0.72
   0  -5  10   12.26    0.76
   0  -5 -10   10.16    0.43
   0  -5 -10   11.41    0.45
   0  -5  10   10.81    0.86
   0  -5 -10   12.09    0.60
   0   5 -10    9.04    0.63
   0   5 -10   11.70    0.77
   0   5 -10   10.69    0.53
   0   5 -10   10.71    0.52
   0   5 -10   11.61    0.68
  -1  -5 -10    3.36    0.30
   1  -5  10    2.56    0.37
  -1  -5 -10    2.72    0.23
   1  -5  10    2.65    0.28
   1  -5  10    2.15    0.36
  -1  -5 -10    2.80    0.25
  -1  -5 -10    2.78    0.40
  -1  -5 -10    3.11    0.27
  -1   5 -10    3.43    0.49
  -1   5 -10    3.04    0.23
  -1   5 -10    3.00    0.41
  -1   5 -10    2.76    0.47
  -1   5 -10    2.61    0.27
  -2  -5 -10    1.00    0.19
  -2  -5 -10    1.08    0.20
  -2  -5 -10    1.22    0.22
  -2  -5 -10    0.89    0.26
  -2  -5 -10    1.00    0.16
   2  -5  10    0.78    0.25
   2  -5  10    0.70    0.20
  -2   5 -10    1.15    0.32
  -2   5 -10    1.04    0.30
  -2   5 -10    0.95    0.21
  -2   5 -10    0.90    0.24
  -3  -5 -10    0.26    0.17
  -3  -5 -10    0.53    0.17
   3  -5  10    0.46    0.25
  -3  -5 -10    0.25    0.15
  -3  -5 -10    0.25    0.18
  -3  -5 -10    0.45    0.18
   3  -5  10    0.51    0.20
  -3   5 -10    0.55    0.22
  -3   5 -10    0.60    0.18
  -3   5 -10    0.50    0.23
  -4  -5 -10    4.18    0.43
  -4  -5 -10    3.71    0.49
  -4  -5 -10    3.54    0.38
  -4  -5 -10    4.66    0.42
  -4  -5 -10    4.15    0.56
  -4  -5 -10    3.52    0.40
   4  -5  10    3.78    0.45
   4  -5  10    4.09    0.47
  -4   5 -10    4.77    0.66
  -4   5 -10    3.58    0.36
   8  -6 -10    4.45    0.47
  -8  -6  10    3.47    0.45
  -8  -6  10    4.57    0.52
  -8  -6  10    3.84    0.44
   8  -6 -10    4.36    0.65
   8  -6 -10    4.17    0.49
   8   6 -10    4.15    0.28
  -8   6  10    3.84    0.51
  -8   6  10    3.86    0.55
   8   6 -10    3.26    0.53
   8   6 -10    3.86    0.29
   7  -6 -10    8.35    0.66
  -7  -6  10    6.43    0.52
  -7  -6  10    7.75    0.66
  -7  -6  10    6.57    0.52
   7  -6 -10    8.01    0.58
   7  -6 -10    7.43    0.66
   7   6 -10    8.03    0.41
   7   6 -10    9.10    0.44
  -7   6  10    8.31    0.56
  -7   6  10    7.53    0.63
   7   6 -10    8.00    0.69
   6  -6 -10    4.85    0.50
  -6  -6  10    4.61    0.51
   6  -6 -10    3.46    0.52
   6  -6 -10    4.40    0.41
  -6  -6  10    4.34    0.41
   6   6 -10    4.30    0.31
  -6   6  10    4.70    0.40
   6   6 -10    4.77    0.53
  -6   6  10    4.24    0.46
   6   6 -10    4.61    0.32
   5  -6 -10    4.90    0.41
  -5  -6  10    5.53    0.54
   5  -6 -10    4.60    0.46
  -5  -6  10    5.19    0.42
   5  -6 -10    4.77    0.48
  -5   6  10    4.95    0.45
   5   6 -10    5.42    0.54
  -5   6  10    5.70    0.43
   5   6 -10    5.31    0.36
   5   6 -10    4.98    0.36
  -4  -6  10    1.40    0.26
  -4  -6  10    1.12    0.30
   4  -6 -10    1.20    0.30
   4  -6 -10    0.65    0.21
   4  -6 -10    0.78    0.23
   4   6 -10    0.88    0.17
  -4   6  10    0.63    0.21
  -4   6  10    1.05    0.23
   4   6 -10    0.88    0.22
   4   6 -10    0.98    0.21
   4   6 -10    0.76    0.24
   3  -6 -10    0.98    0.22
  -3  -6  10    1.13    0.22
   3  -6 -10    0.83    0.20
   3  -6 -10    1.29    0.29
  -3  -6  10    0.67    0.25
   3   6 -10    1.16    0.26
   3   6 -10    0.75    0.28
  -3   6  10    0.85    0.28
  -3   6  10    0.85    0.19
   3   6 -10    1.28    0.25
  -3   6  10    1.07    0.24
   3   6 -10    0.98    0.22
   3   6 -10    1.45    0.27
   2  -6 -10    4.22    0.40
   2  -6 -10    3.80    0.42
   2  -6 -10    3.75    0.35
  -2  -6  10    2.32    0.43
  -2  -6  10    3.18    0.31
   2   6 -10    3.44    0.32
   2   6 -10    3.77    0.45
  -2   6  10    3.41    0.32
   2   6 -10    3.40    0.34
  -2   6  10    2.99    0.31
   2   6 -10    3.79    0.37
  -2   6  10    3.27    0.44
   2   6 -10    3.85    0.39
   1  -6 -10    2.59    0.30
   1  -6 -10    1.50    0.28
  -1  -6  10    2.24    0.40
  -1  -6  10    2.29    0.32
   1  -6 -10    2.21    0.31
  -1   6  10    1.93    0.38
   1   6 -10    1.95    0.27
   1   6 -10    2.26    0.43
  -1   6  10    1.96    0.29
   1   6 -10    1.99    0.30
   1   6 -10    2.08    0.32
   1   6 -10    1.61    0.29
   0  -6 -10   10.02    0.59
   0  -6  10   10.10    0.56
   0  -6  10   10.82    0.75
   0  -6 -10   11.56    0.73
   0  -6 -10   10.19    0.59
   0  -6  10    9.44    0.67
   0   6 -10   10.23    0.66
   0   6 -10   10.66    0.57
   0   6  10    9.98    0.57
   0   6 -10   10.39    0.77
   0   6 -10   10.36    0.65
   0   6 -10   10.81    0.53
   1  -6  10    8.31    0.52
  -1  -6 -10    8.76    0.64
  -1  -6 -10    8.23    0.48
  -1  -6 -10    7.70    0.51
   1  -6  10    8.00    0.66
  -1   6 -10    8.85    0.52
  -1   6 -10    8.32    0.61
  -1   6 -10    8.17    0.68
  -1   6 -10    7.42    0.59
  -2  -6 -10    9.27    0.47
   2  -6  10    9.36    0.58
   2  -6  10    8.82    0.72
  -2  -6 -10    9.32    0.47
  -2  -6 -10    9.15    0.64
  -2  -6 -10    9.46    0.46
  -2  -6 -10    8.50    0.58
  -2   6 -10    9.21    0.74
  -2   6 -10   10.27    0.59
  -2   6 -10   10.69    0.74
  -3  -6 -10    3.74    0.50
  -3  -6 -10    3.13    0.33
  -3  -6 -10    2.89    0.41
  -3  -6 -10    3.39    0.33
   3  -6  10    3.38    0.45
  -3   6 -10    3.96    0.63
  -3   6 -10    3.34    0.37
  -3   6 -10    3.31    0.51
   7  -7 -10    1.50    0.33
  -7  -7  10    1.58    0.37
   7  -7 -10    2.55    0.51
  -7  -7  10    1.48    0.35
  -7   7  10    1.97    0.36
   7   7 -10    2.25    0.48
  -6  -7  10    4.29    0.45
   6  -7 -10    4.43    0.48
   6  -7 -10    4.27    0.46
   6  -7 -10    3.56    0.51
  -6  -7  10    5.37    0.59
  -6   7  10    4.69    0.44
   6   7 -10    2.85    0.44
   5  -7 -10    2.63    0.47
   5  -7 -10    2.60    0.42
   5  -7 -10    2.10    0.39
  -5  -7  10    1.69    0.41
  -5  -7  10    2.26    0.35
   5   7 -10    2.49    0.25
   5   7 -10    2.29    0.46
   5   7 -10    2.30    0.24
  -5   7  10    1.87    0.34
  -5   7  10    2.13    0.37
   4  -7 -10    4.13    0.47
   4  -7 -10    5.12    0.49
  -4  -7  10    5.37    0.58
  -4  -7  10    4.03    0.42
   4  -7 -10    5.13    0.46
   4   7 -10    4.33    0.35
  -4   7  10    5.21    0.44
   4   7 -10    4.96    0.36
   4   7 -10    5.23    0.58
   4   7 -10    4.42    0.49
  -4   7  10    4.97    0.48
   4   7 -10    4.33    0.41
   3  -7 -10    6.90    0.59
   3  -7 -10    7.27    0.58
  -3  -7  10    7.51    0.67
  -3  -7  10    6.78    0.51
   3  -7 -10    7.50    0.53
   3   7 -10    7.19    0.47
   3   7 -10    7.34    0.56
   3   7 -10    7.64    0.53
  -3   7  10    7.56    0.52
   3   7 -10    7.66    0.68
   3   7 -10    7.29    0.48
  -3   7  10    7.23    0.51
   2  -7 -10    6.12    0.52
   2  -7 -10    6.90    0.58
  -2  -7  10    7.40    0.52
  -2  -7  10    7.18    0.68
   2  -7 -10    7.03    0.56
   2   7 -10    7.07    0.49
   2   7 -10    7.43    0.51
  -2   7  10    6.55    0.49
   2   7 -10    7.14    0.66
   2   7 -10    6.80    0.51
   2   7 -10    6.70    0.48
   1  -7 -10    2.77    0.40
  -1  -7  10    3.66    0.51
   1  -7 -10    3.10    0.44
  -1  -7  10    3.28    0.36
   1  -7 -10    2.39    0.38
  -1  -7  10    2.45    0.49
   1   7 -10    3.05    0.42
   1   7 -10    3.18    0.54
   1   7 -10    3.14    0.37
  -1   7  10    2.55    0.36
   1   7 -10    3.14    0.33
   0  -7 -10    0.95    0.21
   0  -7  10    0.43    0.23
   0  -7 -10    0.88    0.24
   0  -7  10    1.03    0.32
   0  -7 -10    1.45    0.33
   0   7 -10    1.10    0.27
   0   7  10    0.80    0.23
   0   7 -10    1.04    0.23
   0   7 -10    1.12    0.34
   0   7 -10    1.22    0.26
  -1  -7 -10    1.65    0.30
   1  -7  10    0.99    0.34
  -1  -7 -10    1.71    0.33
   1  -7  10    1.11    0.26
  -1  -7 -10    1.54    0.23
  -1   7 -10    1.26    0.34
  -1   7 -10    1.57    0.33
  -1   7 -10    1.70    0.32
  -1   7 -10    1.20    0.26
   2  -7  10    0.41    0.26
  -2  -7 -10    0.55    0.14
   2  -7  10   -0.09    0.23
  -2  -7 -10    0.59    0.22
  -2  -7 -10    0.72    0.27
  -2   7 -10    0.79    0.28
  -2   7 -10    0.85    0.24
  -2   7 -10    0.63    0.30
   4  -8 -10    0.64    0.25
  -4  -8  10    0.34    0.26
  -4  -8  10    0.42    0.27
   4  -8 -10    0.36    0.23
   4   8 -10    0.35    0.14
  -4   8  10   -0.37    0.21
  -4   8  10    0.30    0.21
   4   8 -10    0.41    0.27
   4   8 -10    0.34    0.19
   4   8 -10    0.04    0.14
   3  -8 -10    1.48    0.30
   3  -8 -10    0.93    0.30
   3  -8 -10    1.13    0.30
  -3  -8  10    1.42    0.37
  -3  -8  10    0.74    0.27
  -3   8  10    1.49    0.34
   3   8 -10    1.36    0.31
   3   8 -10    1.50    0.37
   3   8 -10    1.49    0.27
   3   8 -10    1.21    0.24
  -2  -8  10    0.21    0.32
   2  -8 -10    0.06    0.18
   2  -8 -10    0.20    0.22
   2  -8 -10    0.04    0.21
  -2  -8  10    0.02    0.22
  -2   8  10    0.09    0.19
   2   8 -10    0.47    0.21
   2   8 -10    0.18    0.18
   2   8 -10    0.26    0.17
   2   8 -10    0.38    0.20
   1  -8 -10    1.79    0.44
   1  -8 -10    1.16    0.30
  -1  -8  10    1.34    0.42
  -1  -8  10    1.38    0.29
   1   8 -10    1.18    0.25
   1   8 -10    1.58    0.32
  -1   8  10    1.58    0.30
   1   8 -10    1.36    0.37
   1   8 -10    1.32    0.30
 -11   0  11   -0.01    0.21
 -11   0  11    0.14    0.18
  11   0 -11   -0.09    0.16
 -11   0  11   -0.12    0.21
  11   0 -11    0.01    0.19
  10   0 -11    0.03    0.12
 -10   0  11    0.16    0.14
 -10   0  11    0.01    0.16
  10   0 -11    0.04    0.19
  10   0 -11    0.03    0.14
 -10   0  11    0.51    0.25
   9   0 -11    0.00    0.16
  -9   0  11    0.02    0.13
   9   0 -11   -0.02    0.12
  -9   0  11    0.04    0.15
  -9   0  11   -0.05    0.13
   9   0 -11    0.09    0.13
  -9   0  11   -0.01    0.17
  -9   0  11    0.00    0.10
  -8   0  11    0.14    0.15
  -8   0  11    0.06    0.11
   8   0 -11   -0.02    0.15
  -8   0  11    0.21    0.13
   8   0 -11   -0.08    0.10
   8   0 -11    0.07    0.12
  -8   0  11    0.03    0.09
  -8   0  11    0.47    0.20
  -7   0  11    0.06    0.09
  -7   0  11    0.04    0.13
   7   0 -11   -0.04    0.11
   7   0 -11    0.02    0.09
   7   0 -11    0.05    0.12
   7   0 -11    0.02    0.13
  -7   0  11   -0.14    0.12
  -7   0  11    0.11    0.14
   6   0 -11    0.07    0.09
  -6   0  11   -0.10    0.10
  -6   0  11   -0.04    0.09
  -6   0  11   -0.25    0.11
   6   0 -11    0.05    0.10
   6   0 -11    0.12    0.14
   5   0 -11    0.08    0.09
   5   0 -11   -0.07    0.10
  -5   0  11    0.04    0.09
  -5   0  11    0.13    0.14
  -5   0  11   -0.09    0.08
   5   0 -11   -0.06    0.08
   4   0 -11    0.24    0.14
   4   0 -11    0.09    0.11
   4   0 -11    0.27    0.13
  -4   0  11    0.19    0.13
  -4   0  11    0.23    0.15
  -4   0  11    0.20    0.13
  -3   0  11    0.25    0.12
   3   0 -11    0.02    0.09
   3   0 -11   -0.02    0.08
  -3   0  11    0.04    0.11
  -3   0  11   -0.03    0.09
   3   0 -11   -0.02    0.08
  -2   0  11    0.05    0.10
   2   0 -11    0.33    0.14
   2   0 -11    0.01    0.07
   2   0 -11    0.16    0.12
  -2   0  11    0.05    0.11
  -1   0  11    0.11    0.09
  -1   0  11   -0.14    0.10
   1   0 -11   -0.04    0.07
   1   0 -11    0.05    0.11
   0   0  11    0.15    0.15
   0   0  11    0.01    0.09
   0   0 -11    0.08    0.11
   0   0 -11    0.16    0.15
  -1   0 -11   -0.07    0.10
   1   0  11   -0.01    0.08
   1   0  11   -0.11    0.07
   1   0  11    0.13    0.12
  -1   0 -11   -0.16    0.08
  -1   0 -11    0.03    0.10
  -2   0 -11   -0.14    0.11
   2   0  11    0.02    0.15
   2   0  11    0.17    0.08
  -2   0 -11   -0.01    0.12
  -2   0 -11    0.00    0.12
  -3   0 -11    0.04    0.13
  -3   0 -11   -0.01    0.13
  -4   0 -11    0.83    0.27
  -4   0 -11   -0.09    0.12
  -5   0 -11   -0.12    0.10
  -5   0 -11    0.12    0.15
  -5   0 -11   -0.07    0.18
  -5   0 -11    0.11    0.14
  -5   0 -11   -0.13    0.10
 -11  -1  11    0.91    0.28
  11  -1 -11    0.48    0.24
 -11  -1  11    1.02    0.24
 -11  -1  11    0.77    0.29
  11  -1 -11    0.67    0.22
 -11   1  11    1.27    0.32
  11   1 -11    0.92    0.25
 -11   1  11    1.45    0.36
  11   1 -11    1.29    0.29
  10  -1 -11   -0.02    0.14
 -10  -1  11    0.22    0.19
 -10  -1  11    0.30    0.16
 -10  -1  11   -0.38    0.18
  10  -1 -11    0.44    0.29
 -10  -1  11    0.01    0.16
  10  -1 -11   -0.23    0.10
  10   1 -11   -0.13    0.20
 -10   1  11   -0.03    0.18
 -10   1  11    0.12    0.14
  10   1 -11    0.03    0.11
  10   1 -11   -0.19    0.13
 -10   1  11   -0.14    0.17
  -9  -1  11    2.07    0.37
   9  -1 -11    1.16    0.29
  -9  -1  11    1.30    0.34
   9  -1 -11    1.13    0.31
  -9  -1  11    1.72    0.37
  -9  -1  11    1.73    0.29
  -9  -1  11    1.19    0.24
  -9   1  11    1.53    0.38
  -9   1  11    1.58    0.27
   9   1 -11    1.02    0.26
   9   1 -11    1.21    0.25
  -9   1  11    2.57    0.44
  -8  -1  11    3.19    0.37
  -8  -1  11    3.11    0.28
   8  -1 -11    3.16    0.45
   8  -1 -11    4.15    0.47
  -8  -1  11    3.73    0.31
  -8  -1  11    3.80    0.52
   8  -1 -11    3.70    0.38
  -8  -1  11    2.80    0.42
   8   1 -11    4.21    0.40
   8   1 -11    2.43    0.40
  -8   1  11    2.59    0.42
  -8   1  11    3.35    0.30
  -8   1  11    3.06    0.38
  -8   1  11    2.75    0.39
   8   1 -11    3.64    0.40
   7  -1 -11    2.22    0.33
   7  -1 -11    2.27    0.34
  -7  -1  11    2.47    0.22
  -7  -1  11    2.27    0.21
  -7  -1  11    2.70    0.41
  -7  -1  11    2.14    0.39
   7  -1 -11    2.58    0.43
  -7  -1  11    2.07    0.30
   7   1 -11    1.92    0.33
  -7   1  11    2.19    0.35
   7   1 -11    1.88    0.30
   7   1 -11    2.37    0.39
  -7   1  11    1.66    0.32
  -7   1  11    2.31    0.37
   7   1 -11    3.17    0.47
  -7   1  11    2.25    0.21
  -6  -1  11    1.72    0.32
   6  -1 -11    1.40    0.31
   6  -1 -11    1.71    0.33
   6  -1 -11    1.96    0.30
  -6  -1  11    1.57    0.31
  -6  -1  11    1.16    0.25
   6   1 -11    1.35    0.30
   6   1 -11    1.33    0.27
  -6   1  11    1.45    0.29
  -6   1  11    0.76    0.21
   6   1 -11    1.76    0.32
   6   1 -11    1.88    0.35
  -6   1  11    1.68    0.31
   5  -1 -11    1.81    0.32
  -5  -1  11    2.50    0.36
   5  -1 -11    2.30    0.38
   5  -1 -11    2.37    0.28
  -5  -1  11    2.45    0.38
  -5  -1  11    2.12    0.36
  -5   1  11    1.78    0.28
   5   1 -11    1.86    0.35
  -5   1  11    2.45    0.29
  -5   1  11    2.54    0.36
   5   1 -11    1.94    0.33
   5   1 -11    2.53    0.40
   5   1 -11    1.82    0.31
   4  -1 -11    3.82    0.40
  -4  -1  11    4.11    0.40
  -4  -1  11    4.73    0.42
   4  -1 -11    4.09    0.37
   4  -1 -11    4.16    0.41
  -4  -1  11    4.81    0.44
   4   1 -11    4.63    0.43
   4   1 -11    4.42    0.42
  -4   1  11    4.44    0.38
   4   1 -11    4.73    0.44
  -4   1  11    3.48    0.38
  -3  -1  11    2.43    0.37
   3  -1 -11    1.65    0.33
   3  -1 -11    1.67    0.29
   3  -1 -11    1.87    0.31
  -3  -1  11    2.19    0.34
  -3   1  11    2.55    0.34
   3   1 -11    2.09    0.36
   3   1 -11    2.04    0.33
  -3   1  11    2.07    0.31
  -3   1  11    2.28    0.34
   2  -1 -11    3.99    0.42
   2  -1 -11    5.29    0.42
  -2  -1  11    4.65    0.44
  -2  -1  11    5.25    0.42
   2  -1 -11    4.43    0.39
  -2   1  11    4.91    0.37
  -2   1  11    4.78    0.40
   2   1 -11    4.59    0.44
   2   1 -11    4.11    0.41
   1  -1 -11    1.55    0.27
  -1  -1  11    2.01    0.30
  -1  -1  11    1.49    0.29
   1  -1 -11    1.12    0.25
   1  -1 -11    1.23    0.27
   1   1 -11    1.20    0.25
  -1   1  11    1.86    0.27
   1   1 -11    1.56    0.32
  -1   1  11    1.83    0.31
   0  -1  11    1.89    0.33
   0  -1 -11    1.98    0.34
   0  -1 -11    2.00    0.37
   0  -1  11    2.35    0.30
   0   1  11    2.59    0.38
   0   1  11    1.80    0.21
   0   1 -11    1.51    0.29
   0   1 -11    2.29    0.41
   0   1 -11    1.52    0.28
   1  -1  11    3.54    0.30
  -1  -1 -11    3.79    0.41
  -1  -1 -11    4.03    0.41
   1  -1  11    3.62    0.29
   1  -1  11    2.76    0.42
  -1  -1 -11    3.54    0.38
  -1   1 -11    4.12    0.42
   1   1  11    3.06    0.20
  -1   1 -11    3.32    0.39
  -1   1 -11    4.10    0.43
   1   1  11    3.11    0.20
   1   1  11    3.19    0.37
   2  -1  11    3.41    0.49
   2  -1  11    3.00    0.25
  -2  -1 -11    3.56    0.52
  -2  -1 -11    3.61    0.41
  -2  -1 -11    3.08    0.38
   2  -1  11    2.74    0.26
  -2   1 -11    2.75    0.45
  -2   1 -11    3.59    0.42
  -2   1 -11    3.30    0.40
  -3  -1 -11    0.74    0.27
   3  -1  11    1.09    0.15
  -3  -1 -11    1.04    0.27
  -3   1 -11    0.55    0.21
  -3   1 -11    0.77    0.27
  -4  -1 -11    0.44    0.23
  -4  -1 -11    0.47    0.22
  -4  -1 -11    0.37    0.13
  -4   1 -11    0.55    0.14
  -4   1 -11    0.22    0.20
  -4   1 -11    0.79    0.27
  -5  -1 -11    0.52    0.26
  -5  -1 -11    0.07    0.12
  -5  -1 -11    0.33    0.16
  -5  -1 -11   -0.10    0.13
  -5  -1 -11    0.18    0.16
  -5   1 -11    0.13    0.13
  -5   1 -11    0.02    0.21
  -5   1 -11    0.20    0.15
  -5   1 -11    0.34    0.23
 -11  -2  11    0.87    0.28
  11  -2 -11    1.08    0.31
 -11  -2  11    0.51    0.26
  11  -2 -11    0.31    0.23
  11   2 -11    0.35    0.19
 -11   2  11    0.53    0.21
 -11   2  11    0.45    0.24
  11   2 -11    0.28    0.21
 -10  -2  11    0.70    0.23
 -10  -2  11    0.18    0.16
 -10  -2  11    0.52    0.22
 -10  -2  11    0.29    0.21
  10  -2 -11    0.24    0.13
  10  -2 -11    0.53    0.20
  10  -2 -11    0.27    0.25
 -10   2  11    0.11    0.18
  10   2 -11    0.52    0.26
  10   2 -11    0.48    0.36
  10   2 -11    0.18    0.15
 -10   2  11    0.30    0.26
 -10   2  11    0.37    0.24
  -9  -2  11    0.50    0.20
  -9  -2  11    0.12    0.14
   9  -2 -11   -0.16    0.17
   9  -2 -11    0.58    0.20
  -9  -2  11    0.26    0.15
   9  -2 -11    0.20    0.15
  -9  -2  11   -0.02    0.16
   9   2 -11    0.13    0.14
  -9   2  11    0.35    0.16
   9   2 -11    0.05    0.14
   9   2 -11    0.38    0.20
  -9   2  11    0.34    0.15
  -9   2  11    0.30    0.19
   8  -2 -11    0.64    0.18
  -8  -2  11    0.80    0.23
   8  -2 -11    0.90    0.30
  -8  -2  11    0.81    0.24
  -8  -2  11    1.00    0.20
   8  -2 -11    0.96    0.22
  -8  -2  11    0.67    0.27
  -8  -2  11    0.72    0.19
   8   2 -11    0.78    0.19
   8   2 -11    0.90    0.24
  -8   2  11    0.76    0.21
   8   2 -11    0.82    0.29
  -8   2  11    0.69    0.18
  -8   2  11    1.42    0.32
  -7  -2  11    2.81    0.43
  -7  -2  11    2.16    0.35
   7  -2 -11    2.35    0.37
   7  -2 -11    2.44    0.29
  -7  -2  11    2.18    0.40
   7  -2 -11    2.29    0.40
  -7  -2  11    2.20    0.23
  -7  -2  11    2.37    0.23
   7   2 -11    2.79    0.45
  -7   2  11    1.69    0.34
   7   2 -11    1.46    0.28
  -7   2  11    2.10    0.38
  -7   2  11    2.34    0.23
   7   2 -11    2.54    0.44
   7   2 -11    2.76    0.33
  -7   2  11    2.34    0.33
   6  -2 -11    2.13    0.38
  -6  -2  11    1.53    0.29
   6  -2 -11    1.63    0.28
  -6  -2  11    1.47    0.33
  -6  -2  11    2.24    0.40
   6  -2 -11    1.01    0.24
   6   2 -11    1.06    0.23
  -6   2  11    1.24    0.25
   6   2 -11    1.37    0.25
  -6   2  11    1.79    0.34
   6   2 -11    1.66    0.31
  -6   2  11    1.12    0.26
  -5  -2  11    3.21    0.48
  -5  -2  11    2.36    0.38
   5  -2 -11    2.41    0.37
   5  -2 -11    2.98    0.30
  -5  -2  11    3.03    0.42
   5  -2 -11    1.98    0.33
   5   2 -11    2.90    0.34
  -5   2  11    2.86    0.33
   5   2 -11    2.61    0.41
  -5   2  11    2.57    0.30
  -5   2  11    2.89    0.44
   5   2 -11    2.73    0.44
  -4  -2  11    0.43    0.18
   4  -2 -11    0.41    0.14
  -4  -2  11    0.43    0.17
   4  -2 -11    0.39    0.17
   4  -2 -11    0.25    0.16
   4   2 -11    0.38    0.18
  -4   2  11    0.36    0.15
   4   2 -11    0.42    0.18
  -4   2  11    0.42    0.20
   4   2 -11    0.20    0.10
  -4   2  11    0.35    0.15
  -3  -2  11    0.22    0.15
   3  -2 -11    0.08    0.11
  -3  -2  11    0.15    0.14
   3  -2 -11    0.37    0.13
   3  -2 -11    0.49    0.19
   3   2 -11    0.36    0.14
  -3   2  11    0.31    0.15
   3   2 -11    0.51    0.20
  -3   2  11    0.24    0.12
   3   2 -11    0.27    0.16
  -3   2  11    0.44    0.19
   2  -2 -11    0.34    0.15
   2  -2 -11    0.46    0.14
  -2  -2  11    0.34    0.17
   2  -2 -11    0.40    0.19
  -2   2  11    0.38    0.14
   2   2 -11    0.31    0.18
   2   2 -11    0.67    0.19
  -2   2  11    0.29    0.12
  -2   2  11    0.23    0.17
   2   2 -11    0.30    0.16
   1  -2 -11    0.51    0.15
   1  -2 -11    0.40    0.14
   1  -2 -11    0.52    0.17
  -1  -2  11    0.64    0.20
  -1  -2  11    0.78    0.18
   1   2 -11    0.57    0.15
   1   2 -11    0.57    0.19
   1   2 -11    0.46    0.18
  -1   2  11    0.60    0.14
   1   2 -11    0.38    0.16
   0  -2  11    0.23    0.14
   0  -2  11    0.35    0.16
   0  -2 -11    0.35    0.13
   0  -2 -11    0.18    0.12
   0  -2 -11    0.43    0.16
   0   2  11    0.60    0.18
   0   2 -11    0.29    0.14
   0   2 -11    0.36    0.13
   0   2 -11    0.24    0.13
   0   2  11    0.25    0.10
   0   2 -11    0.13    0.11
   1  -2  11    0.24    0.14
  -1  -2 -11    0.54    0.19
   1  -2  11    0.15    0.16
  -1  -2 -11    0.45    0.14
   1  -2  11    0.28    0.14
  -1   2 -11    0.35    0.18
  -1   2 -11    0.56    0.20
  -1   2 -11    0.54    0.17
  -1   2 -11    0.43    0.19
  -2  -2 -11    0.23    0.14
  -2  -2 -11    0.09    0.12
  -2  -2 -11    0.23    0.17
   2  -2  11    0.22    0.15
   2  -2  11    0.02    0.14
  -2   2 -11    0.05    0.16
  -2   2 -11    0.29    0.20
  -2   2 -11   -0.02    0.13
  -2   2 -11    0.20    0.11
  -3  -2 -11    0.70    0.25
   3  -2  11    0.28    0.17
  -3  -2 -11    0.43    0.20
  -3   2 -11    0.70    0.25
  -3   2 -11    0.52    0.12
  -3   2 -11    0.44    0.22
   4  -2  11    0.80    0.17
  -4  -2 -11    0.84    0.26
  -4  -2 -11    1.31    0.31
  -4  -2 -11    0.93    0.20
  -4  -2 -11    0.89    0.27
  -4   2 -11    1.21    0.21
  -4   2 -11    1.16    0.31
  -4   2 -11    1.20    0.32
  -5  -2 -11    1.44    0.29
  -5  -2 -11    1.78    0.36
  -5  -2 -11    0.75    0.25
  -5  -2 -11    1.42    0.27
  -5   2 -11    1.45    0.23
  -5   2 -11    1.32    0.34
  -5   2 -11    0.80    0.29
  10  -3 -11    2.36    0.48
 -10  -3  11    1.90    0.37
 -10  -3  11    2.96    0.43
  10  -3 -11    3.47    0.45
  10  -3 -11    2.39    0.46
 -10  -3  11    3.10    0.52
 -10  -3  11    2.74    0.42
  10  -3 -11    3.19    0.37
 -10   3  11    2.35    0.38
  10   3 -11    2.20    0.35
  10   3 -11    2.31    0.39
 -10   3  11    3.51    0.40
 -10   3  11    2.51    0.45
   9  -3 -11    0.82    0.21
  -9  -3  11    0.20    0.22
  -9  -3  11    0.78    0.19
  -9  -3  11    0.56    0.21
   9  -3 -11    0.83    0.23
   9  -3 -11    0.81    0.22
  -9  -3  11    0.79    0.23
   9  -3 -11    0.03    0.22
   9   3 -11    0.68    0.20
  -9   3  11    0.70    0.22
  -9   3  11    0.76    0.28
   9   3 -11    0.66    0.23
  -8  -3  11    0.84    0.24
  -8  -3  11    1.01    0.27
   8  -3 -11    0.76    0.19
   8  -3 -11    0.51    0.17
  -8  -3  11    0.85    0.20
   8  -3 -11    0.94    0.21
   8  -3 -11    0.64    0.22
  -8  -3  11    0.83    0.20
   8   3 -11    0.81    0.22
  -8   3  11    0.87    0.27
   8   3 -11    0.85    0.20
  -8   3  11    0.91    0.19
  -8   3  11    0.84    0.23
   7  -3 -11    1.02    0.24
  -7  -3  11    1.48    0.33
   7  -3 -11    1.60    0.25
   7  -3 -11    0.99    0.29
  -7  -3  11    1.48    0.32
   7  -3 -11    1.63    0.24
  -7  -3  11    1.75    0.31
  -7  -3  11    1.47    0.24
  -7  -3  11    1.31    0.21
   7   3 -11    1.00    0.23
   7   3 -11    0.97    0.29
   7   3 -11    0.93    0.24
  -7   3  11    1.13    0.19
  -7   3  11    1.22    0.24
  -7   3  11    0.93    0.25
  -6  -3  11    1.52    0.29
   6  -3 -11    2.36    0.38
   6  -3 -11    1.82    0.35
  -6  -3  11    1.62    0.32
   6  -3 -11    1.94    0.23
   6  -3 -11    2.01    0.22
  -6   3  11    1.94    0.35
  -6   3  11    2.42    0.21
  -6   3  11    1.97    0.27
  -6   3  11    2.38    0.43
   6   3 -11    2.40    0.42
   6   3 -11    1.69    0.34
   6   3 -11    1.75    0.29
   5  -3 -11    4.20    0.31
  -5  -3  11    3.53    0.42
  -5  -3  11    4.12    0.44
   5  -3 -11    4.11    0.43
   5  -3 -11    4.14    0.42
   5   3 -11    4.13    0.41
  -5   3  11    3.54    0.41
   5   3 -11    3.46    0.37
  -5   3  11    3.58    0.29
   5   3 -11    3.54    0.42
   4  -3 -11    1.34    0.22
  -4  -3  11    1.55    0.33
   4  -3 -11    0.99    0.25
   4  -3 -11    1.22    0.29
  -4  -3  11    1.55    0.31
  -4   3  11    1.04    0.29
  -4   3  11    1.35    0.27
   4   3 -11    1.12    0.24
   4   3 -11    1.19    0.31
   4   3 -11    0.90    0.27
  -4   3  11    1.37    0.22
   3  -3 -11    4.86    0.48
  -3  -3  11    4.48    0.42
  -3  -3  11    4.15    0.45
   3  -3 -11    3.51    0.37
   3  -3 -11    4.58    0.33
  -3   3  11    4.44    0.46
  -3   3  11    4.97    0.39
   3   3 -11    3.40    0.37
  -3   3  11    5.14    0.34
   3   3 -11    4.58    0.45
   3   3 -11    4.25    0.40
   2  -3 -11    0.22    0.14
  -2  -3  11    0.35    0.16
   2  -3 -11    0.16    0.14
   2  -3 -11    0.41    0.13
  -2  -3  11    0.14    0.18
   2   3 -11    0.30    0.15
   2   3 -11    0.32    0.18
  -2   3  11    0.46    0.13
   2   3 -11    0.24    0.12
  -2   3  11    0.78    0.23
  -2   3  11    0.49    0.13
   2   3 -11    0.12    0.13
   1  -3 -11    8.88    0.64
   1  -3 -11    9.72    0.52
  -1  -3  11    9.00    0.66
   1  -3 -11    9.39    0.54
   1   3 -11    8.53    0.64
   1   3 -11    8.64    0.52
   1   3 -11    8.84    0.62
   1   3 -11    8.50    0.59
  -1   3  11    9.16    0.44
   0  -3 -11    6.29    0.43
   0  -3 -11    6.26    0.53
   0  -3  11    5.12    0.45
   0  -3 -11    5.40    0.40
   0  -3  11    6.72    0.57
   0   3 -11    6.01    0.51
   0   3 -11    5.39    0.53
   0   3 -11    5.94    0.51
   0   3 -11    5.59    0.38
   1  -3  11    3.26    0.47
  -1  -3 -11    3.67    0.35
   1  -3  11    3.38    0.39
  -1  -3 -11    3.67    0.30
   1  -3  11    3.06    0.39
  -1  -3 -11    2.96    0.44
  -1   3 -11    2.81    0.43
  -1   3 -11    3.88    0.57
  -1   3 -11    3.25    0.26
  -1   3 -11    3.21    0.48
  -2  -3 -11    0.66    0.23
   2  -3  11    0.55    0.21
  -2  -3 -11    0.83    0.21
  -2  -3 -11    0.70    0.19
  -2   3 -11    1.08    0.25
  -2   3 -11    0.74    0.14
  -2   3 -11    1.03    0.32
  -3  -3 -11    1.85    0.33
  -3  -3 -11    2.72    0.42
   3  -3  11    2.66    0.34
  -3  -3 -11    2.69    0.27
  -3  -3 -11    1.56    0.32
  -3  -3 -11    2.44    0.30
  -3   3 -11    2.30    0.24
  -3   3 -11    2.07    0.43
  -3   3 -11    2.79    0.48
  -4  -3 -11    0.13    0.15
  -4  -3 -11   -0.07    0.18
   4  -3  11    0.34    0.17
  -4  -3 -11    0.27    0.16
  -4  -3 -11    0.20    0.17
  -4  -3 -11   -0.04    0.12
  -4   3 -11    0.15    0.21
  -4   3 -11    0.32    0.14
  -4   3 -11    0.28    0.18
  -5  -3 -11    0.27    0.20
   5  -3  11    0.46    0.19
  -5  -3 -11    0.27    0.21
  -5  -3 -11    0.15    0.17
  -5  -3 -11    0.11    0.19
  -5  -3 -11    0.31    0.19
  -5   3 -11    0.09    0.21
  -5   3 -11    0.45    0.15
  -5   3 -11    0.24    0.24
  10  -4 -11    0.71    0.25
  10  -4 -11    1.51    0.41
 -10  -4  11    1.03    0.26
 -10  -4  11    0.95    0.26
 -10  -4  11    1.23    0.34
 -10  -4  11    1.13    0.29
  10  -4 -11    1.40    0.36
 -10   4  11    0.88    0.27
  10   4 -11    0.81    0.22
  10   4 -11    0.44    0.24
 -10   4  11    0.86    0.24
 -10   4  11    0.96    0.34
  -9  -4  11    2.29    0.35
   9  -4 -11    2.01    0.29
   9  -4 -11    1.29    0.37
  -9  -4  11    1.80    0.31
  -9  -4  11    1.98    0.40
   9  -4 -11    2.43    0.37
  -9  -4  11    2.02    0.33
   9  -4 -11    1.12    0.30
   9   4 -11    1.99    0.30
   9   4 -11    1.32    0.29
  -9   4  11    1.35    0.26
  -9   4  11    1.37    0.35
  -8  -4  11    2.05    0.40
  -8  -4  11    1.65    0.28
   8  -4 -11    2.17    0.26
   8  -4 -11    2.07    0.32
  -8  -4  11    2.06    0.32
   8  -4 -11    1.91    0.37
   8  -4 -11    2.23    0.40
  -8   4  11    1.91    0.38
   8   4 -11    2.22    0.34
   8   4 -11    2.04    0.45
  -8   4  11    2.18    0.32
  -8   4  11    2.05    0.28
   7  -4 -11    2.28    0.24
   7  -4 -11    2.70    0.30
   7  -4 -11    3.06    0.49
   7  -4 -11    2.18    0.39
  -7  -4  11    2.17    0.31
  -7  -4  11    2.27    0.32
  -7  -4  11    2.56    0.44
   7   4 -11    2.78    0.28
   7   4 -11    1.74    0.35
  -7   4  11    2.79    0.29
  -7   4  11    2.20    0.36
  -7   4  11    2.19    0.26
  -6  -4  11    5.12    0.35
  -6  -4  11    5.41    0.52
   6  -4 -11    5.30    0.31
   6  -4 -11    4.49    0.49
   6  -4 -11    4.95    0.50
   6  -4 -11    5.26    0.37
  -6  -4  11    4.56    0.34
   6   4 -11    4.92    0.47
  -6   4  11    5.10    0.33
  -6   4  11    5.17    0.36
   6   4 -11    4.35    0.47
   6   4 -11    4.44    0.39
  -6   4  11    4.83    0.48
  -5  -4  11    3.20    0.47
   5  -4 -11    2.60    0.25
   5  -4 -11    3.13    0.23
  -5  -4  11    2.64    0.44
   5  -4 -11    3.48    0.41
   5   4 -11    2.18    0.36
  -5   4  11    3.17    0.37
  -5   4  11    2.86    0.25
  -5   4  11    2.94    0.23
   5   4 -11    2.86    0.45
  -5   4  11    3.00    0.47
   5   4 -11    2.73    0.38
   4  -4 -11    5.91    0.49
   4  -4 -11    5.63    0.52
   4  -4 -11    5.44    0.30
  -4  -4  11    3.91    0.44
  -4  -4  11    5.20    0.52
   4   4 -11    5.69    0.45
   4   4 -11    6.32    0.56
   4   4 -11    5.65    0.45
  -4   4  11    4.65    0.49
  -4   4  11    5.42    0.30
   4   4 -11    5.52    0.48
  -4   4  11    4.90    0.43
  -3  -4  11    0.77    0.24
   3  -4 -11    0.65    0.13
  -3  -4  11    0.42    0.21
   3  -4 -11    0.50    0.18
   3   4 -11    0.18    0.16
  -3   4  11    0.89    0.27
   3   4 -11    0.64    0.22
   3   4 -11    0.57    0.20
   3   4 -11    0.74    0.20
  -3   4  11    0.93    0.21
   2  -4 -11    0.99    0.17
   2  -4 -11    0.94    0.22
   2  -4 -11    1.16    0.30
  -2  -4  11    1.17    0.28
  -2  -4  11    1.07    0.29
  -2   4  11    0.77    0.17
   2   4 -11    1.02    0.23
  -2   4  11    0.33    0.19
   2   4 -11    0.83    0.21
   2   4 -11    1.09    0.31
   2   4 -11    0.89    0.21
  -1  -4  11    1.14    0.31
  -1  -4  11    0.67    0.24
   1  -4 -11    1.07    0.25
   1  -4 -11    1.28    0.20
   1  -4 -11    0.94    0.24
   1   4 -11    1.00    0.28
   1   4 -11    1.23    0.32
  -1   4  11    1.03    0.16
   1   4 -11    1.54    0.30
   1   4 -11    0.88    0.22
   0  -4 -11    0.27    0.13
   0  -4 -11    0.19    0.12
   0  -4 -11    0.37    0.13
   0  -4 -11    0.10    0.12
   0   4 -11    0.15    0.12
   0   4 -11    0.18    0.15
   0   4 -11    0.15    0.14
   0   4 -11    0.37    0.22
  -1  -4 -11    0.09    0.12
  -1  -4 -11    0.11    0.11
   1  -4  11    0.29    0.15
  -1  -4 -11    0.02    0.13
  -1  -4 -11   -0.08    0.11
  -1  -4 -11    0.01    0.08
  -1  -4 -11   -0.04    0.08
  -1   4 -11    0.07    0.10
  -1   4 -11    0.03    0.12
  -1   4 -11    0.18    0.16
  -1   4 -11   -0.14    0.14
  -2  -4 -11    0.27    0.15
  -2  -4 -11    0.05    0.15
   2  -4  11    0.26    0.18
  -2  -4 -11    0.54    0.18
   2  -4  11    0.37    0.14
  -2  -4 -11    0.26    0.11
  -2  -4 -11    0.29    0.12
  -2  -4 -11    0.23    0.14
  -2   4 -11    0.22    0.16
  -2   4 -11    0.40    0.21
   3  -4  11    1.23    0.23
   3  -4  11    1.92    0.32
  -3  -4 -11    1.79    0.33
  -3  -4 -11    1.65    0.31
  -3  -4 -11    1.79    0.26
  -3  -4 -11    1.85    0.27
  -3  -4 -11    1.65    0.38
  -3   4 -11    1.94    0.27
  -3   4 -11    1.23    0.30
  -3   4 -11    1.77    0.41
   4  -4  11    0.80    0.28
  -4  -4 -11    0.91    0.28
   4  -4  11    1.46    0.29
  -4  -4 -11    1.07    0.23
  -4  -4 -11    1.34    0.35
  -4  -4 -11    1.26    0.26
  -4  -4 -11    1.27    0.30
  -4   4 -11    0.77    0.20
  -4   4 -11    1.39    0.37
  -4   4 -11    1.24    0.32
  -9  -5  11    2.02    0.41
  -9  -5  11    1.99    0.35
  -9  -5  11    2.43    0.38
   9  -5 -11    1.68    0.40
   9  -5 -11    1.57    0.34
   9  -5 -11    1.54    0.39
  -9   5  11    2.03    0.45
   9   5 -11    1.14    0.28
   9   5 -11    2.33    0.31
  -9   5  11    2.03    0.27
  -9   5  11    2.49    0.40
  -8  -5  11    0.54    0.24
   8  -5 -11    0.33    0.20
   8  -5 -11    0.77    0.33
  -8  -5  11    0.76    0.27
  -8  -5  11    0.87    0.23
   8   5 -11    0.57    0.18
  -8   5  11    0.87    0.23
  -8   5  11    0.89    0.17
  -8   5  11    0.89    0.29
   8   5 -11    0.30    0.23
   7  -5 -11    0.80    0.27
  -7  -5  11    0.64    0.27
   7  -5 -11    0.16    0.19
  -7  -5  11    0.45    0.19
   7  -5 -11    0.66    0.26
  -7  -5  11    0.56    0.19
   7   5 -11    0.42    0.21
  -7   5  11    0.82    0.22
  -7   5  11    0.41    0.19
   7   5 -11    0.41    0.17
  -6  -5  11    1.40    0.32
  -6  -5  11    1.41    0.25
   6  -5 -11    0.97    0.26
  -6  -5  11    1.20    0.26
   6  -5 -11    1.38    0.25
   6  -5 -11    1.13    0.31
   6   5 -11    1.13    0.23
  -6   5  11    1.32    0.25
  -6   5  11    1.00    0.27
   6   5 -11    1.46    0.28
   6   5 -11    0.80    0.23
   5  -5 -11    0.84    0.26
  -5  -5  11    0.81    0.29
   5  -5 -11    0.77    0.23
   5  -5 -11    0.61    0.18
  -5  -5  11    0.77    0.16
   5   5 -11    0.85    0.26
  -5   5  11    0.68    0.18
   5   5 -11    0.81    0.22
   5   5 -11    0.42    0.15
   5   5 -11    0.33    0.20
  -5   5  11    0.29    0.18
   4  -5 -11    3.04    0.47
  -4  -5  11    2.78    0.28
  -4  -5  11    3.33    0.50
   4  -5 -11    3.02    0.45
   4  -5 -11    3.09    0.30
   4   5 -11    3.09    0.33
  -4   5  11    2.98    0.39
   4   5 -11    3.04    0.34
   4   5 -11    3.40    0.38
   4   5 -11    2.53    0.42
  -4   5  11    3.68    0.32
   3  -5 -11    1.08    0.26
   3  -5 -11    1.25    0.21
  -3  -5  11    0.87    0.28
   3  -5 -11    1.38    0.33
   3   5 -11    0.84    0.22
   3   5 -11    0.85    0.24
  -3   5  11    1.36    0.24
  -3   5  11    1.53    0.24
   3   5 -11    0.85    0.26
   3   5 -11    0.85    0.23
  -2  -5  11    6.97    0.39
  -2  -5  11    7.25    0.60
   2  -5 -11    5.88    0.39
   2  -5 -11    6.76    0.57
   2  -5 -11    6.93    0.51
   2   5 -11    6.01    0.48
   2   5 -11    7.24    0.51
  -2   5  11    6.50    0.42
   2   5 -11    6.78    0.61
  -2   5  11    7.43    0.42
  -2   5  11    6.94    0.64
   2   5 -11    6.59    0.52
  -1  -5  11    3.74    0.52
   1  -5 -11    3.40    0.29
   1  -5 -11    3.36    0.40
  -1  -5  11    3.18    0.27
   1  -5 -11    3.65    0.37
   1   5 -11    3.53    0.39
   1   5 -11    2.18    0.39
  -1   5  11    3.81    0.61
   1   5 -11    3.60    0.41
   1   5 -11    3.88    0.34
   1   5 -11    4.26    0.29
  -1   5  11    3.22    0.25
   0  -5 -11    5.36    0.31
   0  -5 -11    6.03    0.43
   0  -5  11    5.55    0.51
   0  -5 -11    5.02    0.50
   0  -5 -11    4.71    0.30
   0  -5 -11    4.65    0.36
   0   5 -11    5.09    0.34
   0   5 -11    4.87    0.36
   0   5 -11    5.39    0.50
   0   5 -11    5.20    0.54
   0   5 -11    4.70    0.47
   1  -5  11    3.22    0.36
  -1  -5 -11    2.68    0.30
  -1  -5 -11    3.14    0.30
  -1  -5 -11    2.99    0.28
  -1  -5 -11    3.53    0.30
  -1  -5 -11    3.09    0.50
  -1   5 -11    3.06    0.49
  -1   5 -11    2.70    0.23
  -1   5 -11    2.67    0.48
  -1   5 -11    2.80    0.28
  -2  -5 -11    4.62    0.50
  -2  -5 -11    4.54    0.38
   2  -5  11    3.97    0.35
  -2  -5 -11    4.66    0.38
  -2  -5 -11    4.18    0.31
  -2  -5 -11    4.51    0.36
   2  -5  11    4.24    0.48
  -2  -5 -11    4.17    0.36
  -2   5 -11    3.95    0.57
  -2   5 -11    4.71    0.52
  -2   5 -11    4.56    0.35
  -3  -5 -11   -0.31    0.13
   3  -5  11   -0.22    0.19
  -3  -5 -11   -0.07    0.17
   3  -5  11    0.15    0.16
  -3  -5 -11   -0.10    0.16
  -3  -5 -11    0.02    0.15
  -3  -5 -11    0.05    0.18
  -3   5 -11    0.46    0.28
  -3   5 -11    0.46    0.15
  -3   5 -11    0.36    0.23
  -8  -6  11    2.26    0.39
  -8   6  11    1.93    0.35
  -7  -6  11    3.17    0.40
  -7  -6  11    4.22    0.57
   7  -6 -11    3.97    0.46
  -7  -6  11    3.72    0.40
   7  -6 -11    4.98    0.58
   7  -6 -11    2.91    0.42
   7   6 -11    4.45    0.69
   7   6 -11    3.29    0.32
  -7   6  11    3.61    0.41
   7   6 -11    3.74    0.31
   6  -6 -11    3.77    0.40
   6  -6 -11    3.70    0.54
  -6  -6  11    3.82    0.39
   6  -6 -11    3.93    0.47
  -6  -6  11    3.95    0.57
   6   6 -11    3.51    0.32
   6   6 -11    4.04    0.49
  -6   6  11    3.54    0.38
   6   6 -11    3.43    0.34
  -5  -6  11    4.23    0.62
   5  -6 -11    4.67    0.51
  -5  -6  11    3.83    0.37
   5  -6 -11    3.89    0.46
   5  -6 -11    3.77    0.38
   5   6 -11    3.77    0.37
  -5   6  11    4.71    0.41
  -5   6  11    3.75    0.44
   5   6 -11    4.14    0.38
   5   6 -11    4.23    0.52
   4  -6 -11    0.65    0.20
  -4  -6  11    1.05    0.22
  -4  -6  11    0.99    0.29
   4  -6 -11    0.81    0.25
   4  -6 -11    1.15    0.30
   4   6 -11    0.95    0.24
  -4   6  11    1.01    0.27
   4   6 -11    0.80    0.24
   4   6 -11    0.80    0.25
   4   6 -11    0.95    0.23
  -4   6  11    1.46    0.27
  -3  -6  11    1.14    0.24
   3  -6 -11    0.78    0.24
   3  -6 -11    0.97    0.28
   3  -6 -11    0.63    0.21
  -3  -6  11    0.73    0.25
  -3   6  11    0.79    0.23
   3   6 -11    1.01    0.24
   3   6 -11    1.06    0.23
   3   6 -11    1.26    0.26
   3   6 -11    0.79    0.25
   2  -6 -11    2.07    0.42
  -2  -6  11    1.80    0.39
  -2  -6  11    1.46    0.22
   2  -6 -11    1.25    0.24
   2  -6 -11    2.03    0.33
   2   6 -11    1.88    0.27
   2   6 -11    2.11    0.35
   2   6 -11    1.19    0.25
  -2   6  11    1.62    0.27
  -2   6  11    1.23    0.23
   2   6 -11    1.45    0.29
   2   6 -11    1.36    0.32
   1  -6 -11    0.24    0.17
   1  -6 -11   -0.11    0.14
  -1  -6  11    0.96    0.34
   1  -6 -11    0.02    0.16
  -1  -6  11    0.23    0.16
   1   6 -11    0.42    0.17
   1   6 -11    0.15    0.14
  -1   6  11    0.00    0.15
   1   6 -11    0.06    0.16
   1   6 -11    0.20    0.14
   1   6 -11   -0.06    0.17
   0  -6 -11   -0.10    0.13
   0  -6 -11    0.16    0.13
   0  -6 -11    0.00    0.16
   0  -6  11   -0.06    0.15
   0  -6  11    0.29    0.24
   0   6 -11   -0.02    0.14
   0   6 -11    0.02    0.11
   0   6 -11    0.20    0.18
   0   6 -11   -0.05    0.20
   0   6 -11   -0.12    0.11
   1  -6  11    0.25    0.20
  -1  -6 -11    0.54    0.16
   1  -6  11    0.41    0.26
  -1  -6 -11    0.45    0.24
  -1  -6 -11    0.45    0.21
  -1   6 -11    0.40    0.15
  -1   6 -11    0.91    0.32
  -1   6 -11    0.46    0.22
  -2  -6 -11    0.71    0.24
   2  -6  11    0.16    0.21
  -2  -6 -11    0.80    0.18
  -2  -6 -11    0.47    0.24
   2  -6  11   -0.03    0.24
  -2  -6 -11    0.76    0.18
  -2   6 -11    0.35    0.24
  -2   6 -11    0.43    0.25
  -2   6 -11    1.24    0.22
   5  -7 -11    1.18    0.30
  -5  -7  11    0.79    0.25
   5  -7 -11    0.94    0.28
  -5  -7  11    1.01    0.33
   5  -7 -11    0.87    0.26
   5   7 -11    1.25    0.33
   5   7 -11    0.68    0.21
  -5   7  11    1.17    0.29
   5   7 -11    0.88    0.21
  -4  -7  11    1.02    0.26
   4  -7 -11    1.04    0.27
  -4  -7  11    0.86    0.37
   4  -7 -11    1.01    0.32
   4  -7 -11    1.08    0.27
  -4   7  11    0.81    0.26
   4   7 -11    0.63    0.22
   4   7 -11    1.13    0.23
   4   7 -11    0.93    0.32
  -4   7  11    0.95    0.26
  -3  -7  11    4.38    0.63
   3  -7 -11    5.36    0.53
   3  -7 -11    4.29    0.48
  -3  -7  11    4.22    0.42
   3  -7 -11    4.98    0.46
   3   7 -11    5.32    0.44
   3   7 -11    4.88    0.70
   3   7 -11    4.87    0.48
  -3   7  11    4.10    0.40
   3   7 -11    4.96    0.42
   3   7 -11    4.91    0.41
  -3   7  11    4.45    0.42
   2  -7 -11    2.58    0.41
  -2  -7  11    2.37    0.36
   2  -7 -11    2.33    0.38
   2  -7 -11    3.16    0.49
  -2  -7  11    3.17    0.58
   2   7 -11    2.30    0.44
   2   7 -11    2.42    0.36
   2   7 -11    2.91    0.40
   2   7 -11    3.12    0.33
  -2   7  11    2.91    0.42
   2   7 -11    3.15    0.37
  -1  -7  11    3.74    0.60
   1  -7 -11    3.64    0.46
  -1  -7  11    3.62    0.44
   1  -7 -11    3.22    0.42
   1  -7 -11    4.43    0.49
   1   7 -11    2.76    0.47
  -1   7  11    3.11    0.40
   1   7 -11    3.28    0.35
   1   7 -11    3.32    0.45
   1   7 -11    4.01    0.45
   0  -7 -11    1.22    0.30
   0  -7 -11    3.00    0.45
   0  -7  11    2.22    0.33
   0  -7  11    1.39    0.37
   0  -7 -11    2.59    0.37
   0   7 -11    2.14    0.43
   0   7 -11    2.38    0.41
   0   7 -11    1.91    0.30
  10   0 -12    2.38    0.40
  10   0 -12    3.05    0.46
 -10   0  12    2.09    0.41
 -10   0  12    3.18    0.40
 -10   0  12    2.22    0.31
  10   0 -12    2.33    0.43
  -9   0  12    1.97    0.30
   9   0 -12    1.01    0.25
   9   0 -12    1.32    0.33
  -9   0  12    2.72    0.49
   9   0 -12    1.68    0.34
  -9   0  12    1.25    0.33
  -9   0  12    1.49    0.28
   8   0 -12    5.17    0.47
   8   0 -12    5.27    0.48
  -8   0  12    4.91    0.51
  -8   0  12    5.24    0.76
  -8   0  12    5.33    0.34
   8   0 -12    4.43    0.49
  -8   0  12    5.05    0.51
  -7   0  12    9.42    0.68
   7   0 -12    9.47    0.69
   7   0 -12    9.69    0.67
   7   0 -12    9.53    0.65
  -7   0  12    8.76    0.64
  -7   0  12    9.02    0.65
   6   0 -12   34.45    1.44
   6   0 -12   33.53    1.37
  -6   0  12   33.30    1.40
   6   0 -12   35.66    1.43
  -6   0  12   34.15    1.37
  -6   0  12   35.82    1.43
   5   0 -12   24.82    1.10
  -5   0  12   23.18    1.07
  -5   0  12   22.64    1.04
   5   0 -12   23.76    1.12
  -5   0  12   23.00    1.09
   5   0 -12   26.42    1.17
  -4   0  12   51.18    1.80
   4   0 -12   50.16    1.75
   4   0 -12   48.55    1.76
   4   0 -12   48.81    1.80
  -4   0  12   51.57    1.87
  -4   0  12   50.75    1.85
   3   0 -12   20.64    1.02
  -3   0  12   21.23    0.99
   3   0 -12   19.04    0.94
  -3   0  12   20.58    0.94
   3   0 -12   20.09    0.95
   2   0 -12   37.33    1.50
  -2   0  12   39.97    1.41
  -2   0  12   38.45    1.48
   2   0 -12   36.64    1.43
  -1   0  12   13.40    0.66
   1   0 -12   13.14    0.82
  -1   0  12   11.98    0.73
   1   0 -12   13.60    0.78
   0   0 -12   14.32    0.83
   0   0 -12   16.02    0.91
   0   0  12   16.66    0.71
   0   0  12   16.30    0.88
   0   0 -12   15.50    0.88
   1   0  12    3.43    0.31
  -1   0 -12    2.92    0.48
   1   0  12    2.72    0.25
   1   0  12    2.95    0.45
  -1   0 -12    2.91    0.43
  -2   0 -12    1.90    0.37
  -2   0 -12    1.69    0.40
  -3   0 -12    2.90    0.45
  -3   0 -12    3.80    0.55
  -4   0 -12    0.46    0.24
  -4   0 -12    0.19    0.17
  10  -1 -12   13.74    0.96
  10  -1 -12   15.31    0.94
 -10  -1  12   16.04    1.00
 -10  -1  12   14.86    0.76
 -10  -1  12   15.47    0.76
  10  -1 -12   16.22    0.90
 -10   1  12   16.86    1.02
  10   1 -12   17.07    0.99
  10   1 -12   16.06    1.02
 -10   1  12   16.25    0.77
  10   1 -12   17.52    0.94
  -9  -1  12   22.96    0.93
  -9  -1  12   24.94    1.25
   9  -1 -12   24.64    1.11
   9  -1 -12   24.79    1.21
  -9  -1  12   25.43    0.94
   9  -1 -12   22.62    1.21
   9   1 -12   25.06    1.19
   9   1 -12   22.79    1.22
  -9   1  12   24.48    1.22
   9   1 -12   21.64    1.09
  -9   1  12   23.21    0.93
  -9   1  12   22.55    1.11
  -8  -1  12   16.54    0.91
   8  -1 -12   18.03    1.01
  -8  -1  12   16.28    0.96
   8  -1 -12   18.03    0.89
   8  -1 -12   17.62    0.97
  -8  -1  12   15.78    0.93
   8   1 -12   17.36    1.00
   8   1 -12   16.78    0.92
  -8   1  12   16.96    0.88
  -8   1  12   16.86    0.96
   8   1 -12   17.63    0.95
   7  -1 -12    9.54    0.60
  -7  -1  12    9.22    0.69
   7  -1 -12    9.54    0.70
  -7  -1  12   10.11    0.73
   7  -1 -12    9.21    0.66
  -7  -1  12   10.17    0.67
  -7   1  12    9.06    0.63
  -7   1  12    9.03    0.77
   7   1 -12    9.33    0.67
  -7   1  12   11.24    0.74
   7   1 -12    9.89    0.66
   7   1 -12    9.23    0.66
  -6  -1  12    7.39    0.60
   6  -1 -12    8.30    0.57
  -6  -1  12    8.35    0.60
  -6  -1  12    7.87    0.62
   6  -1 -12    7.44    0.60
   6  -1 -12    8.44    0.64
  -6   1  12    7.88    0.60
   6   1 -12    8.47    0.60
  -6   1  12    7.86    0.62
  -6   1  12    9.02    0.59
   6   1 -12    8.93    0.63
   6   1 -12    9.65    0.66
   6   1 -12    8.17    0.62
   5  -1 -12    3.78    0.41
  -5  -1  12    3.47    0.40
  -5  -1  12    3.59    0.42
   5  -1 -12    3.57    0.35
  -5  -1  12    2.11    0.35
   5  -1 -12    3.02    0.44
   5   1 -12    3.56    0.49
  -5   1  12    4.01    0.41
  -5   1  12    3.20    0.49
   5   1 -12    3.84    0.41
   5   1 -12    4.28    0.44
  -5   1  12    3.50    0.37
   5   1 -12    3.80    0.41
  -4  -1  12    1.81    0.32
   4  -1 -12    2.67    0.31
   4  -1 -12    2.16    0.34
  -4  -1  12    3.07    0.42
   4  -1 -12    2.23    0.37
  -4   1  12    2.44    0.35
  -4   1  12    2.23    0.35
   4   1 -12    2.23    0.34
  -4   1  12    3.22    0.42
   4   1 -12    3.00    0.36
   4   1 -12    2.80    0.34
   3  -1 -12    4.07    0.44
   3  -1 -12    4.19    0.38
   3  -1 -12    3.57    0.38
  -3  -1  12    4.01    0.43
  -3   1  12    3.25    0.36
   3   1 -12    4.08    0.41
  -3   1  12    3.83    0.38
  -3   1  12    3.58    0.51
   3   1 -12    3.91    0.42
   2  -1 -12    7.56    0.53
  -2  -1  12    6.57    0.54
   2  -1 -12    7.55    0.53
  -2  -1  12    7.37    0.53
   2  -1 -12    7.02    0.58
   2   1 -12    6.74    0.57
  -2   1  12    6.57    0.50
   2   1 -12    7.21    0.56
  -2   1  12    7.11    0.47
  -1  -1  12   14.77    0.75
  -1  -1  12   15.07    0.85
   1  -1 -12   14.95    0.75
   1  -1 -12   15.18    0.88
   1  -1 -12   15.06    0.79
  -1   1  12   14.37    0.66
  -1   1  12   14.59    0.78
   1   1 -12   15.08    0.87
   1   1 -12   14.18    0.84
   0  -1  12   20.28    1.03
   0  -1 -12   17.93    1.00
   0  -1 -12   19.59    0.95
   0  -1  12   20.02    0.86
   0   1 -12   20.15    1.02
   0   1 -12   18.68    0.98
   0   1  12   20.19    0.75
   0   1 -12   19.18    1.02
   0   1  12   19.56    0.95
  -1  -1 -12   15.98    0.96
   1  -1  12   17.37    0.74
  -1  -1 -12   15.66    0.86
   1  -1  12   16.71    0.95
  -1   1 -12   15.77    0.95
  -1   1 -12   17.01    0.95
  -2  -1 -12   20.87    1.03
  -2  -1 -12   17.62    1.04
   2  -1  12   20.21    0.75
  -2   1 -12   18.75    1.05
  -2   1 -12   18.65    1.06
  -3  -1 -12   21.95    1.13
  -3  -1 -12   22.50    1.19
  -3   1 -12   21.49    1.19
  -3   1 -12   20.98    1.19
  -4  -1 -12   12.52    0.87
  -4  -1 -12   11.71    0.83
  -4   1 -12   10.80    0.86
  -4   1 -12   10.63    0.83
  -4   1 -12   11.43    0.51
 -10  -2  12    1.13    0.23
 -10  -2  12    1.46    0.38
  10  -2 -12    0.86    0.28
  10  -2 -12    0.83    0.22
  10  -2 -12    1.34    0.35
 -10  -2  12    0.65    0.23
  10   2 -12    0.85    0.25
 -10   2  12    0.89    0.22
 -10   2  12    0.91    0.32
 -10   2  12    0.61    0.27
  10   2 -12    0.58    0.22
  -9  -2  12    2.23    0.32
  -9  -2  12    2.40    0.32
   9  -2 -12    2.47    0.36
  -9  -2  12    2.38    0.42
  -9  -2  12    2.15    0.40
   9  -2 -12    2.42    0.40
   9  -2 -12    2.17    0.41
  -9   2  12    2.62    0.40
  -9   2  12    2.12    0.32
  -9   2  12    2.54    0.40
   9   2 -12    2.18    0.37
   8  -2 -12    3.75    0.45
  -8  -2  12    3.26    0.28
   8  -2 -12    3.11    0.35
  -8  -2  12    3.37    0.50
   8  -2 -12    3.46    0.54
  -8  -2  12    3.21    0.45
   8   2 -12    2.60    0.40
  -8   2  12    4.47    0.60
  -8   2  12    3.38    0.38
   8   2 -12    3.38    0.38
  -8   2  12    3.75    0.30
   7  -2 -12   18.21    0.83
  -7  -2  12   16.58    0.97
  -7  -2  12   16.06    0.87
  -7  -2  12   16.98    0.98
   7  -2 -12   17.92    0.99
   7  -2 -12   18.07    1.01
  -7   2  12   16.70    0.83
  -7   2  12   18.75    0.97
   7   2 -12   16.76    0.97
   7   2 -12   18.06    0.91
   6  -2 -12   15.72    0.75
  -6  -2  12   14.28    0.87
   6  -2 -12   15.51    0.90
   6  -2 -12   15.35    0.89
  -6  -2  12   14.44    0.88
  -6  -2  12   15.96    0.84
   6   2 -12   16.18    0.90
   6   2 -12   15.88    0.84
  -6   2  12   13.31    0.71
  -6   2  12   15.69    0.84
   6   2 -12   15.33    0.89
   5  -2 -12   32.98    1.19
  -5  -2  12   31.76    1.35
  -5  -2  12   28.26    1.32
   5  -2 -12   29.90    1.30
   5  -2 -12   31.56    1.37
   5   2 -12   31.21    1.32
   5   2 -12   30.94    1.37
   5   2 -12   30.41    1.29
  -5   2  12   30.56    1.16
  -5   2  12   31.55    1.37
   4  -2 -12   18.12    0.98
  -4  -2  12   19.60    0.97
   4  -2 -12   19.32    0.84
   4  -2 -12   19.12    0.94
  -4  -2  12   18.91    0.99
  -4   2  12   19.35    0.83
  -4   2  12   15.68    0.83
   4   2 -12   17.67    0.92
  -4   2  12   17.92    0.96
   4   2 -12   20.00    0.98
   4   2 -12   18.66    1.00
   3  -2 -12   46.34    1.78
  -3  -2  12   46.13    1.76
   3  -2 -12   47.53    1.68
  -3  -2  12   47.08    1.70
   3  -2 -12   47.07    1.58
   3   2 -12   48.56    1.79
   3   2 -12   46.75    1.67
  -3   2  12   46.69    1.58
   3   2 -12   46.33    1.73
  -3   2  12   47.05    1.56
  -3   2  12   46.27    1.76
  -2  -2  12   14.41    0.77
   2  -2 -12   14.54    0.86
   2  -2 -12   14.58    0.76
   2  -2 -12   13.39    0.69
  -2  -2  12   12.44    0.80
  -2   2  12   13.09    0.68
   2   2 -12   13.81    0.81
   2   2 -12   13.28    0.81
   2   2 -12   13.69    0.72
  -2   2  12   13.72    0.66
  -1  -2  12   15.65    0.82
   1  -2 -12   17.83    0.82
  -1  -2  12   17.78    0.96
   1  -2 -12   17.41    0.82
   1  -2 -12   16.68    0.95
   1   2 -12   17.23    0.93
   1   2 -12   17.63    0.81
   1   2 -12   16.01    0.88
  -1   2  12   17.43    0.82
   1   2 -12   17.91    0.98
  -1   2  12   16.64    0.68
   0  -2  12    6.85    0.49
   0  -2  12    6.53    0.57
   0  -2 -12    6.22    0.49
   0  -2 -12    7.22    0.60
   0  -2 -12    6.40    0.44
   0   2 -12    7.12    0.61
   0   2  12    6.67    0.32
   0   2 -12    6.81    0.58
   0   2 -12    7.62    0.48
   0   2 -12    7.03    0.58
  -1  -2 -12    4.55    0.50
  -1  -2 -12    4.30    0.42
   1  -2  12    4.85    0.39
  -1   2 -12    4.98    0.51
  -1   2 -12    4.57    0.36
  -1   2 -12    4.84    0.51
  -2  -2 -12    1.38    0.28
  -2  -2 -12    0.78    0.25
   2  -2  12    1.09    0.22
  -2   2 -12    1.29    0.22
  -2   2 -12    0.99    0.28
  -2   2 -12    1.25    0.30
   3  -2  12    1.31    0.21
  -3  -2 -12    1.12    0.30
  -3  -2 -12    1.25    0.31
  -3   2 -12    0.59    0.26
  -3   2 -12    1.17    0.18
  -3   2 -12    0.76    0.25
  -4  -2 -12    5.89    0.62
  -4  -2 -12    6.36    0.61
  -4   2 -12    6.99    0.66
  -4   2 -12    7.38    0.68
   9  -3 -12   10.64    0.62
   9  -3 -12   10.26    0.76
  -9  -3  12    9.78    0.78
  -9  -3  12    9.84    0.58
   9  -3 -12    9.48    0.59
  -9  -3  12   10.54    0.69
  -9  -3  12   10.06    0.59
   9  -3 -12    9.93    0.78
   9   3 -12    8.60    0.72
  -9   3  12   10.89    0.81
   9   3 -12   10.52    0.65
  -9   3  12    9.81    0.62
  -9   3  12   11.02    0.60
  -8  -3  12   10.26    0.68
  -8  -3  12   10.57    0.78
   8  -3 -12   10.17    0.55
   8  -3 -12   10.61    0.80
   8  -3 -12   11.45    0.78
  -8  -3  12   10.64    0.55
  -8  -3  12   10.64    0.53
   8  -3 -12   10.62    0.60
  -8   3  12   11.01    0.57
   8   3 -12   10.90    0.66
   8   3 -12   11.72    0.82
  -8   3  12   10.82    0.76
  -8   3  12   10.31    0.61
   7  -3 -12    9.06    0.52
  -7  -3  12    9.32    0.71
   7  -3 -12    9.77    0.72
   7  -3 -12    9.79    0.72
   7  -3 -12    8.59    0.46
   7   3 -12    8.73    0.60
  -7   3  12    8.74    0.54
  -7   3  12   10.01    0.69
   7   3 -12    9.76    0.72
   6  -3 -12    5.77    0.40
  -6  -3  12    6.30    0.58
   6  -3 -12    6.05    0.55
   6  -3 -12    5.57    0.55
  -6   3  12    5.62    0.51
  -6   3  12    5.97    0.41
   6   3 -12    6.03    0.48
   6   3 -12    5.42    0.50
   6   3 -12    5.53    0.53
   5  -3 -12    3.84    0.44
   5  -3 -12    4.47    0.33
  -5  -3  12    3.97    0.46
  -5  -3  12    4.07    0.48
   5  -3 -12    4.07    0.42
   5   3 -12    4.03    0.46
   5   3 -12    2.99    0.41
   5   3 -12    4.38    0.46
  -5   3  12    3.19    0.31
  -5   3  12    4.61    0.44
  -4  -3  12    0.95    0.26
   4  -3 -12    1.16    0.29
  -4  -3  12    1.07    0.28
   4  -3 -12    1.56    0.32
   4  -3 -12    1.57    0.25
   4   3 -12    1.47    0.31
   4   3 -12    1.57    0.32
  -4   3  12    1.22    0.24
  -4   3  12    1.58    0.25
   4   3 -12    1.56    0.34
  -3  -3  12    2.90    0.43
   3  -3 -12    2.80    0.40
  -3  -3  12    3.40    0.51
   3  -3 -12    1.87    0.33
   3  -3 -12    2.95    0.29
  -3   3  12    2.79    0.51
   3   3 -12    3.20    0.48
   3   3 -12    2.79    0.40
  -3   3  12    2.62    0.35
   3   3 -12    2.35    0.37
  -3   3  12    2.80    0.28
  -2  -3  12    3.88    0.47
   2  -3 -12    4.28    0.36
   2  -3 -12    4.44    0.42
  -2  -3  12    3.79    0.43
   2  -3 -12    4.82    0.48
  -2   3  12    4.36    0.80
  -2   3  12    4.09    0.36
  -2   3  12    4.52    0.36
   2   3 -12    4.05    0.43
   2   3 -12    4.70    0.48
   2   3 -12    4.44    0.40
   2   3 -12    4.29    0.44
   1  -3 -12   13.42    0.84
  -1  -3  12   12.30    0.74
   1  -3 -12   13.75    0.71
   1  -3 -12   13.04    0.66
  -1  -3  12   15.20    1.28
   1   3 -12   13.38    0.69
   1   3 -12   13.04    0.85
   1   3 -12   13.78    0.83
   1   3 -12   13.61    0.79
  -1   3  12   12.25    0.54
   0  -3  12   15.94    0.83
   0  -3 -12   15.93    0.73
   0  -3 -12   15.12    0.91
   0  -3 -12   16.23    0.77
   0   3 -12   15.02    0.90
   0   3 -12   14.72    0.99
   0   3 -12   13.98    0.68
   0   3 -12   14.45    0.91
  -1  -3 -12   15.86    0.79
  -1  -3 -12   14.81    0.90
   1  -3  12   15.44    0.80
  -1   3 -12   15.18    0.93
  -1   3 -12   14.00    0.64
  -1   3 -12   13.09    0.88
  -2  -3 -12   13.66    0.88
  -2  -3 -12   11.91    0.72
  -2  -3 -12   10.57    0.69
   2  -3  12   13.48    0.72
  -2   3 -12   12.84    0.52
  -2   3 -12   12.83    0.88
  -2   3 -12   12.88    0.90
  -3  -3 -12    8.42    0.67
   3  -3  12    7.66    0.52
  -3  -3 -12    8.25    0.63
  -3  -3 -12    8.38    0.62
  -3   3 -12    8.93    0.75
  -3   3 -12    7.84    0.70
  -9  -4  12    0.36    0.21
  -9  -4  12    0.50    0.21
   9  -4 -12    0.17    0.28
   9  -4 -12    0.91    0.26
   9  -4 -12    0.56    0.18
  -9  -4  12    0.30    0.27
   9  -4 -12    0.43    0.24
  -9   4  12    0.24    0.20
   9   4 -12    0.55    0.21
   9   4 -12    0.48    0.21
  -9   4  12    0.70    0.19
  -9   4  12    0.16    0.28
   8  -4 -12    2.73    0.44
  -8  -4  12    4.08    0.39
  -8  -4  12    3.91    0.57
   8  -4 -12    4.34    0.40
   8  -4 -12    4.40    0.58
   8  -4 -12    3.88    0.33
  -8  -4  12    4.17    0.39
  -8   4  12    4.65    0.39
  -8   4  12    5.23    0.40
   8   4 -12    3.22    0.48
   8   4 -12    3.69    0.37
  -8   4  12    4.66    0.60
  -7  -4  12    3.72    0.53
   7  -4 -12    4.56    0.33
  -7  -4  12    3.51    0.33
   7  -4 -12    4.89    0.50
  -7  -4  12    3.64    0.33
   7  -4 -12    4.21    0.36
   7  -4 -12    4.32    0.57
   7   4 -12    4.20    0.50
  -7   4  12    4.22    0.55
  -7   4  12    4.25    0.34
   7   4 -12    3.84    0.39
  -7   4  12    3.99    0.34
   6  -4 -12   19.71    1.07
  -6  -4  12   18.54    1.03
   6  -4 -12   19.07    0.77
   6  -4 -12   20.10    1.06
   6  -4 -12   19.11    0.72
  -6   4  12   17.90    1.17
   6   4 -12   18.80    1.07
  -6   4  12   18.95    0.71
   6   4 -12   20.67    0.94
   5  -4 -12   11.73    0.79
   5  -4 -12   12.57    0.51
  -5  -4  12   13.80    0.83
   5  -4 -12   11.89    0.76
   5   4 -12   10.42    0.66
  -5   4  12   10.33    0.68
  -5   4  12   11.15    0.50
   5   4 -12   13.00    0.85
   5   4 -12   11.64    0.75
   4  -4 -12   20.50    1.05
  -4  -4  12   19.84    1.05
   4  -4 -12   16.48    0.66
   4  -4 -12   19.83    0.99
   4   4 -12   20.06    0.93
   4   4 -12   18.88    1.06
  -4   4  12   20.79    0.72
   4   4 -12   17.08    0.92
   4   4 -12   20.20    0.94
  -4   4  12   18.75    0.90
  -3  -4  12    7.02    0.60
   3  -4 -12    6.91    0.60
   3  -4 -12    6.67    0.53
   3  -4 -12    7.14    0.38
   3   4 -12    7.93    0.66
   3   4 -12    8.21    0.56
  -3   4  12    8.38    0.52
   3   4 -12    6.41    0.53
   3   4 -12    7.91    0.57
   2  -4 -12   13.39    0.86
  -2  -4  12   14.29    0.85
   2  -4 -12   16.01    0.81
   2  -4 -12   14.77    0.62
   2   4 -12   15.31    0.77
   2   4 -12   14.80    0.83
   2   4 -12   14.79    0.93
  -2   4  12   12.79    0.60
   2   4 -12   13.26    0.78
   1  -4 -12    7.00    0.49
  -1  -4  12    6.93    0.57
   1  -4 -12    7.19    0.43
   1  -4 -12    6.70    0.58
  -1   4  12    7.04    0.36
   1   4 -12    6.48    0.56
   1   4 -12    6.54    0.47
   1   4 -12    6.98    0.63
   1   4 -12    7.18    0.57
   0  -4 -12    8.68    0.51
   0  -4 -12    9.94    0.56
   0  -4  12    8.40    0.64
   0  -4 -12    8.86    0.67
   0  -4 -12    8.38    0.49
   0   4 -12    8.58    0.67
   0   4 -12    9.23    0.51
   0   4 -12    8.93    0.71
  -1  -4 -12    1.79    0.38
  -1  -4 -12    1.88    0.29
  -1  -4 -12    1.61    0.27
   1  -4  12    1.64    0.33
  -1  -4 -12    2.03    0.27
  -1   4 -12    2.01    0.43
  -1   4 -12    1.99    0.42
  -1   4 -12    1.87    0.22
  -2  -4 -12    0.74    0.18
  -2  -4 -12    0.29    0.19
  -2  -4 -12    0.20    0.21
  -2   4 -12    0.24    0.19
  -2   4 -12    0.31    0.20
  -3  -4 -12    2.27    0.41
  -3  -4 -12    2.62    0.34
   3  -4  12    2.35    0.38
  -3  -4 -12    2.67    0.43
  -3  -4 -12    2.58    0.41
  -3  -4 -12    2.81    0.31
  -3   4 -12    2.01    0.44
  -3   4 -12    2.10    0.45
  -8  -5  12    4.05    0.42
   8  -5 -12    5.01    0.68
   8  -5 -12    4.56    0.47
  -8  -5  12    5.34    0.61
  -8  -5  12    5.65    0.46
   8  -5 -12    4.82    0.54
  -8   5  12    4.51    0.40
   8   5 -12    3.62    0.53
   8   5 -12    5.06    0.42
   7  -5 -12    3.27    0.50
  -7  -5  12    4.27    0.39
  -7  -5  12    3.83    0.55
  -7  -5  12    4.16    0.39
   7  -5 -12    2.97    0.46
   7  -5 -12    3.66    0.38
   7   5 -12    3.79    0.36
   7   5 -12    4.21    0.49
  -7   5  12    4.31    0.38
  -6  -5  12    2.81    0.47
  -6  -5  12    2.53    0.28
   6  -5 -12    2.62    0.43
  -6  -5  12    2.54    0.30
   6  -5 -12    2.16    0.42
   6  -5 -12    3.08    0.37
   6   5 -12    2.97    0.40
  -6   5  12    2.46    0.40
   6   5 -12    3.08    0.40
   6   5 -12    2.71    0.51
  -6   5  12    2.80    0.29
   5  -5 -12    1.56    0.27
  -5  -5  12    2.10    0.42
   5  -5 -12    1.87    0.33
   5  -5 -12    1.20    0.31
   5   5 -12    1.62    0.29
  -5   5  12    1.55    0.33
  -5   5  12    1.65    0.24
   5   5 -12    1.46    0.33
   5   5 -12    2.46    0.35
   5   5 -12    1.57    0.54
   4  -5 -12    2.47    0.27
   4  -5 -12    2.34    0.40
  -4  -5  12    2.24    0.44
   4  -5 -12    1.64    0.36
   4   5 -12    2.48    0.41
  -4   5  12    2.02    0.33
   4   5 -12    2.13    0.35
  -4   5  12    2.27    0.24
   4   5 -12    2.08    0.34
   4   5 -12    2.25    0.43
   3  -5 -12    0.92    0.25
   3  -5 -12    1.51    0.34
  -3  -5  12    1.05    0.30
   3   5 -12    1.04    0.26
  -3   5  12    1.46    0.21
  -3   5  12    1.05    0.23
   3   5 -12    1.26    0.28
   3   5 -12    0.70    0.29
   3   5 -12    1.55    0.32
   2  -5 -12    8.18    0.65
  -2  -5  12    8.44    0.69
   2  -5 -12    9.38    0.61
   2   5 -12    7.42    0.58
   2   5 -12    9.73    0.65
   2   5 -12    7.91    0.70
   2   5 -12    8.10    0.55
  -2   5  12    7.67    0.45
   1  -5 -12    7.19    0.50
   1  -5 -12    5.91    0.58
  -1  -5  12    6.14    0.58
   1   5 -12    7.40    0.67
   1   5 -12    7.33    0.58
   1   5 -12    6.65    0.46
   1   5 -12    6.51    0.57
   0  -5 -12    6.28    0.37
   0  -5 -12    6.51    0.58
   0  -5 -12    6.20    0.36
   0   5 -12    7.24    0.60
   0   5 -12    6.29    0.40
   0   5 -12    5.09    0.59
  -1  -5 -12    5.81    0.57
  -1  -5 -12    6.82    0.42
  -1  -5 -12    5.80    0.41
  -1  -5 -12    5.72    0.40
  -1  -5 -12    6.54    0.43
  -1  -5 -12    6.53    0.43
   1  -5  12    0.37    0.22
  -1   5 -12    6.42    0.65
  -1   5 -12    7.01    0.63
  -2  -5 -12    4.76    0.41
  -2  -5 -12    4.82    0.51
   2  -5  12   -0.31    0.21
  -2  -5 -12    5.22    0.40
  -2  -5 -12    4.93    0.42
  -2  -5 -12    5.88    0.42
  -2  -5 -12    5.36    0.35
  -2   5 -12    5.10    0.60
  -2   5 -12    5.37    0.62
  -6  -6  12    3.26    0.54
   6  -6 -12    3.13    0.49
  -6  -6  12    2.59    0.35
   6  -6 -12    2.52    0.47
   6  -6 -12    2.91    0.40
  -6  -6  12    3.09    0.38
  -6   6  12    3.10    0.35
   6   6 -12    2.89    0.34
   6   6 -12    2.50    0.47
   6   6 -12    2.81    0.38
  -5  -6  12   11.10    0.85
   5  -6 -12   10.93    0.62
   5  -6 -12   10.00    0.76
  -5  -6  12   10.58    0.58
   5  -6 -12   10.35    0.76
   5   6 -12   11.72    0.65
   5   6 -12   11.26    0.82
  -5   6  12   11.14    0.59
   5   6 -12   11.23    0.63
  -4  -6  12    4.35    0.61
   4  -6 -12    3.59    0.51
  -4  -6  12    4.43    0.37
   4  -6 -12    4.22    0.49
   4  -6 -12    3.98    0.38
   4   6 -12    4.36    0.42
  -4   6  12    4.87    0.39
  -4   6  12    4.55    0.45
   4   6 -12    3.58    0.47
   4   6 -12    3.47    0.37
   4   6 -12    3.22    0.50
   3  -6 -12    3.14    0.34
  -3  -6  12    2.68    0.29
   3  -6 -12    3.77    0.44
   3  -6 -12    2.64    0.43
  -3  -6  12    2.38    0.46
   3   6 -12    3.25    0.45
   3   6 -12    3.14    0.43
   3   6 -12    2.39    0.40
  -3   6  12    3.60    0.35
   3   6 -12    3.18    0.43
  -3   6  12    3.29    0.37
   2  -6 -12    2.76    0.32
   2  -6 -12    2.80    0.45
   2  -6 -12    2.92    0.43
  -2  -6  12    2.76    0.47
   2   6 -12    3.03    0.43
  -2   6  12    2.86    0.35
   2   6 -12    1.98    0.42
   2   6 -12    3.29    0.39
  -2   6  12    2.68    0.30
   2   6 -12    3.38    0.43
   1  -6 -12    7.42    0.54
  -1  -6  12    6.66    0.67
   1  -6 -12    6.86    0.61
   1  -6 -12    6.51    0.47
   1   6 -12    6.01    0.65
   1   6 -12    7.33    0.59
   1   6 -12    6.74    0.49
   1   6 -12    7.05    0.41
   0  -6 -12    1.69    0.29
   0  -6 -12    1.59    0.34
   0  -6  12    1.54    0.27
   0  -6 -12    1.39    0.27
   0  -6  12   -0.21    0.23
   0   6 -12    1.47    0.25
   0   6 -12    1.44    0.42
   0   6 -12    1.42    0.26
   0   6 -12    0.97    0.27
   9   0 -13   -0.22    0.22
   9   0 -13    0.07    0.19
   9   0 -13   -0.16    0.14
   8   0 -13   -0.51    0.16
  -8   0  13    0.26    0.20
   8   0 -13   -0.09    0.12
  -8   0  13   -0.15    0.16
   8   0 -13   -0.16    0.16
  -7   0  13    0.07    0.18
   7   0 -13   -0.06    0.11
   7   0 -13   -0.02    0.14
   7   0 -13   -0.23    0.16
  -7   0  13   -0.24    0.15
   6   0 -13    0.22    0.18
   6   0 -13    0.06    0.11
  -6   0  13   -0.07    0.14
   6   0 -13    0.01    0.11
  -6   0  13    0.19    0.17
  -5   0  13   -0.04    0.15
  -5   0  13   -0.02    0.13
   5   0 -13    0.20    0.18
   5   0 -13    0.04    0.13
   5   0 -13    0.08    0.13
   4   0 -13   -0.03    0.11
   4   0 -13    0.01    0.10
  -4   0  13   -0.20    0.10
  -4   0  13   -0.17    0.15
   4   0 -13    0.06    0.14
   3   0 -13    0.08    0.15
  -3   0  13   -0.13    0.14
  -3   0  13    0.00    0.12
   3   0 -13   -0.01    0.11
   2   0 -13    0.03    0.13
  -2   0  13    0.13    0.14
   2   0 -13    0.13    0.11
  -2   0  13    0.08    0.15
   1   0 -13    0.29    0.18
  -1   0  13   -0.05    0.10
   1   0 -13    0.04    0.11
  -1   0  13   -0.09    0.14
   0   0 -13    0.25    0.16
   0   0  13    0.23    0.13
   0   0  13    0.13    0.20
   0   0 -13   -0.04    0.15
   1   0  13    0.03    0.10
   1   0  13    0.15    0.28
  -1   0 -13   -0.06    0.14
  -1   0 -13   -0.09    0.13
  -2   0 -13   -0.12    0.14
  -2   0 -13    0.03    0.14
  -3   0 -13    0.12    0.21
  -3   0 -13   -0.23    0.13
   9  -1 -13    1.20    0.35
  -9  -1  13    0.31    0.25
   9  -1 -13    1.21    0.32
   9  -1 -13    0.93    0.27
  -9   1  13    1.14    0.24
   9   1 -13    0.58    0.29
  -9   1  13    1.41    0.37
   9   1 -13    1.14    0.31
  -9   1  13    0.62    0.17
  -9   1  13    1.19    0.29
   9   1 -13    1.01    0.27
   8  -1 -13    1.10    0.26
  -8  -1  13    0.90    0.28
   8  -1 -13    0.90    0.31
   8  -1 -13    1.50    0.35
   8   1 -13    0.81    0.26
   8   1 -13    1.02    0.27
  -8   1  13    0.78    0.27
   8   1 -13    0.70    0.27
  -8   1  13    0.53    0.24
   7  -1 -13    1.48    0.31
   7  -1 -13    2.01    0.38
  -7  -1  13    2.00    0.41
  -7  -1  13    1.94    0.40
   7  -1 -13    2.46    0.38
   7   1 -13    1.85    0.33
   7   1 -13    1.98    0.38
   7   1 -13    2.61    0.46
  -7   1  13    1.48    0.31
  -7   1  13    2.08    0.40
   6  -1 -13    0.23    0.15
  -6  -1  13    0.45    0.19
   6  -1 -13    0.22    0.19
  -6  -1  13    0.56    0.24
  -6  -1  13    0.25    0.17
   6  -1 -13    0.23    0.15
   6   1 -13    0.14    0.14
  -6   1  13    0.35    0.16
  -6   1  13    0.07    0.18
   6   1 -13    0.18    0.20
   6   1 -13    0.21    0.14
  -5  -1  13    1.23    0.29
  -5  -1  13    1.28    0.33
   5  -1 -13    1.01    0.25
   5  -1 -13    0.29    0.18
   5  -1 -13    1.17    0.28
  -5   1  13    1.12    0.26
   5   1 -13    0.71    0.22
   5   1 -13    1.11    0.30
   5   1 -13    0.68    0.21
   4  -1 -13    1.59    0.30
   4  -1 -13    1.58    0.37
   4  -1 -13    1.67    0.33
  -4  -1  13    1.38    0.33
  -4  -1  13    1.58    0.34
   4   1 -13    1.44    0.29
   4   1 -13    1.93    0.37
   4   1 -13    1.88    0.34
  -4   1  13    2.26    0.35
  -4   1  13    1.53    0.32
  -3  -1  13    3.43    0.39
   3  -1 -13    3.14    0.42
   3  -1 -13    3.17    0.35
  -3  -1  13    3.13    0.46
   3  -1 -13    3.77    0.54
   3   1 -13    3.32    0.50
   3   1 -13    3.23    0.38
  -3   1  13    3.54    0.38
  -3   1  13    3.08    0.37
   2  -1 -13    0.61    0.21
   2  -1 -13    0.18    0.14
  -2  -1  13    0.38    0.18
   2  -1 -13    0.39    0.14
  -2  -1  13    0.72    0.25
  -2   1  13    0.81    0.21
  -2   1  13    0.70    0.23
   2   1 -13    0.29    0.17
   2   1 -13    0.91    0.24
  -1  -1  13    0.10    0.15
   1  -1 -13    0.44    0.16
   1  -1 -13    0.33    0.18
  -1  -1  13    0.10    0.19
  -1   1  13    0.41    0.17
   1   1 -13    0.33    0.15
   1   1 -13    0.23    0.19
  -1   1  13    0.19    0.14
   0  -1 -13    0.74    0.30
   0  -1 -13    0.57    0.18
   0  -1  13    0.69    0.19
   0   1 -13    0.53    0.22
   0   1  13    0.45    0.14
   0   1  13    0.60    0.25
   0   1 -13    0.38    0.19
  -1  -1 -13    0.99    0.30
   1  -1  13    0.90    0.20
  -1  -1 -13    1.15    0.32
  -1   1 -13    1.03    0.28
  -1   1 -13    0.53    0.24
   2  -1  13    1.05    0.19
  -2  -1 -13    0.97    0.26
  -2  -1 -13    1.05    0.27
  -2   1 -13    0.61    0.25
  -2   1 -13    1.18    0.32
  -3  -1 -13    0.70    0.25
  -3  -1 -13    0.31    0.21
  -3   1 -13    0.49    0.28
  -3   1 -13    0.78    0.29
   9  -2 -13    0.04    0.14
  -9  -2  13    0.01    0.15
   9  -2 -13    0.02    0.17
   9  -2 -13   -0.14    0.23
  -9  -2  13   -0.14    0.20
  -9  -2  13    0.13    0.15
   9   2 -13    0.14    0.17
  -9   2  13    0.26    0.21
  -9   2  13    0.05    0.12
   9   2 -13   -0.10    0.16
  -9   2  13    0.36    0.27
   8  -2 -13   -0.16    0.21
   8  -2 -13   -0.19    0.13
   8  -2 -13    0.32    0.15
  -8  -2  13   -0.07    0.20
  -8   2  13    0.18    0.21
  -8   2  13   -0.05    0.22
   8   2 -13   -0.08    0.12
   8   2 -13   -0.11    0.14
   7  -2 -13   -0.02    0.14
  -7  -2  13    0.07    0.18
  -7  -2  13    0.23    0.21
   7  -2 -13    0.02    0.20
   7  -2 -13    0.10    0.14
   7   2 -13    0.25    0.16
  -7   2  13    0.31    0.22
  -7   2  13    0.05    0.17
   7   2 -13    0.20    0.14
   6  -2 -13    0.20    0.17
  -6  -2  13    0.49    0.24
   6  -2 -13    0.30    0.19
   6  -2 -13   -0.08    0.11
   6   2 -13    0.09    0.16
  -6   2  13    0.01    0.17
   6   2 -13    0.23    0.17
  -6   2  13   -0.01    0.13
   5  -2 -13    0.05    0.10
   5  -2 -13    0.06    0.14
  -5  -2  13    0.15    0.17
   5  -2 -13    0.28    0.15
  -5   2  13   -0.18    0.15
   5   2 -13   -0.07    0.12
   5   2 -13    0.00    0.15
  -5   2  13    0.32    0.18
   5   2 -13    0.20    0.16
   4  -2 -13    0.68    0.24
   4  -2 -13    0.93    0.22
   4  -2 -13    1.04    0.26
  -4  -2  13    0.95    0.26
  -4  -2  13    0.72    0.27
  -4   2  13    0.78    0.22
   4   2 -13    1.15    0.31
  -4   2  13    0.98    0.23
   4   2 -13    1.31    0.32
   4   2 -13    0.85    0.29
   3  -2 -13    0.49    0.18
   3  -2 -13    0.75    0.24
  -3  -2  13    0.78    0.28
   3  -2 -13    0.92    0.25
   3   2 -13    0.65    0.22
  -3   2  13    0.79    0.22
   3   2 -13    0.69    0.24
  -3   2  13    0.39    0.18
   3   2 -13    0.77    0.24
  -2  -2  13    0.59    0.22
   2  -2 -13    1.06    0.25
   2  -2 -13    0.84    0.23
   2  -2 -13    1.06    0.33
  -2  -2  13    1.03    0.39
   2   2 -13    0.98    0.23
  -2   2  13    0.57    0.21
   2   2 -13    0.70    0.26
  -2   2  13    0.61    0.18
   2   2 -13    0.39    0.19
   1  -2 -13    0.57    0.19
   1  -2 -13    0.48    0.17
  -1  -2  13    0.78    0.21
   1  -2 -13    0.52    0.24
   1   2 -13    0.48    0.24
   1   2 -13    0.54    0.20
  -1   2  13    0.68    0.17
  -1   2  13    0.94    0.23
   1   2 -13    0.70    0.21
   0  -2 -13    1.87    0.39
   0  -2 -13    1.69    0.32
   0   2 -13    1.32    0.30
   0   2 -13    1.91    0.33
   0   2 -13    1.70    0.35
   1  -2  13    0.81    0.25
  -1  -2 -13    0.32    0.20
  -1  -2 -13    1.13    0.26
  -1   2 -13    0.55    0.18
  -1   2 -13    0.85    0.27
  -1   2 -13    0.85    0.26
  -2  -2 -13    0.19    0.18
   2  -2  13    0.50    0.20
  -2  -2 -13    0.26    0.19
  -2   2 -13    0.19    0.21
  -2   2 -13    0.44    0.16
  -2   2 -13    0.62    0.23
   8  -3 -13    2.17    0.32
   8  -3 -13    2.00    0.42
   8  -3 -13    1.60    0.34
  -8  -3  13    1.60    0.41
   8   3 -13    1.45    0.29
   8   3 -13    2.36    0.44
  -8   3  13    1.91    0.40
  -8   3  13    2.38    0.38
   7  -3 -13    0.62    0.25
  -7  -3  13    0.69    0.29
   7  -3 -13    1.08    0.29
   7  -3 -13    0.52    0.17
   7   3 -13    0.35    0.19
  -7   3  13    0.61    0.18
  -7   3  13    0.50    0.25
   7   3 -13    0.32    0.19
   6  -3 -13    3.68    0.54
   6  -3 -13    3.19    0.52
   6  -3 -13    3.83    0.34
  -6  -3  13    3.03    0.45
  -6   3  13    3.69    0.35
   6   3 -13    4.03    0.44
   6   3 -13    3.36    0.53
  -5  -3  13    0.72    0.24
   5  -3 -13    1.50    0.33
   5  -3 -13    1.16    0.30
   5  -3 -13    1.19    0.22
  -5   3  13    1.34    0.32
   5   3 -13    0.77    0.22
  -5   3  13    1.26    0.25
   5   3 -13    0.66    0.23
   5   3 -13    0.20    0.20
   4  -3 -13    2.34    0.31
  -4  -3  13    2.19    0.40
   4  -3 -13    1.83    0.36
   4  -3 -13    3.04    0.44
   4   3 -13    2.53    0.43
   4   3 -13    2.71    0.50
  -4   3  13    2.68    0.29
   4   3 -13    2.80    0.42
  -4   3  13    2.52    0.37
   3  -3 -13    0.68    0.18
   3  -3 -13    0.19    0.17
   3  -3 -13    0.20    0.14
  -3  -3  13    0.64    0.24
   3   3 -13    0.48    0.20
   3   3 -13    0.69    0.24
   3   3 -13    0.22    0.17
  -3   3  13    0.23    0.16
   3   3 -13    0.26    0.18
  -3   3  13    0.41    0.19
   2  -3 -13    1.19    0.27
   2  -3 -13    1.07    0.22
   2  -3 -13    1.19    0.31
   2   3 -13    1.02    0.24
  -2   3  13    0.71    0.18
   2   3 -13    0.83    0.25
   2   3 -13    1.14    0.31
  -2   3  13    1.30    0.25
   1  -3 -13    0.46    0.20
   1  -3 -13    0.44    0.16
   1  -3 -13    0.63    0.19
  -1  -3  13    0.58    0.23
   1   3 -13    0.55    0.18
  -1   3  13    0.32    0.13
   1   3 -13    0.27    0.17
   1   3 -13    0.46    0.21
   0  -3 -13    0.56    0.21
   0  -3 -13    0.31    0.15
   0  -3  13    0.18    0.21
   0  -3 -13    0.39    0.20
   0   3 -13    0.55    0.25
   0   3 -13    0.41    0.21
   0   3 -13    0.49    0.18
   1  -3  13    0.09    0.21
  -1  -3 -13    0.36    0.17
  -1  -3 -13    0.29    0.20
  -1   3 -13    0.42    0.14
  -1   3 -13    0.19    0.20
  -1   3 -13    0.30    0.24
  -2  -3 -13    0.21    0.16
  -2  -3 -13    0.48    0.22
   2  -3  13    0.36    0.24
  -2  -3 -13    0.47    0.23
  -2   3 -13    0.44    0.24
  -2   3 -13    0.46    0.15
   8  -4 -13    0.20    0.20
   8  -4 -13    0.20    0.15
   8  -4 -13   -0.45    0.22
  -8  -4  13    0.29    0.23
   8  -4 -13   -0.03    0.18
  -8   4  13    0.35    0.17
  -8   4  13   -0.31    0.22
   8   4 -13    0.05    0.19
  -8   4  13    0.22    0.22
   8   4 -13    0.26    0.16
   7  -4 -13    0.11    0.12
   7  -4 -13   -0.14    0.22
  -7  -4  13    0.25    0.25
   7  -4 -13    0.01    0.14
   7   4 -13    0.08    0.18
  -7   4  13    0.01    0.18
   7   4 -13    0.49    0.21
  -7   4  13   -0.10    0.15
   6  -4 -13    1.05    0.16
   6  -4 -13    0.59    0.21
  -6  -4  13    0.96    0.31
   6  -4 -13    0.52    0.26
   6   4 -13    0.85    0.31
  -6   4  13    0.63    0.17
   6   4 -13    0.58    0.20
  -5  -4  13    0.75    0.31
   5  -4 -13    0.82    0.27
   5  -4 -13    1.03    0.19
   5  -4 -13    0.78    0.28
   5   4 -13    0.80    0.30
  -5   4  13    1.17    0.28
   5   4 -13    1.01    0.27
  -5   4  13    1.44    0.23
   4  -4 -13    0.64    0.15
  -4  -4  13    0.03    0.20
   4  -4 -13    0.94    0.27
   4  -4 -13    0.98    0.26
   4   4 -13    1.07    0.27
   4   4 -13    0.30    0.21
   4   4 -13    0.69    0.29
  -4   4  13    0.66    0.22
   4   4 -13    0.51    0.18
  -4   4  13    0.78    0.17
   3  -4 -13    1.40    0.36
  -3  -4  13    1.20    0.29
   3  -4 -13    2.14    0.35
   3  -4 -13    1.31    0.21
   3   4 -13    1.09    0.29
   3   4 -13    1.36    0.30
  -3   4  13    1.48    0.28
   3   4 -13    1.62    0.39
   3   4 -13    1.45    0.29
   2  -4 -13    2.39    0.38
   2  -4 -13    2.77    0.46
  -2  -4  13    2.49    0.44
   2  -4 -13    2.74    0.26
   2   4 -13    2.17    0.37
   2   4 -13    2.35    0.46
   2   4 -13    2.03    0.33
  -2   4  13    2.30    0.30
   1  -4 -13    2.78    0.30
   1  -4 -13    4.06    0.41
  -1  -4  13    4.20    0.57
   1  -4 -13    3.90    0.46
   1   4 -13    2.93    0.42
   1   4 -13    2.21    0.41
   1   4 -13    3.01    0.34
   0  -4 -13    1.33    0.26
   0  -4 -13    1.62    0.26
   0  -4 -13    1.22    0.30
   0  -4 -13    1.42    0.22
   0  -4  13    0.11    0.21
   0   4 -13    1.37    0.36
   0   4 -13    1.90    0.44
   0   4 -13    1.64    0.26
  -1  -4 -13    1.42    0.22
  -1  -4 -13    1.19    0.24
   1  -4  13    0.11    0.22
  -1  -4 -13    0.91    0.24
  -1  -4 -13    1.17    0.34
  -1   4 -13    0.86    0.27
  -1   4 -13    1.13    0.34
  -1   4 -13    1.21    0.20
  -6  -5  13    0.84    0.29
   6  -5 -13    1.02    0.21
   6  -5 -13    0.23    0.27
   6  -5 -13    1.02    0.33
  -6   5  13    1.05    0.22
   6   5 -13    0.85    0.30
   6   5 -13    0.53    0.25
   6   5 -13    0.54    0.20
  -6   5  13    0.10    0.23
   5  -5 -13    2.31    0.42
   5  -5 -13    3.39    0.54
  -5  -5  13    1.99    0.43
   5   5 -13    2.18    0.37
  -5   5  13    0.24    0.21
   5   5 -13    1.74    0.34
   4  -5 -13    0.67    0.26
   4  -5 -13    1.26    0.33
  -4   5  13    1.25    0.29
   4   5 -13    0.99    0.30
   4   5 -13    0.43    0.25
   4   5 -13    0.69    0.23
   4   5 -13    0.27    0.23
  -3  -5  13    1.72    0.38
   3  -5 -13    2.75    0.42
   3  -5 -13    1.75    0.35
   3   5 -13    2.13    0.39
  -3   5  13    2.68    0.34
   3   5 -13    1.74    0.33
   3   5 -13    2.78    0.41
   3   5 -13    2.01    0.34
  -2  -5  13    0.10    0.23
   2  -5 -13    0.32    0.18
   2  -5 -13   -0.05    0.18
   2   5 -13    0.36    0.20
   2   5 -13    0.04    0.17
  -2   5  13   -0.01    0.14
   2   5 -13    0.33    0.20
   1  -5 -13    0.42    0.24
   1  -5 -13    0.06    0.16
  -1  -5  13   -0.19    0.19
   1   5 -13    0.37    0.23
   1   5 -13    0.07    0.17
   1   5 -13    0.02    0.16
   0  -5  13   -0.30    0.24
   0  -5 -13    0.46    0.22
   0  -5 -13    0.45    0.17
   0  -5 -13    0.01    0.20
   0  -5 -13    0.53    0.16
   0   5 -13    0.18    0.22
   0   5 -13    0.68    0.20
   0   5 -13    0.69    0.29
   8   0 -14   13.81    0.93
  -8   0  14   13.04    0.91
   8   0 -14   13.25    0.83
   8   0 -14   12.67    0.87
   7   0 -14    2.60    0.46
   7   0 -14    2.66    0.44
   7   0 -14    1.99    0.37
  -7   0  14    2.21    0.43
   6   0 -14    2.13    0.41
   6   0 -14    2.52    0.40
  -6   0  14    3.31    0.50
   6   0 -14    1.81    0.35
  -6   0  14    3.00    0.49
   5   0 -14    1.76    0.35
  -5   0  14    1.02    0.34
  -5   0  14    2.14    0.46
   5   0 -14    1.86    0.34
   5   0 -14    1.62    0.34
   4   0 -14    1.71    0.34
  -4   0  14    2.06    0.36
  -4   0  14    1.61    0.34
   4   0 -14    1.72    0.32
   3   0 -14    5.12    0.53
   3   0 -14    3.83    0.45
  -3   0  14    3.91    0.45
  -3   0  14    5.51    0.53
   2   0 -14   10.23    0.76
  -2   0  14    9.66    0.71
  -2   0  14    9.40    0.60
   2   0 -14    9.03    0.67
   1   0 -14    7.71    0.63
  -1   0  14    7.38    0.51
   1   0 -14    8.14    0.68
  -1   0  14    8.44    0.85
   0   0 -14    5.62    0.59
   0   0 -14    6.89    0.62
   0   0  14    5.59    0.40
  -1   0 -14   15.93    0.98
  -1   0 -14   16.65    1.05
   8  -1 -14    5.19    0.57
  -8  -1  14    4.71    0.63
   8  -1 -14    5.43    0.50
   8  -1 -14    5.18    0.60
  -8   1  14    4.87    0.58
  -8   1  14    4.44    0.61
   8   1 -14    5.54    0.56
   8   1 -14    4.60    0.51
   8   1 -14    4.70    0.63
  -7  -1  14    7.35    0.66
   7  -1 -14    7.59    0.59
   7  -1 -14    7.91    0.67
   7  -1 -14    6.73    0.64
  -7   1  14    7.56    0.62
   7   1 -14    7.26    0.64
   7   1 -14    8.34    0.65
  -7   1  14    7.48    0.66
   7   1 -14    8.54    0.70
   6  -1 -14   14.58    0.82
   6  -1 -14   14.25    0.90
  -6  -1  14   14.65    0.89
   6  -1 -14   13.57    0.89
  -6   1  14   13.28    0.80
  -6   1  14   13.27    0.85
   6   1 -14   14.62    0.87
   6   1 -14   14.29    0.88
   5  -1 -14   17.83    0.98
   5  -1 -14   18.21    0.93
   5  -1 -14   19.57    1.08
  -5  -1  14   18.46    0.99
   5   1 -14   18.86    1.01
  -5   1  14   17.77    0.96
   5   1 -14   17.83    1.03
  -5   1  14   18.04    0.93
   4  -1 -14   13.13    0.88
   4  -1 -14   13.28    0.77
   4  -1 -14   12.16    0.79
   4   1 -14   15.58    0.91
   4   1 -14   13.72    0.85
  -4   1  14   13.99    0.79
  -4   1  14   13.23    0.78
   3  -1 -14   11.44    0.74
  -3  -1  14   12.61    0.76
   3  -1 -14   12.79    0.85
   3  -1 -14   11.59    0.73
  -3   1  14   11.37    0.73
   3   1 -14   12.27    0.78
   3   1 -14   12.95    0.83
  -3   1  14   11.43    0.68
   3   1 -14   12.10    0.82
  -2  -1  14   11.69    0.72
   2  -1 -14   11.65    0.71
   2  -1 -14   10.71    0.79
   2   1 -14   10.20    0.77
  -2   1  14   10.59    0.72
  -2   1  14   10.79    0.63
   2   1 -14   10.91    0.78
   1  -1 -14    6.83    0.56
   1  -1 -14    6.74    0.63
  -1  -1  14    6.47    0.51
   1   1 -14    6.49    0.62
  -1   1  14    6.69    0.45
  -1   1  14    6.75    0.59
   1   1 -14    6.16    0.61
   0  -1 -14    1.85    0.40
   0  -1  14    1.64    0.28
   0  -1 -14    1.95    0.36
   0   1 -14    1.32    0.32
   0   1  14    0.98    0.30
   0   1  14    1.68    0.22
   0   1 -14    1.64    0.35
   1  -1  14    1.40    0.23
  -1  -1 -14    1.05    0.30
  -1   1 -14    1.42    0.38
  -1   1 -14    1.02    0.33
   8  -2 -14    4.95    0.47
   8  -2 -14    5.96    0.63
  -8  -2  14    5.30    0.70
   8  -2 -14    5.59    0.57
   8   2 -14    5.19    0.54
  -8   2  14    5.77    0.55
   8   2 -14    5.56    0.58
   7  -2 -14    7.29    0.55
  -7  -2  14    8.17    0.72
   7  -2 -14    8.00    0.68
   7  -2 -14    6.64    0.63
  -7   2  14    7.74    0.58
   7   2 -14    8.01    0.66
   7   2 -14    7.68    0.64
   6  -2 -14    1.57    0.33
   6  -2 -14    1.73    0.29
   6  -2 -14    1.83    0.35
  -6  -2  14    0.97    0.29
   6   2 -14    0.98    0.30
  -6   2  14    0.95    0.27
   6   2 -14    1.99    0.39
   5  -2 -14    2.06    0.37
  -5  -2  14    1.32    0.31
   5  -2 -14    1.44    0.32
   5  -2 -14    1.34    0.27
   5   2 -14    1.90    0.40
  -5   2  14    1.17    0.29
   5   2 -14    1.57    0.32
  -5   2  14    1.09    0.29
  -4  -2  14    1.50    0.36
   4  -2 -14    1.70    0.32
   4  -2 -14    1.23    0.31
   4  -2 -14    1.36    0.27
   4   2 -14    1.65    0.35
  -4   2  14    1.50    0.31
   4   2 -14    1.51    0.34
  -4   2  14    1.45    0.31
   3  -2 -14    4.17    0.50
  -3  -2  14    3.97    0.52
   3  -2 -14    3.85    0.44
   3  -2 -14    4.09    0.41
   3   2 -14    4.74    0.52
   3   2 -14    4.75    0.50
   3   2 -14    4.07    0.48
  -3   2  14    4.40    0.44
  -3   2  14    4.18    0.41
   2  -2 -14    4.46    0.44
   2  -2 -14    5.58    0.58
  -2  -2  14    4.69    0.50
   2  -2 -14    4.41    0.43
   2   2 -14    6.04    0.59
  -2   2  14    5.99    0.51
   2   2 -14    6.02    0.57
   2   2 -14    4.90    0.49
  -2   2  14    4.85    0.39
  -1  -2  14    4.83    0.52
   1  -2 -14    6.18    0.61
   1  -2 -14    6.64    0.53
  -1   2  14    5.92    0.38
   1   2 -14    6.77    0.52
  -1   2  14    5.83    0.53
   1   2 -14    6.85    0.62
   1   2 -14    5.99    0.61
   0  -2 -14   11.56    0.84
   0  -2 -14   14.45    0.79
   0  -2  14   13.49    0.76
   0   2 -14   12.52    0.88
   0   2 -14   12.08    0.86
   0   2 -14   11.65    0.67
   1  -2  14    6.51    0.53
  -1  -2 -14    6.53    0.65
  -1  -2 -14    7.15    0.61
  -1   2 -14    7.79    0.70
  -1   2 -14    8.23    0.53
  -1   2 -14    8.59    0.76
  -7  -3  14    7.24    0.70
   7  -3 -14    6.12    0.66
   7  -3 -14    7.05    0.48
   7  -3 -14    6.67    0.64
   7   3 -14    7.03    0.66
  -7   3  14    6.72    0.53
   7   3 -14    7.12    0.60
   6  -3 -14    7.68    0.49
  -6  -3  14    7.54    0.72
   6  -3 -14    7.47    0.67
   6  -3 -14    7.20    0.67
  -6   3  14    8.88    0.56
   6   3 -14    7.34    0.66
   6   3 -14    6.99    0.61
   5  -3 -14   11.27    0.82
  -5  -3  14   11.44    0.81
   5  -3 -14    9.27    0.70
   5  -3 -14   10.28    0.57
  -5   3  14   10.14    0.61
   5   3 -14   12.23    0.85
   5   3 -14   10.48    0.75
  -4  -3  14   10.93    0.81
   4  -3 -14   11.22    0.61
   4  -3 -14   11.18    0.76
   4  -3 -14   11.77    0.83
   4   3 -14   10.52    0.74
  -4   3  14   11.14    0.63
   4   3 -14   10.66    0.80
  -4   3  14   11.07    0.69
   3  -3 -14   10.09    0.70
  -3  -3  14    7.04    0.64
   3  -3 -14   10.82    0.80
   3  -3 -14    9.72    0.58
   3   3 -14    9.32    0.65
  -3   3  14    8.04    0.53
   3   3 -14    9.77    0.71
  -3   3  14    9.26    0.57
   3   3 -14    8.70    0.72
   2  -3 -14    7.52    0.53
   2  -3 -14    8.20    0.69
   2  -3 -14    7.97    0.59
   2   3 -14    8.47    0.70
   2   3 -14    6.26    0.53
   2   3 -14    7.97    0.69
   1  -3 -14    2.72    0.38
   1  -3 -14    2.67    0.37
  -1  -3  14   -0.10    0.20
   1  -3 -14    2.31    0.43
   1   3 -14    3.22    0.35
   1   3 -14    2.35    0.46
   1   3 -14    2.59    0.48
   0  -3 -14    1.56    0.31
   0  -3 -14    1.65    0.39
   0  -3  14   -0.12    0.22
   0   3 -14    1.83    0.30
   0   3 -14    1.16    0.32
   0   3 -14    0.98    0.27
   5  -4 -14    0.62    0.27
   5  -4 -14    0.78    0.17
  -5  -4  14    0.22    0.25
   5  -4 -14    0.66    0.25
  -5   4  14   -0.19    0.20
   5   4 -14    0.70    0.23
  -5   4  14    0.88    0.22
   5   4 -14    0.79    0.28
   4  -4 -14    0.93    0.17
   4  -4 -14    0.61    0.24
   4  -4 -14    0.92    0.29
  -4  -4  14    0.49    0.28
  -4   4  14    0.90    0.27
   4   4 -14    0.89    0.31
   4   4 -14    0.92    0.28
   3  -4 -14    2.53    0.41
   3  -4 -14    1.89    0.39
   3  -4 -14    2.90    0.28
   3   4 -14    2.51    0.42
   3   4 -14    2.77    0.46
   3   4 -14    1.85    0.34
   2  -4 -14    3.76    0.54
   2  -4 -14    4.23    0.35
   2  -4 -14    4.67    0.47
   2   4 -14    4.16    0.61
   2   4 -14    3.79    0.55
  -2   4  14    4.23    0.36
   2   4 -14    3.38    0.45
  -6   0  15   -0.05    0.20
   6   0 -15   -0.04    0.16
   6   0 -15   -0.24    0.25
   6   0 -15    0.01    0.19
   5   0 -15    0.03    0.19
   5   0 -15    0.11    0.17
  -5   0  15   -0.12    0.21
  -4   0  15    0.09    0.24
   4   0 -15    0.12    0.16
   4   0 -15    0.05    0.15
   3   0 -15   -0.12    0.15
   3   0 -15    0.02    0.17
  -3   0  15   -0.26    0.20
   2   0 -15   -0.09    0.16
   2   0 -15    0.13    0.23
  -2   0  15   -0.40    0.20
  -1   0  15   -0.14    0.22
   1   0 -15    0.27    0.22
   1   0 -15   -0.13    0.17
   6  -1 -15    1.30    0.29
   6  -1 -15    0.91    0.25
  -6  -1  15    0.01    0.24
   6  -1 -15    1.19    0.31
   6   1 -15    0.64    0.24
  -6   1  15    0.74    0.28
   6   1 -15    0.95    0.31
   5  -1 -15    0.29    0.24
  -5  -1  15   -0.15    0.22
   5  -1 -15    0.40    0.25
   5  -1 -15    0.53    0.22
  -5   1  15    0.54    0.26
  -5   1  15   -0.11    0.24
   5   1 -15    0.72    0.28
   5   1 -15    1.05    0.33
   4  -1 -15    0.29    0.24
   4  -1 -15    0.11    0.17
  -4  -1  15   -0.04    0.20
   4  -1 -15   -0.13    0.13
   4   1 -15    0.05    0.18
  -4   1  15    0.24    0.26
  -4   1  15    0.02    0.22
   4   1 -15   -0.20    0.19
   3  -1 -15    1.51    0.37
   3  -1 -15    0.85    0.26
  -3   1  15    0.89    0.32
  -3   1  15    1.33    0.34
   3   1 -15    0.71    0.28
   3   1 -15    0.42    0.25
   2  -1 -15    1.04    0.29
   2  -1 -15    0.79    0.26
  -2  -1  15    0.02    0.22
   2   1 -15    0.48    0.24
  -2   1  15    0.74    0.27
  -2   1  15    1.08    0.50
   2   1 -15    0.78    0.25
   5  -2 -15    0.90    0.30
   5  -2 -15    0.88    0.22
  -5  -2  15    0.01    0.23
   5  -2 -15    0.93    0.28
  -5   2  15    0.16    0.26
   5   2 -15    0.15    0.18
  -5   2  15   -0.55    0.19
   4  -2 -15    0.15    0.18
   4  -2 -15    0.35    0.18
   4  -2 -15    0.27    0.21
  -4   2  15   -0.20    0.23
   4   2 -15    0.13    0.20
   4   2 -15   -0.15    0.15
  -4   2  15    0.08    0.21
   3  -2 -15    0.02    0.17
   3  -2 -15    0.30    0.16
   3  -2 -15    0.25    0.20
  -3  -2  15   -0.32    0.22
   3   2 -15   -0.07    0.16
   3   2 -15   -0.14    0.19
  -3   2  15    0.02    0.21
  -3   2  15   -0.21    0.20
   0   0   0    0.00    0.00
;
_shelx_hkl_checksum              9090
_olex2_submission_special_instructions 'No special instructions were received'
loop_
_space_group_symop_operation_xyz
'x, y, z'
'x, -y, z+1/2'
loop_
_atom_site_label
_atom_site_type_symbol
_atom_site_fract_x
_atom_site_fract_y
_atom_site_fract_z
_atom_site_U_iso_or_equiv
_atom_site_adp_type
_atom_site_occupancy
_atom_site_site_symmetry_order
_atom_site_calc_flag
_atom_site_refinement_flags_posn
_atom_site_refinement_flags_adp
_atom_site_refinement_flags_occupancy
_atom_site_disorder_assembly
_atom_site_disorder_group
I1 I -0.04169(3) -0.01448(7) 0.03148(3) 0.03507(15) Uani 1 1 d . . . . .
I2 I 1.04199(5) 0.51680(9) 0.30915(5) 0.0333(2) Uani 0.7446(19) 1 d . . P A 1
O1 O 1.105(3) 0.572(3) 0.356(2) 0.051(5) Uiso 0.2554(19) 1 d D . P A 2
C19 C 1.006(3) 0.467(4) 0.317(3) 0.051(5) Uiso 0.2554(19) 1 d D . P A 2
H19 H 1.019627 0.400360 0.253762 0.061 Uiso 0.2554(19) 1 calc R . P A 2
I3 I 0.4937(3) 0.2524(3) 0.9716(2) 0.0434(8) Uani 0.2555(19) 1 d . . P B 1
O2A O 0.4043(18) 0.328(2) 0.9608(14) 0.039(3) Uiso 0.342(3) 1 d D . P B 2
C20A C 0.502(6) 0.252(10) 0.931(3) 0.059(7) Uiso 0.342(3) 1 d D . P B 2
H20A H 0.576911 0.194303 0.988810 0.070 Uiso 0.342(3) 1 calc R . P B 2
O2B O 0.571(2) 0.191(2) 1.0088(16) 0.056(4) Uiso 0.402(3) 1 d D . P B 3
C20B C 0.485(6) 0.261(8) 0.925(2) 0.059(7) Uiso 0.402(3) 1 d D . P B 3
H20B H 0.409229 0.321958 0.941482 0.070 Uiso 0.402(3) 1 calc R . P B 3
N1 N 0.5034(7) 0.2496(8) 0.4367(6) 0.0297(14) Uani 1 1 d . . . . .
C1 C 0.3765(8) 0.1972(8) 0.3428(6) 0.0290(13) Uani 1 1 d . . . . .
C2 C 0.2865(9) 0.0760(8) 0.3702(6) 0.0360(15) Uani 1 1 d . . . . .
H2 H 0.309370 0.033232 0.450260 0.043 Uiso 1 1 calc R . . . .
C3 C 0.1655(8) 0.0182(8) 0.2827(6) 0.0350(15) Uani 1 1 d . . . . .
H3 H 0.104650 -0.062215 0.302297 0.042 Uiso 1 1 calc R . . . .
C4 C 0.1348(7) 0.0799(8) 0.1656(6) 0.0298(13) Uani 1 1 d . . . . .
C5 C 0.2225(7) 0.2012(8) 0.1367(6) 0.0275(12) Uani 1 1 d . . . . .
H5 H 0.200287 0.243065 0.056455 0.033 Uiso 1 1 calc R . . . .
C6 C 0.3420(7) 0.2595(8) 0.2261(6) 0.0266(12) Uani 1 1 d . . . . .
H6 H 0.400760 0.342982 0.207123 0.032 Uiso 1 1 calc R . . . .
C7 C 0.6249(7) 0.3050(8) 0.4080(6) 0.0294(13) Uani 1 1 d . . . . .
C8 C 0.6650(7) 0.2375(8) 0.3116(6) 0.0276(12) Uani 1 1 d . . . . .
H8 H 0.609817 0.149490 0.265739 0.033 Uiso 1 1 calc R . . . .
C9 C 0.7853(7) 0.2972(8) 0.2812(6) 0.0283(12) Uani 1 1 d D . . . .
H9 H 0.809513 0.252074 0.213845 0.034 Uiso 1 1 calc R . . . .
C10 C 0.8688(7) 0.4224(8) 0.3500(6) 0.0327(14) Uani 1 1 d D . . . .
C11 C 0.8336(8) 0.4877(8) 0.4491(6) 0.0357(15) Uani 1 1 d D . . . .
H11 H 0.891647 0.572109 0.497116 0.043 Uiso 1 1 calc R . . . .
C12 C 0.7136(9) 0.4292(8) 0.4773(6) 0.0370(15) Uani 1 1 d . . . . .
H12 H 0.690594 0.474106 0.545265 0.044 Uiso 1 1 calc R . . . .
C13 C 0.4984(9) 0.2533(11) 0.5582(6) 0.0306(17) Uani 1 1 d . . . . .
C14 C 0.6192(9) 0.2000(11) 0.6508(8) 0.0352(19) Uani 1 1 d . . . . .
H14 H 0.702987 0.161899 0.632723 0.042 Uiso 1 1 calc R . . . .
C15 C 0.6146(10) 0.2038(11) 0.7702(7) 0.0354(19) Uani 1 1 d . . . . .
H15 H 0.696598 0.169689 0.833874 0.042 Uiso 1 1 calc R . . . .
C16 C 0.4931(9) 0.2560(11) 0.7970(6) 0.0319(18) Uani 1 1 d D . . . .
C17 C 0.3769(11) 0.3087(10) 0.7040(7) 0.0348(19) Uani 1 1 d . . . . .
H17 H 0.293662 0.345855 0.723357 0.042 Uiso 1 1 calc R . . . .
C18 C 0.3744(9) 0.3108(11) 0.5862(8) 0.0325(18) Uani 1 1 d . . . . .
H18 H 0.292343 0.349588 0.524475 0.039 Uiso 1 1 calc R . . . .
loop_
_atom_site_aniso_label
_atom_site_aniso_U_11
_atom_site_aniso_U_22
_atom_site_aniso_U_33
_atom_site_aniso_U_23
_atom_site_aniso_U_13
_atom_site_aniso_U_12
I1 0.0275(3) 0.0486(3) 0.0294(2) -0.0048(4) 0.0089(2) -0.0091(4)
I2 0.0223(4) 0.0411(4) 0.0363(4) 0.0019(4) 0.0085(3) -0.0059(4)
I3 0.0594(17) 0.0514(14) 0.0271(13) -0.0090(10) 0.0249(11) -0.0222(12)
N1 0.032(3) 0.030(3) 0.024(3) -0.001(3) 0.005(3) -0.010(2)
C1 0.040(4) 0.028(3) 0.019(3) -0.007(2) 0.010(3) -0.007(3)
C2 0.056(4) 0.032(3) 0.021(3) -0.004(3) 0.013(3) -0.012(3)
C3 0.045(4) 0.036(3) 0.030(3) -0.007(3) 0.020(3) -0.012(3)
C4 0.030(3) 0.035(3) 0.028(3) -0.007(3) 0.015(3) -0.004(3)
C5 0.027(3) 0.032(3) 0.023(3) -0.002(2) 0.007(2) 0.001(2)
C6 0.028(3) 0.029(3) 0.023(3) 0.000(2) 0.006(2) -0.001(2)
C7 0.036(3) 0.027(3) 0.021(3) 0.000(2) 0.002(3) 0.001(3)
C8 0.028(3) 0.028(3) 0.025(3) 0.002(2) 0.003(2) 0.000(2)
C9 0.027(3) 0.034(3) 0.019(3) 0.000(2) 0.001(2) -0.001(2)
C10 0.036(3) 0.030(3) 0.024(3) 0.003(2) -0.002(3) -0.004(3)
C11 0.046(4) 0.029(3) 0.025(3) -0.001(2) 0.000(3) -0.009(3)
C12 0.055(4) 0.029(3) 0.023(3) -0.002(2) 0.006(3) -0.008(3)
C13 0.038(4) 0.034(4) 0.020(3) -0.005(3) 0.008(3) -0.003(3)
C14 0.032(4) 0.044(5) 0.027(4) -0.003(3) 0.005(3) 0.001(4)
C15 0.045(5) 0.035(4) 0.022(3) 0.007(3) 0.004(3) 0.008(3)
C16 0.048(5) 0.025(4) 0.018(3) -0.002(3) 0.003(3) -0.003(3)
C17 0.057(6) 0.025(4) 0.021(3) 0.000(3) 0.009(3) -0.002(4)
C18 0.032(4) 0.030(4) 0.034(4) -0.006(3) 0.008(3) 0.004(3)
loop_
_atom_type_symbol
_atom_type_description
_atom_type_scat_dispersion_real
_atom_type_scat_dispersion_imag
_atom_type_scat_source
C C 0.0033 0.0016 'International Tables Vol C Tables 4.2.6.8 and 6.1.1.4'
H H 0.0000 0.0000 'International Tables Vol C Tables 4.2.6.8 and 6.1.1.4'
I I -0.4742 1.8119 'International Tables Vol C Tables 4.2.6.8 and 6.1.1.4'
N N 0.0061 0.0033 'International Tables Vol C Tables 4.2.6.8 and 6.1.1.4'
O O 0.0106 0.0060 'International Tables Vol C Tables 4.2.6.8 and 6.1.1.4'
loop_
_geom_angle_atom_site_label_1
_geom_angle_atom_site_label_2
_geom_angle_atom_site_label_3
_geom_angle
_geom_angle_site_symmetry_1
_geom_angle_site_symmetry_3
_geom_angle_publ_flag
O1 C19 H19 112.9 . . ?
O1 C19 C10 134(2) . . ?
C10 C19 H19 112.9 . . ?
O2A C20A H20A 121.7 . . ?
O2A C20A C16 117(3) . . ?
C16 C20A H20A 121.7 . . ?
O2B C20B H20B 118.5 . . ?
O2B C20B C16 123(3) . . ?
C16 C20B H20B 118.5 . . ?
C7 N1 C1 120.7(5) . . ?
C7 N1 C13 120.8(6) . . ?
C13 N1 C1 118.4(6) . . ?
C2 C1 N1 118.9(6) . . ?
C6 C1 N1 122.1(6) . . ?
C6 C1 C2 119.0(6) . . ?
C1 C2 H2 119.4 . . ?
C3 C2 C1 121.2(6) . . ?
C3 C2 H2 119.4 . . ?
C2 C3 H3 120.6 . . ?
C2 C3 C4 118.7(6) . . ?
C4 C3 H3 120.6 . . ?
C3 C4 I1 119.0(5) . . ?
C3 C4 C5 120.9(6) . . ?
C5 C4 I1 120.2(5) . . ?
C4 C5 H5 120.2 . . ?
C6 C5 C4 119.6(6) . . ?
C6 C5 H5 120.2 . . ?
C1 C6 C5 120.6(6) . . ?
C1 C6 H6 119.7 . . ?
C5 C6 H6 119.7 . . ?
N1 C7 C8 121.6(6) . . ?
N1 C7 C12 120.8(6) . . ?
C8 C7 C12 117.6(6) . . ?
C7 C8 H8 119.4 . . ?
C7 C8 C9 121.3(6) . . ?
C9 C8 H8 119.4 . . ?
C8 C9 H9 120.2 . . ?
C10 C9 C8 119.6(6) . . ?
C10 C9 H9 120.2 . . ?
C9 C10 I2 121.6(5) . . ?
C9 C10 C19 115.6(11) . . ?
C9 C10 C11 120.1(6) . . ?
C11 C10 I2 118.3(5) . . ?
C11 C10 C19 124.0(11) . . ?
C10 C11 H11 120.1 . . ?
C12 C11 C10 119.8(6) . . ?
C12 C11 H11 120.1 . . ?
C7 C12 H12 119.2 . . ?
C11 C12 C7 121.6(7) . . ?
C11 C12 H12 119.2 . . ?
C14 C13 N1 118.7(7) . . ?
C14 C13 C18 120.2(7) . . ?
C18 C13 N1 121.1(7) . . ?
C13 C14 H14 120.6 . . ?
C15 C14 C13 118.8(8) . . ?
C15 C14 H14 120.6 . . ?
C14 C15 H15 119.5 . . ?
C16 C15 C14 121.0(8) . . ?
C16 C15 H15 119.5 . . ?
C15 C16 I3 118.4(6) . . ?
C15 C16 C20A 115.5(16) . . ?
C15 C16 C20B 122.0(16) . . ?
C15 C16 C17 118.7(7) . . ?
C17 C16 I3 122.9(6) . . ?
C17 C16 C20A 125.8(17) . . ?
C17 C16 C20B 119.3(16) . . ?
C16 C17 H17 118.2 . . ?
C18 C17 C16 123.6(9) . . ?
C18 C17 H17 118.2 . . ?
C13 C18 H18 121.2 . . ?
C17 C18 C13 117.7(8) . . ?
C17 C18 H18 121.2 . . ?
loop_
_geom_bond_atom_site_label_1
_geom_bond_atom_site_label_2
_geom_bond_distance
_geom_bond_site_symmetry_2
_geom_bond_publ_flag
I1 C4 2.082(6) . ?
I2 C10 2.027(7) . ?
O1 C19 1.26(2) . ?
C19 H19 0.9500 . ?
C19 C10 1.53(2) . ?
I3 C16 2.018(7) . ?
O2A C20A 1.26(3) . ?
C20A H20A 0.9500 . ?
C20A C16 1.53(3) . ?
O2B C20B 1.21(3) . ?
C20B H20B 0.9500 . ?
C20B C16 1.51(2) . ?
N1 C1 1.441(9) . ?
N1 C7 1.392(10) . ?
N1 C13 1.421(9) . ?
C1 C2 1.409(9) . ?
C1 C6 1.383(9) . ?
C2 H2 0.9500 . ?
C2 C3 1.383(10) . ?
C3 H3 0.9500 . ?
C3 C4 1.388(9) . ?
C4 C5 1.402(9) . ?
C5 H5 0.9500 . ?
C5 C6 1.386(9) . ?
C6 H6 0.9500 . ?
C7 C8 1.397(9) . ?
C7 C12 1.406(9) . ?
C8 H8 0.9500 . ?
C8 C9 1.403(9) . ?
C9 H9 0.9500 . ?
C9 C10 1.388(9) . ?
C10 C11 1.394(10) . ?
C11 H11 0.9500 . ?
C11 C12 1.384(11) . ?
C12 H12 0.9500 . ?
C13 C14 1.400(11) . ?
C13 C18 1.415(11) . ?
C14 H14 0.9500 . ?
C14 C15 1.394(11) . ?
C15 H15 0.9500 . ?
C15 C16 1.373(12) . ?
C16 C17 1.373(12) . ?
C17 H17 0.9500 . ?
C17 C18 1.355(11) . ?
C18 H18 0.9500 . ?
loop_
_geom_torsion_atom_site_label_1
_geom_torsion_atom_site_label_2
_geom_torsion_atom_site_label_3
_geom_torsion_atom_site_label_4
_geom_torsion
_geom_torsion_site_symmetry_1
_geom_torsion_site_symmetry_2
_geom_torsion_site_symmetry_3
_geom_torsion_site_symmetry_4
_geom_torsion_publ_flag
I1 C4 C5 C6 -178.2(5) . . . . ?
I2 C10 C11 C12 178.2(5) . . . . ?
O1 C19 C10 C9 178(4) . . . . ?
O1 C19 C10 C11 -8(6) . . . . ?
C19 C10 C11 C12 -174(2) . . . . ?
I3 C16 C17 C18 -179.5(7) . . . . ?
O2A C20A C16 C15 167(5) . . . . ?
O2A C20A C16 C17 -12(9) . . . . ?
C20A C16 C17 C18 180(4) . . . . ?
O2B C20B C16 C15 -15(8) . . . . ?
O2B C20B C16 C17 167(5) . . . . ?
C20B C16 C17 C18 179(3) . . . . ?
N1 C1 C2 C3 -178.3(7) . . . . ?
N1 C1 C6 C5 177.2(6) . . . . ?
N1 C7 C8 C9 178.2(6) . . . . ?
N1 C7 C12 C11 -179.0(7) . . . . ?
N1 C13 C14 C15 179.9(8) . . . . ?
N1 C13 C18 C17 179.2(8) . . . . ?
C1 N1 C7 C8 -34.7(10) . . . . ?
C1 N1 C7 C12 146.7(7) . . . . ?
C1 N1 C13 C14 140.0(8) . . . . ?
C1 N1 C13 C18 -40.5(12) . . . . ?
C1 C2 C3 C4 1.0(11) . . . . ?
C2 C1 C6 C5 -1.4(10) . . . . ?
C2 C3 C4 I1 177.2(5) . . . . ?
C2 C3 C4 C5 -1.4(10) . . . . ?
C3 C4 C5 C6 0.3(10) . . . . ?
C4 C5 C6 C1 1.0(10) . . . . ?
C6 C1 C2 C3 0.3(11) . . . . ?
C7 N1 C1 C2 150.8(7) . . . . ?
C7 N1 C1 C6 -27.8(10) . . . . ?
C7 N1 C13 C14 -43.9(12) . . . . ?
C7 N1 C13 C18 135.5(8) . . . . ?
C7 C8 C9 C10 1.9(9) . . . . ?
C8 C7 C12 C11 2.4(10) . . . . ?
C8 C9 C10 I2 -178.9(5) . . . . ?
C8 C9 C10 C19 174.2(18) . . . . ?
C8 C9 C10 C11 0.3(10) . . . . ?
C9 C10 C11 C12 -1.1(10) . . . . ?
C10 C11 C12 C7 -0.3(11) . . . . ?
C12 C7 C8 C9 -3.1(9) . . . . ?
C13 N1 C1 C2 -33.2(10) . . . . ?
C13 N1 C1 C6 148.3(7) . . . . ?
C13 N1 C7 C8 149.4(7) . . . . ?
C13 N1 C7 C12 -29.2(10) . . . . ?
C13 C14 C15 C16 1.1(13) . . . . ?
C14 C13 C18 C17 -1.3(12) . . . . ?
C14 C15 C16 I3 178.6(7) . . . . ?
C14 C15 C16 C20A 179(4) . . . . ?
C14 C15 C16 C20B 180(3) . . . . ?
C14 C15 C16 C17 -1.6(13) . . . . ?
C15 C16 C17 C18 0.7(13) . . . . ?
C16 C17 C18 C13 0.8(13) . . . . ?
C18 C13 C14 C15 0.4(13) . . . . ?
