#------------------------------------------------------------------------------
#$Date: 2022-06-01 01:37:49 +0300 (Wed, 01 Jun 2022) $
#$Revision: 275708 $
#$URL: file:///home/coder/svn-repositories/cod/cif/7/24/50/7245011.cif $
#------------------------------------------------------------------------------
#
# This file is available in the Crystallography Open Database (COD),
# http://www.crystallography.net/
#
# All data on this site have been placed in the public domain by the
# contributors.
#
data_7245011
loop_
_publ_author_name
'Karunathilaka, Dilan'
'Rajapakse, R. M. G.'
'Steen, April'
'Sexton, Thomas More'
'Sparks, Nicholas'
'Mosely, Jacquelyn'
'Rheingold, Arnold L.'
'Hammer, Nathan I.'
'Tschumper, Gregory S.'
'Watkins, Davita'
_publ_section_title
;
 Correlation of Solid-State Order to Optoelectronic Behavior in
 Heterocyclic Oligomers
;
_journal_name_full               CrystEngComm
_journal_paper_doi               10.1039/D2CE00560C
_journal_year                    2022
_chemical_formula_moiety         'C34 H40 N2 S4'
_chemical_formula_sum            'C34 H40 N2 S4'
_chemical_formula_weight         604.92
_space_group_crystal_system      triclinic
_space_group_IT_number           2
_space_group_name_Hall           '-P 1'
_space_group_name_H-M_alt        'P -1'
_atom_sites_solution_hydrogens   geom
_atom_sites_solution_primary     direct
_audit_creation_date             2021-02-12
_audit_creation_method
;
Olex2 1.3
(compiled 2020.11.12 svn.r5f609507 for OlexSys, GUI svn.r6226)
;
_audit_update_record
;
2022-04-21 deposited with the CCDC.	2022-05-30 downloaded from the CCDC.
;
_cell_angle_alpha                80.692(8)
_cell_angle_beta                 84.686(7)
_cell_angle_gamma                71.676(7)
_cell_formula_units_Z            1
_cell_length_a                   5.765(3)
_cell_length_b                   7.688(4)
_cell_length_c                   18.142(9)
_cell_measurement_reflns_used    2508
_cell_measurement_temperature    100.0
_cell_measurement_theta_max      26.43
_cell_measurement_theta_min      2.82
_cell_volume                     752.5(7)
_computing_molecular_graphics    'Olex2 1.3 (Dolomanov et al., 2009)'
_computing_publication_material  'Olex2 1.3 (Dolomanov et al., 2009)'
_computing_structure_refinement  'SHELXL 2014/7 (Sheldrick, 2015)'
_computing_structure_solution    'SHELXS  (Sheldrick, 2008)'
_diffrn_ambient_temperature      100.0
_diffrn_measured_fraction_theta_full 1.000
_diffrn_measured_fraction_theta_max 0.969
_diffrn_measurement_device_type  'Bruker APEX-II CCD'
_diffrn_measurement_method       '\f and \w scans'
_diffrn_radiation_type           MoK\a
_diffrn_radiation_wavelength     0.71073
_diffrn_reflns_av_R_equivalents  0.0486
_diffrn_reflns_av_unetI/netI     0.0802
_diffrn_reflns_Laue_measured_fraction_full 1.000
_diffrn_reflns_Laue_measured_fraction_max 0.969
_diffrn_reflns_limit_h_max       7
_diffrn_reflns_limit_h_min       -7
_diffrn_reflns_limit_k_max       9
_diffrn_reflns_limit_k_min       -9
_diffrn_reflns_limit_l_max       22
_diffrn_reflns_limit_l_min       -22
_diffrn_reflns_number            6216
_diffrn_reflns_point_group_measured_fraction_full 1.000
_diffrn_reflns_point_group_measured_fraction_max 0.969
_diffrn_reflns_theta_full        25.242
_diffrn_reflns_theta_max         26.518
_diffrn_reflns_theta_min         1.139
_diffrn_source_current           50.0
_diffrn_source_power             2.5
_diffrn_source_voltage           50.0
_diffrn_standards_number         0
_exptl_absorpt_coefficient_mu    0.343
_exptl_absorpt_correction_T_max  0.677
_exptl_absorpt_correction_T_min  0.511
_exptl_absorpt_correction_type   multi-scan
_exptl_absorpt_process_details   SADABS
_exptl_crystal_colour            yellow
_exptl_crystal_colour_primary    yellow
_exptl_crystal_density_diffrn    1.335
_exptl_crystal_description       plate
_exptl_crystal_F_000             322
_exptl_crystal_size_max          0.29
_exptl_crystal_size_mid          0.27
_exptl_crystal_size_min          0.1
_refine_diff_density_max         1.367
_refine_diff_density_min         -0.708
_refine_diff_density_rms         0.145
_refine_ls_extinction_method     none
_refine_ls_goodness_of_fit_ref   1.603
_refine_ls_hydrogen_treatment    constr
_refine_ls_matrix_type           full
_refine_ls_number_parameters     184
_refine_ls_number_reflns         3083
_refine_ls_number_restraints     0
_refine_ls_restrained_S_all      1.603
_refine_ls_R_factor_all          0.1232
_refine_ls_R_factor_gt           0.1130
_refine_ls_shift/su_max          0.000
_refine_ls_shift/su_mean         0.000
_refine_ls_structure_factor_coef Fsqd
_refine_ls_weighting_details
'w=1/[\s^2^(Fo^2^)+(0.2000P)^2^] where P=(Fo^2^+2Fc^2^)/3'
_refine_ls_weighting_scheme      calc
_refine_ls_wR_factor_gt          0.3653
_refine_ls_wR_factor_ref         0.3859
_reflns_Friedel_coverage         0.000
_reflns_number_gt                2595
_reflns_number_total             3083
_reflns_threshold_expression     'I > 2\s(I)'
_cod_data_source_file            d2ce00560c2.cif
_cod_data_source_block           dwat72r_0m_a
_cod_original_cell_volume        752.4(7)
_cod_database_code               7245011
_shelx_shelxl_version_number     2014/7
_shelx_space_group_comment
;
The symmetry employed for this shelxl refinement is uniquely defined
by the following loop, which should always be used as a source of
symmetry information in preference to the above space-group names.
They are only intended as comments.
;
_shelx_estimated_absorpt_t_max   0.966
_shelx_estimated_absorpt_t_min   0.907
_olex2_refinement_description
;
1. Twinned data refinement
 Scales: 0.908(3)
 0.092(3)
2. Fixed Uiso
 At 1.2 times of:
  All C(H) groups, All C(H,H) groups
 At 1.5 times of:
  All C(H,H,H) groups
3.a Secondary CH2 refined with riding coordinates:
 C13(H13A,H13B), C16(H16A,H16B), C12(H12A,H12B), C15(H15A,H15B), C14(H14A,H14B)
3.b Aromatic/amide H refined with riding coordinates:
 C6(H6), C5(H5), C10(H10), C9(H9)
3.c Idealised Me refined as rotating group:
 C1(H1A,H1B,H1C), C17(H17A,H17B,H17C)
;
_shelx_res_file
;
    dwat72r_0m_a.res created by SHELXL-2014/7

TITL dwat72R_0m_a.res in P-1
REM Old TITL dwat72R_0m in P-1
REM SHELXT solution in P-1
REM R1 0.196, Rweak 0.077, Alpha 0.142, Orientation as input
REM Formula found by SHELXT: C17 N S2
CELL 0.71073 5.7647 7.6876 18.1418 80.692 84.686 71.676
ZERR 1 0.0029 0.0039 0.0092 0.008 0.007 0.007
LATT 1
SFAC C H N S
UNIT 34 40 2 4

L.S. 10
PLAN  3
SIZE 0.1 0.27 0.29
TEMP -173.15
CONF
BOND $H
LIST 6
MORE -1
fmap 2
ACTA
TWIN -1 0 0 0 -1 0 -0.281 -0.697 1 2
REM <olex2.extras>
REM <HklSrc "%.\\dwat72R_0m_a.hkl">
REM </olex2.extras>

WGHT    0.200000
BASF   0.09186
FVAR       0.47073
S1    4    0.287172    0.571434    0.799889    11.00000    0.01058    0.01084 =
         0.00462   -0.00006    0.00050   -0.00401
S2    4    0.186799    0.816264    0.565007    11.00000    0.01067    0.01272 =
         0.00469   -0.00015    0.00166   -0.00324
N1    3    0.199778    0.448942    0.952059    11.00000    0.01332    0.01373 =
         0.00685   -0.00061    0.00225   -0.00941
C3    1   -0.007822    0.574328    0.927300    11.00000    0.01639    0.00925 =
         0.00528   -0.00127    0.00221   -0.01078
C8    1    0.319325    0.695533    0.647577    11.00000    0.01483    0.00901 =
         0.00623   -0.00053   -0.00130   -0.00634
C13   1    0.710852    0.750838    0.389641    11.00000    0.01401    0.01226 =
         0.01056   -0.00280    0.00147   -0.00754
AFIX  23
H13A  2    0.760112    0.614227    0.393795    11.00000   -1.20000
H13B  2    0.837363    0.785103    0.412221    11.00000   -1.20000
AFIX   0
C11   1    0.462499    0.749511    0.513540    11.00000    0.01296    0.00828 =
         0.00874   -0.00386    0.00303   -0.00455
C6    1   -0.074009    0.787283    0.725478    11.00000    0.01260    0.01523 =
         0.00712    0.00094   -0.00348   -0.00608
AFIX  43
H6    2   -0.170469    0.862028    0.685576    11.00000   -1.20000
AFIX   0
C16   1    0.890159    0.875462    0.178922    11.00000    0.01103    0.00967 =
         0.00878   -0.00153    0.00307   -0.00219
AFIX  23
H16A  2    0.828979    1.011162    0.178672    11.00000   -1.20000
H16B  2    0.762738    0.838303    0.158213    11.00000   -1.20000
AFIX   0
C5    1   -0.170520    0.759771    0.799645    11.00000    0.01039    0.01673 =
         0.00998    0.00041    0.00175   -0.00836
AFIX  43
H5    2   -0.336237    0.814237    0.815004    11.00000   -1.20000
AFIX   0
C10   1    0.640838    0.639272    0.558121    11.00000    0.01139    0.01203 =
         0.01087   -0.00166    0.00265   -0.00444
AFIX  43
H10   2    0.804118    0.586513    0.540163    11.00000   -1.20000
AFIX   0
C12   1    0.464703    0.821406    0.431258    11.00000    0.01208    0.01377 =
         0.00928   -0.00137   -0.00098   -0.00304
AFIX  23
H12A  2    0.415779    0.958261    0.425052    11.00000   -1.20000
H12B  2    0.340577    0.786293    0.407846    11.00000   -1.20000
AFIX   0
C2    1    0.212827    0.373292    1.023934    11.00000    0.01463    0.01243 =
         0.00688   -0.00139    0.00060   -0.00987
C15   1    0.927233    0.782361    0.258906    11.00000    0.00815    0.01283 =
         0.01197    0.00088    0.00152   -0.00690
AFIX  23
H15A  2    1.054624    0.818561    0.280105    11.00000   -1.20000
H15B  2    0.985126    0.646404    0.259831    11.00000   -1.20000
AFIX   0
C1    1    0.453389    0.233091    1.045973    11.00000    0.01498    0.02147 =
         0.00845   -0.00095   -0.00010   -0.00352
AFIX 137
H1A   2    0.563523    0.213153    1.001538    11.00000   -1.50000
H1B   2    0.425921    0.116005    1.068441    11.00000   -1.50000
H1C   2    0.527261    0.278886    1.082281    11.00000   -1.50000
AFIX   0
C17   1    1.119409    0.829585    0.128364    11.00000    0.01892    0.02383 =
         0.01188   -0.00557    0.01078   -0.01089
AFIX 137
H17A  2    1.077874    0.882384    0.076625    11.00000   -1.50000
H17B  2    1.190026    0.694923    0.131696    11.00000   -1.50000
H17C  2    1.238492    0.881797    0.144094    11.00000   -1.50000
AFIX   0
C14   1    0.690438    0.835981    0.306939    11.00000    0.01406    0.01309 =
         0.01021   -0.00108    0.00326   -0.00744
AFIX  23
H14A  2    0.565120    0.798484    0.285250    11.00000   -1.20000
H14B  2    0.631821    0.972424    0.304144    11.00000   -1.20000
AFIX   0
C9    1    0.562490    0.608816    0.634785    11.00000    0.01618    0.01339 =
         0.00771   -0.00146   -0.00190   -0.00590
AFIX  43
H9    2    0.668362    0.535896    0.672899    11.00000   -1.20000
AFIX   0
C4    1    0.006146    0.643973    0.846845    11.00000    0.01187    0.01181 =
         0.00572   -0.00196    0.00253   -0.00727
C7    1    0.171889    0.696180    0.716291    11.00000    0.01057    0.01246 =
         0.00915   -0.00239    0.00216   -0.00754
HKLF 4

REM  dwat72R_0m_a.res in P-1
REM R1 =  0.1130 for    2595 Fo > 4sig(Fo)  and  0.1232 for all    3083 data
REM    184 parameters refined using      0 restraints

END

WGHT      0.2000      0.0000

REM Highest difference peak  1.367,  deepest hole -0.708,  1-sigma level  0.145
Q1    1   0.4631  0.4892  0.5669  11.00000  0.05    1.37
Q2    1  -0.0058  0.8813  0.7983  11.00000  0.05    1.15
Q3    1   0.1499  0.7644  0.5600  11.00000  0.05    1.07
;
_shelx_res_checksum              95342
_shelx_hkl_file
;
  -1   0   0   56.79    3.60
  -1   0   0   54.29    4.10
  -1   0   0   48.50    3.40
   1   0   0   47.80    3.40
   1   0   0   57.49    3.60
  -2   0   0  164.58   10.70
  -2   0   0  167.88   12.00
   2   0   0  166.08   10.50
  -3   0   0   66.99    6.90
  -3   0   0   70.89    5.50
   3   0   0   76.29    5.20
  -4   0   0   47.90    6.70
  -4   0   0   60.99    5.30
   4   0   0   74.59    5.00
  -5   0   0    1.60    2.40
  -5   0   0    1.60    2.30
   5   0   0   -0.20    0.90
  -6   0   0   31.20    7.70
  -6   1   0   15.00    5.60
  -5   1   0    5.70    3.50
   4  -1   0    0.40    0.70
  -4   1   0    1.40    2.00
  -4   1   0    0.00    1.10
   3  -1   0    9.00    1.40
  -3   1   0   10.30    3.20
  -3   1   0   13.50    2.10
   2  -1   0   35.60    2.50
  -2   1   0   35.00    4.10
  -2   1   0   33.30    2.70
   1  -1   0    4.80    0.60
  -1   1   0    4.30    1.40
  -1   1   0    4.80    0.60
   0  -1   0  265.87   16.50
   0   1   0  287.77   16.70
   0   1   0  265.17   16.50
  -1  -1   0  322.27   19.50
  -1  -1   0  297.47   19.80
   1   1   0  342.77   19.70
   1   1   0  328.67   19.50
  -2  -1   0   87.89    6.90
  -2  -1   0   87.19    6.30
   2   1   0   88.59    6.20
   2   1   0   88.29    6.00
  -3  -1   0  313.47   20.50
  -3  -1   0  323.27   19.10
   3   1   0  279.87   18.40
   3   1   0  261.97   19.00
  -4  -1   0  257.17   16.90
  -4  -1   0  258.87   19.00
   4   1   0  241.88   16.30
  -5  -1   0   12.80    3.00
  -5  -1   0   13.90    4.50
   5   1   0   12.10    2.50
  -6  -1   0    1.10    2.40
  -7  -1   0    6.00    3.80
  -6   2   0  116.39   13.50
  -5   2   0   -1.70    2.20
  -4   2   0  340.07   25.30
   3  -2   0   49.60    3.80
  -3   2   0   56.29    6.50
  -3   2   0   54.89    4.10
   2  -2   0  124.39    7.20
  -2   2   0   91.59    8.90
  -1   2   0    8.50    2.00
   0  -2   0 1111.69   69.19
   0   2   0 1198.78   69.59
  -1  -2   0    4.00    1.10
   1   2   0    4.10    0.90
  -2  -2   0   20.20    2.70
  -2  -2   0    9.90    2.30
   2   2   0   16.00    1.80
   2   2   0   16.10    1.60
  -3  -2   0  178.48   13.30
  -3  -2   0  195.08   14.40
   3   2   0  210.48   13.20
   3   2   0  205.28   13.10
  -4  -2   0  144.89   10.40
  -4  -2   0  152.78   12.00
   4   2   0  121.09   10.00
   4   2   0  136.89    9.70
  -5  -2   0   66.89    6.10
  -5  -2   0   44.10    6.80
   5   2   0   66.59    5.50
  -6  -2   0   34.00    5.30
  -6  -2   0   27.40    7.00
   6   2   0   28.70    4.30
  -7  -2   0   29.60    7.80
  -5   3   0    0.90    2.50
  -4   3   0   95.99   10.60
  -3   3   0  218.18   17.40
  -2   3   0   39.60    4.90
  -1   3   0   38.00    4.10
   0  -3   0  291.37   18.10
   0   3   0  287.57   18.60
  -2  -3   0    4.70    1.50
   2   3   0    7.60    1.50
  -3  -3   0   42.80    4.30
  -3  -3   0   38.80    4.50
   3   3   0   48.10    4.10
   3   3   0   42.50    3.60
  -4  -3   0  207.58   15.60
  -4  -3   0  205.98   14.50
   4   3   0  204.78   13.90
   4   3   0  194.48   13.70
  -5  -3   0   43.20    6.20
  -5  -3   0   37.50    5.80
   5   3   0   54.59    4.90
  -6  -3   0   46.60    8.70
  -6  -3   0   47.90    6.70
   6   3   0   33.30    4.30
  -7  -3   0    3.50    3.50
  -5   4   0    3.90    4.10
  -4   4   0    7.50    4.20
  -3   4   0  144.29   13.30
  -2   4   0    7.80    2.70
  -1   4   0    5.60    2.20
   0  -4   0   15.60    1.80
   0   4   0   13.60    2.60
  -1  -4   0  705.63   43.30
   1   4   0  700.83   43.20
  -2  -4   0    8.00    2.10
   2   4   0    9.40    1.80
   2   4   0   10.10    2.20
  -3  -4   0    2.50    1.50
   3   4   0    4.20    1.30
   3   4   0    7.00    1.90
  -4  -4   0   26.20    4.50
  -4  -4   0   20.10    4.50
   4   4   0   29.00    4.20
   4   4   0   27.10    2.90
  -5  -4   0    5.70    2.90
  -5  -4   0    5.70    2.70
   5   4   0    5.10    2.10
  -6  -4   0   28.20    4.80
  -7  -4   0    1.90    2.90
  -7  -4   0    5.10    3.70
   7   4   0    4.10    2.30
  -4   5   0    8.30    4.60
  -3   5   0    0.50    2.70
  -2   5   0   87.99    9.20
  -1   5   0    3.00    2.00
   0  -5   0  358.96   23.20
   0   5   0  389.76   24.80
   0   5   0  355.96   24.30
  -1  -5   0    6.40    1.70
   1   5   0    4.90    1.50
  -2  -5   0  234.48   16.30
   2   5   0  241.38   16.10
   2   5   0  244.58   15.80
  -3  -5   0   24.60    4.00
   3   5   0   26.80    3.20
   3   5   0   21.50    2.50
  -4  -5   0  124.79   10.50
   4   5   0  138.59   10.30
  -5  -5   0   19.10    4.70
  -5  -5   0   16.30    3.90
   5   5   0   15.00    3.50
  -6  -5   0   29.60    6.50
  -6  -5   0   27.40    5.50
   6   5   0   27.40    4.90
  -3   6   0    9.60    4.40
  -2   6   0   24.10    5.90
  -1   6   0   47.80    6.20
   0  -6   0    6.60    1.70
   0   6   0    2.80    2.00
   0   6   0    4.90    2.40
  -1  -6   0    0.30    0.90
   1   6   0    0.30    1.10
   1   6   0   -0.10    1.00
   1   6   0    0.90    1.00
   2   6   0  314.57   20.90
  -3  -6   0   35.70    4.50
   3   6   0   38.60    4.40
   3   6   0   33.80    3.60
  -4  -6   0  122.99   10.10
   4   6   0  116.49    9.80
  -5  -6   0    9.10    3.50
   5   6   0   15.80    3.70
  -6  -6   0   52.79    6.50
   6   6   0   47.00    6.00
  -3   7   0    5.40    3.90
  -2   7   0  117.19   12.20
  -1   7   0   95.59   10.30
  -1   7   0  111.59   10.20
   0  -7   0   11.20    2.40
   0   7   0    9.70    3.20
   0   7   0    7.40    3.10
  -1  -7   0   58.89    5.30
   1   7   0   52.29    5.70
   1   7   0   62.09    6.40
   1   7   0   50.49    5.30
  -2  -7   0    5.30    2.40
   2   7   0    1.90    1.90
   2   7   0    3.60    1.70
  -3  -7   0   55.99    6.00
   3   7   0   56.99    5.80
  -4  -7   0   10.90    3.50
   4   7   0   13.60    3.70
  -5  -7   0   49.30    7.60
   5   7   0   57.19    6.40
  -6  -7   0    4.90    3.00
   6   7   0    0.80    2.20
  -1   8   0   56.49    7.40
   0   8   0   45.40    5.90
   0   8   0   46.60    6.70
  -1  -8   0    7.90    2.50
   1   8   0   13.30    3.90
   1   8   0    9.10    3.20
   1   8   0   10.00    2.80
  -2  -8   0  105.49    9.20
   2   8   0  113.49    9.90
   2   8   0  109.59    9.20
   2   8   0  102.09    9.00
   3   8   0   69.29    7.00
  -4  -8   0    3.80    2.70
   4   8   0    3.40    2.60
  -5  -8   0    1.40    2.60
   5   8   0    6.60    3.10
   0   9   0    7.00    3.20
   1   9   0   64.69    7.30
   1   9   0   72.59    7.00
  -2  -9   0   -0.70    1.70
   2   9   0    0.90    1.90
  -3  -9   0   74.19    7.90
   3   9   0   83.19    8.20
  -4  -9   0   23.60    4.80
   4   9   0   22.80    4.90
   4   9  -1   16.90    4.30
  -4  -9   1   19.10    4.50
   3   9  -1   36.00    6.40
  -3  -9   1   39.50    6.60
   2   9  -1   44.00    6.50
  -2  -9   1   41.60    6.20
   1   9  -1   -0.50    1.60
  -1  -9   1   -1.30    1.30
   5   8  -1    8.00    3.30
  -5  -8   1    2.90    2.60
   4   8  -1  142.39   11.60
  -4  -8   1  132.99   11.50
  -3  -8   1  171.68   13.40
   2   8  -1   34.30    5.10
   2   8  -1   30.70    4.30
   2   8  -1   39.90    4.70
  -2  -8   1   41.50    6.00
   1   8  -1   93.59    9.70
   1   8  -1  110.09    9.20
   1   8  -1  103.09    8.50
  -1  -8   1   97.59    8.30
   0   8  -1    9.90    3.60
   0   8  -1   15.00    4.80
  -1   8  -1   56.49    7.10
  -1   8  -1   39.20    8.00
   6   7  -1   12.50    4.00
  -6  -7   1   12.50    4.00
   5   7  -1    5.20    2.80
  -5  -7   1    2.10    2.50
   4   7  -1   20.20    4.40
  -4  -7   1   19.90    4.50
   3   7  -1   92.29    7.90
  -3  -7   1   81.39    7.70
   2   7  -1   13.00    2.80
   2   7  -1   12.50    3.00
  -2  -7   1   11.30    3.10
   1   7  -1   92.69    8.70
   1   7  -1   88.89    8.00
   1   7  -1   87.09    7.40
  -1  -7   1   92.49    7.50
   0   7  -1   34.60    5.80
   0   7  -1   22.30    5.10
   0   7  -1   32.00    3.60
   0  -7   1   34.90    3.60
  -1   7  -1  225.68   18.40
  -2   7  -1   24.10    6.60
   6   6  -1   84.49    8.50
  -6  -6   1   91.89    9.10
   5   6  -1    9.00    3.00
  -5  -6   1    5.80    2.80
   4   6  -1   57.99    6.00
  -4  -6   1   59.79    6.20
   3   6  -1  429.46   27.40
   3   6  -1  405.06   26.30
  -3  -6   1  420.16   27.60
   2   6  -1    6.80    2.10
   2   6  -1    4.30    1.50
  -2  -6   1    6.00    2.10
   1   6  -1    5.20    1.80
   1   6  -1    2.70    1.70
   1   6  -1    5.20    1.60
  -1  -6   1    2.00    1.60
   0   6  -1   60.29    7.10
   0   6  -1   82.99    7.40
   0   6  -1   79.09    6.10
   0  -6   1   78.79    6.10
  -1   6  -1    2.00    2.00
  -2   6  -1  101.99   10.70
  -3   6  -1   -0.80    2.40
   6   5  -1   24.60    4.40
  -6  -5   1   32.80    5.80
   5   5  -1  111.09    9.40
  -5  -5   1  119.39   10.70
  -5  -5   1  108.69    9.70
   4   5  -1    7.00    2.00
  -4  -5   1    9.30    2.60
   3   5  -1  115.49    7.90
   3   5  -1  108.19    8.70
   2   5  -1  107.69    7.90
   2   5  -1  112.89    8.40
  -2  -5   1  113.09    8.60
   1   5  -1   11.70    2.10
   1   5  -1    5.20    1.50
  -1  -5   1    5.80    1.60
   0   5  -1    4.00    1.80
   0  -5   1    3.80    1.30
  -1   5  -1    5.90    2.30
  -2   5  -1   37.40    6.90
  -3   5  -1   35.90    7.60
  -4   5  -1   19.80    6.10
   7   4  -1   47.90    5.70
  -7  -4   1   51.09    6.40
   6   4  -1   63.49    6.50
  -6  -4   1   65.39    8.40
  -6  -4   1   73.79    7.30
   5   4  -1    1.40    1.70
  -5  -4   1    1.20    1.70
  -5  -4   1    1.40    1.80
   4   4  -1  263.17   17.70
   4   4  -1  240.48   17.00
  -4  -4   1  277.77   18.20
  -4  -4   1  270.37   19.00
   3   4  -1   41.40    3.40
   3   4  -1   35.00    3.90
  -3  -4   1   41.70    4.20
   2   4  -1  213.38   13.80
  -2  -4   1  199.18   14.00
   1   4  -1   14.90    2.40
   1   4  -1   16.60    2.80
  -1  -4   1   10.30    2.10
   0   4  -1   38.10    4.30
   0  -4   1   51.99    3.80
  -1   4  -1   80.59    7.40
  -2   4  -1    4.90    2.40
  -3   4  -1    2.00    2.30
  -4   4  -1    0.60    3.00
  -5   4  -1   16.80    5.90
  -7  -3   1   59.29   11.10
   6   3  -1  102.49    8.00
  -6  -3   1   92.29    8.30
  -6  -3   1   76.39    9.70
   5   3  -1    9.00    2.20
  -5  -3   1    7.20    3.40
  -5  -3   1    5.00    2.40
   4   3  -1   56.49    5.30
   4   3  -1   62.89    5.10
  -4  -3   1   61.99    5.80
  -4  -3   1   61.99    6.70
   3   3  -1   37.70    3.50
   3   3  -1   36.60    3.10
  -3  -3   1   37.80    3.80
  -3  -3   1   33.20    4.10
   2   3  -1  156.58   10.20
   2   3  -1  157.18   10.80
  -2  -3   1  171.98   11.20
   0   3  -1   96.79    7.50
   0  -3   1  105.29    6.90
  -1   3  -1   76.19    6.70
  -2   3  -1    1.50    1.70
  -3   3  -1   10.60    3.90
  -4   3  -1  116.19   12.10
  -5   3  -1    1.10    2.90
  -7  -2   1   55.39   10.80
   6   2  -1  138.89    9.60
  -6  -2   1   91.79   11.70
  -6  -2   1  131.49   10.20
   5   2  -1   62.39    5.40
  -5  -2   1   59.79    5.80
  -5  -2   1   54.59    7.30
   4   2  -1   30.00    3.10
  -4  -2   1   23.40    4.90
  -4  -2   1   18.10    3.40
   3   2  -1  134.89   10.30
   3   2  -1  154.58   10.60
  -3  -2   1  179.78   12.30
  -3  -2   1  163.88   11.00
   2   2  -1  250.87   14.80
   2   2  -1  240.58   15.30
  -2  -2   1  223.88   15.50
   1   2  -1   17.20    1.70
   1   2  -1   16.10    1.50
  -1  -2   1   17.30    1.90
   0   2  -1   71.19    5.10
   0  -2   1   65.79    4.60
  -1   2  -1  104.59    8.00
  -2   2  -1   77.79    7.70
   2  -2   1   95.89    5.70
  -3   2  -1   58.19    4.50
  -3   2  -1   54.29    6.60
   3  -2   1   56.89    3.90
  -4   2  -1    1.60    2.40
  -5   2  -1   71.79    9.50
  -6   2  -1    2.00    3.20
  -7  -1   1   19.90    7.10
  -6  -1   1   21.30    6.00
   5   1  -1  158.58   10.80
  -5  -1   1  144.99   11.10
   4   1  -1  172.98   11.80
  -4  -1   1  170.88   14.10
  -4  -1   1  177.78   12.10
   3   1  -1   41.70    3.50
  -3  -1   1   41.40    4.80
  -3  -1   1   39.30    3.70
   2   1  -1   45.10    3.60
   2   1  -1   42.40    3.50
  -2  -1   1   49.30    4.40
  -2  -1   1   47.60    3.70
   1   1  -1  145.69    8.80
   1   1  -1  150.78    9.20
  -1  -1   1  147.39    9.20
  -1  -1   1  149.39    8.70
  -1  -1   1  127.39    9.40
   0   1  -1    1.00    0.40
   0   1  -1    1.40    0.40
   0  -1   1    1.10    0.40
  -1   1  -1   26.70    1.70
  -1   1  -1   25.50    2.80
   1  -1   1   24.20    1.70
  -2   1  -1  131.89   10.70
   2  -1   1  147.89    8.80
  -3   1  -1   31.80    3.00
  -3   1  -1   31.40    4.60
   3  -1   1   29.40    2.40
  -4   1  -1  412.36   28.10
  -4   1  -1  391.86   24.70
   4  -1   1  365.26   23.80
  -5   1  -1    0.20    2.30
  -6   1  -1   60.49   11.10
  -6   0   1    5.10    3.50
   5   0  -1    3.30    1.10
  -5   0   1    2.80    2.60
   4   0  -1   39.20    3.40
  -4   0   1   34.00    3.50
  -4   0   1   27.60    5.70
   3   0  -1  277.87   17.70
  -3   0   1  287.67   17.90
  -3   0   1  279.47   19.90
   2   0  -1   31.70    2.50
  -2   0   1   32.40    3.60
  -2   0   1   31.50    2.60
   1   0  -1   23.30    1.70
   1   0  -1   22.30    1.70
  -1   0   1   23.20    2.30
  -1   0   1   19.40    1.60
   0   0  -1   69.29    4.10
   0   0   1   62.99    4.00
  -1   0  -1 2040.30  119.49
  -1   0  -1 2064.69  122.39
  -1   0  -1 2166.28  120.39
   1   0   1 1917.41  119.39
   1   0   1 1789.42  120.79
  -2   0  -1    9.50    2.40
  -2   0  -1   10.10    1.70
   2   0   1    5.70    1.80
   2   0   1    7.40    0.90
  -3   0  -1  103.49    7.40
  -3   0  -1  100.09    8.90
   3   0   1   99.19    6.80
  -4   0  -1  137.29   11.70
  -4   0  -1  126.79    9.20
   4   0   1  117.79    8.40
  -5   0  -1    1.50    1.50
  -5   0  -1   -1.60    1.40
  -6   0  -1   58.29    8.80
  -6   1   1   62.79    9.30
  -5   1   1   49.30    7.50
   4  -1  -1  210.28   13.80
  -4   1   1  213.68   13.90
  -4   1   1  218.18   17.40
   3  -1  -1   18.50    1.80
  -3   1   1   16.20    1.90
  -3   1   1   16.70    3.90
   2  -1  -1  200.88   13.20
  -2   1   1  215.68   15.10
  -2   1   1  221.38   13.20
   1  -1  -1   61.19    4.00
  -1   1   1   61.89    5.00
   0  -1  -1  826.12   50.89
   0  -1  -1  847.72   50.59
   0   1   1  878.41   51.19
   0   1   1  861.21   50.89
   0   1   1  836.12   50.59
   0   1   1  831.82   51.19
  -1  -1  -1  710.53   42.30
  -1  -1  -1  716.43   42.40
  -1  -1  -1  739.33   42.20
   1   1   1  632.04   42.00
  -2  -1  -1   30.30    2.80
  -2  -1  -1   31.60    3.30
   2   1   1   27.20    2.40
  -3  -1  -1  146.99   10.90
  -3  -1  -1  132.29    9.40
   3   1   1  122.49    9.60
   3   1   1  131.69    8.90
  -4  -1  -1   -0.50    1.00
  -4  -1  -1   -0.30    1.20
   4   1   1    0.10    0.90
  -5  -1  -1  182.98   13.30
  -5  -1  -1  176.98   15.70
   5   1   1  187.58   12.50
  -6  -1  -1   35.10    7.90
  -7  -1  -1   63.89    9.70
  -6   2   1   24.60    7.60
  -5   2   1   56.69    8.50
  -4   2   1    1.10    2.40
   3  -2  -1   60.09    4.30
  -3   2   1   56.59    6.60
  -3   2   1   55.99    4.20
   2  -2  -1  195.78   12.30
  -2   2   1  197.28   14.50
   1  -2  -1   21.50    1.80
  -1   2   1   20.70    1.60
  -1   2   1   21.60    2.60
   0  -2  -1 2927.11  166.18
   0   2   1 2815.72  166.98
   0   2   1 2553.64  167.08
  -1  -2  -1   16.80    2.20
   1   2   1   11.80    1.30
  -2  -2  -1   29.00    3.20
  -2  -2  -1   26.10    2.90
   2   2   1   29.60    2.60
   2   2   1   31.80    2.70
  -3  -2  -1   12.90    3.00
  -3  -2  -1   12.00    2.50
   3   2   1   13.60    2.50
   3   2   1   11.80    2.00
  -4  -2  -1  119.09   10.50
  -4  -2  -1  127.39    9.30
   4   2   1  112.59    8.50
   4   2   1  118.59    9.20
  -5  -2  -1   11.70    4.00
  -5  -2  -1   12.80    3.20
   5   2   1    9.80    2.30
  -6  -2  -1    4.50    2.30
  -6  -2  -1    6.10    3.60
   6   2   1    5.60    2.00
  -7  -2  -1    1.80    2.50
  -5   3   1   63.39    9.10
  -4   3   1   22.80    5.90
   3  -3  -1  380.66   24.10
  -3   3   1  405.56   28.00
   2  -3  -1   14.40    1.60
  -2   3   1   16.60    3.90
  -1   3   1   70.29    6.10
   0  -3  -1   11.00    1.60
   0   3   1   12.60    2.40
   0   3   1   10.10    1.90
  -1  -3  -1   83.49    6.70
   1   3   1  104.69    6.70
  -2  -3  -1   27.30    2.80
  -2  -3  -1   23.00    2.70
   2   3   1   26.20    2.60
   2   3   1   22.70    2.20
  -3  -3  -1  148.29   10.60
  -3  -3  -1  142.39   11.00
   3   3   1  140.59    9.80
   3   3   1  147.09   10.00
  -4  -3  -1   71.79    6.90
   4   3   1   92.59    6.80
   4   3   1   74.09    6.30
  -5  -3  -1  103.49   10.30
  -5  -3  -1  105.89    9.00
   5   3   1  103.29    8.20
   5   3   1  104.69    8.70
  -6  -3  -1   22.80    4.50
  -6  -3  -1   15.30    4.90
   6   3   1   23.80    3.60
  -7  -3  -1   13.60    5.60
  -5   4   1   -1.00    3.00
  -4   4   1  106.59   11.60
  -3   4   1    1.10    2.30
  -2   4   1   45.90    5.70
  -1   4   1   58.09    5.80
   0  -4  -1    2.30    0.90
   0   4   1    1.80    1.20
   0   4   1    1.10    0.90
  -1  -4  -1  217.88   14.50
   1   4   1  222.18   14.50
  -2  -4  -1    1.70    1.30
   2   4   1    2.10    1.10
   2   4   1    2.80    1.30
  -3  -4  -1    0.10    1.00
  -3  -4  -1    2.30    1.40
   3   4   1    2.10    1.10
   3   4   1    1.50    1.00
  -4  -4  -1  116.89    9.90
  -4  -4  -1  116.69    9.40
   4   4   1  116.59    8.80
   4   4   1  105.89    8.40
  -5  -4  -1    6.80    2.80
  -5  -4  -1    9.40    3.00
   5   4   1   14.60    2.90
  -6  -4  -1   38.60    7.50
  -6  -4  -1   33.30    6.20
   6   4   1   30.80    5.00
  -7  -4  -1   31.70    7.80
  -7  -4  -1   43.00    7.20
   7   4   1   36.60    5.50
  -4   5   1    0.20    2.90
  -3   5   1  182.88   16.10
  -2   5   1   23.00    4.90
  -1   5   1   15.10    3.70
   0  -5  -1   91.29    6.60
   0   5   1   86.09    7.40
   0   5   1   87.49    7.60
  -1  -5  -1   32.40    3.40
   1   5   1   33.50    3.60
   1   5   1   31.40    3.50
  -2  -5  -1   53.59    5.10
   2   5   1   54.69    4.70
   2   5   1   55.39    5.00
  -3  -5  -1   37.50    4.30
   3   5   1   43.60    4.30
   3   5   1   40.00    3.70
  -4  -5  -1   31.10    5.10
   4   5   1   34.70    4.00
   4   5   1   28.10    3.40
  -5  -5  -1   45.40    5.50
  -5  -5  -1   35.20    5.50
   5   5   1   45.90    5.10
  -6  -5  -1   27.70    5.40
   6   5   1   26.00    4.40
  -7  -5  -1    8.60    3.70
  -7  -5  -1    3.10    3.30
   7   5   1    5.40    2.70
  -3   6   1    1.80    2.50
  -2   6   1    0.90    2.10
  -1   6   1    8.50    2.80
  -1   6   1    4.80    2.60
   0  -6  -1   68.19    5.40
   0   6   1   62.69    6.70
   0   6   1   67.19    6.50
  -1  -6  -1   35.40    3.80
   1   6   1   35.70    4.10
   1   6   1   37.60    4.30
   2   6   1   78.19    7.00
   2   6   1   93.09    7.10
  -3  -6  -1   98.89    8.60
   3   6   1  102.89    8.40
   3   6   1  101.59    7.70
  -4  -6  -1   11.80    3.40
   4   6   1   10.30    2.90
  -5  -6  -1  123.09   10.80
   5   6   1  125.79   10.30
  -6  -6  -1    4.50    2.90
   6   6   1    4.20    2.80
  -3   7   1    2.50    2.90
  -3   7   1    2.50    3.80
  -2   7   1   51.99    7.50
  -1   7   1   19.40    4.70
  -1   7   1   19.00    5.00
   0  -7  -1   19.60    3.10
   0   7   1   18.10    4.10
   0   7   1   16.40    4.20
  -1  -7  -1    8.10    2.40
   1   7   1    5.50    2.30
   1   7   1    9.30    2.80
  -2  -7  -1    9.30    2.70
   2   7   1    5.10    2.20
   2   7   1    9.80    2.90
  -3  -7  -1   11.60    3.20
   3   7   1   18.20    3.50
  -4  -7  -1   53.39    6.20
   4   7   1   48.60    5.70
  -5  -7  -1   27.40    5.30
   5   7   1   26.50    4.80
  -6  -7  -1   59.79    7.50
   6   7   1   51.39    6.50
  -1   8   1   91.59    9.50
   0   8   1   -0.50    1.80
  -1  -8  -1   20.70    3.80
   1   8   1   19.00    4.10
   1   8   1   20.00    3.90
  -2  -8  -1   18.00    3.90
   2   8   1   16.90    3.90
   2   8   1   13.10    3.30
  -3  -8  -1   12.50    3.00
   3   8   1    2.40    2.10
  -4  -8  -1    3.60    2.90
   4   8   1    3.40    2.60
  -5  -8  -1   38.00    7.00
   5   8   1   58.29    8.00
   0   9   1  100.39   10.00
   1   9   1   11.80    3.50
   1   9   1    9.40    3.10
  -2  -9  -1   40.60    6.10
   2   9   1   36.90    5.00
   2   9   1   35.20    5.70
  -3  -9  -1    2.70    2.40
   3   9   1    2.30    2.70
  -4  -9  -1   17.60    4.50
   4   9   1   19.20    4.50
   3   9  -2    8.70    3.40
  -3  -9   2    3.60    2.50
   2   9  -2   28.50    5.00
  -2  -9   2   20.00    4.30
   1   9  -2   15.70    4.00
  -1  -9   2   24.50    4.20
   5   8  -2   23.00    5.10
  -5  -8   2   23.60    5.50
   4   8  -2    8.10    3.10
  -4  -8   2    7.90    3.30
   3   8  -2   16.20    4.20
  -3  -8   2   22.40    4.80
   2   8  -2   84.69    7.60
   2   8  -2   79.19    8.30
  -2  -8   2   77.79    7.30
   1   8  -2   53.69    6.80
   1   8  -2   47.80    5.20
   1   8  -2   49.80    5.80
  -1  -8   2   50.49    5.30
   0   8  -2    5.10    2.30
   0   8  -2    3.50    3.00
  -1   8  -2   22.40    5.60
  -1   8  -2   10.30    4.60
   6   7  -2    4.80    2.90
  -6  -7   2    4.30    3.00
   5   7  -2    6.30    3.00
  -5  -7   2    6.70    3.00
   4   7  -2    0.30    1.70
  -4  -7   2    0.40    1.60
   3   7  -2   15.70    3.90
  -3  -7   2   13.60    3.70
   2   7  -2  158.28   11.40
   2   7  -2  149.99   11.60
  -2  -7   2  156.18   11.80
   1   7  -2   20.00    3.90
   1   7  -2   10.30    3.30
   1   7  -2   20.80    3.40
  -1  -7   2   17.30    3.10
   0   7  -2  113.79   10.90
   0   7  -2  110.89    8.50
   0   7  -2  111.49   10.10
   0  -7   2  117.59    8.70
  -1   7  -2    4.10    2.90
  -2   7  -2  149.88   14.40
   6   6  -2   20.60    4.80
  -6  -6   2   18.80    4.80
   5   6  -2    8.10    3.10
  -5  -6   2    7.30    3.00
   4   6  -2    3.50    1.80
  -4  -6   2    0.90    1.50
   3   6  -2   26.60    4.60
  -3  -6   2   27.80    4.60
   2   6  -2    1.10    1.40
   2   6  -2    0.30    1.00
  -2  -6   2    2.20    1.50
   1   6  -2  218.88   15.40
   1   6  -2  210.38   14.90
   1   6  -2  232.08   16.30
  -1  -6   2  220.88   15.00
   0   6  -2   22.00    2.70
   0   6  -2   22.50    4.70
   0  -6   2   22.60    2.80
  -1   6  -2  110.99   10.80
  -2   6  -2   91.69   10.20
  -3   6  -2    6.00    3.90
   6   5  -2  152.98   12.20
  -6  -5   2  151.18   12.70
  -6  -5   2  160.28   14.20
   5   5  -2   24.00    4.50
  -5  -5   2   14.40    3.60
   4   5  -2   60.19    6.00
  -4  -5   2   62.29    6.10
   3   5  -2   12.80    2.90
   3   5  -2   14.40    2.20
  -3  -5   2   11.00    2.80
   2   5  -2    8.30    1.90
   2   5  -2    6.20    1.80
  -2  -5   2    6.70    2.10
   1   5  -2   22.60    2.70
   1   5  -2   25.30    3.10
  -1  -5   2   24.40    2.90
   0   5  -2  129.09    9.20
   0   5  -2  137.79   10.80
   0  -5   2  130.39    9.20
  -1   5  -2   43.90    3.50
  -1   5  -2   31.70    4.90
  -2   5  -2  218.68   17.60
  -3   5  -2  114.39   12.10
  -4   5  -2    8.60    4.70
   7   4  -2    6.30    2.60
  -7  -4   2    4.00    3.40
  -7  -4   2    5.40    3.60
   6   4  -2   72.29    6.90
  -6  -4   2   63.79    8.40
  -6  -4   2   71.39    7.30
   5   4  -2   87.69    7.60
  -5  -4   2   92.39    8.10
  -5  -4   2   82.89    8.90
   4   4  -2   30.20    4.40
  -4  -4   2   27.50    4.40
  -4  -4   2   24.10    4.70
   3   4  -2  155.78   10.20
   3   4  -2  158.98   11.20
  -3  -4   2  160.48   11.50
   2   4  -2   40.80    3.20
   2   4  -2   35.20    3.60
  -2  -4   2   38.50    3.80
   1   4  -2   11.40    2.00
   1   4  -2   15.10    2.60
  -1  -4   2   12.10    2.30
   0   4  -2    8.80    1.60
   0   4  -2    6.20    1.90
   0  -4   2    9.10    1.70
  -1   4  -2    2.80    1.80
  -2   4  -2  146.99   12.50
  -3   4  -2   30.10    6.60
  -4   4  -2   21.80    6.50
  -5   4  -2    0.20    2.80
   7   3  -2   13.90    3.40
  -7  -3   2   11.10    4.90
   6   3  -2   57.09    5.60
  -6  -3   2   38.80    8.10
  -6  -3   2   56.59    5.90
   5   3  -2   55.19    5.50
  -5  -3   2   58.09    7.20
  -5  -3   2   66.19    6.10
  -4  -3   2   23.00    3.90
  -4  -3   2   32.10    4.40
   3   3  -2  303.57   20.10
   3   3  -2  294.17   19.20
  -3  -3   2  333.47   20.40
  -3  -3   2  317.67   21.20
   2   3  -2   54.49    3.80
   2   3  -2   56.09    4.60
  -2  -3   2   56.29    4.70
   1   3  -2  173.98   11.80
  -1  -3   2  188.58   12.00
   0   3  -2   12.10    1.40
   0  -3   2   10.90    1.70
  -1   3  -2  523.75   33.70
  -2   3  -2    4.70    2.20
  -3   3  -2  135.09   12.20
  -4   3  -2    6.40    3.60
  -5   3  -2   31.30    7.70
  -7  -2   2   27.20    7.60
   6   2  -2    5.20    2.10
  -6  -2   2    2.90    2.90
   5   2  -2   26.20    3.30
  -5  -2   2   16.80    4.80
  -5  -2   2   24.60    4.00
   4   2  -2   32.60    3.60
  -4  -2   2   36.80    5.10
  -4  -2   2   36.30    3.80
   3   2  -2   18.90    2.30
  -3  -2   2   16.60    2.80
  -3  -2   2   18.80    3.70
   2   2  -2   88.19    6.10
   2   2  -2   89.39    5.20
  -2  -2   2   82.89    6.00
  -2  -2   2   80.99    5.10
  -2  -2   2   64.89    6.30
   1   2  -2   12.20    1.30
   1   2  -2   14.30    1.60
  -1  -2   2   14.70    2.00
   0   2  -2   85.89    6.20
   0   2  -2   84.39    5.50
   0  -2   2   82.39    5.70
  -1   2  -2   55.29    5.00
  -1   2  -2   52.69    3.40
  -3   2  -2    5.60    2.70
   3  -2   2    4.10    0.70
  -4   2  -2   71.29    8.70
  -5   2  -2    4.90    3.40
  -6   2  -2    9.50    4.90
   6   1  -2    1.50    2.30
  -6  -1   2    0.90    2.30
   5   1  -2   98.39    7.20
  -5  -1   2   96.09    7.30
  -5  -1   2   66.59    8.80
   4   1  -2   72.29    5.80
  -4  -1   2   76.39    7.80
  -4  -1   2   70.69    5.90
   3   1  -2  252.97   16.50
  -3  -1   2  241.18   16.50
  -3  -1   2  276.27   18.30
   2   1  -2   79.59    5.60
  -2  -1   2   80.39    6.50
  -2  -1   2   79.69    5.40
  -2  -1   2   75.19    5.60
   1   1  -2   29.80    2.40
  -1  -1   2   28.70    2.30
   0   1  -2   18.50    1.50
   0  -1   2   18.30    1.40
   0  -1   2   18.60    1.50
  -1   1  -2  846.12   51.79
  -2   1  -2  182.88   11.20
   2  -1   2  184.28   11.10
   3  -1   2  146.89    9.20
  -4   1  -2  161.68   11.10
  -4   1  -2  147.29   13.50
  -5   1  -2   59.99    8.30
  -6   1  -2   15.50    5.90
  -6   0   2   54.19   10.40
   5   0  -2   40.70    4.00
  -5   0   2   46.30    6.80
   4   0  -2   30.00    3.00
  -4   0   2   23.30    2.70
   3   0  -2  284.97   19.10
  -3   0   2  308.77   19.10
  -3   0   2  323.87   21.40
   2   0  -2  198.48   13.30
  -2   0   2  214.18   14.60
  -2   0   2  219.58   13.20
   1   0  -2   28.70    2.20
  -1   0   2   31.90    2.90
  -1   0   2   34.70    2.20
   0   0  -2    7.30    0.70
   0   0  -2    7.80    0.80
   0   0   2    8.90    0.80
   0   0   2    8.70    0.70
  -1   0  -2  886.01   50.19
   1   0   2  761.92   49.90
  -2   0  -2   20.60    3.50
  -2   0  -2   17.30    2.00
   2   0   2   17.30    2.50
   2   0   2   18.10    1.50
  -3   0  -2  155.68   12.00
  -3   0  -2  149.59   13.40
   3   0   2  206.38   11.50
   3   0   2  204.08   13.40
  -4   0  -2   55.09    6.60
  -4   0  -2   50.69    4.90
   4   0   2   51.69    4.00
  -5   0  -2  287.77   19.40
  -5   0  -2  283.47   22.60
  -6   0  -2    6.40    3.50
  -6   1   2    1.30    3.00
  -5   1   2    6.00    3.20
   4  -1  -2    5.90    1.40
  -4   1   2    7.10    3.40
   3  -1  -2  271.37   17.90
  -3   1   2  304.27   20.70
  -3   1   2  286.47   17.70
   2  -1  -2  372.76   24.90
  -2   1   2  427.56   24.70
  -2   1   2  426.66   26.80
   1  -1  -2   80.19    5.20
  -1   1   2   78.49    6.00
   0  -1  -2    2.70    0.40
   0  -1  -2    3.00    0.60
   0  -1  -2    3.90    0.60
   0   1   2    3.30    0.60
   0   1   2    3.30    0.70
   0   1   2    3.10    0.50
  -1  -1  -2  144.29   10.00
  -1  -1  -2  153.68   10.00
   1   1   2  167.08    9.90
  -2  -1  -2   24.20    3.00
  -2  -1  -2   25.50    2.60
   2   1   2   22.70    2.10
   2   1   2   31.90    2.80
  -3  -1  -2   22.00    4.20
  -3  -1  -2   21.60    3.40
   3   1   2   18.90    2.00
  -4  -1  -2  127.49   10.50
   4   1   2  146.09    9.80
   4   1   2  163.28   11.60
  -5  -1  -2    2.20    2.30
  -5  -1  -2    2.60    1.90
   5   1   2    4.60    1.40
  -6  -1  -2   18.20    5.90
  -7  -1  -2    7.00    4.10
  -6   2   2    3.60    3.80
  -5   2   2   18.40    6.10
  -4   2   2   14.20    4.30
   3  -2  -2   91.49    6.40
  -3   2   2   89.29    5.90
  -3   2   2   97.59    9.00
   2  -2  -2   79.09    4.80
  -2   2   2   56.19    6.10
  -2   2   2   63.69    4.10
   1  -2  -2  145.49    9.40
  -1   2   2  154.08   10.60
  -1   2   2  148.09    9.10
   0  -2  -2   55.39    4.00
   0  -2  -2   54.59    3.90
   0   2   2   59.59    4.00
   0   2   2   52.99    4.20
  -1  -2  -2 9578.04  586.34
  -1  -2  -2 9999.00  614.14
   1   2   2 9803.42  622.64
  -2  -2  -2   34.00    3.20
  -2  -2  -2   31.70    3.20
   2   2   2   28.00    2.70
  -3  -2  -2  126.09   10.20
  -3  -2  -2  110.39    9.30
   3   2   2  148.89    9.00
  -4  -2  -2   16.50    3.50
  -4  -2  -2   11.90    3.40
   4   2   2   20.80    2.40
  -5  -2  -2    4.00    2.20
  -5  -2  -2    3.40    2.50
   5   2   2    5.10    1.60
   5   2   2    6.30    2.60
  -6  -2  -2    6.50    2.90
  -6  -2  -2    7.10    3.90
  -7  -2  -2   47.20   10.00
  -5   3   2    1.80    3.10
  -4   3   2   29.40    6.40
   3  -3  -2    2.10    0.90
  -3   3   2    2.80    2.50
   2  -3  -2    6.40    1.30
  -2   3   2    6.10    0.70
  -2   3   2    7.40    2.80
   1  -3  -2   37.00    2.60
  -1   3   2   35.70    3.90
   0  -3  -2  132.89    8.90
   0   3   2  140.99    9.60
  -1  -3  -2  337.97   21.30
   1   3   2  335.67   21.10
  -2  -3  -2   11.50    1.80
  -2  -3  -2    8.60    2.10
   2   3   2   13.20    1.70
  -3  -3  -2  108.39    9.10
  -3  -3  -2  112.99    8.80
   3   3   2  117.69    8.30
   3   3   2  123.29    8.40
  -4  -3  -2  140.89   10.90
  -4  -3  -2  156.88   12.10
   4   3   2  131.59   10.40
   4   3   2  143.89   10.20
  -5  -3  -2  161.88   14.30
  -5  -3  -2  154.78   12.80
   5   3   2  183.88   12.20
   5   3   2  171.78   12.80
  -6  -3  -2   21.90    4.70
  -6  -3  -2   23.20    6.00
   6   3   2   21.20    3.70
  -7  -3  -2    9.60    4.90
  -5   4   2  114.19   13.20
  -4   4   2   -0.70    2.30
  -3   4   2  247.38   19.50
  -2   4   2   30.10    5.70
   1  -4  -2   16.00    1.60
  -1   4   2   21.50    3.90
   0  -4  -2    5.30    1.30
   0   4   2    9.30    2.30
   0   4   2    5.20    1.60
  -1  -4  -2  473.05   29.00
   1   4   2  450.55   28.80
  -2  -4  -2   -0.50    1.00
   2   4   2    0.20    0.70
  -3  -4  -2   12.20    2.70
  -3  -4  -2   12.70    2.90
   3   4   2   16.10    2.80
   3   4   2   11.10    2.40
  -4  -4  -2  175.28   14.00
  -4  -4  -2  182.98   13.60
   4   4   2  182.28   12.90
   4   4   2  190.88   12.90
  -5  -4  -2  101.39    9.20
  -5  -4  -2   93.49    9.70
   5   4   2  111.09    9.30
   5   4   2  100.99    8.20
  -6  -4  -2    3.80    2.80
  -6  -4  -2    3.80    2.90
   6   4   2    3.40    1.80
  -7  -4  -2   17.50    4.90
  -7  -4  -2   17.60    6.10
   7   4   2   19.50    4.90
  -4   5   2    5.20    3.70
  -3   5   2  145.49   13.70
  -2   5   2   79.49    8.40
  -1   5   2   34.30    4.40
  -1   5   2   29.90    4.10
   0  -5  -2   47.00    3.90
   0   5   2   43.60    4.60
   0   5   2   40.60    4.60
  -1  -5  -2   45.10    4.10
   1   5   2   45.10    4.20
   1   5   2   37.70    3.90
  -2  -5  -2   18.70    3.30
   2   5   2   17.00    2.30
  -3  -5  -2    0.90    1.40
   3   5   2    4.60    1.80
   3   5   2    2.00    1.30
  -4  -5  -2   34.30    4.30
  -4  -5  -2   21.90    4.30
   4   5   2   31.70    3.60
  -5  -5  -2  155.18   13.10
  -5  -5  -2  160.58   12.80
   5   5   2  152.58   11.80
  -6  -5  -2   37.50    6.50
  -6  -5  -2   29.10    6.30
   6   5   2   41.90    5.00
  -7  -5  -2   30.50    6.10
  -7  -5  -2   31.00    7.20
   7   5   2   29.80    5.30
  -3   6   2    9.10    4.60
  -2   6   2   75.59    8.70
  -2   6   2   74.99    8.10
  -1   6   2   -0.20    1.40
  -1   6   2   -0.70    1.40
   0  -6  -2   17.40    2.70
   0   6   2   17.00    3.80
   0   6   2   14.40    3.50
  -1  -6  -2    1.70    1.40
   1   6   2    1.80    1.40
   1   6   2    2.50    1.50
  -2  -6  -2   34.10    4.10
   2   6   2   36.10    3.90
  -3  -6  -2    1.00    1.80
   3   6   2    4.10    2.10
   3   6   2    1.30    1.30
  -4  -6  -2    0.00    1.50
   4   6   2    2.90    2.00
   4   6   2    1.10    1.20
  -5  -6  -2   15.30    4.00
  -6  -6  -2    7.30    3.30
  -6  -6  -2   13.70    4.20
   6   6   2   27.00    5.20
  -3   7   2    3.00    3.20
  -2   7   2    0.90    2.70
  -2   7   2    2.20    2.50
  -1   7   2   14.40    4.30
  -1   7   2   13.70    4.00
   0  -7  -2    4.30    1.50
   0   7   2    0.10    1.60
   0   7   2    3.20    2.10
  -1  -7  -2  199.68   14.20
   1   7   2  188.18   14.70
   1   7   2  223.58   15.40
  -2  -7  -2    3.70    2.00
   2   7   2    4.70    2.10
  -3  -7  -2   87.09    7.70
   3   7   2   73.89    6.70
   3   7   2   76.79    7.20
  -4  -7  -2   19.00    4.40
   4   7   2   17.90    4.20
  -5  -7  -2   57.29    6.90
   5   7   2   59.29    6.50
  -6  -7  -2   12.20    4.20
   6   7   2   13.90    3.70
  -1   8   2   11.40    4.10
   0   8   2    7.90    3.40
  -1  -8  -2   18.50    3.80
   1   8   2   14.10    3.50
  -2  -8  -2   -0.50    1.40
   2   8   2   -1.90    1.60
   2   8   2    0.50    1.50
  -3  -8  -2   20.60    4.50
   3   8   2   20.80    4.20
   3   8   2   17.60    3.70
  -4  -8  -2   26.80    5.30
   4   8   2   22.70    4.70
  -5  -8  -2   82.39    8.80
   5   8   2   90.49    8.80
   0   9   2   38.00    6.80
   1   9   2    2.90    2.30
   1   9   2    0.80    2.10
  -2  -9  -2   28.10    5.10
   2   9   2   22.10    4.60
   2   9   2   18.90    4.20
  -3  -9  -2   -1.10    1.80
   3   9   2   -0.50    2.40
  -4  -9  -2   24.40    5.50
   4   9   2   24.50    5.00
   3   9  -3    7.90    3.20
  -3  -9   3    7.50    3.30
   2   9  -3   25.20    5.70
   2   9  -3   29.40    5.20
  -2  -9   3   33.50    5.50
   1   9  -3    2.30    2.80
  -1  -9   3    3.90    2.20
   5   8  -3    8.10    3.80
  -5  -8   3    9.40    3.70
   4   8  -3   10.70    3.70
  -4  -8   3   12.00    4.00
   3   8  -3    1.90    2.40
  -3  -8   3    4.70    2.40
   2   8  -3    0.20    1.90
   2   8  -3   -0.80    1.60
  -2  -8   3    0.70    1.60
   1   8  -3   29.30    4.40
   1   8  -3   16.40    3.50
   1   8  -3    8.10    3.60
  -1  -8   3   25.20    4.10
   0   8  -3    0.10    2.40
   0   8  -3    2.90    2.30
  -1   8  -3    1.30    2.70
  -1   8  -3    0.50    2.30
   5   7  -3  102.99    9.90
  -5  -7   3  114.99   10.10
   4   7  -3   45.30    6.70
  -4  -7   3   48.20    7.10
   3   7  -3    3.50    2.40
  -3  -7   3    2.70    2.10
   2   7  -3   40.90    4.80
   2   7  -3   38.10    4.30
  -2  -7   3   45.80    4.90
   1   7  -3   45.80    4.80
   1   7  -3   45.80    6.10
   1   7  -3   49.00    5.30
  -1  -7   3   49.90    5.00
   0   7  -3   13.20    3.60
   0   7  -3   13.70    3.70
   0   7  -3    7.90    3.20
  -1   7  -3    3.90    3.30
  -2   7  -3   -0.20    2.60
   6   6  -3   -0.30    1.70
  -6  -6   3    1.40    2.70
   5   6  -3   15.00    3.70
  -5  -6   3   18.90    4.30
   4   6  -3   30.20    5.20
  -4  -6   3   31.90    5.40
   3   6  -3    1.90    1.90
  -3  -6   3    1.70    1.70
   2   6  -3  227.18   15.10
   2   6  -3  214.68   15.40
  -2  -6   3  226.08   15.60
   1   6  -3   53.89    5.10
   1   6  -3   54.19    5.50
   1   6  -3   61.99    6.40
  -1  -6   3   55.29    5.20
   0   6  -3  127.09   11.60
   0   6  -3  139.59    9.80
   0  -6   3  149.49   10.10
  -1   6  -3   16.80    4.60
  -2   6  -3   26.90    6.50
  -3   6  -3    0.00    2.50
   6   5  -3   54.29    6.20
  -6  -5   3   62.19    6.90
   5   5  -3    3.40    1.90
  -5  -5   3    2.50    2.20
  -4  -5   3   41.50    4.80
  -3  -5   3   30.20    3.80
   2   5  -3  194.98   13.60
   2   5  -3  195.28   13.00
  -2  -5   3  201.58   13.80
   1   5  -3   41.10    3.90
   1   5  -3   43.90    4.30
  -1  -5   3   37.90    3.90
   0   5  -3  154.48   11.10
   0   5  -3  179.58   13.10
   0  -5   3  169.28   11.40
  -1   5  -3   35.60    5.40
  -1   5  -3   55.49    4.00
  -2   5  -3  313.17   23.40
  -3   5  -3   13.80    4.80
  -4   5  -3   14.00    5.30
   6   4  -3   49.60    5.60
  -6  -4   3   49.90    5.90
  -6  -4   3   50.79    7.20
   5   4  -3  106.69    9.00
  -5  -4   3  112.89    9.30
  -5  -4   3  108.99   10.50
   4   4  -3   22.20    3.90
  -4  -4   3   30.40    4.60
   3   4  -3   65.39    5.80
   3   4  -3   65.69    4.60
  -3  -4   3   71.39    6.00
   2   4  -3   -0.30    0.90
   2   4  -3    0.40    0.70
  -2  -4   3    0.50    0.90
   1   4  -3   54.69    4.60
  -1  -4   3   56.59    4.70
   0   4  -3    4.70    1.90
   0   4  -3    6.10    1.40
   0  -4   3    9.40    1.80
  -1   4  -3   81.69    5.90
  -1   4  -3   98.79    8.50
  -2   4  -3    7.10    2.90
  -3   4  -3  129.79   12.40
  -4   4  -3    0.10    2.20
  -5   4  -3   91.19   12.00
   7   3  -3    6.30    2.80
  -7  -3   3    8.50    4.60
   6   3  -3   81.59    7.60
  -6  -3   3   92.49   10.30
  -6  -3   3   85.29    7.80
   5   3  -3    6.40    2.20
  -5  -3   3   12.40    2.70
  -5  -3   3    5.80    3.00
   4   3  -3  188.58   13.90
  -4  -3   3  206.78   14.30
  -4  -3   3  215.08   15.80
   3   3  -3  183.68   12.80
  -3  -3   3  187.08   12.80
   2   3  -3   71.29    5.70
   2   3  -3   74.09    4.80
  -2  -3   3   76.29    5.80
   1   3  -3    9.90    1.90
  -1  -3   3    9.90    1.90
   0   3  -3   37.20    3.00
   0   3  -3   35.30    3.70
   0  -3   3   37.60    3.10
  -1   3  -3   23.00    4.10
  -1   3  -3   18.50    1.60
  -2   3  -3   53.09    3.30
  -2   3  -3   49.70    3.30
  -2   3  -3   54.49    6.00
  -3   3  -3   43.70    6.10
  -4   3  -3   37.60    7.90
  -5   3  -3   23.80    7.00
  -7  -2   3    7.10    4.40
   6   2  -3    6.50    2.30
  -6  -2   3    4.40    3.40
   5   2  -3   92.89    7.70
  -5  -2   3  111.09   10.60
  -5  -2   3   92.29    7.80
   4   2  -3    1.80    1.20
  -4  -2   3    2.60    1.90
  -4  -2   3    2.20    1.20
   3   2  -3  577.34   37.60
  -3  -2   3  567.54   37.70
  -3  -2   3  654.93   36.80
  -3  -2   3  629.24   39.20
   2   2  -3   96.49    6.70
  -2  -2   3   85.79    6.50
  -2  -2   3   89.49    7.10
   1   2  -3  327.27   20.20
  -1  -2   3  320.87   20.20
   0   2  -3   -0.10    0.40
   0   2  -3    0.20    0.60
   0  -2   3    0.10    0.40
  -1   2  -3   51.39    5.30
  -1   2  -3   66.89    4.00
  -2   2  -3  144.69   11.40
  -3   2  -3   28.60    5.90
  -4   2  -3    4.10    3.10
  -4   2  -3    6.80    2.00
  -5   2  -3    9.80    4.50
  -6   2  -3   23.20    7.30
   6   1  -3   30.20    4.40
  -6  -1   3   34.10    7.60
   5   1  -3   19.30    3.40
  -5  -1   3   19.20    3.20
  -5  -1   3   16.10    5.00
   4   1  -3   39.30    3.80
  -4  -1   3   36.60    5.20
  -4  -1   3   39.70    3.80
   3   1  -3  201.18   13.90
  -3  -1   3  207.48   13.80
  -3  -1   3  229.58   15.70
  -2  -1   3   57.69    4.70
  -2  -1   3   65.39    5.70
  -2  -1   3   72.59    4.50
   1   1  -3  521.15   31.90
   1   1  -3  534.05   32.00
  -1  -1   3  537.15   32.00
  -1  -1   3  515.35   31.50
   0   1  -3   12.00    1.10
   0  -1   3   11.30    1.60
  -1   1  -3  164.28   10.60
   1  -1   3  135.89   10.40
  -2   1  -3    9.50    2.60
   3  -1   3  100.69    6.30
  -4   1  -3    4.70    1.80
  -4   1  -3    4.90    2.90
  -5   1  -3   53.29    7.70
  -6   1  -3    2.10    3.40
  -6   0   3   73.69   10.00
   5   0  -3   44.10    4.30
  -5   0   3   41.70    6.50
   4   0  -3   39.60    3.80
  -4   0   3   42.00    5.60
  -4   0   3   39.60    3.50
   3   0  -3   89.59    6.60
  -3   0   3   87.09    6.30
  -3   0   3   99.39    8.40
   2   0  -3  156.98   10.70
  -2   0   3  170.48   10.50
  -2   0   3  169.08   11.90
  -1   0   3   59.19    4.30
  -1   0   3   49.60    3.60
  -1   0   3   52.89    3.50
   0   0  -3   59.99    4.00
   0   0  -3   60.69    4.10
   0   0   3   62.89    4.10
  -1   0  -3  111.59    7.30
   1   0   3  103.89    6.30
   1   0   3   91.49    7.10
  -2   0  -3  190.78   12.20
   2   0   3  147.49   11.40
   2   0   3  158.28   10.10
  -3   0  -3  139.19   10.80
  -3   0  -3  136.59   12.30
   3   0   3  188.58   10.20
  -4   0  -3   64.69    7.20
  -4   0  -3   68.49    5.60
   4   0   3   51.59    4.20
  -5   0  -3    1.60    1.80
  -5   0  -3    6.10    3.70
  -6   0  -3   39.60    8.70
  -6   1   3   36.00    8.30
  -5   1   3   26.80    6.70
   4  -1  -3    1.50    1.00
  -4   1   3    1.70    2.20
   3  -1  -3  168.48   11.60
  -3   1   3  174.18   11.10
  -3   1   3  197.38   14.10
   2  -1  -3   44.40    3.40
  -2   1   3   44.00    2.90
  -2   1   3   45.40    4.70
   1  -1  -3    0.80    0.20
   1  -1  -3    0.50    0.50
  -1   1   3    0.50    0.70
  -1   1   3    0.20    0.60
   0  -1  -3  119.99    7.30
   0  -1  -3  112.19    7.50
   0   1   3  126.99    7.30
   0   1   3  115.29    7.60
  -1  -1  -3   43.60    3.40
  -1  -1  -3   42.00    3.30
   1   1   3   37.90    3.20
  -2  -1  -3   25.30    2.70
  -2  -1  -3   23.30    2.90
  -3  -1  -3   82.49    6.30
  -3  -1  -3   85.19    7.40
   3   1   3   75.39    6.60
   3   1   3   71.89    5.40
  -4  -1  -3   95.49    8.10
  -4  -1  -3   90.39    9.40
   4   1   3  112.69    7.30
   4   1   3  107.89    8.90
  -5  -1  -3  347.97   22.20
  -5  -1  -3  335.17   24.70
   5   1   3  298.97   20.50
  -6  -1  -3    2.00    2.80
  -6  -1  -3   -0.30    2.10
  -7  -1  -3   28.30    7.80
  -6   2   3    7.60    4.60
  -5   2   3    2.60    3.10
   4  -2  -3   10.50    2.10
  -4   2   3    8.90    3.90
   3  -2  -3   31.30    3.00
  -3   2   3   36.50    5.10
   2  -2  -3  318.97   20.70
  -2   2   3  354.46   22.70
   1  -2  -3   48.20    2.80
   1  -2  -3   43.20    3.30
  -1   2   3   39.80    4.00
   0  -2  -3   12.30    1.40
   0  -2  -3   12.90    1.20
   0  -2  -3   13.70    1.40
   0   2   3   13.80    1.40
   0   2   3   13.40    1.60
  -1  -2  -3   32.10    2.40
  -1  -2  -3   29.80    2.80
   1   2   3   30.50    2.60
   1   2   3   28.90    2.40
  -2  -2  -3  470.35   28.90
  -2  -2  -3  464.35   28.70
   2   2   3  438.36   28.30
  -3  -2  -3    6.50    1.50
  -3  -2  -3    0.20    0.90
   3   2   3    0.50    0.60
   4   2   3   49.20    5.00
   4   2   3   39.90    3.80
  -5  -2  -3  132.09   12.50
  -5  -2  -3  155.98   11.40
   5   2   3  130.39   11.20
   5   2   3  136.29    9.80
  -6  -2  -3   10.10    3.30
  -6  -2  -3    4.30    3.10
  -7  -2  -3   56.39   11.10
  -5   3   3   50.19    9.90
  -4   3   3   31.50    6.80
   3  -3  -3  313.07   19.50
  -3   3   3  302.17   22.40
   2  -3  -3   26.60    2.50
  -2   3   3   30.50    4.10
   1  -3  -3  205.78   13.20
   1  -3  -3  213.28   12.60
  -1   3   3  187.48   14.00
  -1   3   3  216.38   14.40
   0  -3  -3   92.29    6.00
   0   3   3   76.09    6.10
   0   3   3   91.39    6.50
  -1  -3  -3  587.14   36.50
   1   3   3  598.54   36.40
  -2  -3  -3  350.36   21.20
  -2  -3  -3  322.77   21.40
   2   3   3  318.87   20.80
  -3  -3  -3   30.90    3.70
  -3  -3  -3   24.70    3.50
   3   3   3   33.90    3.40
   3   3   3   33.70    3.20
  -4  -3  -3   79.89    7.70
  -4  -3  -3   75.19    7.00
  -5  -3  -3   13.20    3.20
  -5  -3  -3    2.10    2.30
   5   3   3    4.70    1.90
  -6  -3  -3   74.09    7.50
  -6  -3  -3   69.39    8.90
   6   3   3   68.69    6.20
  -7  -3  -3   22.30    5.30
  -7  -3  -3   25.40    7.10
  -5   4   3   20.80    6.80
  -4   4   3   27.50    6.80
   3  -4  -3    7.70    2.30
  -3   4   3    8.10    3.50
  -2   4   3   13.90    3.80
   1  -4  -3  115.79    7.70
  -1   4   3  124.19    9.50
  -1   4   3  120.89    9.40
   0  -4  -3   22.20    2.20
   0   4   3   22.50    2.90
   0   4   3   21.10    2.60
  -1  -4  -3 1299.97   79.49
   1   4   3 1323.07   79.49
  -2  -4  -3    2.60    1.50
   2   4   3    4.20    1.20
  -3  -4  -3   24.30    4.00
  -3  -4  -3   26.40    3.30
   3   4   3   25.30    2.90
   3   4   3   22.00    2.80
  -4  -4  -3   50.29    5.90
   4   4   3   61.99    5.50
   4   4   3   69.39    5.80
  -5  -4  -3   40.10    6.40
  -5  -4  -3   39.90    5.70
   5   4   3   34.70    4.60
   5   4   3   37.90    4.30
  -6  -4  -3    5.60    3.20
  -6  -4  -3    3.40    2.60
   6   4   3    4.00    2.30
  -7  -4  -3   16.30    4.70
  -7  -4  -3   15.70    5.30
  -4   5   3   49.30    9.30
  -3   5   3    2.30    3.00
  -2   5   3  225.88   17.50
   1  -5  -3    7.10    1.30
  -1   5   3    5.50    2.30
  -1   5   3    6.20    2.40
   0  -5  -3   37.60    3.40
   0   5   3   35.50    4.00
  -1  -5  -3    8.70    2.00
   1   5   3    7.40    1.80
  -2  -5  -3   77.99    6.80
   2   5   3   85.29    6.60
  -3  -5  -3    5.70    2.20
   3   5   3   10.20    2.20
  -4  -5  -3  110.99    9.30
  -4  -5  -3  109.29    9.20
   4   5   3  105.29    8.40
   4   5   3  102.29    8.50
  -5  -5  -3   72.99    8.50
  -5  -5  -3   95.99    8.80
   5   5   3  106.29    8.20
  -6  -5  -3   62.69    7.60
  -6  -5  -3   70.29    8.50
   6   5   3   79.09    7.20
  -7  -5  -3    1.20    2.20
  -7  -5  -3    0.30    2.60
   7   5   3    0.80    1.80
  -3   6   3  105.89   10.60
  -3   6   3  104.59   11.50
  -2   6   3    2.00    2.40
  -2   6   3    2.00    2.20
  -1   6   3   22.60    4.80
  -1   6   3   22.90    4.70
   0  -6  -3   66.79    5.00
   0   6   3   50.89    5.70
   0   6   3   53.99    5.70
  -1  -6  -3   18.00    3.20
   1   6   3   17.00    3.20
   1   6   3   22.50    3.10
  -2  -6  -3   10.20    2.40
   2   6   3    9.50    2.10
  -3  -6  -3    0.70    1.70
   3   6   3   -0.30    1.20
   3   6   3    1.90    1.40
  -4  -6  -3    5.30    2.60
   4   6   3    2.90    1.90
   4   6   3    6.60    2.20
  -5  -6  -3   94.09    8.90
   5   6   3   83.09    7.80
  -6  -6  -3    0.60    2.40
  -6  -6  -3    2.70    2.80
   6   6   3    1.40    2.00
  -3   7   3    7.30    4.20
  -2   7   3  176.58   15.00
  -1   7   3    7.40    3.00
   0  -7  -3   13.70    2.90
   0   7   3   11.50    3.30
   0   7   3   10.90    3.70
  -1  -7  -3  119.09    8.60
   1   7   3  121.39    9.30
   1   7   3   89.39    8.70
  -2  -7  -3   12.30    3.10
   2   7   3    9.50    2.80
   2   7   3    9.00    2.50
  -3  -7  -3   19.50    4.20
   3   7   3   13.20    3.40
   3   7   3   13.50    3.00
  -4  -7  -3   13.50    3.90
   4   7   3    9.90    3.00
  -5  -7  -3   40.10    7.30
   5   7   3   63.09    6.40
  -6  -7  -3   41.90    7.00
   6   7   3   26.90    4.90
  -1   8   3    4.80    3.20
   0   8   3    2.70    2.40
  -1  -8  -3   43.20    4.80
   1   8   3   47.00    5.50
  -2  -8  -3   36.10    4.70
   2   8   3   42.20    5.00
  -3  -8  -3    2.70    2.30
   3   8   3    1.90    2.00
   3   8   3    3.30    2.00
  -4  -8  -3   45.80    5.80
   4   8   3   46.90    5.70
  -5  -8  -3    2.80    2.90
   5   8   3    2.50    2.40
   0   9   3    8.00    3.70
   1   9   3   21.30    4.70
  -2  -9  -3   43.00    5.10
   2   9   3   28.40    5.20
   2   9   3   41.60    5.30
  -3  -9  -3   15.80    4.30
   3   9   3   13.30    4.00
  -4  -9  -3    5.40    3.10
   4   9   3    5.90    2.80
   3   9  -4   12.20    4.00
   2   9  -4   77.69    7.90
   2   9  -4   91.19    9.80
  -2  -9   4   79.39    7.80
   4   8  -4    6.30    3.10
  -4  -8   4    3.10    2.30
   3   8  -4   20.50    4.30
  -3  -8   4   13.00    3.80
   2   8  -4   25.50    4.60
   2   8  -4   21.50    5.10
  -2  -8   4   22.30    4.60
   1   8  -4   17.10    3.60
   1   8  -4    7.90    3.70
   1   8  -4   14.70    3.80
  -1  -8   4   12.20    3.30
   0   8  -4    1.80    2.30
   0   8  -4    1.50    2.50
  -1   8  -4    8.80    4.40
   5   7  -4   28.30    5.20
  -5  -7   4   32.60    5.80
   4   7  -4   46.40    5.90
  -4  -7   4   45.00    6.70
   3   7  -4    3.90    2.20
  -3  -7   4    1.90    1.90
   2   7  -4    9.20    2.40
  -2  -7   4    7.70    2.50
   1   7  -4   20.30    4.80
   1   7  -4   22.80    4.40
   1   7  -4   21.00    3.60
  -1  -7   4   23.20    4.00
   0   7  -4   55.99    7.40
  -1   7  -4   12.30    4.70
  -2   7  -4   10.70    4.90
   6   6  -4   21.10    5.00
  -6  -6   4   21.60    4.90
   5   6  -4   48.70    5.80
  -5  -6   4   57.59    6.30
   4   6  -4   37.70    4.80
  -4  -6   4   41.20    5.10
   3   6  -4   16.20    3.50
  -3  -6   4   11.40    3.00
   2   6  -4   27.70    4.20
   2   6  -4   22.50    2.90
  -2  -6   4   25.60    4.20
   1   6  -4   99.09    8.80
   1   6  -4   91.89    7.30
   1   6  -4   89.79    7.70
  -1  -6   4   80.99    7.10
   0   6  -4   67.29    5.40
   0   6  -4   60.89    7.10
  -1   6  -4    1.90    2.30
  -2   6  -4   27.90    6.60
  -3   6  -4    5.10    3.80
   6   5  -4   13.90    3.60
  -6  -5   4   23.30    4.70
   5   5  -4    9.10    3.20
  -5  -5   4    3.30    2.30
   4   5  -4   11.10    2.70
  -4  -5   4   15.40    3.20
   3   5  -4    3.30    1.70
  -3  -5   4    1.80    1.60
   2   5  -4   32.00    3.70
   2   5  -4   33.20    3.20
  -2  -5   4   32.70    3.70
   1   5  -4  217.48   15.00
  -1  -5   4  231.88   15.10
   0   5  -4    0.50    0.90
   0   5  -4    1.70    1.80
  -1   5  -4  113.69   10.60
  -1   5  -4  113.09    7.80
  -2   5  -4    3.70    2.70
  -3   5  -4  121.59   12.60
  -4   5  -4    2.40    3.40
   6   4  -4   14.00    3.60
  -6  -4   4   17.50    5.30
  -6  -4   4   12.20    3.30
   5   4  -4   10.40    2.60
  -5  -4   4    3.90    2.30
  -5  -4   4   14.60    3.40
   4   4  -4   10.90    2.60
  -4  -4   4    9.30    2.60
   3   4  -4    4.00    1.60
  -3  -4   4    5.20    1.80
   2   4  -4  124.19    7.60
   2   4  -4  100.59    8.20
  -2  -4   4  105.79    8.30
   1   4  -4   13.20    2.30
  -1  -4   4   15.60    2.50
   0   4  -4  408.06   26.70
   0   4  -4  463.25   28.70
   0  -4   4  430.26   27.00
  -1   4  -4   25.20    2.40
  -1   4  -4   33.50    4.40
  -2   4  -4   90.89    9.10
  -3   4  -4  112.39   11.30
  -4   4  -4    2.00    3.00
  -5   4  -4    1.70    3.20
   6   3  -4   27.00    4.40
  -6  -3   4   25.60    4.20
  -6  -3   4   15.50    5.10
   5   3  -4  154.98   12.40
  -5  -3   4  182.98   14.80
  -5  -3   4  173.78   12.60
   4   3  -4    1.10    1.30
  -4  -3   4    1.50    1.70
  -4  -3   4    0.40    1.20
   3   3  -4  138.19   10.10
  -3  -3   4  144.89   10.20
   2   3  -4    4.90    0.70
   2   3  -4    5.00    1.50
   2   3  -4    6.70    1.10
  -2  -3   4    4.40    1.50
   1   3  -4    0.90    0.80
  -1  -3   4    1.00    0.90
   0   3  -4   98.39    7.70
   0   3  -4   94.69    6.60
   0  -3   4   97.29    6.80
  -1   3  -4  232.88   15.90
  -1   3  -4  210.68   13.60
  -2   3  -4   61.09    6.60
  -3   3  -4  177.38   15.00
  -4   3  -4  124.49   12.70
  -5   3  -4    7.90    4.40
   6   2  -4   36.90    5.20
  -6  -2   4   31.20    7.50
   5   2  -4  121.09    9.90
  -5  -2   4  144.19   10.20
  -5  -2   4  140.29   12.70
   4   2  -4   88.99    7.40
  -4  -2   4   96.99    9.10
  -4  -2   4  100.19    7.50
  -3  -2   4   20.70    2.50
  -3  -2   4   26.40    3.60
   2   2  -4  277.77   17.60
  -2  -2   4  269.17   17.50
   1   2  -4   51.89    4.00
  -1  -2   4   51.79    4.00
   0   2  -4    3.10    0.80
  -1   2  -4   44.70    4.90
  -1   2  -4   59.89    3.60
  -2   2  -4    5.60    1.90
  -3   2  -4  174.08   14.30
  -4   2  -4   36.40    7.20
  -4   2  -4   35.50    3.90
  -5   2  -4   50.29    9.70
  -6   2  -4   -0.70    2.70
   6   1  -4    1.50    1.70
  -6  -1   4    3.20    3.30
   5   1  -4   78.19    6.50
  -5  -1   4   67.29    8.60
  -5  -1   4   83.09    6.40
   4   1  -4  112.39    8.70
  -4  -1   4  133.19   11.10
  -4  -1   4  116.99    8.50
   3   1  -4   27.80    2.70
  -3  -1   4   19.80    4.00
  -3  -1   4   15.60    2.50
   2   1  -4  754.22   43.60
  -2  -1   4  709.03   43.30
  -2  -1   4  761.72   44.60
  -2  -1   4  638.64   42.70
   1   1  -4  135.59    8.80
   1   1  -4  138.29    8.20
  -1  -1   4  124.49    8.30
  -1  -1   4  138.29    8.70
   0   1  -4  107.49    6.80
   0  -1   4  104.59    7.30
  -1   1  -4   10.60    2.20
   1  -1   4    6.50    0.60
   1  -1   4    8.20    2.20
  -2   1  -4  378.26   25.50
   2  -1   4  391.06   25.40
   3  -1   4   51.89    3.20
  -4   1  -4  106.69    8.50
  -4   1  -4  113.09   11.00
  -5   1  -4    3.30    2.60
  -6   1  -4   56.79    8.90
  -6   0   4   35.90    8.10
   5   0  -4   24.30    3.80
  -5   0   4   19.70    5.60
   4   0  -4   15.30    2.30
  -4   0   4   12.70    1.90
  -4   0   4    6.00    2.80
   3   0  -4  106.09    7.40
  -3   0   4   93.59    8.70
  -3   0   4  104.69    6.90
   2   0  -4   62.29    4.90
  -2   0   4   77.19    6.10
  -2   0   4   63.39    4.50
   1   0  -4  142.79    9.30
  -1   0   4  149.88    9.80
  -1   0   4  142.99    9.10
   0   0  -4   16.60    1.40
   0   0   4   17.20    1.60
  -1   0  -4   74.29    5.80
  -1   0  -4   77.39    4.90
   1   0   4   71.99    5.00
   1   0   4   92.19    6.00
  -2   0  -4   79.59    6.50
   2   0   4   66.69    6.10
   3   0   4   47.10    3.40
   3   0   4   52.29    5.30
  -4   0  -4    5.50    2.60
  -4   0  -4    8.10    2.10
  -5   0  -4   37.00    7.90
  -5   0  -4   35.10    5.40
  -6   0  -4    7.70    4.00
  -6   1   4  205.78   19.00
   5  -1  -4    1.60    1.10
  -5   1   4    5.80    3.40
   4  -1  -4   34.30    3.40
  -4   1   4   33.40    6.40
   3  -1  -4  103.19    7.40
  -3   1   4  102.89    6.70
  -3   1   4  108.49    9.30
   2  -1  -4  293.27   18.20
   2  -1  -4  323.47   18.90
  -2   1   4  284.77   20.00
   1  -1  -4   56.59    3.50
   1  -1  -4   52.59    3.90
  -1   1   4   54.29    4.10
  -1   1   4   52.59    4.40
   0  -1  -4   22.70    1.90
   0  -1  -4   23.20    1.70
   0   1   4   18.30    1.90
  -1  -1  -4  143.39    9.50
  -2  -1  -4  732.23   43.40
  -2  -1  -4  669.93   42.60
   2   1   4  681.43   42.90
  -3  -1  -4   23.00    3.70
  -3  -1  -4   22.00    3.60
   3   1   4   38.00    2.70
  -4  -1  -4   38.90    5.70
  -4  -1  -4   44.20    4.80
   4   1   4   55.39    4.00
   4   1   4   54.19    5.70
  -5  -1  -4  138.49   13.10
  -5  -1  -4  136.79   10.90
  -6  -1  -4   26.40    6.90
  -6  -1  -4   18.30    4.30
  -7  -1  -4    3.70    3.80
  -6   2   4    6.90    4.40
  -5   2   4   55.49    8.30
   4  -2  -4   87.49    6.50
  -4   2   4   70.79    8.70
   3  -2  -4    2.60    1.00
  -3   2   4    0.70    1.60
   2  -2  -4  307.97   19.40
  -2   2   4  310.87   21.00
   1  -2  -4   97.99    6.00
   1  -2  -4   94.59    6.60
  -1   2   4   98.79    7.10
  -1   2   4   96.79    7.20
   0  -2  -4   61.79    4.00
   0  -2  -4   59.29    4.30
   0  -2  -4   58.19    4.30
   0   2   4   62.89    4.00
   0   2   4   57.59    4.50
  -1  -2  -4    2.20    0.60
  -1  -2  -4    3.20    1.20
   1   2   4    2.60    0.70
   1   2   4    2.30    0.90
  -2  -2  -4  112.49    8.10
  -2  -2  -4  108.59    8.00
   2   2   4  108.89    7.90
  -3  -2  -4   16.20    3.00
  -3  -2  -4   10.50    2.70
   3   2   4   10.60    2.00
   3   2   4   16.30    3.00
  -4  -2  -4   71.39    7.30
  -4  -2  -4   70.79    6.30
   4   2   4   67.59    5.30
   4   2   4   57.39    6.20
  -5  -2  -4   45.40    5.50
  -5  -2  -4   44.20    6.40
   5   2   4   52.09    6.00
   5   2   4   49.60    4.40
  -6  -2  -4  219.68   18.70
  -6  -2  -4  207.98   16.10
  -7  -2  -4    1.20    3.00
  -5   3   4    5.40    3.80
  -4   3   4   10.50    4.20
   3  -3  -4   22.90    2.50
  -3   3   4   11.60    3.70
   2  -3  -4  202.48   13.50
  -2   3   4  217.38   15.50
   1  -3  -4  353.86   20.80
  -1   3   4  324.17   20.90
  -1   3   4  349.96   22.40
  -1   3   4  352.36   22.50
   0  -3  -4   22.00    2.10
   0   3   4   19.90    2.40
   0   3   4   22.90    2.20
  -1  -3  -4   20.80    2.50
   1   3   4   22.40    2.10
  -2  -3  -4   42.50    4.20
  -2  -3  -4   48.60    4.10
  -3  -3  -4   43.10    4.60
  -3  -3  -4   43.00    4.50
   3   3   4   42.60    4.20
  -4  -3  -4   18.20    3.90
   4   3   4   31.00    3.30
   4   3   4   40.20    4.20
  -5  -3  -4   84.29    7.80
  -5  -3  -4   78.49    8.60
   5   3   4   64.89    7.10
   5   3   4   84.59    6.50
  -6  -3  -4   11.70    4.20
  -6  -3  -4   16.90    4.20
   6   3   4   14.70    2.80
   6   3   4   15.80    4.90
  -7  -3  -4   13.70    5.40
  -7  -3  -4   11.40    4.10
  -5   4   4   16.30    5.00
  -4   4   4    4.40    3.10
   3  -4  -4   10.10    1.90
  -3   4   4    6.20    3.20
   2  -4  -4  182.68   12.40
  -2   4   4  207.58   14.30
  -2   4   4  178.08   14.50
   1  -4  -4   17.70    1.60
  -1   4   4   20.00    3.70
  -1   4   4   20.50    3.00
   0  -4  -4   76.79    5.50
   0   4   4   71.69    5.80
   0   4   4   78.99    6.30
  -1  -4  -4   23.20    2.70
   1   4   4   18.20    2.40
  -2  -4  -4 2378.16  144.69
   2   4   4 2419.86  144.19
  -3  -4  -4   14.40    3.30
  -3  -4  -4   14.60    2.90
   3   4   4   14.00    2.90
  -4  -4  -4   41.90    5.10
  -4  -4  -4   45.20    5.10
   4   4   4   35.40    4.30
   4   4   4   39.90    4.20
  -5  -4  -4    0.60    1.80
  -5  -4  -4    0.00    1.80
   5   4   4    3.60    1.80
   5   4   4    4.70    2.40
  -6  -4  -4    4.20    2.80
  -6  -4  -4    2.40    2.50
   6   4   4    4.20    1.90
  -7  -4  -4   12.80    4.30
  -7  -4  -4   10.20    4.20
  -4   5   4    5.40    3.80
  -4   5   4   10.80    3.70
  -3   5   4   14.60    3.60
  -3   5   4    6.10    3.40
  -2   5   4    9.80    3.30
  -2   5   4   13.90    3.50
   1  -5  -4   33.40    2.70
  -1   5   4   28.60    4.00
  -1   5   4   37.50    4.50
   0  -5  -4   21.20    2.40
   0   5   4   22.70    3.10
   0   5   4   23.70    3.00
  -1  -5  -4   28.10    3.30
   1   5   4   26.60    3.30
   1   5   4   31.80    3.10
  -2  -5  -4  262.97   17.80
   2   5   4  261.67   17.40
  -3  -5  -4    8.10    2.70
   3   5   4   11.30    2.30
  -4  -5  -4   44.20    5.10
  -4  -5  -4   49.10    5.40
   4   5   4   41.20    4.70
   4   5   4   43.40    4.60
  -5  -5  -4   66.09    7.10
  -5  -5  -4   59.89    7.10
   5   5   4   61.49    6.30
   5   5   4   70.69    6.40
  -6  -5  -4   79.79    8.50
  -6  -5  -4   89.09    9.40
   6   5   4   69.09    7.10
  -7  -5  -4   25.80    6.70
  -7  -5  -4   25.00    6.20
   7   5   4   17.60    4.10
  -3   6   4   -1.40    1.70
  -3   6   4    1.50    2.60
  -2   6   4  118.49   11.00
  -2   6   4  131.89   11.90
  -1   6   4   18.70    4.20
  -1   6   4   17.70    3.90
   0  -6  -4    5.60    1.60
   0   6   4    2.40    1.70
   0   6   4    4.40    2.10
  -1  -6  -4   19.50    3.30
   1   6   4   19.80    2.80
   1   6   4   17.60    3.50
  -2  -6  -4  248.18   16.70
   2   6   4  231.58   16.30
  -3  -6  -4   42.00    5.20
   3   6   4   52.69    4.90
  -4  -6  -4   12.70    3.60
   4   6   4   14.00    3.10
   4   6   4   14.20    3.30
  -5  -6  -4   69.09    7.70
   5   6   4   73.09    6.90
  -6  -6  -4   37.40    6.90
  -6  -6  -4   39.80    7.00
   6   6   4   33.70    5.60
  -3   7   4   10.20    4.30
  -2   7   4  143.69   12.80
  -1   7   4   36.70    5.20
   0   7   4   24.70    5.00
  -1  -7  -4   18.00    3.30
   1   7   4   16.20    3.80
  -2  -7  -4    1.30    1.60
   2   7   4    1.60    1.60
  -3  -7  -4   23.10    4.30
   3   7   4   26.80    3.60
  -4  -7  -4   21.70    4.70
   4   7   4   17.20    3.80
   4   7   4   21.90    4.10
  -5  -7  -4   19.00    4.60
   5   7   4   22.90    4.20
  -6  -7  -4  114.79   10.90
   6   7   4   99.99    9.60
  -1   8   4   84.09    9.00
   0   8   4   -1.30    1.60
  -1  -8  -4   18.60    3.50
   1   8   4    9.60    3.10
  -2  -8  -4   -0.60    1.60
   2   8   4    0.50    1.40
  -3  -8  -4   19.40    4.30
   3   8   4   16.30    3.80
   3   8   4   17.10    3.70
  -4  -8  -4   10.20    3.00
   4   8   4   14.70    3.70
  -5  -8  -4    6.00    3.40
   5   8   4    8.30    3.20
   0   9   4   13.20    3.80
   1   9   4    1.70    2.10
  -2  -9  -4   95.69    8.50
   2   9   4   91.19    8.80
  -3  -9  -4    4.90    3.00
   3   9   4    7.40    3.30
   3   9   4    9.50    3.40
  -4  -9  -4   38.60    6.60
   4   9   4   37.60    6.20
   4   8  -5   36.30    6.40
  -4  -8   5   27.30    5.40
   3   8  -5   52.99    6.20
  -3  -8   5   45.20    6.70
   2   8  -5   23.80    4.70
   2   8  -5   21.50    5.30
  -2  -8   5   28.10    4.90
   1   8  -5  269.37   21.00
   1   8  -5  254.57   21.80
   0   8  -5    0.40    2.30
   0   8  -5   -1.30    2.00
  -1   8  -5    3.90    3.40
   5   7  -5   12.20    3.70
  -5  -7   5   10.70    3.70
   4   7  -5    1.10    2.10
  -4  -7   5    0.40    2.20
   3   7  -5   15.40    3.60
  -3  -7   5   15.80    3.50
   2   7  -5   28.80    4.60
  -2  -7   5   21.20    4.10
   1   7  -5   46.40    5.00
   1   7  -5   52.09    6.60
   1   7  -5   53.79    5.70
  -1  -7   5   45.40    5.00
   0   7  -5   20.30    5.40
  -1   7  -5    6.60    3.60
  -2   7  -5   23.60    6.60
   6   6  -5   22.60    5.20
  -6  -6   5   26.40    5.60
   5   6  -5   90.29    8.60
  -5  -6   5   87.69    8.40
   4   6  -5    0.80    1.60
  -4  -6   5    1.60    1.80
   3   6  -5    8.30    2.90
  -3  -6   5    7.00    2.60
   2   6  -5   18.70    3.30
  -2  -6   5   16.00    3.10
   1   6  -5   11.20    2.60
   1   6  -5    7.10    2.80
  -1  -6   5   11.70    2.70
   0   6  -5    7.10    3.00
   0   6  -5   13.90    2.40
  -1   6  -5   11.80    4.50
  -2   6  -5    1.20    2.50
  -3   6  -5   96.29   11.70
   6   5  -5    1.10    2.10
  -6  -5   5    2.60    2.20
   5   5  -5   11.20    3.30
  -5  -5   5   11.90    3.30
   4   5  -5  203.18   15.20
  -4  -5   5  220.08   15.40
   3   5  -5    0.10    1.20
  -3  -5   5   -0.30    1.00
   2   5  -5   71.29    6.10
   2   5  -5   70.59    5.40
  -2  -5   5   63.39    5.90
   1   5  -5   79.19    6.40
  -1  -5   5   81.09    6.50
   0   5  -5   19.60    2.80
   0   5  -5   22.10    4.60
  -1   5  -5   17.30    4.60
  -2   5  -5   12.90    4.30
  -3   5  -5    0.00    2.10
  -4   5  -5    3.60    3.50
   6   4  -5   11.80    2.50
  -6  -4   5    3.40    2.20
  -6  -4   5    4.50    3.00
   5   4  -5    8.30    2.80
  -5  -4   5    8.30    2.70
   4   4  -5   30.70    4.00
  -4  -4   5   39.30    5.30
   3   4  -5   44.00    4.50
  -3  -4   5   44.50    4.50
   2   4  -5    1.90    1.30
  -2  -4   5    2.10    1.20
   1   4  -5  392.96   24.60
  -1  -4   5  383.96   24.60
   0   4  -5  101.59    8.70
   0   4  -5  102.19    7.20
  -1   4  -5   86.29    6.00
  -1   4  -5   94.49    8.60
  -2   4  -5    3.20    2.40
  -3   4  -5   16.60    5.00
  -4   4  -5    8.90    4.40
  -5   4  -5    2.60    4.00
   6   3  -5   36.10    5.30
  -6  -3   5   40.00    4.70
  -6  -3   5   29.60    7.00
   5   3  -5   88.29    7.20
  -5  -3   5   68.99    6.70
  -5  -3   5   76.49    8.50
   4   3  -5   12.20    2.50
  -4  -3   5   16.60    3.10
   3   3  -5    1.20    1.00
  -3  -3   5    1.40    1.10
   2   3  -5    3.40    1.30
   2   3  -5    4.30    0.80
   2   3  -5    4.80    0.70
  -2  -3   5    5.20    1.50
   1   3  -5  640.04   39.40
  -1  -3   5  642.94   39.50
   0   3  -5   48.50    3.80
   0   3  -5   51.89    5.00
  -1   3  -5  323.07   18.90
  -1   3  -5  291.97   21.20
  -2   3  -5    8.70    3.00
  -3   3  -5  382.16   27.50
  -4   3  -5    7.30    3.90
  -5   3  -5    0.80    2.90
   6   2  -5   40.60    5.00
  -6  -2   5   52.49    9.50
   5   2  -5  149.19   10.60
  -5  -2   5  117.49   12.10
  -5  -2   5  142.49   10.20
   4   2  -5   96.39    7.80
  -4  -2   5  111.59    9.70
  -4  -2   5   93.79    7.60
   3   2  -5    0.50    0.90
  -3  -2   5    0.40    1.00
  -3  -2   5   -0.30    0.70
   2   2  -5   70.99    5.30
  -2  -2   5   62.99    5.10
   1   2  -5   28.70    2.80
  -1  -2   5   36.60    2.90
   0   2  -5  223.68   14.00
  -1   2  -5    4.50    1.80
  -1   2  -5    3.90    0.60
  -2   2  -5  126.89   10.50
  -3   2  -5    8.50    3.20
  -4   2  -5  123.19   11.90
  -4   2  -5  108.19    8.70
  -5   2  -5   10.80    4.80
  -6   2  -5   71.49   10.20
   6   1  -5   10.70    2.80
  -6  -1   5   12.80    5.10
   5   1  -5  195.78   13.80
  -5  -1   5  194.08   16.60
   4   1  -5   86.19    6.40
  -4  -1   5   55.69    7.20
  -4  -1   5   80.79    5.90
   3   1  -5  268.67   18.00
  -3  -1   5  278.87   19.50
  -3  -1   5  269.97   17.60
  -3  -1   5  288.27   17.20
   2   1  -5   23.10    2.40
  -2  -1   5   23.80    3.00
  -2  -1   5   23.40    1.70
  -2  -1   5   21.00    2.10
   1   1  -5   39.90    3.10
   1   1  -5   38.00    2.70
  -1  -1   5   37.10    2.80
  -1  -1   5   38.00    3.00
   0   1  -5   22.20    1.90
  -1   1  -5  125.79    9.00
  -1   1  -5  123.19    7.50
   1  -1   5  119.29    9.00
   1  -1   5  117.29    7.50
  -2   1  -5  121.19    9.70
  -3   1  -5  178.88   14.30
  -4   1  -5   73.89    8.50
  -4   1  -5   72.69    6.40
  -5   1  -5   24.10    6.40
  -5   1  -5   40.00    5.60
  -6   1  -5   73.89   10.10
  -6   0   5   18.70    5.90
   5   0  -5    1.00    1.30
  -5   0   5    0.10    1.80
   4   0  -5  276.87   17.70
  -4   0   5  278.27   17.00
  -4   0   5  241.78   19.80
   3   0  -5    5.30    1.50
  -3   0   5    7.30    2.60
  -3   0   5    6.20    1.30
   2   0  -5  985.00   63.09
  -2   0   5 1098.29   64.39
  -2   0   5 1025.30   62.69
  -2   0   5 1069.29   62.89
   1   0  -5  105.49    7.30
  -1   0   5  119.99    7.80
  -1   0   5  103.99    7.00
   0   0  -5  389.56   24.40
   0   0   5  412.56   24.70
  -1   0  -5    2.30    1.10
  -3   0  -5   41.90    4.60
  -3   0  -5   47.80    5.90
   3   0   5   69.59    6.20
   3   0   5   62.09    3.90
  -4   0  -5   39.70    5.60
  -4   0  -5   29.30    3.80
   4   0   5   28.50    2.60
   4   0   5   45.80    7.00
  -5   0  -5    9.80    3.00
  -5   0  -5   12.20    4.50
  -6   0  -5   34.40    8.10
  -6   1   5   17.70    6.20
   5  -1  -5   30.00    3.60
  -5   1   5   28.20    6.60
   4  -1  -5   48.90    4.20
  -4   1   5   35.10    5.50
   3  -1  -5  141.19    8.80
  -3   1   5  119.79    7.80
  -3   1   5  109.59   10.10
   2  -1  -5  377.36   25.60
  -2   1   5  426.56   26.10
  -2   1   5  443.66   27.10
   1  -1  -5   25.30    2.10
  -1   1   5   19.90    2.30
  -1   1   5   17.80    1.90
   0  -1  -5  625.24   36.30
   0  -1  -5  616.24   36.10
   0   1   5  555.54   36.40
  -1  -1  -5   40.30    3.30
  -2  -1  -5  264.47   15.60
  -2  -1  -5  209.38   15.80
  -3  -1  -5    7.40    2.50
  -3  -1  -5    4.60    1.80
   3   1   5    5.70    1.20
   3   1   5    7.70    2.40
  -4  -1  -5   44.60    4.80
  -4  -1  -5   44.30    5.80
   4   1   5   44.60    3.60
   4   1   5   47.40    5.60
  -5  -1  -5    4.30    2.20
  -5  -1  -5    4.50    2.70
   5   1   5    6.40    2.80
  -6  -1  -5   11.90    4.90
  -6  -1  -5   11.80    3.60
  -6   2   5   40.00    8.60
  -5   2   5   68.49    9.00
   4  -2  -5   70.29    5.70
  -4   2   5   58.89    7.70
   3  -2  -5   32.20    3.10
  -3   2   5   24.90    5.10
   2  -2  -5  106.39    7.60
  -2   2   5  114.39    8.90
  -2   2   5  111.09    8.30
   1  -2  -5   77.79    5.30
   1  -2  -5   70.49    4.70
  -1   2   5   73.89    5.70
  -1   2   5   72.09    5.60
   0  -2  -5   57.69    3.80
   0  -2  -5   61.29    4.30
   0  -2  -5   57.19    4.20
   0   2   5   54.29    4.40
   0   2   5   59.09    3.80
  -1  -2  -5   35.40    2.70
   1   2   5   43.90    3.40
   1   2   5   36.20    2.70
  -2  -2  -5   52.59    4.80
  -2  -2  -5   48.40    4.60
   2   2   5   68.69    5.00
   3   2   5  307.57   20.50
  -4  -2  -5   20.20    3.90
  -4  -2  -5   14.00    3.90
   4   2   5   16.80    3.80
  -5  -2  -5   42.10    5.20
  -5  -2  -5   40.20    6.00
   5   2   5   38.60    5.40
   5   2   5   43.30    4.00
  -6  -2  -5    6.30    3.80
  -6  -2  -5    2.30    2.70
   6   2   5    3.40    2.70
  -7  -2  -5    8.40    4.40
  -5   3   5   24.70    7.00
   4  -3  -5   66.69    6.10
  -4   3   5   54.29    7.40
   3  -3  -5   71.39    5.70
   2  -3  -5  124.59    8.60
  -2   3   5  128.19   10.20
  -2   3   5  119.29    9.50
   1  -3  -5    5.80    1.20
  -1   3   5    3.60    1.40
  -1   3   5    5.40    1.70
   0  -3  -5   25.50    2.40
   0   3   5   27.50    2.70
   0   3   5   21.20    2.10
  -1  -3  -5   37.20    3.50
   1   3   5   37.60    3.40
   1   3   5   38.30    2.70
  -2  -3  -5   64.09    5.20
  -2  -3  -5   64.49    5.70
   2   3   5   73.29    5.50
  -3  -3  -5  102.69    8.80
  -3  -3  -5  128.39    9.20
  -4  -3  -5   64.09    6.60
  -4  -3  -5   66.09    6.30
   4   3   5   61.29    5.20
   4   3   5   57.69    5.90
  -5  -3  -5   44.90    6.20
  -5  -3  -5   47.80    5.70
   5   3   5   46.80    5.70
   5   3   5   39.80    4.30
  -6  -3  -5  206.28   17.40
  -6  -3  -5  208.88   15.80
   6   3   5  174.58   15.20
   6   3   5  201.08   16.10
  -7  -3  -5   12.30    4.10
  -7  -3  -5    7.60    3.80
  -5   4   5   19.30    5.00
  -5   4   5   20.90    6.60
  -4   4   5    2.40    2.80
  -4   4   5    3.70    2.50
   3  -4  -5   65.59    5.50
  -3   4   5   75.99    7.40
   2  -4  -5   44.20    4.00
  -2   4   5   48.00    5.20
  -2   4   5   47.60    5.50
   1  -4  -5  263.17   16.80
  -1   4   5  263.27   18.50
  -1   4   5  295.77   18.70
   0  -4  -5    9.90    1.90
   0   4   5    8.80    2.30
   0   4   5   11.70    2.00
  -1  -4  -5   14.40    2.70
   1   4   5   14.50    2.60
   1   4   5   10.60    1.30
   2   4   5   23.50    2.80
  -3  -4  -5   80.99    7.40
  -3  -4  -5   85.89    7.10
   3   4   5   88.89    7.10
  -4  -4  -5  102.19   10.10
   4   4   5  138.49    9.70
   4   4   5  142.59   10.30
  -5  -4  -5    0.90    1.80
  -5  -4  -5    0.50    1.80
   5   4   5    2.80    2.30
   5   4   5   -0.70    1.30
  -6  -4  -5  150.98   12.70
  -6  -4  -5  150.48   13.90
   6   4   5  132.09   10.80
  -7  -4  -5    1.10    2.60
  -7  -4  -5    4.00    3.30
  -4   5   5   29.20    6.00
  -4   5   5   17.90    5.60
  -3   5   5   25.30    5.80
  -3   5   5   28.30    5.80
  -2   5   5  308.97   22.20
  -2   5   5  307.67   21.70
  -1   5   5   51.59    5.50
  -1   5   5   54.09    5.60
   0  -5  -5  121.39    8.80
   0   5   5  125.99    9.40
   0   5   5  137.79    9.90
  -1  -5  -5   32.10    3.60
   1   5   5   34.40    3.80
   1   5   5   39.60    3.40
  -2  -5  -5  224.68   15.50
   2   5   5  219.48   15.10
  -3  -5  -5  100.89    9.10
   3   5   5  120.79    8.70
  -4  -5  -5    7.30    2.30
   4   5   5   12.70    2.60
   4   5   5   10.00    2.50
  -5  -5  -5   13.70    4.10
  -5  -5  -5   16.80    4.30
   5   5   5   16.90    3.90
   5   5   5   14.20    3.20
  -6  -5  -5    6.70    3.60
  -6  -5  -5    5.60    3.50
   6   5   5    8.80    2.80
  -7  -5  -5   23.50    6.00
   7   5   5   24.20    5.00
  -3   6   5   17.70    4.70
  -2   6   5   66.79    7.40
  -1   6   5    0.10    1.40
  -1   6   5    0.10    1.40
   0  -6  -5   99.69    7.30
   0   6   5   97.69    8.40
   0   6   5   99.39    8.20
  -1  -6  -5   16.80    3.10
   1   6   5   17.20    2.50
   1   6   5   13.90    3.10
  -2  -6  -5  720.13   44.90
   2   6   5  704.23   44.60
  -3  -6  -5   16.30    3.80
   3   6   5   21.30    3.00
   4   6   5   61.69    6.00
   4   6   5   58.09    5.90
  -5  -6  -5   26.00    5.10
   5   6   5   45.40    4.80
  -6  -6  -5    3.00    2.40
  -6  -6  -5    4.00    3.20
   6   6   5    3.40    2.20
  -2   7   5   10.10    3.60
  -1   7   5  118.59   10.50
   0   7   5    4.80    2.60
  -1  -7  -5   27.80    3.50
   1   7   5   28.00    3.90
  -2  -7  -5    5.50    2.40
   2   7   5    2.90    1.80
  -3  -7  -5   45.10    5.40
   3   7   5   41.90    4.80
  -4  -7  -5   20.70    4.70
   4   7   5   26.60    4.90
   4   7   5   30.50    4.80
  -5  -7  -5   76.49    8.40
   5   7   5   80.49    7.60
  -6  -7  -5   27.40    6.10
   6   7   5   28.50    5.10
  -1   8   5   22.50    5.10
   0   8   5    6.20    2.70
  -1  -8  -5   23.40    4.00
   1   8   5   19.80    4.30
  -2  -8  -5   33.90    5.40
   2   8   5   27.50    5.20
  -3  -8  -5    3.10    2.30
   3   8   5    2.50    2.00
  -4  -8  -5   11.70    3.40
   4   8   5    2.20    3.00
   4   8   5    5.90    2.80
  -5  -8  -5   52.99    8.20
   5   8   5   45.70    5.80
   0   9   5   53.59    6.80
   1   9   5    9.50    3.40
  -2  -9  -5   23.90    4.50
   2   9   5   17.60    4.10
  -3  -9  -5    1.10    2.10
   3   9   5    1.30    2.10
   3   9   5    1.90    2.40
  -4  -9  -5    5.90    3.10
   4   9   5    5.20    2.70
   4   8  -6   14.40    4.30
  -4  -8   6   15.90    4.10
   3   8  -6   34.70    6.00
  -3  -8   6   47.50    5.50
   2   8  -6    5.80    3.20
   2   8  -6    9.40    3.20
  -2  -8   6   14.20    3.70
   1   8  -6   26.00    6.10
   0   8  -6   97.79   11.20
   5   7  -6  237.38   17.90
  -5  -7   6  236.98   17.80
   4   7  -6   10.90    3.60
  -4  -7   6   11.70    3.40
   3   7  -6  143.89   11.60
  -3  -7   6  145.19   11.50
   2   7  -6    1.50    1.70
  -2  -7   6    0.80    1.60
   1   7  -6  202.48   13.80
   1   7  -6  205.68   14.80
   1   7  -6  174.18   15.80
  -1  -7   6  191.18   13.90
   0   7  -6    3.80    2.80
  -1   7  -6   29.10    6.90
  -2   7  -6   -0.70    2.40
   6   6  -6   12.90    4.00
  -6  -6   6    7.00    3.30
   5   6  -6    9.80    2.80
  -5  -6   6   17.40    4.10
   4   6  -6   65.49    6.70
  -4  -6   6   56.19    6.20
   3   6  -6   11.70    3.30
  -3  -6   6   15.10    3.60
   2   6  -6   36.20    4.30
  -2  -6   6   38.20    4.30
   1   6  -6   48.30    4.70
   1   6  -6   55.09    6.40
  -1  -6   6   48.90    4.90
   0   6  -6   79.89    5.80
   0   6  -6   52.59    7.20
  -1   6  -6    3.70    3.00
  -2   6  -6    9.40    4.40
  -3   6  -6   18.70    6.00
   6   5  -6   54.79    6.30
  -6  -5   6   55.29    6.30
   5   5  -6   12.80    3.50
  -5  -5   6   16.60    3.80
   4   5  -6   58.99    5.60
  -4  -5   6   36.60    4.80
   3   5  -6   28.50    4.50
  -3  -5   6   27.50    4.40
   2   5  -6    4.20    1.50
   2   5  -6    1.80    1.40
  -2  -5   6    3.00    1.60
   1   5  -6   61.79    5.30
   0   5  -6   25.40    2.80
  -1   5  -6  102.89   10.20
  -2   5  -6   39.30    7.60
  -3   5  -6   12.80    5.20
  -4   5  -6   66.09    9.90
   6   4  -6   14.80    3.50
  -6  -4   6   13.20    3.50
   5   4  -6   20.40    4.10
  -5  -4   6   25.40    4.50
   4   4  -6  106.99    9.00
  -4  -4   6  118.79    9.10
   3   4  -6   46.50    4.70
  -3  -4   6   44.70    4.60
   2   4  -6    2.50    1.20
  -2  -4   6    0.80    1.00
   1   4  -6   27.80    3.00
  -1  -4   6   25.50    2.90
   0   4  -6  225.58   14.50
  -1   4  -6   35.20    4.80
  -1   4  -6   21.50    2.10
  -2   4  -6    0.50    1.60
  -3   4  -6   63.39    8.20
  -4   4  -6   13.10    5.30
   6   3  -6   26.60    4.50
  -6  -3   6   17.40    4.90
   5   3  -6    6.00    1.60
  -5  -3   6   14.00    2.70
  -5  -3   6    1.30    2.10
   4   3  -6   64.59    5.80
  -4  -3   6   55.69    5.40
   3   3  -6   68.39    5.90
  -3  -3   6   69.09    5.80
   2   3  -6    0.80    0.40
   2   3  -6    0.60    0.40
   2   3  -6    0.00    0.90
  -2  -3   6    0.80    0.90
   1   3  -6    3.70    1.20
  -1  -3   6    2.20    1.00
   0   3  -6  355.86   25.30
   0   3  -6  416.46   24.00
  -1   3  -6    5.90    1.00
  -1   3  -6    6.40    2.40
  -2   3  -6   62.79    6.90
  -3   3  -6   17.20    4.60
  -4   3  -6   56.29    8.10
  -5   3  -6   -0.70    2.40
   6   2  -6    8.70    2.60
  -6  -2   6    4.10    3.10
   5   2  -6   21.40    3.80
  -5  -2   6   15.30    4.80
  -5  -2   6   23.40    3.60
  -4  -2   6    2.00    1.90
  -4  -2   6   10.80    2.00
   3   2  -6   14.00    2.50
  -3  -2   6   11.30    2.70
  -3  -2   6    6.30    1.70
   2   2  -6   10.70    2.10
  -2  -2   6    9.70    1.90
   1   2  -6  363.76   22.80
  -1  -2   6  365.46   22.80
   0   2  -6    6.10    1.20
   0  -2   6    6.10    1.70
  -1   2  -6  894.11   49.90
  -1   2  -6  765.12   51.89
  -2   2  -6   26.00    3.90
  -3   2  -6   88.39    8.90
  -4   2  -6   88.19   10.00
  -5   2  -6    1.70    2.90
   6   1  -6   31.30    4.80
  -6  -1   6   43.00    8.80
   5   1  -6   60.19    5.60
  -5  -1   6   49.40    7.20
   4   1  -6  185.68   13.20
  -4  -1   6  192.88   12.70
  -4  -1   6  186.18   15.10
  -3  -1   6    0.00    0.70
  -3  -1   6   -0.60    0.30
  -3  -1   6    1.10    1.10
  -2  -1   6   82.89    4.80
  -2  -1   6   73.49    6.30
  -2  -1   6   59.69    5.10
   1   1  -6   21.60    2.20
  -1  -1   6   19.90    1.90
   0   1  -6    0.10    0.40
   0  -1   6   -0.10    0.60
  -1   1  -6  226.58   14.00
  -1   1  -6  232.68   15.60
  -2   1  -6  226.08   15.80
   2  -1   6  208.58   15.60
  -3   1  -6  119.19   10.60
  -4   1  -6  146.39   11.20
  -4   1  -6  158.88   13.80
  -5   1  -6   78.29    9.50
  -5   1  -6   65.09    6.60
  -6   1  -6    0.50    2.80
   6   0  -6   24.90    5.90
  -6   0   6   27.40    7.30
   5   0  -6   45.80    4.70
  -5   0   6   50.29    7.20
   4   0  -6  181.28   13.10
  -4   0   6  203.58   12.40
  -4   0   6  177.78   12.90
  -4   0   6  197.78   15.60
   3   0  -6  151.28   10.70
  -3   0   6  142.09   12.00
  -3   0   6  157.58   10.00
  -3   0   6  160.98   10.40
   2   0  -6    4.30    1.20
  -2   0   6    2.00    1.20
  -2   0   6    2.90    0.80
  -2   0   6    2.80    0.80
   1   0  -6  158.98   10.60
  -1   0   6  166.48   10.40
   0   0  -6   39.80    2.90
   0   0   6   36.20    3.20
  -1   0  -6    1.40    0.90
  -2   0  -6   70.89    6.30
  -3   0  -6    3.50    2.20
   3   0   6    3.60    0.80
   3   0   6    5.20    2.40
  -4   0  -6  289.47   20.10
  -4   0  -6  299.27   22.40
   4   0   6  307.37   21.70
  -5   0  -6   17.90    5.40
  -5   0  -6   22.20    4.30
  -6   0  -6   50.59    9.70
  -6   1   6   11.30    5.00
   5  -1  -6    0.40    1.30
  -5   1   6    1.90    2.60
   4  -1  -6   78.59    6.10
  -4   1   6   66.79    6.30
  -4   1   6   72.19    8.00
   3  -1  -6  207.18   13.80
  -3   1   6  204.88   15.60
  -3   1   6  210.28   14.10
   2  -1  -6  105.39    6.90
  -2   1   6  103.59    7.00
  -2   1   6   75.69    7.40
   1  -1  -6  776.82   47.70
  -1   1   6  769.52   47.80
  -1   1   6  814.82   48.10
   0  -1  -6   94.09    6.20
   0   1   6   88.09    6.30
  -1  -1  -6   25.30    2.30
  -1  -1  -6   29.80    2.70
   1   1   6   35.60    3.10
  -2  -1  -6    2.40    1.30
   2   1   6    4.00    1.50
  -3  -1  -6  175.38   13.50
  -3  -1  -6  189.58   12.60
   3   1   6  162.98   12.90
  -4  -1  -6   38.10    4.70
  -4  -1  -6   32.50    6.20
   4   1   6   51.39    3.70
  -5  -1  -6   98.39    8.70
  -5  -1  -6   96.09   10.30
   5   1   6   99.79    9.70
  -6  -1  -6    0.70    2.40
  -6  -1  -6    0.20    2.20
  -5   2   6   15.50    5.30
  -5   2   6    8.90    3.20
   4  -2  -6   80.69    7.00
  -4   2   6   92.09    9.60
  -4   2   6   97.09    8.10
   3  -2  -6    1.20    1.00
  -3   2   6    0.40    1.60
  -3   2   6    0.00    1.10
   2  -2  -6  182.48   11.70
  -2   2   6  170.88   12.20
  -2   2   6  176.88   12.90
   1  -2  -6    5.10    1.30
   1  -2  -6    4.70    1.00
  -1   2   6    4.90    1.40
  -1   2   6    4.70    1.40
   0  -2  -6  154.88    9.80
   0  -2  -6  154.88   10.20
   0  -2  -6  175.28   10.30
   0   2   6  140.89   10.30
  -1  -2  -6   31.90    2.70
  -1  -2  -6   40.70    3.50
   1   2   6   41.00    3.40
   1   2   6   33.80    2.50
  -2  -2  -6  120.89    8.70
  -2  -2  -6  111.49    8.40
  -3  -2  -6   48.50    5.30
  -3  -2  -6   51.99    5.00
   3   2   6   52.79    5.20
  -4  -2  -6   28.30    4.80
  -4  -2  -6   29.50    4.60
   4   2   6   23.10    2.60
   4   2   6   33.50    5.70
  -5  -2  -6   34.20    6.00
   5   2   6   57.79    6.60
   5   2   6   54.19    4.50
  -6  -2  -6    7.60    3.80
  -6  -2  -6    9.00    3.30
   6   2   6    8.80    4.00
  -7  -2  -6    2.60    3.00
  -5   3   6  151.38   15.10
  -5   3   6  159.48   13.20
   4  -3  -6    3.10    1.40
  -4   3   6    3.20    2.70
  -4   3   6    2.10    1.90
  -3   3   6  170.38   12.90
   2  -3  -6   97.99    7.30
  -2   3   6   96.99    8.00
  -2   3   6  105.29    8.60
   1  -3  -6  109.79    7.60
  -1   3   6  106.99    8.20
   0  -3  -6   22.30    1.90
   0  -3  -6   30.10    2.60
   0   3   6   27.90    2.00
  -1  -3  -6   44.20    4.00
   1   3   6   43.10    3.90
  -2  -3  -6    4.40    1.30
  -3  -3  -6  371.36   24.00
  -3  -3  -6  371.96   23.90
   3   3   6  339.67   23.60
   4   3   6   69.19    6.10
   4   3   6   93.29    7.60
  -5  -3  -6   16.40    4.10
  -5  -3  -6   15.70    4.50
   5   3   6   28.70    3.30
   5   3   6   16.90    4.30
  -6  -3  -6   79.49    9.60
  -6  -3  -6   87.59    8.70
   6   3   6   79.49    8.80
  -7  -3  -6   13.00    4.40
  -7  -3  -6    9.50    4.50
  -5   4   6   20.50    5.50
  -5   4   6   19.30    6.10
  -4   4   6   39.60    7.80
  -4   4   6   36.10    6.40
   3  -4  -6  109.79    8.20
  -3   4   6  121.19    9.90
  -3   4   6  103.59   10.30
   2  -4  -6   36.90    3.50
  -2   4   6   28.90    4.30
  -2   4   6   45.50    4.80
   1  -4  -6  133.39    9.10
   1  -4  -6  119.39    8.20
  -1   4   6  131.99    9.90
  -1   4   6  136.49    9.70
   0  -4  -6    9.30    1.80
   0   4   6    8.60    1.60
   0   4   6    8.00    2.10
  -1  -4  -6   61.19    5.00
   1   4   6   56.59    3.90
   1   4   6   56.29    3.80
   1   4   6   57.29    5.00
  -2  -4  -6    0.70    1.10
   2   4   6    0.10    0.80
  -4  -4  -6   12.30    3.40
  -4  -4  -6   14.50    3.70
   4   4   6   22.70    4.20
   4   4   6   19.20    3.30
  -5  -4  -6   70.59    7.90
  -5  -4  -6   77.79    8.40
   5   4   6   81.99    7.80
   5   4   6   79.69    6.80
  -6  -4  -6   30.40    6.10
  -6  -4  -6   21.40    5.80
   6   4   6   21.90    3.70
   6   4   6   23.20    5.60
  -7  -4  -6  102.89   10.60
  -7  -4  -6  105.69   12.00
  -4   5   6   12.40    4.60
  -4   5   6    7.40    3.30
  -3   5   6    5.20    3.10
  -3   5   6   13.30    3.40
  -2   5   6   82.99    8.20
  -1   5   6  108.39    8.90
  -1   5   6  107.59    9.00
   0  -5  -6  128.89    9.50
   0   5   6  129.79    9.70
   0   5   6  160.28   10.70
  -1  -5  -6   11.30    2.30
   1   5   6    4.30    1.10
   1   5   6    5.30    1.70
  -2  -5  -6    8.00    2.50
   2   5   6    8.20    2.40
  -3  -5  -6    9.60    2.90
   3   5   6    7.10    2.30
  -4  -5  -6   35.30    5.90
  -4  -5  -6   28.70    4.00
   4   5   6   33.60    5.40
  -5  -5  -6   45.30    6.20
  -5  -5  -6   50.59    6.50
   5   5   6   70.19    6.70
   5   5   6   64.89    5.80
  -6  -5  -6   86.99    9.20
  -6  -5  -6   97.79   10.00
   6   5   6   78.59    7.60
  -3   6   6    1.30    2.20
  -2   6   6    4.60    2.60
  -1   6   6  182.08   14.00
   0  -6  -6   12.90    2.30
   0   6   6   15.30    3.40
  -1  -6  -6   53.39    5.20
   1   6   6   60.59    5.80
  -2  -6  -6   12.70    3.10
   2   6   6    8.30    2.50
  -3  -6  -6  837.52   50.59
   3   6   6  757.52   49.60
  -4  -6  -6   14.90    3.80
   4   6   6   11.10    2.70
  -5  -6  -6   17.40    4.60
  -5  -6  -6   12.00    3.50
   5   6   6   18.40    3.70
   5   6   6   13.00    3.70
  -6  -6  -6   15.80    4.70
  -6  -6  -6   12.50    4.80
   6   6   6   21.60    4.20
  -2   7   6   74.39    8.30
   0   7   6   45.40    5.50
  -1  -7  -6   55.39    5.20
   1   7   6   51.09    5.70
  -2  -7  -6   39.20    4.70
   2   7   6   36.90    4.50
  -3  -7  -6  114.29    9.60
   3   7   6  103.49    8.90
  -4  -7  -6    7.20    3.20
   4   7   6    6.80    2.80
   4   7   6    8.10    2.80
  -5  -7  -6   31.80    6.30
   5   7   6   31.20    5.20
  -6  -7  -6   27.80    6.00
   6   7   6   25.20    4.60
  -1   8   6   57.79    7.10
   0   8   6    1.60    2.00
   1   8   6    1.90    2.00
  -2  -8  -6   74.19    7.00
   2   8   6   69.49    7.00
  -3  -8  -6  147.39   11.90
   3   8   6  142.09   11.60
  -4  -8  -6    0.10    2.10
   4   8   6    1.40    2.20
   4   8   6    1.90    2.10
  -5  -8  -6   26.00    6.20
   5   8   6   26.40    5.20
   0   9   6    6.20    3.30
   1   9   6   11.00    3.80
  -2  -9  -6   14.00    3.30
   2   9   6   12.10    3.60
  -3  -9  -6    4.80    2.70
   3   9   6    5.20    2.80
  -4  -9  -6    7.60    3.20
   4   9   6    1.70    2.20
   4   8  -7    7.70    3.10
  -4  -8   7   12.30    3.70
   3   8  -7   64.49    7.10
  -3  -8   7   73.39    7.40
   2   8  -7   33.60    5.30
  -2  -8   7   33.70    5.40
   1   8  -7   45.50    8.60
   0   8  -7    7.80    4.10
   5   7  -7   15.60    4.20
  -5  -7   7   14.60    3.80
   4   7  -7  207.78   15.90
  -4  -7   7  213.58   15.90
   3   7  -7   42.60    5.40
  -3  -7   7   45.50    5.20
   2   7  -7   90.39    7.90
  -2  -7   7   89.89    8.00
   1   7  -7    4.00    2.00
   1   7  -7    1.00    2.60
   0   7  -7  147.69   14.00
  -1   7  -7    7.10    4.60
  -2   7  -7    5.90    4.20
   5   6  -7   40.90    6.60
  -5  -6   7   43.60    5.40
   4   6  -7    7.20    2.70
  -4  -6   7    9.20    3.10
   3   6  -7   93.39    8.30
  -3  -6   7   97.09    8.20
   2   6  -7   68.09    6.20
  -2  -6   7   67.49    6.30
   1   6  -7   48.80    4.80
   0   6  -7  460.95   32.30
  -1   6  -7    9.70    3.60
  -2   6  -7   -1.50    1.90
  -3   6  -7    3.60    3.70
   6   5  -7   49.60    6.00
  -6  -5   7   47.20    5.80
   5   5  -7   77.49    7.60
  -5  -5   7   80.59    7.50
   4   5  -7   15.40    3.10
  -4  -5   7   13.10    3.10
   3   5  -7    2.40    1.90
  -3  -5   7    1.30    1.50
   2   5  -7   11.90    2.80
  -2  -5   7    8.30    2.30
   1   5  -7   48.90    4.60
  -1  -5   7   52.49    4.90
   0   5  -7   77.49    7.70
   0   5  -7   64.69    5.40
  -1   5  -7   48.90    6.60
  -2   5  -7   12.70    4.60
  -3   5  -7   16.50    5.60
  -4   5  -7    2.60    3.40
   6   4  -7  117.99   10.50
  -6  -4   7  132.79   10.50
   5   4  -7   46.70    5.30
  -5  -4   7   43.40    4.90
   4   4  -7  136.09   10.70
  -4  -4   7  137.09   10.40
   3   4  -7    7.40    2.00
   2   4  -7    3.00    1.40
  -2  -4   7    1.20    1.10
   1   4  -7    4.80    1.50
  -1  -4   7    1.70    1.20
   0   4  -7   72.59    7.20
   0   4  -7   69.19    5.30
  -1   4  -7    0.70    1.60
  -1   4  -7   -0.10    0.50
  -2   4  -7   55.69    7.10
  -3   4  -7    8.10    3.70
  -4   4  -7  128.99   13.70
   6   3  -7   33.90    5.10
  -6  -3   7   22.10    6.30
   5   3  -7    2.90    1.80
  -5  -3   7   -0.50    1.70
  -5  -3   7    5.60    2.00
   4   3  -7   30.90    3.70
  -4  -3   7   20.60    3.50
   3   3  -7  381.66   24.10
  -3  -3   7  357.46   23.70
   2   3  -7    3.50    1.10
  -2  -3   7    2.20    1.00
   1   3  -7    0.90    0.80
  -1  -3   7    0.10    0.80
   0   3  -7  158.18   10.50
   0   3  -7  165.28   12.20
  -2   3  -7   20.50    4.70
  -3   3  -7   37.00    5.70
  -4   3  -7   13.40    5.30
  -5   3  -7    0.70    2.90
   6   2  -7   12.90    3.30
  -6  -2   7    6.70    3.60
   5   2  -7    9.40    2.60
  -5  -2   7    9.30    3.60
  -5  -2   7   12.20    2.60
   4   2  -7   29.80    4.40
  -4  -2   7   28.60    5.50
  -4  -2   7   26.00    3.20
   3   2  -7   64.39    5.60
  -3  -2   7   64.89    5.30
   2   2  -7  207.68   13.80
  -2  -2   7  203.38   13.50
   1   2  -7   15.80    2.30
  -1  -2   7   16.50    2.00
   0   2  -7  487.45   30.20
   0  -2   7  502.05   31.40
  -1   2  -7  159.38   11.60
  -1   2  -7  144.09    9.40
   1  -2   7  148.59   11.40
  -2   2  -7   74.79    7.40
  -3   2  -7    2.30    1.90
  -4   2  -7    0.30    1.90
  -5   2  -7   38.30    8.40
   6   1  -7    6.30    2.50
  -6  -1   7    8.50    4.30
   5   1  -7  111.29    8.20
  -5  -1   7   75.59    9.40
   4   1  -7   49.40    4.90
  -4  -1   7   51.99    4.40
  -4  -1   7   49.99    6.20
   3   1  -7   15.80    2.80
  -3  -1   7   15.30    3.40
  -3  -1   7   13.90    1.30
  -2  -1   7    0.80    0.70
   1   1  -7   18.80    2.00
  -1  -1   7   16.80    1.90
   0   1  -7 1164.68   69.99
   0  -1   7 1163.08   70.79
  -1   1  -7   56.69    3.90
  -1   1  -7   53.99    5.20
   1  -1   7   60.59    5.60
  -2   1  -7  321.37   23.30
   2  -1   7  348.27   23.50
   2  -1   7  361.76   20.80
  -3   1  -7    7.50    2.90
   3  -1   7    9.10    3.30
  -4   1  -7  296.07   19.50
  -4   1  -7  274.27   21.80
  -5   1  -7    4.10    2.50
  -5   1  -7    3.90    3.40
  -6   1  -7   -0.70    2.70
   6   0  -7   48.30    5.40
  -6   0   7   54.79    8.50
   5   0  -7   59.49    5.70
  -5   0   7   63.29    8.10
   4   0  -7   75.19    6.40
  -4   0   7   78.59    6.50
  -4   0   7   69.59    7.90
  -4   0   7   73.39    5.90
   3   0  -7   60.59    5.30
  -3   0   7   61.09    4.80
  -3   0   7   69.89    6.70
  -3   0   7   65.89    4.70
  -2   0   7   10.20    1.30
  -2   0   7    7.00    2.10
  -1   0   7   37.20    3.00
   0   0  -7  101.99    6.70
   0   0   7   94.89    7.00
  -1   0  -7  372.06   23.30
  -1   0  -7  411.26   24.50
   1   0   7  366.46   24.50
  -2   0  -7    7.00    2.20
   2   0   7    7.60    2.50
  -3   0  -7  141.99   12.30
   3   0   7  159.98    9.70
   3   0   7  158.98   12.30
  -4   0  -7   53.89    5.40
  -5   0  -7   46.80    5.50
  -5   0  -7   46.60    8.70
  -6   0  -7    2.90    2.80
  -6   1   7   27.50    7.60
   5  -1  -7   13.60    3.10
  -5   1   7   10.00    4.10
   4  -1  -7  255.07   16.70
  -4   1   7  238.68   19.00
  -4   1   7  245.08   16.80
   3  -1  -7    7.00    1.90
  -3   1   7    4.40    2.20
  -3   1   7    4.60    1.50
   2  -1  -7  337.57   22.10
  -2   1   7  339.07   23.10
  -2   1   7  372.26   22.20
   1  -1  -7   30.40    2.60
  -1   1   7   25.40    2.70
  -1   1   7   23.40    2.40
   0  -1  -7    0.30    0.60
   0   1   7    0.70    0.60
  -1  -1  -7   17.00    2.00
  -1  -1  -7   16.90    1.70
   1   1   7   18.80    2.40
  -2  -1  -7  177.98   12.30
   2   1   7  161.78   12.10
  -3  -1  -7   35.30    4.80
  -3  -1  -7   39.70    4.30
   3   1   7   45.50    5.00
  -4  -1  -7  172.08   12.50
  -4  -1  -7  183.08   14.20
   4   1   7  161.18   13.40
   4   1   7  155.68   10.80
  -5  -1  -7  111.49   11.60
  -5  -1  -7  106.39    9.80
   5   1   7  141.19   11.70
  -6  -1  -7   19.90    5.90
  -6  -1  -7   15.20    4.10
  -5   2   7   54.49    8.00
   4  -2  -7    0.30    1.20
  -4   2   7    0.70    1.80
  -4   2   7    1.80    1.60
   3  -2  -7  172.28   12.40
  -3   2   7  187.28   13.10
  -3   2   7  187.38   14.30
   2  -2  -7   13.20    1.00
   2  -2  -7   16.30    2.00
  -2   2   7    8.70    2.10
  -2   2   7   12.30    2.80
   1  -2  -7  995.10   61.19
  -1   2   7 1039.80   61.59
  -1   2   7  998.70   61.59
   0  -2  -7   87.69    6.20
   0  -2  -7   90.69    5.90
   0   2   7   86.99    6.50
  -1  -2  -7  104.49    7.50
  -1  -2  -7  108.09    7.00
  -1  -2  -7  102.39    6.80
   1   2   7   94.29    7.30
  -2  -2  -7   23.00    3.00
  -2  -2  -7   20.90    2.80
   2   2   7   32.50    3.50
  -3  -2  -7    0.70    1.20
  -3  -2  -7    0.80    1.20
   3   2   7    1.40    1.30
  -4  -2  -7    2.40    1.60
  -4  -2  -7    0.60    1.40
   4   2   7    3.80    1.90
  -5  -2  -7   69.99    7.50
  -5  -2  -7   62.69    8.30
   5   2   7   97.79    9.10
   5   2   7   93.39    6.60
  -6  -2  -7   17.60    5.20
  -6  -2  -7   22.40    5.10
   6   2   7   22.30    5.40
  -5   3   7    8.50    3.30
  -5   3   7    6.50    3.90
   4  -3  -7   27.70    3.30
  -4   3   7   28.20    4.80
  -4   3   7   14.90    4.60
   3  -3  -7   50.49    4.70
  -3   3   7   55.39    5.70
  -3   3   7   55.69    6.40
   2  -3  -7   72.49    5.80
  -2   3   7   71.79    6.80
  -2   3   7   80.69    6.60
   1  -3  -7  344.57   21.40
   1  -3  -7  369.56   22.10
  -1   3   7  351.16   22.60
  -1   3   7  331.97   22.20
   0  -3  -7   21.20    2.20
   0  -3  -7   15.00    1.30
   0  -3  -7   20.90    2.10
  -2  -3  -7    1.70    1.30
  -2  -3  -7    2.50    1.00
   2   3   7    3.80    1.70
  -3  -3  -7  179.38   12.80
  -3  -3  -7  172.28   12.80
   3   3   7  171.88   12.70
  -4  -3  -7   -1.10    1.30
  -4  -3  -7    1.30    1.60
   4   3   7    1.40    1.80
  -5  -3  -7   46.00    6.30
  -5  -3  -7   61.29    6.50
   5   3   7   48.70    6.20
   5   3   7   45.60    4.60
  -6  -3  -7   30.40    5.70
  -6  -3  -7   18.40    5.10
  -7  -3  -7    3.40    3.10
  -7  -3  -7    2.70    2.90
  -4   4   7   42.90    6.60
  -4   4   7   38.50    6.50
   3  -4  -7   23.30    3.40
  -3   4   7   21.30    4.90
  -3   4   7   21.70    4.30
   2  -4  -7    9.20    2.00
  -2   4   7    6.40    2.50
  -2   4   7    8.20    2.60
   1  -4  -7   42.90    3.90
   1  -4  -7   40.90    3.10
  -1   4   7   39.00    4.00
  -1   4   7   43.40    4.50
   0   4   7   13.90    1.50
  -1  -4  -7   29.10    4.00
   1   4   7   22.00    2.90
  -2  -4  -7   44.90    5.00
   2   4   7   62.29    5.10
  -3  -4  -7   16.70    2.60
  -3  -4  -7   17.40    3.60
   3   4   7   29.20    3.40
  -4  -4  -7   40.00    6.30
  -4  -4  -7   40.60    4.90
   4   4   7   32.20    4.60
   5   4   7   58.69    6.60
   5   4   7   56.49    5.50
  -6  -4  -7   28.90    6.90
  -6  -4  -7   33.80    6.40
   6   4   7   27.60    6.10
   6   4   7   40.50    4.40
  -7  -4  -7    9.50    3.90
  -4   5   7   10.60    3.70
   3  -5  -7   14.10    2.90
  -3   5   7   17.40    4.30
  -3   5   7   14.70    4.80
  -2   5   7    7.40    2.70
  -2   5   7    3.70    2.20
  -1   5   7   86.49    7.40
  -1   5   7   73.99    6.70
   0  -5  -7    0.50    1.00
   0   5   7    0.20    1.20
   0   5   7    0.80    0.80
  -1  -5  -7   33.00    3.50
   1   5   7   32.70    3.70
   1   5   7   25.40    2.20
  -2  -5  -7   84.79    7.60
   2   5   7   99.79    7.70
  -3  -5  -7   80.89    7.40
   3   5   7   75.69    7.00
  -4  -5  -7   15.90    4.00
  -4  -5  -7   15.20    3.30
   4   5   7   15.50    3.60
  -5  -5  -7   34.10    6.30
  -5  -5  -7   35.90    5.30
   5   5   7   35.60    4.40
   5   5   7   38.50    6.40
  -6  -5  -7   63.29    8.60
  -6  -5  -7   87.99    9.10
   6   5   7   92.29    7.60
  -3   6   7    4.60    2.80
  -2   6   7    7.20    2.90
  -1   6   7   40.50    5.10
   0  -6  -7  181.88   12.10
   0   6   7  172.68   13.30
   1   6   7    5.60    1.90
  -2  -6  -7    6.60    2.40
   2   6   7    5.90    2.20
  -3  -6  -7    4.90    2.50
   3   6   7   15.40    3.50
  -4  -6  -7   10.70    3.60
   4   6   7   14.10    3.60
  -5  -6  -7   10.80    3.90
   5   6   7    6.60    2.40
   5   6   7    6.40    2.90
  -6  -6  -7   36.90    7.10
   6   6   7   47.00    5.40
  -2   7   7   17.00    4.90
  -1   7   7  167.88   13.60
   0   7   7   82.39    7.90
  -1  -7  -7   44.20    4.60
   1   7   7   41.20    5.00
   2   7   7   70.49    6.90
  -3  -7  -7   95.39    8.50
   3   7   7   85.39    7.80
  -4  -7  -7   29.50    5.90
   4   7   7   32.30    5.50
  -5  -7  -7    2.10    3.10
   5   7   7    3.90    3.30
   5   7   7   -0.60    1.50
  -6  -7  -7    0.10    2.80
   6   7   7   -0.20    1.90
  -1   8   7   29.50    6.00
   0   8   7    3.30    2.80
   1   8   7   85.89    8.40
  -2  -8  -7   27.30    5.00
   2   8   7   30.70    5.50
  -3  -8  -7  449.06   30.00
   3   8   7  436.66   29.60
  -4  -8  -7    2.70    2.70
   4   8   7    2.50    2.30
  -5  -8  -7    6.80    3.60
   5   8   7   11.90    3.60
   0   9   7   28.70    6.40
   1   9   7    5.50    2.50
   2   9   7    0.30    1.90
  -3  -9  -7   36.20    6.10
   3   9   7   45.40    5.80
  -4  -9  -7   30.90    6.30
   4   9   7   25.40    5.30
   3   8  -8    3.80    2.60
  -3  -8   8    6.80    3.00
   2   8  -8    2.60    2.80
   2   8  -8    2.50    2.20
   1   8  -8   20.70    6.10
   0   8  -8   26.30    7.10
   4   7  -8   46.60    7.20
  -4  -7   8   43.00    6.40
   3   7  -8   93.99    8.50
  -3  -7   8   87.69    8.30
   2   7  -8   33.60    5.20
  -2  -7   8   34.30    5.40
   1   7  -8   19.10    4.90
   1   7  -8   12.80    4.60
   0   7  -8   17.90    5.60
  -1   7  -8    0.50    2.70
   5   6  -8   32.90    5.80
  -5  -6   8   32.10    5.60
   4   6  -8   99.09    8.90
  -4  -6   8   88.89    8.20
   3   6  -8   42.50    6.10
  -3  -6   8   40.90    4.80
   2   6  -8   43.40    4.80
  -2  -6   8   42.40    4.80
   1   6  -8    3.00    2.40
   1   6  -8    2.50    1.60
   0   6  -8   13.50    4.50
  -1   6  -8   94.69   10.70
  -2   6  -8    5.20    3.70
  -3   6  -8   48.40   10.10
   6   5  -8   18.10    4.50
  -6  -5   8   19.40    4.50
   5   5  -8   21.70    4.80
  -5  -5   8   15.90    4.00
   4   5  -8  384.96   26.80
  -4  -5   8  415.56   26.60
   3   5  -8    8.10    2.30
  -3  -5   8    2.30    1.70
   2   5  -8  303.07   20.50
  -2  -5   8  312.37   20.60
   1   5  -8    2.00    1.30
   0   5  -8  186.58   12.90
   0   5  -8  205.38   15.80
  -1   5  -8   -0.30    1.80
  -2   5  -8   56.59    8.00
  -3   5  -8   -0.60    2.50
   6   4  -8    3.90    2.50
  -6  -4   8    4.70    2.50
   5   4  -8    1.20    1.80
  -5  -4   8    2.20    2.10
   4   4  -8   43.10    5.00
  -4  -4   8   44.20    4.80
   3   4  -8   41.50    4.60
  -3  -4   8   41.80    4.30
   2   4  -8   36.70    4.00
  -2  -4   8   40.10    4.10
   1   4  -8   62.39    5.20
   0   4  -8  144.19   11.50
   0   4  -8  126.99    9.10
  -1   4  -8   23.30    5.20
  -2   4  -8   39.00    6.00
  -3   4  -8   13.60    4.80
  -4   4  -8   12.20    5.40
   6   3  -8  157.98   12.80
  -6  -3   8  166.48   15.20
   5   3  -8    0.70    1.70
  -5  -3   8    0.10    1.60
   4   3  -8   36.20    4.20
  -4  -3   8   32.60    3.90
   3   3  -8   56.39    5.40
  -3  -3   8   59.19    5.10
   1   3  -8    4.00    1.10
   0   3  -8   55.89    4.50
   0   3  -8   65.19    6.10
  -1   3  -8   -0.10    1.40
  -1   3  -8    1.20    0.50
  -2   3  -8  104.09   10.00
  -3   3  -8   78.69    8.90
  -4   3  -8    8.30    4.40
  -5   3  -8   61.39   11.70
   6   2  -8   37.40    5.60
  -6  -2   8   31.80    7.10
   5   2  -8   24.80    4.60
  -5  -2   8   22.50    5.40
  -5  -2   8   23.80    3.70
   4   2  -8   39.10    4.30
  -4  -2   8   38.80    5.20
  -4  -2   8   35.10    3.70
   3   2  -8  205.48   13.50
  -3  -2   8  177.78   12.80
   2   2  -8   30.80    2.20
   2   2  -8   29.30    3.30
  -2  -2   8   32.70    3.10
   0   2  -8    9.30    1.60
   0  -2   8   10.20    2.60
  -1   2  -8  101.69    6.80
  -1   2  -8  113.79    9.00
   1  -2   8  100.29    8.90
  -2   2  -8    2.20    1.70
   2  -2   8    3.40    2.10
  -3   2  -8    3.40    2.00
  -4   2  -8   81.79    9.60
  -5   2  -8   13.50    5.30
   6   1  -8   -1.40    1.50
  -6  -1   8    1.50    2.80
   5   1  -8   11.10    3.00
  -5  -1   8    7.00    3.30
   4   1  -8    3.90    1.80
  -4  -1   8    4.70    1.40
  -4  -1   8    2.30    2.10
   3   1  -8  167.58   11.70
  -3  -1   8  158.48   12.60
  -3  -1   8  167.18   11.00
  -3  -1   8  162.58   10.30
   2   1  -8   22.70    2.70
  -2  -1   8   24.30    2.10
   1   1  -8  446.16   28.50
  -1  -1   8  474.35   28.50
   0   1  -8   30.40    2.70
   0  -1   8   34.50    3.50
  -1   1  -8  240.48   15.50
  -1   1  -8  262.47   17.30
   1  -1   8  251.57   17.70
  -2   1  -8    8.10    2.70
   2  -1   8    6.90    2.90
  -3   1  -8   31.60    4.70
  -4   1  -8    9.40    3.60
  -5   1  -8   23.50    4.70
  -5   1  -8   21.50    6.10
  -6   1  -8    3.50    3.00
   6   0  -8  112.69    9.30
  -6   0   8  106.69   12.20
   5   0  -8    1.20    1.50
  -5   0   8    3.40    2.70
   4   0  -8   16.30    3.20
  -4   0   8   11.30    3.90
   3   0  -8   12.60    2.40
  -3   0   8   14.00    1.80
  -3   0   8   12.20    3.20
  -2   0   8   23.00    3.20
  -2   0   8   33.10    2.60
   1   0  -8    0.00    0.60
  -1   0   8    0.60    0.60
   0   0  -8  786.72   48.30
   0   0   8  807.22   48.80
  -1   0  -8    0.70    0.60
  -1   0  -8   -0.10    0.60
   1   0   8   -0.50    0.90
  -2   0  -8  421.66   27.50
   2   0   8  415.96   27.70
  -3   0  -8   33.00    4.80
   3   0   8   46.00    5.30
  -4   0  -8   70.59    8.10
  -4   0  -8   63.39    6.30
   4   0   8   74.69    8.10
  -5   0  -8   62.99    6.50
  -5   0  -8   57.39    8.00
   5   0   8   55.69    7.50
  -6   0  -8    8.30    4.70
  -6   1   8   18.70    6.20
   5  -1  -8   35.20    4.40
  -5   1   8   33.50    7.30
   4  -1  -8   16.40    3.30
  -4   1   8   16.10    3.10
  -4   1   8   16.90    4.70
   3  -1  -8   86.29    6.70
  -3   1   8   82.19    6.50
  -3   1   8   84.49    8.00
   2  -1  -8    3.40    1.30
  -2   1   8    6.00    1.50
  -2   1   8    1.80    1.30
  -1   1   8   29.30    2.80
  -1  -1  -8   21.40    2.10
  -1  -1  -8   24.40    2.50
   1   1   8   17.40    2.60
  -2  -1  -8  209.88   14.20
   2   1   8  191.58   14.10
  -3  -1  -8  157.18   12.00
  -3  -1  -8  140.99   10.90
   3   1   8  144.99   11.70
  -4  -1  -8  139.69   11.20
  -4  -1  -8  128.29   12.30
   4   1   8  166.38   12.90
   4   1   8  150.58    9.70
  -5  -1  -8  122.69   11.70
  -5  -1  -8  120.19   10.00
   5   1   8   97.59   10.60
  -6  -1  -8   26.60    5.40
  -6  -1  -8   39.50    8.30
   5  -2  -8   30.20    4.70
  -5   2   8   25.60    6.70
   4  -2  -8   82.19    7.20
  -4   2   8   87.19    7.50
  -4   2   8   86.29    9.20
   3  -2  -8  196.78   13.60
  -3   2   8  207.18   15.40
  -3   2   8  190.58   13.80
   2  -2  -8   81.49    6.20
  -2   2   8   79.39    7.00
  -2   2   8   83.79    6.50
   1  -2  -8   72.29    5.40
  -1   2   8   58.69    5.20
  -1   2   8   81.99    5.80
   1   2   8  152.58   10.60
  -2  -2  -8   18.20    3.30
  -2  -2  -8   14.80    2.80
   2   2   8   20.00    3.70
  -3  -2  -8   68.19    6.40
  -3  -2  -8   66.59    6.10
   3   2   8   57.89    6.10
  -4  -2  -8    5.50    2.50
  -4  -2  -8    5.20    2.40
   4   2   8    7.00    2.70
  -5  -2  -8  238.58   17.40
  -5  -2  -8  236.78   19.00
   5   2   8  227.68   18.10
  -6  -2  -8   10.10    3.50
  -6  -2  -8   15.50    4.90
   6   2   8   23.90    5.50
  -5   3   8   18.50    5.80
   4  -3  -8   23.00    3.70
  -4   3   8   21.80    4.40
  -4   3   8   18.60    4.90
   3  -3  -8   82.59    6.60
  -3   3   8   81.19    7.30
  -3   3   8   81.59    8.20
   2  -3  -8  176.18   12.30
  -2   3   8  176.08   13.20
  -2   3   8  189.28   13.00
   1  -3  -8   10.80    1.70
   1  -3  -8   12.10    2.30
  -1   3   8   15.20    3.00
  -1   3   8   12.20    2.20
   0  -3  -8  455.15   28.10
   0  -3  -8  427.06   27.10
   0  -3  -8  443.56   28.10
   0   3   8  482.05   28.60
  -1  -3  -8   21.10    3.30
   1   3   8   16.10    2.30
  -2  -3  -8    0.70    1.10
  -2  -3  -8    0.70    0.70
   2   3   8    1.70    1.50
  -3  -3  -8    0.80    1.20
  -3  -3  -8    4.00    1.80
   3   3   8   -0.60    1.10
  -4  -3  -8   42.80    5.10
  -4  -3  -8   43.60    5.30
   4   3   8   41.50    6.60
  -5  -3  -8    0.70    1.80
  -5  -3  -8    1.80    1.90
   5   3   8    2.90    2.30
  -6  -3  -8   55.39    7.10
  -6  -3  -8   62.99    8.30
   6   3   8   66.39   10.20
  -4   4   8    5.00    2.60
  -4   4   8    7.20    3.30
   3  -4  -8  125.99    9.20
  -3   4   8  127.79   10.40
  -3   4   8  116.29   10.90
   2  -4  -8   -0.10    0.80
  -2   4   8    0.80    1.30
  -2   4   8    0.60    1.20
   1  -4  -8  167.08   11.00
   1  -4  -8  176.18   11.80
  -1   4   8  171.38   12.50
  -1   4   8  174.88   11.90
   0   4   8   41.20    4.30
  -1  -4  -8  211.38   15.40
   1   4   8  246.88   15.80
  -2  -4  -8   30.50    4.60
   2   4   8   24.20    3.20
  -3  -4  -8   21.90    4.10
  -3  -4  -8   20.10    2.80
   3   4   8   21.40    4.20
  -4  -4  -8   25.70    4.90
  -4  -4  -8   25.50    3.90
   4   4   8   28.50    5.40
  -5  -4  -8   35.20    6.20
  -5  -4  -8   32.50    6.10
   5   4   8   30.40    3.90
   5   4   8   39.30    6.70
  -6  -4  -8    1.20    2.70
  -6  -4  -8    1.30    2.40
   6   4   8    0.30    2.10
   6   4   8    2.40    1.80
  -4   5   8  118.99   11.10
   3  -5  -8    0.10    1.20
  -3   5   8    0.10    1.80
   2  -5  -8    3.80    1.50
  -2   5   8    6.30    2.50
  -1   5   8   76.49    7.00
   0  -5  -8    0.30    1.00
   0   5   8   -0.10    0.90
  -2  -5  -8   37.40    4.30
   2   5   8   34.70    4.10
  -3  -5  -8    8.30    2.90
   3   5   8   14.10    3.60
  -4  -5  -8  161.78   13.20
  -4  -5  -8  172.58   12.50
   4   5   8  154.18   12.60
  -5  -5  -8    1.20    2.20
  -5  -5  -8    3.20    2.30
   5   5   8    3.30    2.40
   5   5   8    2.50    1.90
  -6  -5  -8   12.00    4.00
  -6  -5  -8    8.70    3.60
   6   5   8   17.70    3.40
   6   5   8   22.10    4.70
  -3   6   8   57.79    7.10
  -2   6   8   61.59    6.90
  -1   6   8    7.60    2.80
   0   6   8   67.09    6.60
  -1  -6  -8    2.80    1.40
  -2  -6  -8  108.69    8.80
   2   6   8   96.49    8.50
  -3  -6  -8    0.50    1.60
   3   6   8    0.70    1.80
   4   6   8   34.60    4.70
  -5  -6  -8    4.20    2.90
   5   6   8    3.60    2.00
   5   6   8    6.20    2.90
  -6  -6  -8   30.70    6.60
   6   6   8   38.00    5.70
  -2   7   8    5.90    2.90
  -1   7   8    1.10    1.80
   0   7   8   40.20    5.20
  -1  -7  -8   52.99    5.10
   1   7   8   45.80    5.50
   2   7   8    5.90    2.20
  -3  -7  -8    4.20    2.60
   3   7   8    1.20    1.90
  -4  -7  -8    0.10    2.20
   4   7   8   -0.20    2.00
  -5  -7  -8   24.90    5.80
   5   7   8   19.50    4.30
   5   7   8   24.20    5.20
  -6  -7  -8   11.40    4.60
   6   7   8    4.90    2.60
  -1   8   8    0.30    2.00
   0   8   8  124.79   11.20
   1   8   8   17.00    4.00
  -2  -8  -8   51.29    5.90
   2   8   8   62.39    6.60
  -3  -8  -8   15.10    3.80
   3   8   8    6.90    2.80
  -4  -8  -8  322.97   22.60
   4   8   8  287.97   21.50
  -5  -8  -8    0.50    2.50
   5   8   8    4.90    3.00
   1   9   8   40.00    5.70
   2   9   8   20.60    4.90
  -3  -9  -8   42.90    6.80
   3   9   8   38.20    5.40
  -4  -9  -8   57.39    8.70
   4   9   8   55.29    6.80
   2   8  -9    0.90    2.40
   1   8  -9   14.90    5.10
   4   7  -9   59.59    6.60
  -4  -7   9   51.29    6.20
   3   7  -9   31.20    5.40
  -3  -7   9   37.50    5.80
   2   7  -9   12.40    3.20
   1   7  -9   41.80    6.60
   0   7  -9   11.10    4.60
  -1   7  -9   66.29    9.70
   5   6  -9    0.60    1.90
  -5  -6   9   -0.10    1.90
   4   6  -9    7.30    3.00
  -4  -6   9    9.70    3.20
   3   6  -9   50.29    5.70
  -3  -6   9   44.60    5.30
   2   6  -9   82.29    7.40
  -2  -6   9   88.29    7.60
   1   6  -9    8.70    3.50
   1   6  -9    8.00    2.20
   0   6  -9   99.89   10.50
  -1   6  -9   11.50    4.70
  -2   6  -9   66.69    9.50
   5   5  -9   40.00    6.60
  -5  -5   9   39.50    5.00
   4   5  -9    1.30    1.70
  -4  -5   9    1.90    1.70
   3   5  -9  385.36   25.70
  -3  -5   9  387.46   25.50
   2   5  -9   64.49    6.00
  -2  -5   9   65.89    6.00
   1   5  -9   68.99    5.90
   0   5  -9    6.50    3.10
   0   5  -9    7.20    1.80
  -1   5  -9  100.99   10.60
  -2   5  -9   14.40    4.90
  -3   5  -9   12.40    5.60
   6   4  -9    4.90    2.70
  -6  -4   9    7.00    2.60
   5   4  -9    0.30    1.70
  -5  -4   9    1.20    1.60
   4   4  -9   71.09    6.90
  -4  -4   9   73.59    6.60
   3   4  -9   32.60    4.00
  -3  -4   9   24.70    4.00
   2   4  -9  212.48   14.90
  -2  -4   9  221.68   15.00
   1   4  -9   81.79    6.50
   0   4  -9   35.40    5.10
   0   4  -9   45.90    3.70
  -1   4  -9  579.24   39.00
  -2   4  -9    5.60    3.00
  -3   4  -9    6.20    3.60
  -4   4  -9    9.50    4.80
   6   3  -9   18.10    4.00
   5   3  -9   15.10    3.60
  -5  -3   9   18.30    3.40
   4   3  -9  127.49   10.60
  -4  -3   9  146.19   10.30
   3   3  -9   24.70    3.90
  -3  -3   9   21.80    3.50
   2   3  -9   34.10    3.70
  -2  -3   9   35.60    3.60
   1   3  -9    9.10    2.00
   0   3  -9   69.99    6.60
   0   3  -9   60.89    4.80
  -1   3  -9   66.09    4.70
  -1   3  -9   67.59    7.10
  -2   3  -9   24.00    5.50
  -3   3  -9    2.60    2.10
  -4   3  -9   15.80    5.40
  -5   3  -9    1.40    3.50
   6   2  -9   72.39    7.10
  -6  -2   9   60.79    8.60
   5   2  -9  165.78   12.50
  -5  -2   9  155.88   14.10
   4   2  -9   18.30    3.60
  -4  -2   9   24.70    3.60
   3   2  -9  225.48   15.70
  -3  -2   9  228.58   15.10
   2   2  -9   80.89    6.60
  -2  -2   9   86.79    5.80
   1   2  -9   15.80    2.60
  -1  -2   9   17.60    2.90
   0   2  -9    7.90    1.60
   0  -2   9    7.30    2.20
  -1   2  -9  200.18   15.00
  -1   2  -9  200.08   12.80
   1  -2   9  211.78   15.20
  -2   2  -9    0.60    1.40
   2  -2   9   -0.50    1.30
  -3   2  -9   52.39    6.70
  -4   2  -9   11.00    4.20
  -5   2  -9  123.99   13.50
   6   1  -9   18.10    3.90
  -6  -1   9   18.20    5.80
   5   1  -9   23.20    4.10
  -5  -1   9   13.00    4.40
   4   1  -9   16.20    3.00
  -4  -1   9   11.90    3.70
  -4  -1   9   16.10    2.50
   3   1  -9    5.00    1.90
  -3  -1   9    3.10    1.30
   2   1  -9  348.57   22.70
  -2  -1   9  360.16   22.00
   1   1  -9    6.90    1.60
  -1  -1   9    7.10    1.60
   0   1  -9    3.10    1.00
   0  -1   9    3.50    1.50
  -1   1  -9  153.48    9.80
  -1   1  -9  158.38   11.50
   1  -1   9  144.59   11.60
  -2   1  -9   11.00    3.10
   2  -1   9   17.40    4.10
  -3   1  -9   34.20    6.40
   3  -1   9   42.70    7.20
  -4   1  -9   37.10    7.60
   4  -1   9   38.10    7.60
  -5   1  -9   29.90    5.40
  -5   1  -9   27.80    7.10
  -6   1  -9    7.10    4.30
   6   0  -9   10.70    2.50
  -6   0   9   14.50    5.10
   5   0  -9    9.10    2.40
  -5   0   9    9.40    4.10
   4   0  -9    5.70    2.10
  -4   0   9    6.00    2.90
   3   0  -9   68.69    5.90
  -3   0   9   62.29    5.10
  -3   0   9   78.49    7.10
   2   0  -9  102.39    7.20
  -2   0   9   90.69    6.60
   1   0  -9  220.98   14.10
  -1   0   9  212.08   14.00
   0   0  -9   29.70    2.70
   0   0   9   30.50    3.20
  -1   0  -9  368.76   23.50
  -1   0  -9  404.86   24.70
   1   0   9  370.56   24.80
  -2   0  -9  121.39    9.50
   2   0   9  107.09    9.40
  -3   0  -9   24.10    4.80
   3   0   9   28.70    5.80
  -4   0  -9    7.70    2.70
  -4   0  -9    1.80    2.00
   4   0   9   10.30    3.90
  -5   0  -9    3.40    2.80
  -5   0  -9   -0.80    1.50
   5   0   9    0.80    2.30
  -6   0  -9   64.09    7.20
  -6   0  -9   60.59    8.90
   5  -1  -9    0.60    1.70
  -5   1   9    0.10    2.30
   4  -1  -9    3.00    1.70
  -4   1   9    1.40    1.90
  -4   1   9    3.00    2.10
   3  -1  -9   32.50    3.50
  -3   1   9   30.70    4.30
  -3   1   9   33.10    3.40
   2  -1  -9   26.20    2.90
  -2   1   9   27.10    2.80
  -2   1   9   29.40    3.50
   0  -1  -9   26.00    2.50
   0   1   9   23.50    2.70
  -1  -1  -9  850.11   52.29
  -1  -1  -9  875.71   52.89
   1   1   9  865.71   53.39
  -2  -1  -9   46.40    4.60
   2   1   9   39.10    4.50
  -3  -1  -9  131.29   11.00
   3   1   9  137.49   11.20
  -4  -1  -9   12.70    3.20
  -4  -1  -9   14.10    4.20
   4   1   9   34.00    6.10
  -5  -1  -9  192.48   16.90
  -5  -1  -9  207.98   15.30
   5   1   9  193.98   16.50
  -6  -1  -9    3.80    3.40
  -6  -1  -9    2.50    2.40
   6   1   9   -0.30    2.20
   5  -2  -9   88.29    7.40
  -5   2   9   67.49    9.10
   4  -2  -9   67.09    6.20
  -4   2   9   62.79    6.10
  -4   2   9   67.29    7.90
   3  -2  -9   36.00    3.90
  -3   2   9   34.00    4.80
  -3   2   9   34.90    3.90
   2  -2  -9   13.20    2.40
  -2   2   9    8.50    2.10
  -2   2   9   11.60    2.70
   1  -2  -9   52.19    4.60
  -1   2   9   59.69    4.80
   0  -2  -9    1.30    0.80
   0   2   9    0.90    0.80
  -1  -2  -9   10.20    1.80
  -1  -2  -9    9.70    1.40
   1   2   9   13.90    2.70
  -2  -2  -9  316.47   20.30
  -2  -2  -9  317.97   20.50
   2   2   9  293.47   20.60
  -3  -2  -9   14.70    3.30
  -3  -2  -9   15.80    3.20
  -4  -2  -9  113.49   10.10
  -4  -2  -9  105.69    9.30
   4   2   9  109.29    9.90
  -5  -2  -9   20.70    4.60
  -5  -2  -9   26.00    6.20
   5   2   9   19.40    5.20
  -6  -2  -9   10.00    3.70
  -6  -2  -9   11.80    4.70
   6   2   9   10.50    4.40
  -5   3   9   34.20    7.60
   4  -3  -9   10.00    2.60
  -4   3   9    2.20    2.50
  -4   3   9    8.50    2.70
   3  -3  -9  244.38   16.70
  -3   3   9  250.37   18.40
  -3   3   9  247.18   17.30
   2  -3  -9    3.10    1.30
  -2   3   9    4.20    1.80
  -2   3   9    5.00    2.00
   1  -3  -9  144.39    9.30
   1  -3  -9  135.89    9.80
  -1   3   9  141.59   10.30
  -1   3   9  138.29    9.70
   0  -3  -9   46.40    3.90
   0  -3  -9   39.90    2.90
  -1  -3  -9   10.00    2.40
   1   3   9    7.80    2.10
  -2  -3  -9    0.90    0.80
  -2  -3  -9    1.30    1.50
   2   3   9    1.00    1.40
  -3  -3  -9  141.99   10.50
  -3  -3  -9  132.49   10.60
   3   3   9  125.49   10.50
  -4  -3  -9   38.70    4.90
  -4  -3  -9   36.00    5.00
   4   3   9   45.70    5.60
  -5  -3  -9  175.18   13.50
  -5  -3  -9  168.88   14.20
   5   3   9  155.68   11.40
   5   3   9  154.18   13.60
  -6  -3  -9   52.09    8.40
  -6  -3  -9   56.89    8.10
   6   3   9   62.29   10.10
   4  -4  -9   48.00    8.30
  -4   4   9   83.99    7.80
   3  -4  -9    4.20    1.80
  -3   4   9    7.20    2.70
  -3   4   9    6.70    2.70
   2  -4  -9  145.49   10.90
  -2   4   9  161.78   12.00
  -2   4   9  159.98   11.90
   1  -4  -9    9.20    2.20
   1  -4  -9   11.00    2.00
  -1   4   9    7.70    2.40
  -1   4   9   11.20    2.20
   0  -4  -9  379.76   23.40
   0  -4  -9  367.16   23.50
   0   4   9  355.66   24.00
  -1  -4  -9   34.40    3.80
   1   4   9   39.00    4.00
  -2  -4  -9   25.70    4.30
   2   4   9   24.00    4.30
  -3  -4  -9    7.50    2.00
  -3  -4  -9    8.30    2.60
   3   4   9   17.90    3.20
  -4  -4  -9   15.90    4.00
  -4  -4  -9   15.30    3.60
   4   4   9   23.70    4.80
  -5  -4  -9   11.30    3.60
  -5  -4  -9   11.80    3.90
   5   4   9   12.80    3.00
   5   4   9   11.90    4.10
  -6  -4  -9   25.10    6.10
  -6  -4  -9   20.20    5.60
   6   4   9   24.90    6.10
  -4   5   9    0.80    2.10
   3  -5  -9    9.80    2.50
  -3   5   9   12.60    3.60
   2  -5  -9   60.49    5.60
  -2   5   9   66.09    6.60
  -1   5   9   91.39    8.10
   0  -5  -9  164.98   11.50
   0   5   9  170.88   12.50
   1   5   9   14.90    3.10
  -2  -5  -9  127.79    9.90
   2   5   9  116.99    9.50
  -3  -5  -9    1.20    1.70
   3   5   9    2.40    2.20
  -4  -5  -9   74.09    7.60
   4   5   9   68.09    7.20
  -5  -5  -9    2.80    2.70
   5   5   9    4.10    2.30
   5   5   9    6.90    3.00
  -6  -5  -9   62.09    9.20
   6   5   9   49.50    6.90
   6   5   9   40.30    5.00
  -3   6   9   17.60    4.70
  -2   6   9    6.30    2.90
  -1   6   9    4.40    2.40
   0   6   9   31.10    5.30
  -1  -6  -9    7.40    2.10
   1   6   9    3.90    2.00
  -2  -6  -9   10.60    3.00
   2   6   9   11.30    3.20
  -3  -6  -9   31.50    5.70
   3   6   9   27.30    4.90
  -4  -6  -9    6.20    3.10
   4   6   9   15.50    3.60
  -5  -6  -9   26.10    6.00
   5   6   9   15.80    3.60
   5   6   9   24.00    5.30
  -6  -6  -9    4.80    3.80
   6   6   9    2.30    2.00
  -2   7   9   10.70    3.70
  -1   7   9    2.50    2.30
   0   7   9   29.20    5.20
  -1  -7  -9    4.80    2.00
   1   7   9    6.20    2.60
  -2  -7  -9   34.90    5.50
   2   7   9   30.70    5.30
  -3  -7  -9    3.40    2.50
   3   7   9    3.00    2.30
  -4  -7  -9   85.89    8.40
   4   7   9   68.09    7.60
   5   7   9   43.80    5.60
   5   7   9   60.09    6.90
  -6  -7  -9   14.90    5.20
   6   7   9   11.40    3.20
  -1   8   9    5.40    3.20
   0   8   9   24.10    5.40
   1   8   9   65.89    7.30
  -2  -8  -9   -2.00    1.50
   2   8   9    1.00    2.20
  -3  -8  -9    7.60    3.50
   3   8   9    5.40    2.80
  -4  -8  -9    3.20    2.90
   4   8   9    0.20    2.00
  -5  -8  -9   11.40    4.20
   5   8   9    7.60    3.10
   1   9   9   36.80    6.70
   2   9   9   18.40    4.50
  -3  -9  -9   10.40    3.90
   3   9   9   12.70    4.00
   4   7 -10   18.90    4.50
  -4  -7  10   19.00    4.60
   3   7 -10    2.80    2.10
  -3  -7  10    4.30    2.40
   2   7 -10    7.10    2.70
   1   7 -10    6.30    3.50
   0   7 -10   59.19    8.50
  -1   7 -10    1.90    3.30
   5   6 -10   50.49    7.70
  -5  -6  10   48.40    7.10
   4   6 -10   18.00    4.30
  -4  -6  10   13.20    3.50
   3   6 -10   28.50    5.00
  -3  -6  10   25.20    4.60
   2   6 -10    3.90    2.00
   1   6 -10   41.10    4.40
   0   6 -10   45.90    8.40
  -1   6 -10   47.60    9.20
  -2   6 -10   20.20    6.50
   5   5 -10   33.50    5.90
  -5  -5  10   23.30    4.60
   4   5 -10   26.10    5.10
  -4  -5  10   26.60    4.80
   3   5 -10   41.40    4.90
  -3  -5  10   43.60    4.80
   2   5 -10   57.19    5.60
   1   5 -10   10.90    2.50
   0   5 -10   20.00    4.90
   0   5 -10   22.80    4.20
  -1   5 -10   42.90    6.70
  -2   5 -10    4.20    3.30
  -3   5 -10  109.09   12.60
   5   4 -10   25.40    4.90
  -5  -4  10   28.00    4.50
   4   4 -10   54.39    6.00
  -4  -4  10   63.79    5.90
   3   4 -10   82.59    7.00
  -3  -4  10   68.19    6.40
   2   4 -10   68.49    6.00
   1   4 -10   27.20    3.10
  -1   4 -10    8.40    3.50
  -2   4 -10   35.40    7.40
  -3   4 -10    3.10    3.00
  -4   4 -10   63.89    9.50
   6   3 -10    8.80    2.90
   5   3 -10    8.10    2.70
  -5  -3  10   10.90    2.70
   4   3 -10   15.90    3.60
  -4  -3  10   23.60    3.70
   3   3 -10  652.93   41.70
  -3  -3  10  668.23   41.30
   2   3 -10    2.20    1.30
   1   3 -10  399.46   25.40
   0   3 -10   -0.30    1.00
   0   3 -10    0.60    0.70
  -1   3 -10  306.87   17.80
  -1   3 -10  254.57   20.40
  -2   3 -10    6.60    3.40
  -3   3 -10    2.80    2.70
  -4   3 -10    6.10    4.00
   6   2 -10   41.70    5.50
  -6  -2  10   53.79    7.80
   5   2 -10   13.50    3.20
   4   2 -10    2.50    1.80
  -4  -2  10    3.90    1.60
   3   2 -10   12.80    2.70
  -3  -2  10   11.20    2.20
   2   2 -10   40.00    4.00
  -2  -2  10   37.20    3.20
   1   2 -10   70.69    5.60
  -1  -2  10   70.39    5.80
   0   2 -10   82.59    6.30
   0   2 -10   94.89    7.80
   0  -2  10   86.69    7.50
  -1   2 -10  283.17   20.20
  -1   2 -10  289.37   17.80
   1  -2  10  281.77   20.20
  -2   2 -10   39.00    5.40
  -3   2 -10    6.40    3.10
  -4   2 -10    0.30    2.60
  -5   2 -10   19.00    6.30
   6   1 -10    6.70    2.80
  -6  -1  10    9.30    4.50
   5   1 -10  209.68   15.70
  -5  -1  10  220.48   17.90
  -4  -1  10   16.80    4.10
   3   1 -10   27.10    3.40
   2   1 -10   79.79    6.30
  -2  -1  10   76.49    5.70
   1   1 -10   10.30    2.00
  -1  -1  10   10.50    2.10
   0   1 -10    3.40    1.10
   0  -1  10    5.90    2.00
  -1   1 -10  101.09    7.00
  -1   1 -10  107.89    8.70
   1  -1  10  103.29    8.90
  -2   1 -10  119.19    7.70
  -3   1 -10   91.39    8.90
   3  -1  10   82.79    8.80
  -4   1 -10   28.80    6.40
   4  -1  10   27.20    6.60
  -5   1 -10   -0.10    2.10
  -5   1 -10    0.00    2.20
   6   0 -10   47.20    5.60
   5   0 -10   65.29    6.50
  -5   0  10   70.29    8.50
   4   0 -10   35.90    4.10
  -4   0  10   26.80    5.60
   3   0 -10   61.89    5.50
  -3   0  10   62.09    4.80
  -3   0  10   63.59    6.50
   2   0 -10  142.69    9.50
  -2   0  10  122.39    8.80
   1   0 -10   21.90    2.60
  -1   0  10   23.60    2.60
   0   0 -10   16.50    2.40
   0   0  10   13.10    2.70
  -1   0 -10   43.10    3.50
  -1   0 -10   50.29    4.60
   1   0  10   42.30    4.70
  -2   0 -10   65.99    6.40
   2   0  10   64.09    6.70
  -3   0 -10   27.10    5.30
   3   0  10   43.80    5.80
  -4   0 -10   -1.00    1.50
  -4   0 -10   -1.10    1.50
   4   0  10    1.50    2.30
  -5   0 -10   80.49    9.90
  -5   0 -10   88.19    8.20
   5   0  10   76.89    9.40
  -6   0 -10   24.70    4.90
  -6   0 -10   13.50    4.70
   5  -1 -10    6.60    2.90
  -5   1  10    3.70    2.80
   4  -1 -10   11.30    3.00
  -4   1  10   10.80    3.60
   3  -1 -10   47.00    4.60
  -3   1  10   45.60    4.30
   2  -1 -10  285.07   18.50
  -2   1  10  288.47   19.10
  -2   1  10  272.67   18.10
  -1   1  10    3.50    1.10
   0  -1 -10    1.00    0.80
   0   1  10    1.30    1.20
  -1  -1 -10   12.30    2.40
  -1  -1 -10   14.20    2.20
   1   1  10   14.70    3.30
  -2  -1 -10  181.28   14.00
   2   1  10  219.98   14.70
  -3  -1 -10    3.40    1.90
   3   1  10    9.40    2.80
  -4  -1 -10    5.60    2.90
  -4  -1 -10    6.70    2.90
   4   1  10    9.10    4.10
  -5  -1 -10   20.40    4.60
  -5  -1 -10   14.20    4.50
   5   1  10   19.70    5.90
  -6  -1 -10    5.60    4.20
  -6  -1 -10    3.90    2.80
   6   1  10    3.60    3.20
   5  -2 -10   73.49    7.00
  -5   2  10   76.79    9.30
   4  -2 -10   -0.10    1.50
  -4   2  10   -1.10    1.30
  -4   2  10    0.90    1.30
   3  -2 -10    0.70    1.20
  -3   2  10   -0.40    0.90
  -3   2  10   -1.00    1.20
   2  -2 -10    1.90    1.30
  -2   2  10    2.00    1.30
  -2   2  10    2.30    1.40
   1  -2 -10  126.39    9.10
  -1   2  10  130.29    9.30
   0  -2 -10    0.10    0.70
   0   2  10   -0.10    0.60
  -1  -2 -10  377.66   22.80
  -1  -2 -10  359.66   22.70
   1   2  10  349.07   23.60
  -2  -2 -10   26.70    4.10
  -2  -2 -10   18.70    2.70
   2   2  10   23.30    3.30
  -3  -2 -10  224.28   16.40
  -3  -2 -10  246.08   17.00
   3   2  10  229.28   17.00
  -4  -2 -10    4.40    2.40
  -4  -2 -10    7.90    3.10
   4   2  10   12.00    4.20
  -5  -2 -10   23.20    5.00
  -5  -2 -10   26.00    6.00
   5   2  10   28.70    6.70
  -6  -2 -10   27.90    7.10
  -6  -2 -10   21.50    5.30
   6   2  10   23.60    6.60
  -5   3  10   33.10    7.70
   4  -3 -10   28.90    4.40
  -4   3  10   22.50    5.50
  -4   3  10   18.70    4.00
   3  -3 -10   22.50    3.80
  -3   3  10   23.60    5.00
  -3   3  10   18.40    3.70
   2  -3 -10   26.80    3.10
  -2   3  10   21.80    3.20
  -2   3  10   18.70    3.60
   1  -3 -10    2.80    1.40
   1  -3 -10    3.50    1.20
  -1   3  10    5.20    1.80
  -1   3  10    2.00    1.00
   0  -3 -10   23.30    2.60
   0  -3 -10   17.20    1.70
   0  -3 -10   18.50    2.80
  -1  -3 -10   88.69    6.30
  -1  -3 -10   67.79    5.50
   1   3  10   60.49    5.80
  -2  -3 -10   44.80    4.70
  -2  -3 -10   44.20    3.80
   2   3  10   37.70    4.50
  -3  -3 -10  250.97   17.80
  -3  -3 -10  239.48   18.10
   3   3  10  287.87   18.70
  -4  -3 -10   76.59    7.30
  -4  -3 -10   70.39    7.40
   4   3  10   69.39    7.60
  -5  -3 -10   76.49    8.30
  -5  -3 -10   75.09    7.90
   5   3  10   67.39    8.20
   5   3  10   66.19    5.90
  -6  -3 -10   64.49    8.50
  -6  -3 -10   62.49    7.50
   6   3  10   75.09   11.40
   4  -4 -10   16.30    3.40
  -4   4  10   20.60    4.40
   3  -4 -10   59.69    5.60
  -3   4  10   57.39    6.10
   2  -4 -10  142.89   10.40
  -2   4  10  141.69   11.10
   1  -4 -10   24.90    3.70
  -1   4  10   18.40    3.60
   0  -4 -10   40.10    3.80
   0  -4 -10   34.90    3.70
   0   4  10   38.50    4.20
  -1  -4 -10    7.70    2.20
   1   4  10    7.90    2.40
  -2  -4 -10   17.40    3.50
   2   4  10   19.60    3.70
  -3  -4 -10   12.50    2.60
  -3  -4 -10   16.40    3.80
   3   4  10   18.80    4.10
  -4  -4 -10   81.99    8.10
  -4  -4 -10   78.19    7.60
   4   4  10   89.09    8.20
  -5  -4 -10    3.80    2.30
  -5  -4 -10    4.90    2.50
   5   4  10   10.00    3.50
   5   4  10    3.00    1.60
  -6  -4 -10  141.39   13.00
  -6  -4 -10  142.49   12.40
   6   4  10  111.79   12.10
  -4   5  10   16.30    4.50
   3  -5 -10   30.10    3.80
  -3   5  10   33.90    4.80
   2  -5 -10   54.89    5.10
  -2   5  10   50.29    5.80
   1  -5 -10  126.19    9.60
  -1   5  10  132.49   10.60
   0  -5 -10    7.60    2.10
   0   5  10    9.50    2.40
  -1  -5 -10  144.59   10.70
   1   5  10  142.59   11.00
  -2  -5 -10    4.80    2.30
   2   5  10    2.90    1.80
  -3  -5 -10    7.20    3.00
   3   5  10   14.60    3.60
  -5  -5 -10    3.80    2.80
   5   5  10    9.00    3.40
  -6  -5 -10    0.20    2.40
   6   5  10   -0.80    1.50
   6   5  10    2.50    2.80
  -3   6  10    4.90    2.80
  -2   6  10  111.29   10.10
  -1   6  10    2.60    2.00
   0   6  10  150.38   11.90
  -1  -6 -10   10.10    2.70
   1   6  10   14.10    3.30
  -2  -6 -10   64.39    6.40
   2   6  10   64.49    6.40
  -3  -6 -10   12.30    3.90
   3   6  10   14.50    3.80
  -4  -6 -10    7.30    3.30
   4   6  10    7.60    3.20
  -5  -6 -10   18.90    4.80
   5   6  10   10.90    3.60
  -6  -6 -10   36.40    7.60
   6   6  10   44.80    8.10
   6   6  10   40.10    6.10
  -2   7  10   -1.30    1.80
  -1   7  10    6.00    2.80
   0   7  10   56.09    6.40
  -1  -7 -10   16.80    3.70
   1   7  10   28.70    5.10
  -2  -7 -10    6.80    2.70
   2   7  10   11.80    3.40
  -3  -7 -10    8.60    3.30
   3   7  10   11.60    3.60
  -4  -7 -10   25.20    5.70
   4   7  10   34.40    6.10
  -5  -7 -10   68.89    8.30
   5   7  10   50.89    6.90
  -1   8  10   31.00    6.50
   0   8  10    9.60    3.50
   1   8  10   21.50    4.90
  -2  -8 -10    9.50    3.10
   2   8  10   10.40    3.70
  -3  -8 -10   36.60    6.60
   3   8  10   36.10    6.50
  -4  -8 -10    3.60    2.50
   4   8  10    1.90    2.40
  -5  -8 -10   19.10    5.70
   5   8  10   14.20    4.60
   5   8  10   14.80    4.10
   1   9  10   15.30    4.50
   2   9  10   22.20    5.50
  -3  -9 -10    1.60    2.60
   3   9  10    4.70    3.00
   3   7 -11   57.39    6.50
   2   7 -11    4.70    2.30
   2   7 -11    5.90    3.50
   1   7 -11   59.79    8.50
   0   7 -11   24.60    6.70
   4   6 -11   16.90    3.80
  -4  -6  11   21.50    4.10
   3   6 -11   45.10    5.50
  -3  -6  11   45.30    5.30
   2   6 -11   24.90    4.30
   1   6 -11    4.80    1.80
   1   6 -11    1.00    2.00
   0   6 -11   32.20    7.00
  -1   6 -11   43.70    9.20
  -2   6 -11   12.50    5.70
   5   5 -11    7.70    3.10
  -5  -5  11    9.80    3.10
   4   5 -11   60.19    6.50
  -4  -5  11   53.79    5.80
   3   5 -11    9.60    2.80
  -3  -5  11    3.90    2.10
   2   5 -11   26.60    4.30
   1   5 -11   27.80    5.80
   1   5 -11   30.70    3.60
   0   5 -11  112.19   11.00
  -1   5 -11    9.90    4.30
  -2   5 -11  115.39   12.60
  -3   5 -11   -1.90    1.80
   5   4 -11   54.49    7.60
  -5  -4  11   45.20    5.20
   4   4 -11   95.39    8.20
  -4  -4  11   74.49    7.10
   3   4 -11    2.70    1.70
  -3  -4  11    3.30    1.70
   2   4 -11    1.20    1.20
   1   4 -11   64.29    5.50
   0   4 -11   18.00    2.20
   0   4 -11   12.60    3.80
  -1   4 -11  140.19   12.80
  -2   4 -11    6.60    3.70
  -3   4 -11   99.49   11.50
  -4   4 -11   35.10    8.70
   5   3 -11    1.40    1.80
  -5  -3  11    0.90    1.70
   4   3 -11  104.99    8.70
  -4  -3  11   90.39    7.70
   3   3 -11   34.10    4.20
   2   3 -11  379.56   24.70
   1   3 -11   82.89    6.50
   0   3 -11   57.89    6.60
   0   3 -11   69.89    5.20
  -1   3 -11   22.80    5.20
  -1   3 -11   14.20    1.80
  -2   3 -11   55.39    7.20
  -3   3 -11   28.50    6.90
  -4   3 -11   30.80    7.50
   5   2 -11   -1.10    1.20
   4   2 -11    6.70    2.60
   3   2 -11  185.08   13.40
   2   2 -11   33.20    3.70
   1   2 -11  270.37   17.30
  -1  -2  11  256.17   17.60
   0   2 -11   70.79    6.70
   0   2 -11   66.29    5.30
   0  -2  11   74.39    6.80
  -1   2 -11   49.90    3.80
  -1   2 -11   41.70    5.50
   1  -2  11   54.89    6.10
  -2   2 -11  574.64   36.70
   2  -2  11  499.85   36.00
  -3   2 -11    6.40    3.30
   3  -2  11    7.90    3.80
  -4   2 -11   22.50    6.20
  -5   2 -11   11.60    4.00
  -5   2 -11   12.50    5.30
   5   1 -11   20.90    4.30
  -5  -1  11   16.60    4.90
   4   1 -11    3.30    2.00
   3   1 -11  242.38   16.80
   2   1 -11   46.90    4.50
   1   1 -11  125.09    8.80
  -1  -1  11  121.59    9.00
   0   1 -11   22.80    2.40
   0  -1  11   22.70    3.10
  -1   1 -11  112.29    7.80
   1  -1  11  123.99   10.00
  -2   1 -11   34.20    2.80
  -2   1 -11   35.90    4.90
   2  -1  11   47.80    7.90
  -3   1 -11   18.50    4.90
   3  -1  11   20.30    5.40
  -4   1 -11    0.60    2.00
   4  -1  11   -0.40    1.90
  -5   1 -11    0.20    2.10
  -5   1 -11    1.30    3.20
   5   0 -11   49.70    6.50
  -5   0  11   33.40    7.00
   4   0 -11  133.19   10.70
  -4   0  11  147.79   12.40
   3   0 -11   22.50    4.00
   2   0 -11  277.37   18.70
  -2   0  11  288.67   18.20
   1   0 -11   18.70    2.40
  -1   0  11   20.30    2.50
   0   0 -11   63.89    4.90
   0   0  11   58.49    5.40
  -1   0 -11   14.10    3.00
  -1   0 -11   15.30    1.80
   1   0  11   14.70    3.30
  -2   0 -11  259.97   17.80
  -2   0 -11  245.08   15.50
   2   0  11  232.18   17.80
   3   0  11   43.30    6.10
  -4   0 -11   43.60    6.40
   4   0  11   51.49    6.90
  -5   0 -11    7.10    3.00
  -5   0 -11    6.10    3.70
   5   0  11    8.40    4.40
  -6   0 -11   96.69    9.80
  -6   0 -11  107.19   12.30
   5  -1 -11   48.30    5.60
  -5   1  11   44.90    8.40
   4  -1 -11   13.40    3.20
  -4   1  11   11.50    3.70
   3  -1 -11   10.70    2.50
  -3   1  11    6.10    2.40
  -3   1  11    8.50    1.90
   2  -1 -11   13.90    2.40
  -2   1  11   12.30    2.20
   1  -1 -11  175.68   11.90
  -1   1  11  174.18   12.00
   0  -1 -11    0.30    0.70
   0   1  11   -0.20    0.80
  -1  -1 -11   14.40    2.20
  -1  -1 -11   14.30    2.30
   1   1  11   16.70    3.60
  -2  -1 -11   64.89    6.10
   2   1  11   61.89    6.30
  -3  -1 -11   15.60    3.90
   3   1  11   14.70    4.30
  -4  -1 -11   51.59    7.10
  -4  -1 -11   38.20    5.90
   4   1  11   55.19    9.20
  -5  -1 -11   30.20    5.80
  -5  -1 -11   28.50    6.60
   5   1  11   30.30    7.10
  -6  -1 -11   29.30    5.70
  -6  -1 -11   28.80    7.30
   6   1  11   29.60    7.40
   5  -2 -11    4.50    2.40
  -5   2  11    4.80    3.30
   4  -2 -11   31.60    5.00
  -4   2  11   35.10    6.50
   3  -2 -11    1.00    1.30
  -3   2  11    0.90    1.10
  -3   2  11   -0.10    1.30
   2  -2 -11  104.79    7.80
  -2   2  11  106.09    8.00
  -2   2  11   95.79    8.20
   1  -2 -11  182.58   12.70
  -1   2  11  191.78   13.00
   0  -2 -11   32.10    3.20
  -1  -2 -11    2.30    0.90
  -1  -2 -11    1.30    0.80
   1   2  11    4.60    1.60
  -2  -2 -11  133.49   10.00
   2   2  11  135.59   10.70
  -3  -2 -11   93.79    8.20
  -3  -2 -11   91.29    8.40
   3   2  11   95.39    8.70
  -4  -2 -11    4.10    2.50
  -4  -2 -11    4.00    2.50
   4   2  11    5.80    3.20
  -5  -2 -11   21.10    5.00
  -5  -2 -11   19.20    5.10
   5   2  11   15.90    4.90
  -6  -2 -11    7.20    3.40
  -6  -2 -11    9.90    4.40
   6   2  11   19.60    5.40
   4  -3 -11    4.20    2.00
  -4   3  11    3.80    2.20
  -4   3  11    0.40    2.30
   3  -3 -11    1.10    1.40
  -3   3  11   -0.10    1.40
  -3   3  11    0.30    1.40
   2  -3 -11    1.40    1.30
  -2   3  11    1.30    1.20
  -2   3  11    0.30    1.00
   1  -3 -11   55.69    4.90
   1  -3 -11   54.69    4.60
  -1   3  11   56.59    5.20
   0  -3 -11   18.80    3.20
   0  -3 -11   24.20    2.90
   0   3  11   33.70    3.50
  -1  -3 -11   19.60    1.70
  -1  -3 -11   17.80    1.60
  -1  -3 -11   23.90    3.40
  -1  -3 -11   22.90    3.70
   1   3  11   25.70    4.20
  -2  -3 -11  451.45   26.40
  -2  -3 -11  384.96   27.10
   2   3  11  402.86   27.40
  -3  -3 -11   35.90    4.30
  -3  -3 -11   36.10    4.60
   3   3  11   44.20    5.20
  -4  -3 -11   64.39    6.80
  -4  -3 -11   58.09    6.50
   4   3  11   56.39    6.90
  -5  -3 -11    2.50    2.30
  -5  -3 -11    1.20    2.10
   5   3  11    2.50    2.80
  -6  -3 -11   84.99    9.40
  -6  -3 -11   96.39   10.50
   6   3  11   84.69   10.20
   4  -4 -11   16.10    3.60
  -4   4  11   20.60    4.40
   3  -4 -11   31.30    4.00
  -3   4  11   34.60    4.60
   2  -4 -11   18.60    3.40
  -2   4  11   17.10    3.80
   0  -4 -11   43.70    4.30
   0   4  11   50.89    5.00
  -1  -4 -11   32.20    3.90
   1   4  11   39.70    4.30
  -2  -4 -11    2.70    1.70
   2   4  11    6.50    1.90
  -3  -4 -11  202.88   14.70
   3   4  11  186.38   14.70
  -4  -4 -11   46.20    6.00
  -4  -4 -11   55.49    6.40
   4   4  11   73.09    7.10
  -5  -4 -11   65.29    7.50
  -5  -4 -11   55.29    7.30
   5   4  11   70.79    8.10
  -6  -4 -11   16.80    4.90
  -6  -4 -11   23.10    8.20
   6   4  11   18.70    5.80
   3  -5 -11    0.50    1.30
  -3   5  11    0.70    2.00
   2  -5 -11  154.88   11.40
  -2   5  11  152.98   12.30
   1  -5 -11    2.70    1.60
  -1   5  11    0.00    1.30
   0  -5 -11   65.59    6.10
   0   5  11   89.89    7.30
  -1  -5 -11   10.40    2.30
   1   5  11    7.20    2.00
  -2  -5 -11   23.60    4.60
   2   5  11   24.80    4.60
  -3  -5 -11   -0.30    1.40
   3   5  11    0.30    1.80
  -4  -5 -11   76.09    8.00
   4   5  11   79.09    8.20
  -5  -5 -11   19.30    5.20
   5   5  11   26.20    5.70
  -6  -5 -11  123.19   11.80
   6   5  11  118.99   10.10
   6   5  11  109.49   11.50
  -3   6  11   49.90    6.40
  -2   6  11   12.80    3.80
  -1   6  11   87.89    8.40
   0   6  11  205.48   15.40
  -1  -6 -11  161.88   11.70
   1   6  11  146.99   12.10
  -2  -6 -11   19.10    3.90
   2   6  11   15.40    3.60
  -3  -6 -11    9.40    3.40
   3   6  11    7.60    3.50
  -4  -6 -11   19.00    4.80
   4   6  11   15.10    3.70
  -5  -6 -11    8.90    3.60
   5   6  11    6.30    2.80
  -6  -6 -11   27.10    6.50
   6   6  11   18.50    4.20
   6   6  11   29.00    7.00
  -2   7  11   23.10    5.40
  -1   7  11   60.89    6.90
   0   7  11   36.50    5.10
   1   7  11  185.48   14.50
  -2  -7 -11    3.50    2.30
   2   7  11    6.20    3.00
  -3  -7 -11   53.39    8.00
   3   7  11   49.70    6.20
  -4  -7 -11   -0.80    2.30
   4   7  11    2.20    2.40
  -5  -7 -11   39.80    7.40
   5   7  11   30.00    6.20
   0   8  11    5.30    2.70
   1   8  11  112.99   10.40
  -2  -8 -11   12.60    3.40
   2   8  11   21.50    5.10
  -3  -8 -11    6.00    2.90
   3   8  11    9.20    3.00
  -4  -8 -11   13.80    4.60
   4   8  11   11.60    4.10
   2   9  11   19.60    4.30
  -3  -9 -11   29.00    5.90
   2   7 -12   11.10    4.60
   2   7 -12    7.60    2.60
   1   7 -12    7.20    4.00
   0   7 -12    4.00    3.70
   4   6 -12   41.20    6.50
  -4  -6  12   44.60    5.40
   3   6 -12   32.40    5.40
   2   6 -12   95.49    8.20
   1   6 -12    0.30    2.10
   0   6 -12   53.19    8.00
  -1   6 -12    3.60    3.60
   5   5 -12    1.80    2.20
  -5  -5  12    0.80    2.10
   4   5 -12    2.10    2.00
  -4  -5  12    6.70    2.50
   3   5 -12   60.59    6.20
   2   5 -12   29.00    4.70
   1   5 -12    2.10    2.20
   1   5 -12    0.90    1.30
   0   5 -12   18.10    5.20
  -1   5 -12   44.40    8.60
  -2   5 -12    3.10    3.20
  -3   5 -12   28.90    7.80
   5   4 -12    2.20    2.40
  -5  -4  12    3.90    2.10
   4   4 -12  120.69   10.30
  -4  -4  12  117.19    9.50
   3   4 -12   14.00    3.30
   2   4 -12   65.49    6.00
   1   4 -12    9.90    2.30
   0   4 -12   74.49    5.90
   0   4 -12   74.69    8.20
  -1   4 -12   49.20    6.90
  -2   4 -12   46.30    7.10
  -3   4 -12   60.39    8.70
   5   3 -12   52.29    6.20
   4   3 -12   34.20    5.40
   3   3 -12   37.80    4.50
   2   3 -12   36.40    4.20
   1   3 -12   39.10    3.90
   0   3 -12    4.90    2.40
   0   3 -12    6.50    1.80
  -1   3 -12   48.10    6.30
  -2   3 -12   81.09    9.20
  -3   3 -12    4.80    3.00
  -4   3 -12  122.59   13.30
   5   2 -12   33.40    5.80
   4   2 -12   74.09    7.10
   3   2 -12  183.28   13.40
   2   2 -12   60.69    5.50
   1   2 -12  140.39   10.10
  -1  -2  12  143.49   10.70
   0   2 -12   23.70    4.60
   0   2 -12   17.20    2.20
   0  -2  12   24.20    4.70
  -1   2 -12   66.29    5.10
   1  -2  12   80.49    7.70
  -2   2 -12    4.10    2.50
   2  -2  12    9.20    3.60
  -3   2 -12    3.60    2.70
   3  -2  12    1.50    2.30
  -4   2 -12   13.00    4.30
  -5   2 -12   71.09    8.00
  -5   2 -12   85.09   10.80
   5   1 -12   16.30    3.90
   4   1 -12    0.30    1.40
   3   1 -12   29.30    3.80
   2   1 -12  930.81   55.49
  -2  -1  12  867.51   54.79
   1   1 -12    7.10    1.90
  -1  -1  12    8.30    2.20
   0   1 -12  500.85   31.30
   0  -1  12  506.05   32.50
  -1   1 -12   -0.20    1.00
   1  -1  12    5.30    1.90
  -2   1 -12  164.18   13.60
  -2   1 -12  169.68   10.80
   2  -1  12  170.78   14.00
  -3   1 -12    4.40    2.60
   3  -1  12    2.70    2.60
  -4   1 -12    4.10    3.10
   4  -1  12    5.70    3.40
  -5   1 -12   17.60    5.80
  -5   1 -12   14.60    4.10
   5   0 -12   51.49    5.90
  -5   0  12   46.10    6.70
   4   0 -12    5.70    2.20
   3   0 -12  215.58   15.10
   2   0 -12   12.40    2.80
  -2   0  12   20.90    2.50
  -1   0  12   36.90    3.80
   0   0 -12  126.59    9.20
   0   0  12  141.09   10.20
  -1   0 -12   78.69    6.90
  -1   0 -12   78.79    5.70
   1   0  12   72.19    7.00
  -2   0 -12  291.57   18.40
  -2   0 -12  311.57   20.90
   2   0  12  275.37   20.80
  -3   0 -12   17.30    4.60
   3   0  12   28.80    6.50
   4   0  12   77.49    9.30
  -5   0 -12    0.40    2.00
  -5   0 -12   -0.20    2.20
   5   0  12   -0.30    2.00
   5  -1 -12   24.40    4.70
  -5   1  12   24.80    6.10
   4  -1 -12  199.48   14.80
  -4   1  12  206.58   16.30
   3  -1 -12    6.10    2.20
  -3   1  12    5.60    1.70
   2  -1 -12  115.19    8.90
  -2   1  12  121.99    8.80
   1  -1 -12   36.80    3.70
  -1   1  12   37.00    3.70
   0  -1 -12   28.50    2.90
   0   1  12   28.20    3.40
  -1  -1 -12   59.09    5.00
   1   1  12   69.49    6.20
  -2  -1 -12   90.59    7.80
   2   1  12   85.69    8.10
  -3  -1 -12    9.30    3.10
   3   1  12   14.90    4.30
  -4  -1 -12   78.09    8.50
  -4  -1 -12   77.39    7.40
   4   1  12   61.79    8.10
  -5  -1 -12   68.49    7.60
  -6  -1 -12    2.40    2.60
  -6  -1 -12    2.60    3.70
   6   1  12   -0.10    3.00
   5  -2 -12   92.39    8.10
  -5   2  12   76.29    9.60
   4  -2 -12   94.99    8.50
  -4   2  12  103.69   10.00
   3  -2 -12   19.60    3.60
  -3   2  12   14.60    3.60
  -3   2  12   16.10    3.20
   2  -2 -12  286.07   18.50
  -2   2  12  267.77   18.40
   1  -2 -12   63.19    5.40
  -1   2  12   65.89    5.70
   0  -2 -12    2.20    1.20
   0   2  12    5.00    1.30
  -1  -2 -12   35.10    3.10
  -1  -2 -12   23.00    2.80
  -2  -2 -12   53.29    5.10
   2   2  12   51.19    5.70
  -3  -2 -12   29.00    4.90
  -3  -2 -12   28.80    4.20
   3   2  12   29.00    5.70
  -4  -2 -12   24.60    5.00
  -4  -2 -12   22.90    5.20
   4   2  12   31.40    6.60
  -5  -2 -12   46.00    6.80
  -5  -2 -12   44.90    6.90
  -6  -2 -12   79.99   10.20
  -6  -2 -12   88.79    9.20
   6   2  12   86.49   10.60
   4  -3 -12   30.20    4.90
   3  -3 -12    7.30    2.20
  -3   3  12   17.10    3.40
  -3   3  12    8.00    4.00
   2  -3 -12    2.20    1.60
  -2   3  12    3.00    1.70
  -2   3  12    2.00    1.40
   1  -3 -12  356.96   23.10
   1  -3 -12  373.46   23.60
  -1   3  12  362.66   24.00
   0  -3 -12    0.70    1.00
   0  -3 -12    0.60    1.30
   0   3  12    0.80    1.20
  -1  -3 -12    7.20    1.60
  -1  -3 -12   10.40    2.50
  -2  -3 -12    1.20    1.00
  -2  -3 -12    2.90    1.70
   2   3  12   10.50    2.50
  -3  -3 -12   49.20    5.50
  -3  -3 -12   43.90    4.90
   3   3  12   46.50    5.60
  -5  -3 -12   -0.30    1.90
  -5  -3 -12    0.80    1.90
   5   3  12   -0.90    2.50
  -6  -3 -12   60.39    8.10
  -6  -3 -12   59.09    7.60
   4  -4 -12   38.90    4.90
  -4   4  12   41.00    5.40
   3  -4 -12    0.30    1.50
  -3   4  12    0.60    1.70
   2  -4 -12   13.80    2.80
  -2   4  12   16.60    3.50
   1  -4 -12    3.90    1.20
  -1   4  12    1.50    1.60
   0  -4 -12   57.59    5.30
   0  -4 -12   62.99    5.50
   0   4  12   64.99    6.00
  -1  -4 -12   34.10    5.00
   1   4  12   40.10    4.50
  -2  -4 -12  241.38   17.40
   2   4  12  252.57   17.80
  -3  -4 -12   16.30    3.90
   3   4  12   28.10    5.10
  -4  -4 -12   75.89    7.70
   4   4  12   75.49    8.10
  -5  -4 -12    1.20    2.40
   5   4  12    3.30    3.00
  -6  -4 -12    9.70    3.60
   6   4  12    6.10    3.90
   3  -5 -12    8.20    2.60
  -3   5  12   15.30    3.70
   2  -5 -12   18.70    3.50
  -2   5  12   19.00    4.10
   1  -5 -12   36.90    4.30
  -1   5  12   43.00    5.00
   0  -5 -12    4.80    1.90
   0   5  12    4.80    2.10
  -1  -5 -12    5.20    2.10
   1   5  12    4.80    2.40
  -2  -5 -12  171.48   14.00
   2   5  12  202.18   14.30
  -3  -5 -12   39.30    6.50
   3   5  12   37.60    6.40
  -4  -5 -12  106.69    9.90
   4   5  12   93.19    9.40
  -5  -5 -12   62.39    9.40
   5   5  12   63.99    7.70
  -6  -5 -12   48.20    8.80
   6   5  12   58.09    9.90
  -2   6  12   42.60    5.80
  -1   6  12  105.59    9.60
   0   6  12   10.30    3.20
  -1  -6 -12    1.80    1.80
   1   6  12    3.00    2.30
  -2  -6 -12    8.70    2.50
   2   6  12    7.50    2.20
  -3  -6 -12   52.29    6.50
   3   6  12   64.19    6.90
  -4  -6 -12    8.50    3.40
   4   6  12    8.20    3.70
  -5  -6 -12   52.99    9.10
   5   6  12   49.80    7.10
  -6  -6 -12    5.30    3.30
   6   6  12    3.50    3.30
   6   6  12    5.20    2.50
  -1   7  12   33.80    6.20
   0   7  12  130.49   11.40
   1   7  12    3.20    2.70
  -2  -7 -12   62.49    6.70
   2   7  12   64.19    6.90
  -3  -7 -12   51.59    6.50
  -4  -7 -12   17.20    4.80
   4   7  12   17.50    4.80
   5   7  12   98.19   10.20
   0   8  12    3.10    2.30
   1   8  12   95.59    9.60
  -2  -8 -12    4.00    4.10
   2   8  12    7.50    3.40
  -3  -8 -12   35.10    6.30
   3   8  12   36.00    6.40
  -4  -8 -12   10.50    4.30
   4   8  12    6.00    3.30
   3   6 -13   45.10    5.50
   2   6 -13    7.10    2.50
   1   6 -13    3.00    3.00
   0   6 -13    0.80    2.20
  -1   6 -13   19.10    6.40
   4   5 -13   76.79    7.90
   3   5 -13    3.70    2.40
   2   5 -13  141.79   11.00
   1   5 -13    8.40    3.60
   1   5 -13    5.70    2.00
   0   5 -13   42.70    8.20
  -1   5 -13   15.10    5.50
  -2   5 -13   12.50    4.80
   5   4 -13   60.09    7.00
   4   4 -13   14.50    3.80
   3   4 -13    2.40    2.00
   2   4 -13  120.89    9.60
   1   4 -13   37.80    4.00
   0   4 -13   10.70    2.10
   0   4 -13    9.50    3.70
  -1   4 -13   14.50    4.90
  -2   4 -13   28.30    7.10
  -3   4 -13    5.40    3.40
   5   3 -13   41.40    6.80
   4   3 -13   15.70    3.40
   3   3 -13   40.80    5.90
   2   3 -13   42.00    4.50
   0   3 -13   33.00    4.90
   0   3 -13   28.70    3.20
   0  -3  13   39.70    6.40
  -1   3 -13  208.28   16.80
  -2   3 -13   10.30    4.10
  -3   3 -13  140.59   14.00
  -4   3 -13    1.00    3.20
   5   2 -13   24.20    4.90
   4   2 -13   57.59    6.20
   3   2 -13    8.60    2.70
   2   2 -13   22.20    3.80
   0   2 -13   36.60    3.40
   0   2 -13   32.90    4.60
   0  -2  13   36.50    4.90
  -1   2 -13   32.90    3.10
  -1   2 -13   30.30    4.70
   1  -2  13   45.10    7.30
  -2   2 -13  171.68   14.60
   2  -2  13  163.38   14.40
  -3   2 -13    0.10    1.70
   3  -2  13    4.90    2.80
  -4   2 -13  106.59   11.80
   5   1 -13   52.39    6.20
   4   1 -13    1.90    1.90
   3   1 -13  145.19   11.00
   2   1 -13    1.50    1.40
   1   1 -13  490.15   31.10
  -1  -1  13  497.25   31.60
   0   1 -13   90.69    7.90
   0   1 -13   82.79    6.50
   0  -1  13   87.59    7.70
  -1   1 -13   14.70    3.80
  -1   1 -13   12.80    2.20
   1  -1  13   15.00    4.00
  -2   1 -13  151.58    9.20
  -2   1 -13  107.69   11.10
  -3   1 -13   20.80    5.30
   3  -1  13   22.80    6.10
  -4   1 -13   48.10    7.40
   4  -1  13   52.89    9.40
  -5   1 -13   34.70    8.40
  -5   1 -13   43.60    7.40
   5   0 -13    0.00    1.90
   4   0 -13    2.20    2.10
   3   0 -13   36.00    5.50
   2   0 -13   86.79    7.20
  -2   0  13   88.29    6.90
   1   0 -13   71.39    6.10
  -1   0  13   81.29    6.50
   0   0 -13  333.37   21.40
   0   0  13  334.77   22.40
  -1   0 -13   46.50    5.40
  -1   0 -13   59.09    4.50
   1   0  13   57.49    5.90
  -2   0 -13   14.40    3.70
  -2   0 -13   11.40    2.00
   2   0  13   13.30    4.10
  -3   0 -13  408.66   28.30
   3   0  13  394.26   28.80
  -4   0 -13   11.40    4.30
   4   0  13   16.80    5.50
  -5   0 -13   27.00    5.60
  -5   0 -13   25.80    6.90
   5   0  13   36.80    8.30
   5  -1 -13   57.29    6.30
  -5   1  13   49.80    7.40
   4  -1 -13   14.30    3.40
  -4   1  13   14.50    4.10
   3  -1 -13    6.00    2.00
   2  -1 -13  320.27   20.10
  -2   1  13  281.97   19.50
   1  -1 -13    2.80    1.40
  -1   1  13    5.20    1.80
   0  -1 -13  381.86   24.30
   0   1  13  384.66   25.10
  -1  -1 -13   15.20    2.70
  -1  -1 -13   11.50    2.80
   1   1  13   10.90    3.10
  -3  -1 -13   40.20    5.40
  -4  -1 -13    6.90    3.20
  -4  -1 -13    5.10    2.80
   4   1  13    6.10    4.00
  -5  -1 -13    2.80    2.70
  -5  -1 -13    2.10    2.50
   5   1  13    2.30    2.50
  -6  -1 -13    5.20    3.20
  -6  -1 -13    4.10    3.20
   6   1  13    4.80    3.60
   4  -2 -13   67.49    6.40
  -4   2  13   53.09    6.90
   3  -2 -13   86.19    7.50
  -3   2  13   83.39    7.20
  -3   2  13   91.19    8.20
   2  -2 -13   10.80    2.60
  -2   2  13   12.90    2.80
   1  -2 -13  103.49    7.80
  -1   2  13   98.09    7.90
   0  -2 -13   14.50    2.70
   0   2  13   19.50    3.60
  -1  -2 -13  150.78   10.60
   1   2  13  156.98   11.70
  -2  -2 -13   22.40    3.30
   2   2  13   42.60    6.40
  -3  -2 -13  247.88   17.10
  -3  -2 -13  232.48   17.20
   3   2  13  224.58   17.60
  -4  -2 -13    1.90    2.20
  -4  -2 -13    0.80    2.10
   4   2  13    0.30    2.10
  -5  -2 -13   20.30    4.90
  -5  -2 -13   28.40    6.40
   5   2  13   27.80    7.00
  -6  -2 -13   14.90    4.30
  -6  -2 -13   11.10    4.60
   6   2  13   15.30    5.10
   4  -3 -13  119.09    9.90
   3  -3 -13   15.50    3.40
  -3   3  13   17.30    3.80
   2  -3 -13   19.60    3.80
  -2   3  13   21.60    4.00
   1  -3 -13    7.70    2.10
  -1   3  13    5.40    2.00
   0  -3 -13   64.79    5.50
   0   3  13   61.89    5.90
  -1  -3 -13    0.70    1.50
  -1  -3 -13    3.00    1.10
  -2  -3 -13   29.40    5.00
   2   3  13   25.90    5.00
  -3  -3 -13  198.68   14.60
  -3  -3 -13  198.78   15.00
  -4  -3 -13   25.10    5.20
  -4  -3 -13   23.30    4.80
   4   3  13   29.20    6.20
  -5  -3 -13   35.20    7.00
  -5  -3 -13   42.30    7.10
   5   3  13   52.39    9.40
  -6  -3 -13   18.40    5.60
  -6  -3 -13   22.20    5.70
   6   3  13   14.90    5.50
   4  -4 -13    6.10    2.60
   3  -4 -13   82.49    7.50
  -3   4  13   83.79    7.90
   2  -4 -13    0.70    1.30
  -2   4  13    3.40    1.90
   1  -4 -13   87.69    7.70
  -1   4  13  111.19    8.70
   0  -4 -13   71.19    6.10
   0  -4 -13   65.09    5.90
   0   4  13   70.79    6.60
  -1  -4 -13   28.10    4.50
   1   4  13   25.40    4.60
  -2  -4 -13    2.50    1.90
  -3  -4 -13   52.09    6.20
   3   4  13   49.40    6.30
  -4  -4 -13   39.90    7.00
   4   4  13   50.99    6.40
  -5  -4 -13   -0.70    1.70
   5   4  13    0.60    2.60
  -6  -4 -13   21.90    5.90
   6   4  13   11.70    5.20
   3  -5 -13    4.10    1.90
  -3   5  13    6.40    2.90
   2  -5 -13    0.00    1.50
  -2   5  13    0.50    1.90
   1  -5 -13   15.60    3.00
  -1   5  13   26.00    4.60
   0   5  13   30.90    4.30
  -1  -5 -13   15.50    3.10
   1   5  13   12.10    2.90
  -2  -5 -13   28.30    5.20
   2   5  13   33.90    4.60
  -3  -5 -13  275.97   21.10
   3   5  13  312.77   21.40
  -5  -5 -13   18.70    5.30
   5   5  13   23.40    6.00
  -6  -5 -13    1.70    3.20
   6   5  13    8.50    4.30
  -2   6  13   37.50    5.30
  -1   6  13    8.80    3.20
   0   6  13   52.69    6.10
  -1  -6 -13    4.50    2.20
   1   6  13    7.10    2.90
  -2  -6 -13   28.90    5.30
   2   6  13   30.70    5.50
  -3  -6 -13   11.40    3.70
   3   6  13   26.60    5.50
  -4  -6 -13  126.59   11.80
   4   6  13  123.59   11.50
  -5  -6 -13   10.90    3.90
   5   6  13    3.60    3.00
  -1   7  13   93.99    9.40
   0   7  13    5.20    2.80
   1   7  13   22.00    5.10
  -2  -7 -13    4.60    2.40
   2   7  13    5.90    2.60
  -3  -7 -13   27.90    5.90
   3   7  13   34.00    6.10
  -4  -7 -13   78.39    9.30
   4   7  13   98.69    9.50
  -5  -7 -13   59.69    9.40
   5   7  13   51.59    9.00
   0   8  13   47.50    6.40
   1   8  13   20.20    5.00
   2   8  13   63.79    7.40
  -3  -8 -13   10.10    3.50
   3   8  13    8.40    3.00
  -4  -8 -13    5.80    3.00
   4   8  13    3.30    3.00
   3   6 -14   13.40    3.80
   2   6 -14   25.60    4.40
   1   6 -14   50.49    7.90
   0   6 -14   81.29   10.40
   4   5 -14   23.10    4.90
   3   5 -14   41.40    5.30
   2   5 -14   36.30    5.30
   1   5 -14  130.39    9.90
   0   5 -14   17.40    5.10
  -1   5 -14   11.70    5.10
  -2   5 -14   83.39   11.00
   4   4 -14   56.39    6.40
   3   4 -14   62.89    6.60
   2   4 -14   43.40    4.90
   1   4 -14  134.19   10.00
   0   4 -14    3.80    2.60
  -1   4 -14   52.39    9.50
  -2   4 -14    1.10    2.70
  -3   4 -14    5.40    3.90
   5   3 -14    6.30    3.00
   4   3 -14   17.60    3.80
   3   3 -14    4.60    2.50
   2   3 -14  129.49   10.10
   1   3 -14   11.00    2.50
   0   3 -14  248.28   16.70
   0  -3  14  264.27   19.00
  -1   3 -14   37.60    5.80
  -2   3 -14   24.20    6.60
  -3   3 -14    5.90    3.80
  -4   3 -14    9.50    4.80
   5   2 -14   69.69    7.40
   4   2 -14   14.10    3.30
   3   2 -14   54.79    5.80
   2   2 -14    7.30    2.40
   1   2 -14  108.29    8.40
  -1  -2  14  117.99    9.40
   0   2 -14   43.00    4.10
   0  -2  14   48.60    5.70
  -1   2 -14  140.69    9.70
  -1   2 -14  138.99   12.30
   1  -2  14  146.59   12.50
  -2   2 -14   58.29    7.70
   2  -2  14   70.09    8.10
  -3   2 -14   36.10    7.90
   3  -2  14   42.10    8.30
  -4   2 -14   42.50    8.80
   5   1 -14   60.69    6.70
   4   1 -14   96.89    8.60
   3   1 -14   39.00    4.60
   2   1 -14   10.80    2.80
   1   1 -14   46.20    4.50
  -1  -1  14   50.89    5.00
  -2   1 -14   52.39    6.60
   2  -1  14   46.90    6.50
  -3   1 -14  102.09   10.60
   3  -1  14  100.29   10.90
  -4   1 -14    0.60    2.20
   4  -1  14    2.90    2.80
  -5   1 -14   85.59   11.10
  -5   1 -14   88.79    9.10
   5   0 -14   90.99    8.60
   4   0 -14   27.20    4.90
   3   0 -14   87.99    7.70
   2   0 -14   52.49    5.10
  -2   0  14   51.99    4.80
   1   0 -14   20.30    3.40
  -1   0  14   23.70    4.00
   0   0 -14  193.58   14.10
   0   0 -14  190.08   13.10
   0   0  14  198.08   14.20
  -1   0 -14   14.50    3.40
  -1   0 -14   12.10    2.40
   1   0  14    9.70    3.20
  -2   0 -14   58.89    6.70
  -2   0 -14   57.19    4.60
   2   0  14   63.29    7.20
  -3   0 -14    5.40    2.90
   3   0  14    9.80    4.00
  -4   0 -14    5.30    3.40
   4   0  14    1.40    2.40
  -5   0 -14    2.20    3.30
  -5   0 -14    1.10    2.80
   5   0  14    0.30    2.30
   4  -1 -14   17.30    3.80
   3  -1 -14   58.69    5.90
   2  -1 -14   33.80    3.90
  -2   1  14   34.20    3.70
   1  -1 -14  803.32   48.30
  -1   1  14  754.92   48.50
   0  -1 -14   37.60    3.80
   0   1  14   37.00    4.40
  -1  -1 -14  437.76   27.70
  -1  -1 -14  417.66   28.60
   1   1  14  469.25   29.50
  -2  -1 -14    1.00    1.40
  -2  -1 -14    0.90    0.90
   2   1  14    1.00    1.80
  -3  -1 -14   88.39    8.70
   3   1  14   89.29    9.20
  -4  -1 -14    0.30    1.90
  -4  -1 -14   -0.60    2.00
   4   1  14    1.30    3.10
  -5  -1 -14   19.30    5.10
  -5  -1 -14   17.30    5.60
   5   1  14   19.90    6.00
   4  -2 -14   37.90    4.80
   3  -2 -14   -0.40    1.10
   2  -2 -14  113.29    8.70
  -2   2  14  103.39    8.50
   1  -2 -14   29.30    4.10
  -1   2  14   24.90    3.40
   0  -2 -14   31.70    3.50
   0   2  14   32.90    4.00
  -1  -2 -14  128.59    9.70
  -1  -2 -14  130.79    9.50
   1   2  14  142.59   10.80
  -2  -2 -14   65.99    6.30
   2   2  14   70.39    7.20
  -3  -2 -14  239.48   17.90
  -3  -2 -14  258.47   18.40
   3   2  14  249.38   18.90
  -4  -2 -14    2.80    2.40
  -4  -2 -14    4.00    2.60
   4   2  14    4.40    3.00
  -5  -2 -14    0.30    1.90
  -5  -2 -14    2.70    2.50
   5   2  14    1.60    3.10
  -6  -2 -14    6.60    3.50
   4  -3 -14   16.90    3.80
   3  -3 -14  167.58   12.80
  -3   3  14  175.38   13.00
   2  -3 -14   18.80    3.50
  -2   3  14   18.70    3.60
   1  -3 -14   60.79    5.50
  -1   3  14   55.99    5.70
   0  -3 -14   19.70    3.40
   0   3  14   16.70    3.60
  -1  -3 -14   45.70    4.40
  -1  -3 -14   44.80    5.10
   1   3  14   53.79    5.80
   2   3  14  108.39    9.70
  -3  -3 -14   74.69    7.00
   3   3  14   53.59    6.80
   4   3  14   54.39    7.00
  -5  -3 -14   40.90    7.20
   5   3  14   52.79    9.60
  -6  -3 -14   11.70    4.20
   6   3  14    6.90    4.30
   3  -4 -14  114.99    9.60
  -3   4  14  113.89   10.00
   2  -4 -14   20.30    3.60
  -2   4  14   29.30    4.00
   1  -4 -14   46.70    5.00
  -1   4  14   53.19    5.50
   0  -4 -14   26.10    4.10
   0  -4 -14   26.30    3.30
   0   4  14   27.10    4.70
  -1  -4 -14   42.70    6.00
   1   4  14   42.20    5.00
  -2  -4 -14   10.90    3.50
   2   4  14   23.10    5.10
  -3  -4 -14   89.49    8.50
   3   4  14   78.39    8.50
  -4  -4 -14   27.80    5.90
   4   4  14   46.80    7.80
  -5  -4 -14   28.30    6.50
   5   4  14   36.90    7.60
  -6  -4 -14    2.70    3.30
   6   4  14   -1.50    2.70
   3  -5 -14    9.90    3.00
  -3   5  14   10.30    3.50
   2  -5 -14   37.00    4.50
  -2   5  14   39.30    5.20
   1  -5 -14    1.70    1.70
  -1   5  14    3.70    2.20
   0  -5 -14  197.68   14.70
   0   5  14  223.48   15.90
  -1  -5 -14    0.00    1.40
   1   5  14    2.70    2.00
  -2  -5 -14   20.40    4.60
   2   5  14   42.50    6.70
  -3  -5 -14    6.90    2.70
   3   5  14    6.70    3.00
  -4  -5 -14   10.70    3.80
   4   5  14   12.90    4.70
  -5  -5 -14   15.30    4.90
   5   5  14   25.80    6.40
   2  -6 -14    0.00    1.30
  -2   6  14    3.40    2.30
  -1   6  14   37.80    6.30
   0   6  14   19.00    4.40
  -1  -6 -14   36.80    4.60
   1   6  14   37.60    5.30
  -2  -6 -14   13.00    3.10
  -3  -6 -14  100.39    9.50
   3   6  14   88.99    9.30
  -4  -6 -14    6.70    3.50
   4   6  14   11.60    4.20
  -5  -6 -14   26.10    6.20
   5   6  14   32.60    7.10
  -1   7  14    8.30    3.30
   0   7  14    5.00    3.00
   1   7  14   28.60    6.10
  -2  -7 -14    6.50    2.80
   2   7  14    5.60    3.10
  -3  -7 -14   95.49    9.70
   3   7  14  100.29   10.00
  -4  -7 -14   32.10    6.70
   4   7  14   36.40    7.00
  -5  -7 -14   57.59    9.50
   1   8  14    3.00    2.50
   2   8  14    2.30    3.00
  -3  -8 -14    1.40    2.40
   3   8  14    2.60    2.90
   2   6 -15   17.70    3.80
   1   6 -15   20.60    6.20
   3   5 -15    2.60    2.30
   2   5 -15   39.90    5.70
   1   5 -15   41.60    7.90
   0   5 -15   -1.10    1.90
  -1   5 -15   17.80    6.10
   4   4 -15   46.80    5.90
   3   4 -15    4.00    2.20
   2   4 -15   50.59    5.40
   1   4 -15    4.40    2.70
   1   4 -15    5.40    2.10
   0   4 -15   27.40    6.40
  -1   4 -15    0.70    2.20
  -2   4 -15   56.79    8.80
   4   3 -15   12.80    3.70
   3   3 -15  146.69   11.80
   2   3 -15    9.60    3.00
   1   3 -15   98.89    7.90
   0   3 -15    4.20    1.70
   0   3 -15    3.40    2.40
   0  -3  15    4.70    2.70
  -1   3 -15   43.20    6.70
   1  -3  15   62.79    7.40
  -2   3 -15    1.10    2.60
  -3   3 -15   15.30    5.70
   4   2 -15    9.50    3.10
   3   2 -15   53.39    5.70
   2   2 -15   18.10    3.70
   1   2 -15  120.99    9.20
   0   2 -15    6.10    1.80
   0   2 -15    8.60    3.00
   0  -2  15    6.40    2.70
  -1   2 -15   20.60    5.30
  -1   2 -15   24.80    3.00
   1  -2  15   35.70    6.70
  -2   2 -15    9.00    3.70
   2  -2  15   12.60    4.10
  -3   2 -15    7.80    3.90
   3  -2  15   12.40    4.70
  -4   2 -15    0.70    2.30
   4   1 -15   32.30    6.00
   3   1 -15    4.70    2.00
   2   1 -15   36.10    4.30
   1   1 -15    6.90    2.30
  -1  -1  15    6.60    2.30
   0   1 -15    2.10    1.90
   0   1 -15    2.70    1.30
   0  -1  15    2.50    1.70
  -1   1 -15   27.20    3.20
  -1   1 -15   35.00    4.90
   1  -1  15   43.40    7.40
  -2   1 -15  202.68   17.00
   2  -1  15  228.48   17.80
  -3   1 -15    4.20    2.80
   3  -1  15    3.50    3.00
  -4   1 -15   91.29   10.70
   4  -1  15   91.59   10.60
   4   0 -15   21.30    4.50
   3   0 -15   64.09    6.40
   2   0 -15   17.60    3.50
   1   0 -15   44.10    4.40
  -1   0  15   44.20    4.80
   0   0 -15    3.70    2.00
   0   0 -15    1.90    1.20
   0   0  15    0.70    1.40
  -1   0 -15    4.90    2.20
  -1   0 -15    7.20    1.70
   1   0  15    6.80    2.20
  -2   0 -15   45.80    6.00
  -2   0 -15   47.20    4.10
   2   0  15   49.50    6.40
  -3   0 -15  142.19   12.60
   3   0  15  130.89   12.90
  -4   0 -15    3.00    2.40
   4   0  15    4.40    2.80
  -5   0 -15   88.59   10.60
  -5   0 -15   77.79    8.60
   5   0  15   79.09   10.10
   4  -1 -15   68.59    6.90
   3  -1 -15    4.50    2.30
   2  -1 -15  193.78   14.20
  -2   1  15  204.78   14.30
   1  -1 -15    3.50    1.50
  -1   1  15    4.30    1.80
   0  -1 -15  243.88   16.30
   0  -1 -15  253.67   16.90
   0   1  15  231.68   17.30
  -1  -1 -15   66.29    5.60
  -1  -1 -15   67.09    6.40
   1   1  15   61.49    6.70
  -2  -1 -15    0.50    1.30
  -2  -1 -15    0.40    0.90
   2   1  15    0.40    1.40
  -3  -1 -15   53.19    6.60
   3   1  15   59.69    7.40
  -4  -1 -15    3.80    2.90
  -4  -1 -15    5.60    3.10
   4   1  15    6.40    3.80
  -5  -1 -15   52.69    8.20
  -5  -1 -15   59.99    7.30
   5   1  15   68.89   11.30
   4  -2 -15    3.10    2.40
   3  -2 -15   14.40    3.40
   2  -2 -15   56.79    5.50
  -2   2  15   53.09    5.30
   1  -2 -15  116.19    9.00
  -1   2  15  116.79    9.30
   0  -2 -15   91.19    7.30
   0   2  15   86.99    7.90
  -1  -2 -15  170.78   11.60
  -1  -2 -15  152.18   11.00
   1   2  15  140.59   12.20
  -2  -2 -15   12.00    3.20
   2   2  15   16.00    4.40
  -3  -2 -15    3.30    2.30
  -3  -2 -15    3.10    2.30
   3   2  15    3.60    2.70
  -4  -2 -15  246.48   18.00
  -4  -2 -15  233.28   18.40
   4   2  15  220.98   18.80
  -5  -2 -15   16.00    4.70
  -5  -2 -15   16.20    5.10
   5   2  15   25.90    6.70
   4  -3 -15   18.60    4.30
   3  -3 -15    8.90    2.80
  -3   3  15    3.90    3.20
   2  -3 -15   14.80    3.30
  -2   3  15   14.90    3.40
   1  -3 -15  357.56   23.30
  -1   3  15  346.77   23.60
   0  -3 -15   15.70    3.20
   0   3  15   26.90    4.80
  -1  -3 -15  176.58   12.80
   1   3  15  191.78   14.30
  -2  -3 -15    9.40    3.00
   2   3  15   16.60    3.40
  -3  -3 -15   52.19    6.10
   3   3  15   48.20    6.20
  -4  -3 -15   10.00    3.40
   4   3  15   21.00    5.40
  -5  -3 -15    0.40    2.30
   5   3  15    2.10    3.10
   3  -4 -15   17.60    4.10
  -3   4  15   14.00    3.60
   2  -4 -15   37.60    4.40
  -2   4  15   34.00    4.70
   1  -4 -15    8.70    2.70
  -1   4  15   12.40    3.40
   0  -4 -15   38.00    4.30
   0  -4 -15   34.60    4.30
   0   4  15   49.90    5.30
  -1  -4 -15    8.10    2.90
  -1  -4 -15    7.00    2.20
   1   4  15    9.40    3.30
  -2  -4 -15   52.79    6.30
   2   4  15   70.69    7.10
  -3  -4 -15   20.60    4.80
   3   4  15   18.10    5.00
  -4  -4 -15  150.48   12.80
   4   4  15  144.89   13.10
  -5  -4 -15    1.80    2.70
   5   4  15    9.70    3.60
   2  -5 -15   13.80    3.40
  -2   5  15    8.80    3.10
   1  -5 -15   35.10    4.30
  -1   5  15   40.40    5.30
   0  -5 -15    7.60    2.40
   0   5  15    6.90    2.80
  -1  -5 -15   15.20    3.40
   1   5  15   11.30    3.50
  -2  -5 -15   10.70    3.30
   2   5  15   17.80    4.70
  -3  -5 -15   20.40    4.90
   3   5  15   19.50    5.20
  -4  -5 -15    0.90    2.50
   4   5  15    3.60    3.00
  -5  -5 -15   22.50    5.70
   5   5  15   35.20    7.40
   2  -6 -15   43.80    6.30
  -2   6  15   41.30    7.00
  -1   6  15   12.60    3.60
   0   6  15   59.99    6.80
   1   6  15   38.10    5.40
  -2  -6 -15    3.30    2.60
   2   6  15    3.20    2.50
  -3  -6 -15   13.80    4.60
   3   6  15   20.90    5.20
  -4  -6 -15   16.80    4.80
   4   6  15   15.50    5.00
  -5  -6 -15    0.70    2.40
   5   6  15    5.40    3.60
   0   7  15   49.50    6.60
   1   7  15   16.80    4.80
  -2  -7 -15    6.30    3.20
   2   7  15    1.80    2.50
  -3  -7 -15    7.40    3.40
   3   7  15    5.40    3.30
  -4  -7 -15  100.89   10.50
   4   7  15  102.69   10.50
   1   8  15   22.60    5.30
   2   8  15    0.60    2.80
  -3  -8 -15   23.30    5.70
   3   8  15   18.80    5.60
   3   5 -16    3.60    2.50
   2   5 -16   66.39    6.60
   1   5 -16    0.70    2.20
   0   5 -16   79.69   10.20
  -1   5 -16   31.70    8.10
   3   4 -16   14.00    3.80
   2   4 -16    0.00    1.50
   1   4 -16   70.29    5.90
   1   4 -16   50.39    7.20
   0   4 -16   80.19    9.40
  -1   4 -16   95.89   11.20
  -2   4 -16   79.49   10.70
   4   3 -16   83.79    8.50
   3   3 -16   35.10    5.80
   2   3 -16   20.60    4.00
   1   3 -16   27.40    4.30
   0   3 -16    1.90    2.10
   0   3 -16    0.70    1.20
   0  -3  16    4.10    2.40
  -1   3 -16   26.10    6.30
   1  -3  16   23.40    5.90
  -2   3 -16    8.10    3.90
  -3   3 -16  127.49   13.80
   4   2 -16   82.09    8.10
   3   2 -16   72.79    7.00
   2   2 -16   83.49    7.40
   1   2 -16   36.50    4.10
   0   2 -16   64.89    5.60
   0   2 -16   63.39    7.30
   0  -2  16   67.39    7.50
  -1   2 -16    6.60    3.20
   1  -2  16   10.80    4.00
  -2   2 -16   12.90    4.60
   2  -2  16   27.60    6.20
  -3   2 -16    3.50    3.00
   3  -2  16    5.30    3.70
  -4   2 -16   12.30    5.00
   4   1 -16    2.70    2.20
   3   1 -16   50.89    5.60
   2   1 -16    6.20    2.30
   1   1 -16  130.59    9.80
  -1  -1  16  127.39   10.70
   0   1 -16   13.40    2.70
   0   1 -16   13.30    3.90
   0  -1  16   11.50    3.60
  -1   1 -16    4.00    2.50
  -1   1 -16    3.60    1.60
   1  -1  16    4.00    2.70
  -2   1 -16   47.90    6.60
   2  -1  16   55.19    9.30
  -3   1 -16    6.50    3.10
   3  -1  16   12.90    4.30
  -4   1 -16    2.90    3.00
   4  -1  16    3.30    2.90
   4   0 -16   64.99    8.80
   3   0 -16   10.70    3.30
   2   0 -16   15.50    3.30
   1   0 -16    0.10    1.00
  -1   0  16    0.20    1.20
   0   0 -16  136.89   11.30
   0   0 -16  136.59   10.10
   0   0  16  152.18   11.70
  -1   0 -16    3.60    2.20
  -1   0 -16    5.40    1.80
   1   0  16    3.20    2.40
  -2   0 -16  114.69    8.20
  -2   0 -16  122.89   10.80
   2   0  16  102.19   10.70
  -3   0 -16   35.70    5.70
   3   0  16   67.69   10.70
  -4   0 -16   18.60    5.70
   4   0  16   34.60    8.10
  -5   0 -16   39.70    7.60
  -5   0 -16   31.10    7.80
   5   0  16   37.20    9.00
   4  -1 -16   59.69    6.60
   3  -1 -16   48.90    6.80
   2  -1 -16   38.40    4.40
   1  -1 -16   -0.10    0.90
  -1   1  16    0.60    1.40
   0  -1 -16    7.90    2.60
   0  -1 -16    6.60    2.10
   0   1  16    9.20    3.20
  -1  -1 -16    5.10    1.80
  -1  -1 -16    4.50    2.20
   1   1  16    8.10    3.30
  -2  -1 -16   66.29    5.40
  -2  -1 -16   70.99    7.10
   2   1  16   50.99    6.70
  -3  -1 -16   35.40    5.40
   3   1  16   38.10    7.70
  -4  -1 -16  121.09   12.00
  -4  -1 -16  120.69   11.00
   4   1  16  121.69   12.60
  -5  -1 -16   12.70    4.40
  -5  -1 -16    7.30    3.70
   5   1  16   21.30    5.80
   4  -2 -16   69.59    7.30
   3  -2 -16   38.60    6.00
   2  -2 -16   29.10    4.80
  -2   2  16   29.20    4.70
   1  -2 -16   35.50    4.00
  -1   2  16   30.00    4.00
   0  -2 -16   14.30    3.10
   0   2  16   15.60    3.70
  -1  -2 -16  112.79    8.60
   1   2  16  116.59   10.00
   2   2  16    6.10    3.00
   3   2  16   57.59    7.20
  -4  -2 -16    3.10    2.60
   4   2  16    2.40    2.40
  -5  -2 -16   19.60    5.30
   5   2  16   28.30    7.20
   3  -3 -16   14.90    3.40
   2  -3 -16   39.90    5.80
  -2   3  16   24.80    4.60
   1  -3 -16   24.40    4.00
  -1   3  16   19.80    4.00
   0  -3 -16  490.85   31.40
   0   3  16  491.15   32.40
  -1  -3 -16    8.10    2.40
   1   3  16    6.30    2.70
  -2  -3 -16  121.69   10.60
   2   3  16  129.19   11.10
  -3  -3 -16   10.90    3.90
   3   3  16   19.00    4.80
  -4  -3 -16   40.20    7.20
   4   3  16   48.60    8.80
  -5  -3 -16    0.60    2.40
   5   3  16    1.10    2.60
   3  -4 -16   14.00    3.60
  -3   4  16   12.00    5.30
   2  -4 -16    0.60    1.40
  -2   4  16    2.30    2.00
   1  -4 -16   56.79    6.00
  -1   4  16   74.29    7.00
   0  -4 -16   34.10    5.30
   0  -4 -16   26.80    4.40
   0   4  16   28.80    5.40
  -1  -4 -16   45.70    5.40
  -1  -4 -16   44.90    4.70
   1   4  16   42.60    5.40
  -2  -4 -16   73.89    7.90
   2   4  16   93.39    8.80
  -3  -4 -16   43.50    7.20
   3   4  16   37.60    7.30
  -4  -4 -16  180.18   14.80
   4   4  16  173.48   15.10
  -5  -4 -16   -1.00    2.40
   5   4  16    1.00    2.50
   2  -5 -16   59.19    6.30
  -2   5  16   62.09    7.00
   1  -5 -16   23.40    4.20
  -1   5  16   28.60    5.40
   0  -5 -16   39.60    4.70
   0   5  16   52.39    5.90
  -1  -5 -16    0.40    1.60
   1   5  16    0.70    2.00
  -2  -5 -16   54.79    7.80
   2   5  16   44.40    7.50
  -3  -5 -16    7.60    3.30
   3   5  16   17.80    4.40
  -4  -5 -16   62.29    9.40
   4   5  16   49.10    7.00
  -5  -5 -16   14.90    4.60
   5   5  16   16.60    5.60
  -1   6  16    2.70    2.50
   0   6  16   42.70    6.00
   1   6  16    7.50    3.30
  -2  -6 -16   27.80    5.70
   2   6  16   27.80    5.90
  -3  -6 -16   22.90    5.50
   3   6  16   45.10    7.50
  -4  -6 -16   89.29    9.60
   4   6  16   82.29    9.60
   0   7  16    9.90    3.60
   1   7  16  117.69   10.90
  -2  -7 -16   -0.10    1.90
   2   7  16   -0.60    1.90
  -3  -7 -16    2.20    2.50
   3   7  16   -0.20    2.60
  -4  -7 -16    7.70    4.20
   4   7  16   11.80    4.50
   1   5 -17   59.59    8.40
   0   5 -17   20.00    6.10
   3   4 -17   44.40    6.70
   2   4 -17   25.10    4.20
   1   4 -17   35.80    4.30
   1   4 -17   40.70    6.30
   0   4 -17   32.00    7.20
  -1   4 -17  180.68   17.00
   3   3 -17    0.90    2.30
   2   3 -17    2.80    1.90
   1   3 -17    0.80    1.20
   0   3 -17   78.49    9.00
  -1   3 -17    0.60    2.60
   1  -3  17    3.30    3.20
  -2   3 -17   31.60    7.80
   4   2 -17    0.10    2.00
   3   2 -17   38.90    6.00
   2   2 -17    1.00    1.60
   1   2 -17   46.40    4.90
   0   2 -17    7.90    2.20
   0   2 -17    9.80    3.60
   0  -2  17    8.50    3.40
  -1   2 -17   59.79    7.70
   1  -2  17   52.59    7.20
  -2   2 -17    1.70    2.60
   2  -2  17   -0.40    2.30
  -3   2 -17   80.09    9.90
   3  -2  17   71.19    9.60
   4   1 -17  145.69   12.30
   3   1 -17   23.00    4.80
   2   1 -17  117.59    9.60
   1   1 -17   20.80    3.70
   0   1 -17   68.29    5.80
   0   1 -17   53.99    6.90
   0  -1  17   82.09    7.70
  -1   1 -17    1.20    1.40
  -1   1 -17    0.00    1.70
   1  -1  17    0.70    2.10
  -2   1 -17   14.40    4.60
   2  -1  17   14.50    4.90
  -3   1 -17    4.80    3.10
   3  -1  17    8.50    3.90
  -4   1 -17   11.60    4.80
   4  -1  17   20.00    6.40
   4   0 -17   70.99    7.70
   3   0 -17    0.10    1.60
   2   0 -17   53.79    5.60
   1   0 -17   29.10    4.40
  -1   0  17   23.30    4.60
   0   0 -17  181.08   12.60
   0   0 -17  169.18   13.70
   0   0  17  184.38   14.10
  -1   0 -17    3.40    1.60
  -1   0 -17    3.60    2.30
   1   0  17    3.80    2.20
  -2   0 -17   27.40    6.10
   2   0  17   24.40    6.10
  -3   0 -17    2.70    2.40
   3   0  17    1.00    2.60
  -4   0 -17    3.80    2.80
   4   0  17    6.70    3.40
   4  -1 -17    3.30    2.40
   3  -1 -17   19.70    4.40
   2  -1 -17   10.00    2.70
   1  -1 -17    1.90    1.50
  -1   1  17    0.20    1.50
   0  -1 -17    6.40    2.10
   0  -1 -17    2.40    1.70
   0   1  17    6.20    2.50
  -1  -1 -17   67.79    6.00
   1   1  17   77.89    7.80
  -2  -1 -17   24.00    5.10
  -2  -1 -17   20.70    3.30
   2   1  17   18.40    5.30
  -3  -1 -17   87.79    9.00
   3   1  17   82.89    9.60
  -4  -1 -17    4.20    3.20
   4   1  17   11.90    4.50
  -5  -1 -17   71.99    9.70
  -5  -1 -17   75.19    8.70
   5   1  17   72.79   10.00
   3  -2 -17    7.00    2.90
   2  -2 -17   33.70    4.30
  -2   2  17   34.10    5.80
   1  -2 -17   23.90    4.20
  -1   2  17   19.40    4.30
   0  -2 -17   91.89    7.50
   0   2  17   85.69    8.10
  -1  -2 -17   35.50    4.00
  -2  -2 -17   11.90    2.70
   2   2  17   14.60    4.50
   3   2  17   52.59    7.10
  -4  -2 -17   88.59    9.40
   4   2  17   91.09   10.40
  -5  -2 -17   23.00    5.40
   5   2  17   25.60    6.40
   3  -3 -17   97.09    8.90
   2  -3 -17    5.20    2.30
  -2   3  17    4.10    2.10
   1  -3 -17  110.09    8.90
  -1   3  17  100.39    9.00
   0  -3 -17    5.90    2.10
   0   3  17    5.20    2.60
  -1  -3 -17  125.39   10.00
   1   3  17  144.99   11.50
  -2  -3 -17   29.20    5.50
   2   3  17   49.70    6.30
  -3  -3 -17    5.10    3.00
   3   3  17    5.80    3.20
  -4  -3 -17   42.40    7.40
   4   3  17   47.50    8.90
  -5  -3 -17   -1.90    1.70
   5   3  17    0.60    2.60
   2  -4 -17   37.00    4.70
  -2   4  17   43.00    5.40
   1  -4 -17   44.20    5.00
  -1   4  17   40.50    5.10
   0  -4 -17   48.20    5.00
   0   4  17   36.60    5.00
  -1  -4 -17   99.39    9.40
  -1  -4 -17  115.49    9.00
   1   4  17  115.59   10.10
  -2  -4 -17   75.39    7.80
   2   4  17   75.59    8.00
  -3  -4 -17    2.00    2.10
   3   4  17    0.30    2.00
  -4  -4 -17    3.10    3.10
   4   4  17    9.80    4.20
  -5  -4 -17  104.49   10.70
   5   4  17  104.09   11.70
   2  -5 -17   25.40    4.60
  -2   5  17   33.00    5.70
   1  -5 -17   23.20    4.40
  -1   5  17   31.80    5.90
   0  -5 -17  224.78   15.90
   0   5  17  215.78   16.70
  -1  -5 -17    3.30    2.20
   1   5  17    1.90    2.30
  -2  -5 -17  174.38   14.10
   2   5  17  175.08   14.60
  -3  -5 -17    1.60    2.20
   3   5  17    5.00    3.20
  -4  -5 -17   20.10    5.60
   4   5  17   33.70    7.20
  -5  -5 -17    2.10    2.80
  -1   6  17   16.00    4.50
   0   6  17    6.20    3.30
   1   6  17    3.30    2.60
  -2  -6 -17   19.60    4.20
  -3  -6 -17   41.00    7.30
   3   6  17   38.40    7.50
  -4  -6 -17   22.70    5.70
   4   6  17   24.00    5.90
   1   7  17    6.50    3.10
   2   7  17    0.70    2.60
  -3  -7 -17   17.80    4.70
   3   7  17   11.50    4.20
   2   4 -18   87.99    8.00
   1   4 -18    2.70    2.40
   0   4 -18   88.39   10.50
  -1   4 -18    0.80    2.90
   3   3 -18   25.60    5.30
   2   3 -18    7.30    2.80
   1   3 -18  155.98   11.20
   1   3 -18  136.99   13.10
   0   3 -18    1.40    2.40
  -1   3 -18   95.29   10.80
   1  -3  18   90.59   10.20
  -2   3 -18   37.90    8.40
   3   2 -18    0.90    2.00
   2   2 -18    3.40    2.00
   1   2 -18    8.20    2.50
   0   2 -18   67.79    7.90
   0   2 -18   60.89    5.70
  -1   2 -18  126.29   12.40
   1  -2  18  126.39   12.20
  -2   2 -18  109.89   11.60
   2  -2  18   94.79   11.00
  -3   2 -18  106.99   11.80
   3  -2  18   82.19   10.70
   3   1 -18   46.70    5.70
   2   1 -18   27.50    4.90
   1   1 -18   12.70    3.20
   0   1 -18    9.90    3.50
   0   1 -18    8.90    2.30
   0  -1  18   11.20    3.60
  -1   1 -18    1.00    1.40
  -1   1 -18    0.60    2.00
   1  -1  18    1.70    2.60
  -2   1 -18   45.60    8.60
   2  -1  18   65.49   10.60
  -3   1 -18   18.10    5.70
   3  -1  18   20.40    6.30
   3   0 -18   98.59    8.90
   2   0 -18   50.59    5.60
   1   0 -18   76.39    6.80
   0   0 -18    5.20    2.70
   0   0 -18    4.70    2.00
   0   0  18    8.70    3.20
  -1   0 -18   42.40    4.50
   1   0  18   43.10    6.00
  -2   0 -18    5.60    2.90
   2   0  18    5.20    3.00
  -3   0 -18    1.80    2.80
   3   0  18    0.00    2.00
  -4   0 -18    9.60    3.90
   4   0  18   13.00    4.10
   3  -1 -18    5.90    2.60
   2  -1 -18   59.99    6.10
   1  -1 -18    3.60    1.80
  -1   1  18    2.30    2.10
   0  -1 -18  141.59   10.70
   0   1  18  142.99   12.00
  -1  -1 -18   19.60    3.50
   1   1  18   16.20    4.50
   3   1  18   26.60    6.60
   4   1  18    3.30    3.20
   3  -2 -18   24.40    4.80
   2  -2 -18    2.10    2.10
   1  -2 -18   32.50    4.90
  -1   2  18   32.60    4.50
   0  -2 -18    2.50    1.90
   0   2  18    6.50    2.70
  -1  -2 -18   83.59    6.90
   1   2  18   71.99    7.80
  -2  -2 -18   34.30    4.00
   2   2  18   52.49    8.30
   3   2  18   85.89    9.50
  -4  -2 -18   10.40    4.20
   4   2  18   13.10    5.20
   3  -3 -18   50.69    6.00
   2  -3 -18   22.70    4.70
  -2   3  18   17.50    4.20
   1  -3 -18   14.50    3.30
  -1   3  18   20.10    4.30
   0  -3 -18    2.40    1.80
   0   3  18    2.00    1.80
  -1  -3 -18    3.40    1.80
   1   3  18    3.70    2.30
  -2  -3 -18    3.40    2.70
   2   3  18    0.10    1.80
  -3  -3 -18  109.89   10.70
   3   3  18  125.29   11.60
  -4  -3 -18   34.40    6.80
   4   3  18   25.00    6.60
   2  -4 -18   47.10    5.70
  -2   4  18   55.09    6.30
  -1   4  18   44.70    5.70
   0  -4 -18    9.90    2.70
   0   4  18   14.40    3.70
  -1  -4 -18    5.50    2.70
  -1  -4 -18    5.90    2.30
   1   4  18    5.50    3.00
  -2  -4 -18   46.50    6.10
   2   4  18   58.59    7.20
  -3  -4 -18    5.80    2.90
   3   4  18    9.50    3.40
  -4  -4 -18   59.39    9.10
   4   4  18   54.49    7.80
   1  -5 -18   42.80    6.20
  -1   5  18   39.20    5.40
   0  -5 -18    8.70    2.80
   0   5  18    7.80    3.40
  -1  -5 -18  322.67   22.10
   1   5  18  298.07   22.60
  -2  -5 -18   12.30    4.00
   2   5  18   22.40    5.40
  -3  -5 -18   49.20    8.10
   3   5  18   56.59    9.10
  -4  -5 -18    7.90    3.50
   4   5  18    5.80    3.20
   0   6  18   70.89    8.00
   1   6  18   25.40    5.50
  -2  -6 -18   50.79    8.20
   2   6  18   47.10    8.20
  -3  -6 -18   43.10    7.90
   3   6  18   48.00    8.50
  -4  -6 -18    9.20    3.90
   2   7  18    0.60    2.30
   2   3 -19   66.59    6.80
   1   3 -19   39.50    4.70
   1   3 -19   41.60    7.70
   0   3 -19   63.79    8.30
  -1   3 -19   18.00    5.90
   3   2 -19   26.00    4.50
   2   2 -19   82.09    7.60
   1   2 -19   14.20    3.20
   1   2 -19   18.20    4.90
   0   2 -19   68.29    8.30
   0   2 -19   71.09    6.30
  -1   2 -19   34.90    7.60
   1  -2  19   43.20    8.20
  -2   2 -19  169.78   16.10
   2  -2  19  168.08   15.60
   3   1 -19    0.50    1.90
   2   1 -19   11.40    3.30
   1   1 -19   27.40    4.60
   0   1 -19    0.40    1.20
   0   1 -19   -0.10    1.60
   0  -1  19    3.30    2.50
  -1   1 -19  144.09   13.40
   1  -1  19  148.29   13.60
  -2   1 -19   11.70    4.60
   2  -1  19   19.50    5.90
  -3   1 -19   63.69    9.20
   3  -1  19   87.39   10.30
   3   0 -19   36.50    5.60
   2   0 -19   44.10    5.20
   1   0 -19    4.70    1.80
   0   0 -19    1.00    1.90
   0   0 -19    1.20    1.70
   0   0  19    1.40    2.10
  -1   0 -19   18.20    4.90
  -1   0 -19   23.10    4.00
   1   0  19   17.50    5.30
  -2   0 -19   88.59    9.50
   2   0  19   77.09    9.20
  -3   0 -19   28.70    6.70
   3  -1 -19  160.38   12.90
   2  -1 -19   27.80    4.90
   1  -1 -19  110.49    8.70
  -1   1  19   91.29   11.80
   0  -1 -19   20.00    3.80
   0   1  19   20.40    4.80
  -1  -1 -19   11.80    2.90
   1   1  19    9.90    3.80
  -2  -1 -19    0.80    1.30
   2   1  19    5.10    2.80
   3   1  19    6.10    4.10
   4   1  19   84.89   10.70
   3  -2 -19   70.19    7.30
   2  -2 -19   47.90    5.70
   1  -2 -19   97.89    8.40
  -1   2  19   95.89    8.80
   0  -2 -19   23.60    4.30
   0   2  19   29.20    5.30
  -1  -2 -19  110.89    8.50
   1   2  19   95.09    9.80
  -2  -2 -19    1.30    1.40
   2   2  19    0.90    1.80
   3   2  19   17.00    5.50
  -4  -2 -19   -1.00    2.20
   4   2  19    1.20    2.20
   2  -3 -19    4.90    2.60
   1  -3 -19    5.80    2.50
  -1   3  19    4.50    2.50
   0  -3 -19   39.20    4.70
   0   3  19   40.10    5.40
  -1  -3 -19    3.30    1.90
   1   3  19    4.20    3.10
  -2  -3 -19    2.50    2.70
   2   3  19    1.40    2.30
  -3  -3 -19   16.30    5.20
   3   3  19   26.20    6.40
  -4  -3 -19   60.19    9.30
   4   3  19   57.09    8.10
   2  -4 -19    4.60    2.30
  -2   4  19   11.00    4.00
   0  -4 -19   42.60    5.20
   0   4  19   56.19    6.60
  -1  -4 -19  106.29    9.70
  -1  -4 -19  102.49    8.80
   1   4  19  107.19   10.20
  -2  -4 -19    1.20    2.00
   2   4  19    2.10    2.60
  -3  -4 -19   14.80    4.70
   3   4  19   21.80    5.80
  -4  -4 -19   41.00    7.80
   4   4  19   54.19    9.30
  -1   5  19   18.10    4.80
   0  -5 -19   48.40    5.70
   0   5  19   60.49    7.10
   1   5  19   15.10    4.00
  -2  -5 -19   63.19    7.40
   2   5  19   55.19    7.20
  -3  -5 -19    3.30    2.90
   3   5  19    4.20    3.20
  -4  -5 -19   15.40    5.00
   4   5  19   12.70    4.90
   1   6  19   17.70    4.90
  -2  -6 -19   64.19    7.70
   2   6  19   64.19    8.10
  -3  -6 -19   44.90    8.30
   3   6  19   31.80    7.10
   1   3 -20   43.20    8.20
   1   3 -20   35.80    5.50
   0   3 -20   49.40    7.50
   2   2 -20   33.60    5.40
   1   2 -20   88.59    7.90
   1   2 -20   91.09    9.90
   0   2 -20    1.60    2.40
  -1   2 -20   65.49    8.70
   1  -2  20   45.50    8.80
   2   1 -20   90.79    8.30
   1   1 -20    0.20    1.20
   0   1 -20  139.09   10.70
   0   1 -20  143.29   12.90
  -1   1 -20    3.80    3.30
   1  -1  20    8.00    4.00
  -2   1 -20   51.29    8.00
   2  -1  20   68.19    8.80
   2   0 -20    3.90    2.30
   0   0 -20   26.60    4.40
   0   0  20   22.90    5.20
  -1   0 -20   72.69    6.30
   1   0  20   59.39    7.90
   2   0  20   98.69   10.90
   3   0  20   72.69    9.60
   2  -1 -20   43.60    5.30
   1  -1 -20    8.30    2.70
   0  -1 -20    4.70    2.10
   0   1  20    3.90    2.50
  -1  -1 -20    7.70    2.60
   1   1  20   12.50    4.40
   2   1  20    2.00    2.40
   3   1  20   37.90    8.30
   2  -2 -20  138.79   11.50
   1  -2 -20   27.20    4.80
  -1   2  20   27.50    5.60
   0  -2 -20   52.49    5.50
   0   2  20   53.19    6.60
  -1  -2 -20    2.00    1.70
   1   2  20   -0.50    1.50
   2   2  20    2.80    2.70
   3   2  20    0.00    2.80
   2  -3 -20    1.00    1.90
   1  -3 -20   73.29    7.10
  -1   3  20   71.39    7.70
   0  -3 -20    4.70    2.20
   0   3  20    4.70    2.60
  -1  -3 -20  101.99    9.00
   1   3  20  125.49   11.00
  -2  -3 -20    6.30    3.70
   2   3  20   10.30    4.30
  -3  -3 -20   -2.50    2.40
   3   3  20    2.90    2.90
  -4  -3 -20   14.00    4.70
   1  -4 -20   -1.00    1.50
  -1   4  20    1.10    2.30
   0  -4 -20    5.60    2.20
   0   4  20    7.40    3.00
  -1  -4 -20   27.80    4.80
  -1  -4 -20   29.10    5.90
   1   4  20   25.70    5.80
  -2  -4 -20   57.89    8.80
   2   4  20   52.49    9.10
  -3  -4 -20    0.90    2.70
   3   4  20    0.20    2.50
   0  -5 -20    1.90    1.70
   0   5  20    4.70    2.80
   1   5  20    3.60    2.70
  -2  -5 -20   27.50    5.90
   2   5  20   52.89    8.80
  -3  -5 -20   -0.70    2.00
   3   5  20   -0.50    2.50
   1   2 -21   24.60    4.60
   1   2 -21   20.90    5.80
   0   2 -21   17.50    5.50
   1   1 -21  102.29    8.60
   1   1 -21   96.59   10.40
   0   1 -21   56.89    7.40
   0   1 -21   50.49    5.50
  -1   1 -21   35.00    7.70
   1  -1  21   31.90    7.40
  -2   1 -21    6.50    3.90
   2  -1  21    6.50    4.00
   2   0 -21    7.00    2.90
   1   0 -21  109.79    9.30
   0   0 -21   29.20    4.70
  -1   0 -21   70.89    7.20
   1   0  21   83.89    9.40
   2   0  21   16.60    5.90
   2  -1 -21    1.00    2.00
   1  -1 -21    9.30    2.90
   0  -1 -21   84.69    7.50
   0   1  21   76.79    8.50
  -1  -1 -21    1.20    1.60
   1   1  21    0.40    2.40
   2   1  21  146.29   14.00
   3   1  21    8.20    4.20
   1  -2 -21   21.80    4.20
   0  -2 -21    0.80    1.60
   0   2  21    0.30    1.70
  -1  -2 -21    3.90    1.90
   1   2  21    5.90    3.10
   2   2  21   66.19    8.50
   3   2  21   71.39    9.30
   1  -3 -21   16.70    3.80
  -1   3  21   14.60    4.10
   0  -3 -21   64.09    6.70
   0   3  21   72.19    8.00
  -1  -3 -21   10.20    3.10
   1   3  21   18.20    4.70
  -2  -3 -21    1.90    2.60
   2   3  21   -0.40    2.30
  -3  -3 -21   11.10    4.50
   3   3  21   13.60    5.00
   0  -4 -21   74.19    7.10
   0   4  21   70.09    8.20
  -1  -4 -21   12.50    3.30
  -1  -4 -21   13.80    4.40
   1   4  21   15.80    4.90
  -2  -4 -21   59.99    9.30
   2   4  21   70.89    8.50
  -3  -4 -21    1.60    2.40
   3   4  21    2.00    2.80
   1   5  21   24.10    5.30
  -2  -5 -21   10.80    4.30
   1   0 -22    0.30    1.60
   0   0 -22   89.39    8.00
   1   0  22    3.00    3.40
   1  -1 -22   41.50    5.10
   0  -1 -22    6.30    2.10
  -1  -1 -22  144.59   11.10
   1   1  22  129.99   13.00
   2   1  22    3.70    3.30
   1  -2 -22    7.10    3.00
   0  -2 -22    3.50    2.30
   0   2  22    4.40    2.70
  -1  -2 -22   46.50    5.40
   1   2  22   60.29    7.30
   2   2  22   55.99    8.00
   0  -3 -22   16.60    3.70
   0   3  22   24.80    5.60
  -1  -3 -22    0.80    1.60
   1   3  22    3.40    2.70
  -2  -3 -22    7.60    3.90
   2   3  22   18.20    4.60
   0   0   0    0.00    0.00

_computing_structure_solution     'SHELXT 2014/5 (Sheldrick, 2014)'
;
_shelx_hkl_checksum              49013
_olex2_submission_special_instructions 'No special instructions were received'
loop_
_space_group_symop_operation_xyz
'x, y, z'
'-x, -y, -z'
loop_
_atom_site_label
_atom_site_type_symbol
_atom_site_fract_x
_atom_site_fract_y
_atom_site_fract_z
_atom_site_U_iso_or_equiv
_atom_site_adp_type
_atom_site_occupancy
_atom_site_site_symmetry_order
_atom_site_calc_flag
_atom_site_refinement_flags_posn
_atom_site_refinement_flags_adp
_atom_site_refinement_flags_occupancy
_atom_site_disorder_assembly
_atom_site_disorder_group
S1 S 0.2872(3) 0.5714(2) 0.79989(9) 0.0087(5) Uani 1 1 d . . . . .
S2 S 0.1868(3) 0.8163(2) 0.56501(9) 0.0097(5) Uani 1 1 d . . . . .
N1 N 0.1998(12) 0.4489(8) 0.9521(3) 0.0103(13) Uani 1 1 d . . . . .
C3 C -0.0078(14) 0.5743(10) 0.9273(4) 0.0088(15) Uani 1 1 d . . . . .
C8 C 0.3193(14) 0.6955(10) 0.6476(4) 0.0094(15) Uani 1 1 d . . . . .
C13 C 0.7109(14) 0.7508(10) 0.3896(4) 0.0114(15) Uani 1 1 d . . . . .
H13A H 0.7601 0.6142 0.3938 0.014 Uiso 1 1 calc R U . . .
H13B H 0.8374 0.7851 0.4122 0.014 Uiso 1 1 calc R U . . .
C11 C 0.4625(14) 0.7495(10) 0.5135(4) 0.0096(15) Uani 1 1 d . . . . .
C6 C -0.0740(14) 0.7873(10) 0.7255(4) 0.0113(15) Uani 1 1 d . . . . .
H6 H -0.1705 0.8620 0.6856 0.014 Uiso 1 1 calc R U . . .
C16 C 0.8902(13) 0.8755(10) 0.1789(4) 0.0103(15) Uani 1 1 d . . . . .
H16A H 0.8290 1.0112 0.1787 0.012 Uiso 1 1 calc R U . . .
H16B H 0.7627 0.8383 0.1582 0.012 Uiso 1 1 calc R U . . .
C5 C -0.1705(14) 0.7598(10) 0.7996(4) 0.0118(15) Uani 1 1 d . . . . .
H5 H -0.3362 0.8142 0.8150 0.014 Uiso 1 1 calc R U . . .
C10 C 0.6408(14) 0.6393(10) 0.5581(4) 0.0114(15) Uani 1 1 d . . . . .
H10 H 0.8041 0.5865 0.5402 0.014 Uiso 1 1 calc R U . . .
C12 C 0.4647(14) 0.8214(10) 0.4313(4) 0.0119(15) Uani 1 1 d . . . . .
H12A H 0.4158 0.9583 0.4251 0.014 Uiso 1 1 calc R U . . .
H12B H 0.3406 0.7863 0.4078 0.014 Uiso 1 1 calc R U . . .
C2 C 0.2128(14) 0.3733(10) 1.0239(4) 0.0100(15) Uani 1 1 d . . . . .
C15 C 0.9272(13) 0.7824(10) 0.2589(4) 0.0105(15) Uani 1 1 d . . . . .
H15A H 1.0546 0.8186 0.2801 0.013 Uiso 1 1 calc R U . . .
H15B H 0.9851 0.6464 0.2598 0.013 Uiso 1 1 calc R U . . .
C1 C 0.4534(15) 0.2331(11) 1.0460(4) 0.0156(16) Uani 1 1 d . . . . .
H1A H 0.5635 0.2132 1.0015 0.023 Uiso 1 1 calc R U . . .
H1B H 0.4259 0.1160 1.0684 0.023 Uiso 1 1 calc R U . . .
H1C H 0.5273 0.2789 1.0823 0.023 Uiso 1 1 calc R U . . .
C17 C 1.1194(15) 0.8296(11) 0.1284(4) 0.0176(17) Uani 1 1 d . . . . .
H17A H 1.0779 0.8824 0.0766 0.026 Uiso 1 1 calc R U . . .
H17B H 1.1900 0.6949 0.1317 0.026 Uiso 1 1 calc R U . . .
H17C H 1.2385 0.8818 0.1441 0.026 Uiso 1 1 calc R U . . .
C14 C 0.6904(14) 0.8360(10) 0.3069(4) 0.0120(15) Uani 1 1 d . . . . .
H14A H 0.5651 0.7985 0.2852 0.014 Uiso 1 1 calc R U . . .
H14B H 0.6318 0.9724 0.3041 0.014 Uiso 1 1 calc R U . . .
C9 C 0.5625(15) 0.6088(10) 0.6348(4) 0.0120(15) Uani 1 1 d . . . . .
H9 H 0.6684 0.5359 0.6729 0.014 Uiso 1 1 calc R U . . .
C4 C 0.0061(14) 0.6440(10) 0.8468(4) 0.0090(15) Uani 1 1 d . . . . .
C7 C 0.1719(14) 0.6962(10) 0.7163(4) 0.0099(15) Uani 1 1 d . . . . .
loop_
_atom_site_aniso_label
_atom_site_aniso_U_11
_atom_site_aniso_U_22
_atom_site_aniso_U_33
_atom_site_aniso_U_23
_atom_site_aniso_U_13
_atom_site_aniso_U_12
S1 0.0106(9) 0.0108(9) 0.0046(8) -0.0001(7) 0.0005(7) -0.0040(7)
S2 0.0107(10) 0.0127(9) 0.0047(8) -0.0002(7) 0.0017(7) -0.0032(7)
N1 0.013(3) 0.014(3) 0.007(3) -0.001(2) 0.002(2) -0.009(3)
C3 0.016(4) 0.009(3) 0.005(3) -0.001(3) 0.002(3) -0.011(3)
C8 0.015(4) 0.009(3) 0.006(3) -0.001(3) -0.001(3) -0.006(3)
C13 0.014(4) 0.012(4) 0.011(3) -0.003(3) 0.001(3) -0.008(3)
C11 0.013(4) 0.008(3) 0.009(3) -0.004(3) 0.003(3) -0.005(3)
C6 0.013(4) 0.015(4) 0.007(3) 0.001(3) -0.003(3) -0.006(3)
C16 0.011(4) 0.010(3) 0.009(3) -0.002(3) 0.003(3) -0.002(3)
C5 0.010(4) 0.017(4) 0.010(4) 0.000(3) 0.002(3) -0.008(3)
C10 0.011(4) 0.012(3) 0.011(4) -0.002(3) 0.003(3) -0.004(3)
C12 0.012(4) 0.014(4) 0.009(3) -0.001(3) -0.001(3) -0.003(3)
C2 0.015(4) 0.012(4) 0.007(3) -0.001(3) 0.001(3) -0.010(3)
C15 0.008(3) 0.013(4) 0.012(3) 0.001(3) 0.002(3) -0.007(3)
C1 0.015(4) 0.021(4) 0.008(3) -0.001(3) 0.000(3) -0.004(3)
C17 0.019(4) 0.024(4) 0.012(4) -0.006(3) 0.011(3) -0.011(4)
C14 0.014(4) 0.013(4) 0.010(3) -0.001(3) 0.003(3) -0.007(3)
C9 0.016(4) 0.013(4) 0.008(3) -0.001(3) -0.002(3) -0.006(3)
C4 0.012(4) 0.012(3) 0.006(3) -0.002(3) 0.003(3) -0.007(3)
C7 0.011(4) 0.012(4) 0.009(3) -0.002(3) 0.002(3) -0.008(3)
loop_
_atom_type_symbol
_atom_type_description
_atom_type_scat_dispersion_real
_atom_type_scat_dispersion_imag
_atom_type_scat_source
C C 0.0033 0.0016 'International Tables Vol C Tables 4.2.6.8 and 6.1.1.4'
H H 0.0000 0.0000 'International Tables Vol C Tables 4.2.6.8 and 6.1.1.4'
N N 0.0061 0.0033 'International Tables Vol C Tables 4.2.6.8 and 6.1.1.4'
S S 0.1246 0.1234 'International Tables Vol C Tables 4.2.6.8 and 6.1.1.4'
loop_
_geom_angle_atom_site_label_1
_geom_angle_atom_site_label_2
_geom_angle_atom_site_label_3
_geom_angle
_geom_angle_site_symmetry_1
_geom_angle_site_symmetry_3
_geom_angle_publ_flag
C7 S1 C4 92.2(4) . . ?
C8 S2 C11 92.4(4) . . ?
C2 N1 C3 120.0(6) . . ?
N1 C3 C2 120.6(6) . 2_567 ?
N1 C3 C4 113.6(6) . . ?
C2 C3 C4 125.9(7) 2_567 . ?
C9 C8 S2 110.4(5) . . ?
C9 C8 C7 129.7(7) . . ?
C7 C8 S2 119.9(6) . . ?
H13A C13 H13B 108.2 . . ?
C12 C13 H13A 109.8 . . ?
C12 C13 H13B 109.8 . . ?
C12 C13 C14 109.6(6) . . ?
C14 C13 H13A 109.8 . . ?
C14 C13 H13B 109.8 . . ?
C10 C11 S2 110.4(5) . . ?
C10 C11 C12 131.8(7) . . ?
C12 C11 S2 117.8(6) . . ?
C5 C6 H6 122.9 . . ?
C7 C6 H6 122.9 . . ?
C7 C6 C5 114.1(7) . . ?
H16A C16 H16B 107.6 . . ?
C15 C16 H16A 108.7 . . ?
C15 C16 H16B 108.7 . . ?
C15 C16 C17 114.0(6) . . ?
C17 C16 H16A 108.7 . . ?
C17 C16 H16B 108.7 . . ?
C6 C5 H5 124.2 . . ?
C4 C5 C6 111.6(7) . . ?
C4 C5 H5 124.2 . . ?
C11 C10 H10 123.0 . . ?
C11 C10 C9 114.0(7) . . ?
C9 C10 H10 123.0 . . ?
C13 C12 H12A 108.6 . . ?
C13 C12 H12B 108.6 . . ?
C11 C12 C13 114.6(7) . . ?
C11 C12 H12A 108.6 . . ?
C11 C12 H12B 108.6 . . ?
H12A C12 H12B 107.6 . . ?
N1 C2 C3 119.4(7) . 2_567 ?
N1 C2 C1 115.9(6) . . ?
C3 C2 C1 124.7(6) 2_567 . ?
C16 C15 H15A 109.4 . . ?
C16 C15 H15B 109.4 . . ?
C16 C15 C14 111.4(6) . . ?
H15A C15 H15B 108.0 . . ?
C14 C15 H15A 109.4 . . ?
C14 C15 H15B 109.4 . . ?
C2 C1 H1A 109.5 . . ?
C2 C1 H1B 109.5 . . ?
C2 C1 H1C 109.5 . . ?
H1A C1 H1B 109.5 . . ?
H1A C1 H1C 109.5 . . ?
H1B C1 H1C 109.5 . . ?
C16 C17 H17A 109.5 . . ?
C16 C17 H17B 109.5 . . ?
C16 C17 H17C 109.5 . . ?
H17A C17 H17B 109.5 . . ?
H17A C17 H17C 109.5 . . ?
H17B C17 H17C 109.5 . . ?
C13 C14 H14A 108.5 . . ?
C13 C14 H14B 108.5 . . ?
C15 C14 C13 115.2(7) . . ?
C15 C14 H14A 108.5 . . ?
C15 C14 H14B 108.5 . . ?
H14A C14 H14B 107.5 . . ?
C8 C9 C10 112.9(7) . . ?
C8 C9 H9 123.5 . . ?
C10 C9 H9 123.5 . . ?
C3 C4 S1 117.2(6) . . ?
C5 C4 S1 111.6(5) . . ?
C5 C4 C3 131.2(7) . . ?
C8 C7 S1 122.7(6) . . ?
C6 C7 S1 110.4(5) . . ?
C6 C7 C8 126.8(7) . . ?
loop_
_geom_bond_atom_site_label_1
_geom_bond_atom_site_label_2
_geom_bond_distance
_geom_bond_site_symmetry_2
_geom_bond_publ_flag
S1 C4 1.729(7) . ?
S1 C7 1.725(8) . ?
S2 C8 1.734(7) . ?
S2 C11 1.740(7) . ?
N1 C3 1.341(10) . ?
N1 C2 1.338(9) . ?
C3 C2 1.401(10) 2_567 ?
C3 C4 1.475(9) . ?
C8 C9 1.366(11) . ?
C8 C7 1.442(10) . ?
C13 H13A 0.9900 . ?
C13 H13B 0.9900 . ?
C13 C12 1.526(10) . ?
C13 C14 1.536(10) . ?
C11 C10 1.347(11) . ?
C11 C12 1.506(10) . ?
C6 H6 0.9500 . ?
C6 C5 1.417(10) . ?
C6 C7 1.377(11) . ?
C16 H16A 0.9900 . ?
C16 H16B 0.9900 . ?
C16 C15 1.513(9) . ?
C16 C17 1.516(10) . ?
C5 H5 0.9500 . ?
C5 C4 1.381(11) . ?
C10 H10 0.9500 . ?
C10 C9 1.428(10) . ?
C12 H12A 0.9900 . ?
C12 H12B 0.9900 . ?
C2 C3 1.401(10) 2_567 ?
C2 C1 1.506(11) . ?
C15 H15A 0.9900 . ?
C15 H15B 0.9900 . ?
C15 C14 1.528(10) . ?
C1 H1A 0.9800 . ?
C1 H1B 0.9800 . ?
C1 H1C 0.9800 . ?
C17 H17A 0.9800 . ?
C17 H17B 0.9800 . ?
C17 H17C 0.9800 . ?
C14 H14A 0.9900 . ?
C14 H14B 0.9900 . ?
C9 H9 0.9500 . ?
loop_
_geom_torsion_atom_site_label_1
_geom_torsion_atom_site_label_2
_geom_torsion_atom_site_label_3
_geom_torsion_atom_site_label_4
_geom_torsion
_geom_torsion_site_symmetry_1
_geom_torsion_site_symmetry_2
_geom_torsion_site_symmetry_3
_geom_torsion_site_symmetry_4
_geom_torsion_publ_flag
S2 C8 C9 C10 -0.4(8) . . . . ?
S2 C8 C7 S1 177.1(4) . . . . ?
S2 C8 C7 C6 -0.9(10) . . . . ?
S2 C11 C10 C9 -1.3(8) . . . . ?
S2 C11 C12 C13 -177.8(5) . . . . ?
N1 C3 C4 S1 -5.5(8) . . . . ?
N1 C3 C4 C5 173.8(7) . . . . ?
C3 N1 C2 C3 0.3(11) . . . 2_567 ?
C3 N1 C2 C1 179.6(6) . . . . ?
C8 S2 C11 C10 0.9(5) . . . . ?
C8 S2 C11 C12 -178.5(5) . . . . ?
C11 S2 C8 C9 -0.3(6) . . . . ?
C11 S2 C8 C7 -179.7(6) . . . . ?
C11 C10 C9 C8 1.1(9) . . . . ?
C6 C5 C4 S1 0.2(8) . . . . ?
C6 C5 C4 C3 -179.1(7) . . . . ?
C16 C15 C14 C13 -178.9(6) . . . . ?
C5 C6 C7 S1 0.8(8) . . . . ?
C5 C6 C7 C8 179.0(7) . . . . ?
C10 C11 C12 C13 2.9(11) . . . . ?
C12 C13 C14 C15 177.9(5) . . . . ?
C12 C11 C10 C9 178.0(7) . . . . ?
C2 N1 C3 C2 -0.3(11) . . . 2_567 ?
C2 N1 C3 C4 -179.7(6) . . . . ?
C2 C3 C4 S1 175.2(5) 2_567 . . . ?
C2 C3 C4 C5 -5.5(12) 2_567 . . . ?
C17 C16 C15 C14 179.4(6) . . . . ?
C14 C13 C12 C11 -179.1(5) . . . . ?
C9 C8 C7 S1 -2.1(11) . . . . ?
C9 C8 C7 C6 179.9(7) . . . . ?
C4 S1 C7 C8 -178.9(6) . . . . ?
C4 S1 C7 C6 -0.6(6) . . . . ?
C7 S1 C4 C3 179.6(5) . . . . ?
C7 S1 C4 C5 0.2(6) . . . . ?
C7 C8 C9 C10 178.9(7) . . . . ?
C7 C6 C5 C4 -0.7(9) . . . . ?
loop_
_twin_individual_id
_twin_individual_mass_fraction_refined
1 0.908(3)
2 0.092(3)
