#------------------------------------------------------------------------------
#$Date: 2022-09-07 01:30:42 +0300 (Wed, 07 Sep 2022) $
#$Revision: 277693 $
#$URL: file:///home/coder/svn-repositories/cod/cif/7/24/54/7245445.cif $
#------------------------------------------------------------------------------
#
# This file is available in the Crystallography Open Database (COD),
# http://www.crystallography.net/
#
# All data on this site have been placed in the public domain by the
# contributors.
#
data_7245445
loop_
_publ_author_name
'Li, Xinlei'
'Zhang, Yang'
'Pan, Yang'
'Hao, Yucheng'
'Lin, Yuan'
'Li, Haijian'
'Li, Minghua'
'Fan, Changzeng'
'Alekseev, Evgeny V.'
_publ_section_title
;
 Li3[Al(PO4)2(H2O)1.5] and Na[AlP2O7]&#xFF1A;from 2D Layered Polar to 3D
 Centrosymmetric Framework Structures
;
_journal_name_full               CrystEngComm
_journal_paper_doi               10.1039/D2CE00994C
_journal_year                    2022
_chemical_formula_sum            'Al Li3 O9.5 P2'
_chemical_formula_weight         261.74
_space_group_crystal_system      tetragonal
_space_group_IT_number           75
_space_group_name_Hall           'P 4'
_space_group_name_H-M_alt        'P 4'
_audit_creation_method           SHELXL-2014/7
_audit_update_record
;
2022-02-16 deposited with the CCDC.	2022-09-05 downloaded from the CCDC.
;
_cell_angle_alpha                90
_cell_angle_beta                 90
_cell_angle_gamma                90
_cell_formula_units_Z            4
_cell_length_a                   10.9897(3)
_cell_length_b                   10.9897(3)
_cell_length_c                   5.9946(3)
_cell_measurement_temperature    293(2)
_cell_volume                     723.99(5)
_computing_structure_refinement  'SHELXL-2014/7 (Sheldrick, 2014)'
_diffrn_ambient_temperature      293(2)
_diffrn_measured_fraction_theta_full 0.992
_diffrn_measured_fraction_theta_max 0.983
_diffrn_radiation_type           MoK\a
_diffrn_radiation_wavelength     0.71073
_diffrn_reflns_av_R_equivalents  0.0256
_diffrn_reflns_av_unetI/netI     0.0259
_diffrn_reflns_Laue_measured_fraction_full 0.992
_diffrn_reflns_Laue_measured_fraction_max 0.983
_diffrn_reflns_limit_h_max       10
_diffrn_reflns_limit_h_min       -13
_diffrn_reflns_limit_k_max       12
_diffrn_reflns_limit_k_min       -13
_diffrn_reflns_limit_l_max       7
_diffrn_reflns_limit_l_min       -7
_diffrn_reflns_number            3429
_diffrn_reflns_point_group_measured_fraction_full 0.993
_diffrn_reflns_point_group_measured_fraction_max 0.976
_diffrn_reflns_theta_full        25.242
_diffrn_reflns_theta_max         26.453
_diffrn_reflns_theta_min         1.853
_exptl_absorpt_coefficient_mu    0.754
_exptl_crystal_density_diffrn    2.401
_exptl_crystal_F_000             512
_refine_diff_density_max         0.989
_refine_diff_density_min         -0.419
_refine_diff_density_rms         0.117
_refine_ls_abs_structure_details
;
 Flack x determined using 467 quotients [(I+)-(I-)]/[(I+)+(I-)]
 (Parsons, Flack and Wagner, Acta Cryst. B69 (2013) 249-259).
;
_refine_ls_abs_structure_Flack   0.1(2)
_refine_ls_extinction_method     none
_refine_ls_goodness_of_fit_ref   0.809
_refine_ls_hydrogen_treatment    undef
_refine_ls_matrix_type           full
_refine_ls_number_parameters     207
_refine_ls_number_reflns         1289
_refine_ls_number_restraints     1
_refine_ls_restrained_S_all      0.809
_refine_ls_R_factor_all          0.0436
_refine_ls_R_factor_gt           0.0429
_refine_ls_shift/su_max          2.088
_refine_ls_shift/su_mean         0.298
_refine_ls_structure_factor_coef Fsqd
_refine_ls_weighting_details
'w=1/[\s^2^(Fo^2^)+(0.1579P)^2^+0.0185P] where P=(Fo^2^+2Fc^2^)/3'
_refine_ls_weighting_scheme      calc
_refine_ls_wR_factor_gt          0.1297
_refine_ls_wR_factor_ref         0.1325
_reflns_Friedel_coverage         0.808
_reflns_Friedel_fraction_full    0.995
_reflns_Friedel_fraction_max     0.966
_reflns_number_gt                1215
_reflns_number_total             1289
_reflns_threshold_expression     'I > 2\s(I)'
_cod_data_source_file            d2ce00994c2.cif
_cod_data_source_block           a
_cod_original_formula_sum        'Al Li3 O9.50 P2'
_cod_database_code               7245445
_shelx_shelxl_version_number     2014/7
_shelx_space_group_comment
;
The symmetry employed for this shelxl refinement is uniquely defined
by the following loop, which should always be used as a source of
symmetry information in preference to the above space-group names.
They are only intended as comments.
;
_shelx_res_file
;

    a.res created by SHELXL-2014/7


TITL shelxt_a.res in P4
REM Old TITL a in P4/n
REM SHELXT solution in P4: R1 0.345, Rweak 0.019, Alpha 0.210
REM <I/s>   0.000 for    0 systematic absences,  Orientation as input
REM Flack x =  0.222 ( 0.168 ) from   469 Parsons' quotients
REM Formula found by SHELXT:  O21 B2 Li5 Al2

CELL  0.71073  10.9897  10.9897   5.9946   90.000   90.000   90.000
ZERR    4.000   0.0003   0.0003   0.0003    0.000    0.000    0.000
LATT -1
SYMM -X, -Y, Z
SYMM -Y, X, Z
SYMM Y, -X, Z
SFAC O   LI AL P
UNIT 38  12 4  8
twin 1 0 0 0 -1 0 0 0 -1
L.S. 10
BOND
LIST 4
omit 2 4 0
omit -2 4 0
omit 0 0 -3
omit -2 10 0
acta
FMAP 2
PLAN 20

WGHT    0.157900    0.018500
FVAR       0.29110   0.51010   0.81268
AL1   3    0.748451    0.249483    0.165401    11.00000    0.00914    0.00933 =
         0.00887   -0.00009   -0.00048   -0.00107
P1A   4    1.005534    0.296082    0.410937    10.60000    0.01026    0.02107 =
         0.01356   -0.00260    0.00436   -0.00041
P1B   4    1.001367    0.223805    0.413487    10.40000    0.01443    0.02267 =
         0.01286   -0.00994   -0.00069    0.00411
P2A   4    0.493779    0.202381    0.922997    10.60000    0.00907    0.02472 =
         0.00921   -0.00101   -0.00378   -0.00265
P2B   4    0.497347    0.278137    0.922359    10.40000    0.00774    0.03333 =
         0.00447    0.01198    0.00187   -0.00231
O1    1    0.627686    0.238650    0.945556    11.00000    0.01047    0.02581 =
         0.00327    0.00221   -0.00127    0.00131
O2    1    0.643698    0.275547    0.389092    11.00000    0.00296    0.01062 =
         0.01661   -0.00785   -0.00206    0.00034
O3    1    0.857790    0.225416   -0.058034    11.00000    0.00202    0.01244 =
         0.00033    0.00398    0.00095    0.00096
O4    1    0.872401    0.261688    0.385473    11.00000    0.01265    0.02833 =
         0.02134   -0.00535   -0.00071   -0.00135
O5    1    0.419827    0.244884    1.125021    11.00000    0.01377    0.03210 =
         0.00505    0.00367    0.00331    0.00251
O6    1    1.059841    0.255170    0.628698    11.00000    0.02040    0.08230 =
         0.00770    0.00366   -0.00070    0.00601
O7    1    1.078247    0.258528    0.201350    11.00000    0.01256    0.01984 =
         0.01869   -0.00034   -0.00470   -0.00486
O8    1    0.440490    0.238772    0.702663    11.00000    0.01102    0.04950 =
         0.01516    0.00045   -0.00019   -0.00448
O9    1    1.004922    0.441944    0.414146    10.37500    0.05252    0.02397 =
         0.07467   -0.00953    0.01142    0.00854
O10   1    0.497409    0.046339    0.940955    10.37500    0.02041    0.04783 =
         0.04210    0.02993   -0.01838   -0.00921
O11   1    1.019239    0.093224    0.362796    10.12500    0.18215    0.03390 =
         0.01780   -0.01265    0.01465   -0.04612
O12   1    0.479295    0.397082    0.863465    10.12500    0.29176    0.00693 =
         0.00692    0.00792   -0.00458   -0.00230
OW1   1    1.000000    0.000000   -0.092343    10.25000    0.02811    0.02811 =
         0.03335    0.00000    0.00000    0.00000
OW2   1    0.500000    0.500000    0.440312    10.25000    0.02077    0.02077 =
         0.10004    0.00000    0.00000    0.00000
LI1   2    0.760110    0.252243    0.682658    11.00000    0.01818    0.01667 =
         0.00479   -0.00464   -0.00797   -0.00432
LI2   2    1.022039    0.181657   -0.056303    10.60000    0.00110    0.01533 =
         0.00584   -0.01057    0.00379   -0.00586
LI3   2    0.473755    0.320210    0.442399    10.60000    0.00445    0.04239 =
         0.00193    0.01051   -0.00229   -0.00364
LI4   2    0.495262    0.168043    0.376362    10.40000    0.02654    0.06625 =
         0.10643    0.04131   -0.05225   -0.02499
LI5   2    1.000930    0.327427   -0.114731    10.40000    0.01072    0.01962 =
         0.08217   -0.04136    0.00652   -0.00407
HKLF 4

REM  shelxt_a.res in P4
REM R1 =  0.0429 for    1215 Fo > 4sig(Fo)  and  0.0436 for all    1289 data
REM    207 parameters refined using      1 restraints

END

WGHT      0.1027      0.0000

REM Highest difference peak  0.989,  deepest hole -0.419,  1-sigma level  0.117
Q1    1   0.4931  0.2991  0.4208  11.00000  0.05    0.41
Q2    1   1.0206  0.2871 -0.0817  11.00000  0.05    0.40
Q3    1   0.4791  0.2238  0.4157  11.00000  0.05    0.39
Q4    1   1.0153  0.2264 -0.0825  11.00000  0.05    0.39
Q5    1   1.0761  0.2397  0.1059  11.00000  0.05    0.30
Q6    1   1.0169  0.0436  0.4113  11.00000  0.05    0.29
Q7    1   0.5189  0.3998  0.5198  11.00000  0.05    0.27
Q8    1   1.0708  0.2429  0.7412  11.00000  0.05    0.27
Q9    1   0.4294  0.2530  0.5935  11.00000  0.05    0.27
Q10   1   0.4298  0.2612  1.2337  11.00000  0.05    0.27
Q11   1   0.4865  0.4519  0.9271  11.00000  0.05    0.27
Q12   1   1.0000  0.0000 -0.1844  10.25000  0.05    0.26
Q13   1   0.5000  0.5000  0.5386  10.25000  0.05    0.26
Q14   1   0.4507  0.0789  0.2653  11.00000  0.05    0.26
Q15   1   1.0915  0.0375 -0.1949  11.00000  0.05    0.25
Q16   1   0.9291  0.4529  0.5683  11.00000  0.05    0.24
Q17   1   1.0421  0.4141 -0.2352  11.00000  0.05    0.24
Q18   1   1.0323  0.2376  0.7575  11.00000  0.05    0.22
Q19   1   1.0691  0.4869  0.6183  11.00000  0.05    0.22
Q20   1   0.9380  0.0428 -0.2395  11.00000  0.05    0.21
;
_shelx_res_checksum              37089
_shelx_hkl_file
;
   0   0  -1  271.07    6.94
   0   0  -3   41.49    1.33
   0   0   5  352.56    9.62
   0   0   6  180.47    5.27
   0   0   7   45.38    1.58
  -1   0   0    0.04    0.03
   0  -1   0    0.05    0.02
  -1   0  -1   64.94    1.74
   0   1  -1   64.88    1.71
  -1   0  -2    1.07    0.05
   0  -1  -2    1.07    0.11
  -1   0  -2    1.18    0.12
   1   0  -2    1.33    0.13
   0   1  -2    1.22    0.11
   0  -1  -3    3.43    0.26
   0   1  -3    3.04    0.24
  -1   0  -3    3.14    0.24
   0  -1  -4    1.38    0.20
   1   0  -4    1.40    0.20
   0   1  -4    1.79    0.22
  -1   0  -4    1.22    0.18
   0  -1   5   73.86    2.47
   0   1   5   69.17    2.43
  -1   0   5   71.26    2.44
   1   0   5   75.10    2.50
   0  -1   6    0.64    0.20
   1   0   6    0.88    0.22
   0   1   6    0.66    0.19
  -1   0   6    0.56    0.17
   1   0   7    0.32    0.12
   0   1   7    0.37    0.13
   0  -1   7    0.33    0.11
  -1  -1   0   13.33    0.39
  -1  -1   0   11.12    0.38
  -1  -1   1    0.65    0.06
  -1  -1  -1    0.60    0.06
  -1   1  -1    0.62    0.06
   1  -1  -2    0.23    0.07
  -1  -1  -2    0.19    0.06
   1   1  -2    0.26    0.06
  -1  -1  -2    0.24    0.04
  -1   1  -3    2.17    0.19
  -1  -1  -3    1.83    0.19
   1   1  -3    2.05    0.19
   1  -1  -3    2.08    0.20
   1   1  -4    3.12    0.29
   1  -1  -4    3.14    0.31
  -1   1  -4    3.12    0.28
  -1  -1  -4    3.02    0.30
  -1   1   5    0.60    0.18
  -1  -1   5    0.60    0.19
   1  -1   5    0.71    0.20
   1   1   5    0.95    0.22
   1  -1   6    0.96    0.23
  -1   1   6    0.95    0.22
   1   1   6    0.75    0.21
  -1  -1   6    1.02    0.21
   1  -1   7    0.46    0.13
   1   1   7    0.52    0.14
   0  -2   0  630.79   15.94
  -2   0   0  621.85   16.08
   0   2  -1  224.93    5.62
   0  -2  -1  213.09    5.66
  -2   0  -1  216.31    5.69
   0  -2  -2  116.54    3.32
   0   2  -2  117.97    3.27
  -2   0  -2  121.98    3.33
   2   0  -3    7.75    0.43
   0   2  -3    8.59    0.41
  -2   0  -3    8.43    0.44
   0  -2  -4  189.78    5.26
   2   0  -4  194.22    5.29
   0   2  -4  181.82    5.15
  -2   0  -4  188.86    5.24
  -2   0   5  113.31    3.58
   0  -2   5  119.29    3.60
   0   2   5  114.10    3.56
  -2   0   6   37.49    1.53
   0   2   6   39.34    1.55
   2   0   6   41.00    1.65
   0  -2   6   40.18    1.56
   2   0   7    0.40    0.14
   0  -2  -7    0.44    0.17
  -1  -2   0    0.12    0.04
  -1  -2   0    0.08    0.05
  -2  -1   0    0.09    0.06
  -1  -2  -1  324.72    8.29
  -1   2  -1  319.07    8.25
  -2  -1   1  325.63    8.29
  -1  -2  -1  324.76    8.29
  -2  -1  -1  319.38    8.29
  -2   1  -1  316.62    8.30
  -1  -2   1  331.64    8.28
   1   2  -2    0.34    0.06
  -1   2  -2    0.64    0.08
  -2  -1  -2    0.60    0.09
  -2   1  -2    0.26    0.07
  -2  -1   2    0.53    0.06
   1  -2  -2    0.59    0.09
  -1  -2   2    0.39    0.06
  -1  -2  -2    0.31    0.05
  -2  -1  -2    0.51    0.06
  -1  -2  -2    0.44    0.08
  -2  -1  -3   50.80    1.51
   1   2  -3   44.16    1.43
  -2   1  -3   44.44    1.46
  -1   2  -3   48.67    1.45
   2  -1  -3   41.58    1.46
   2   1  -3   51.72    1.51
  -2  -1  -4    2.80    0.29
  -1   2  -4    3.17    0.28
  -2   1  -4    2.07    0.24
   2  -1  -4    2.52    0.28
  -1  -2  -4    2.58    0.28
   1   2  -4    3.20    0.28
   1  -2  -4    3.00    0.30
   2   1  -4    2.80    0.28
  -1  -2   5  157.79    4.35
  -2  -1   5  131.68    4.24
   1  -2   5  135.86    4.26
  -1   2   5  130.42    4.22
  -2   1   5  150.81    4.32
   1   2   5  154.77    4.34
  -1  -2   6    1.84    0.28
   1   2   6    1.66    0.28
   1  -2   6    1.43    0.26
   2   1   6    1.45    0.28
  -2   1   6    1.49    0.25
   2  -1   6    1.87    0.30
  -1   2   6    2.08    0.29
  -2  -1   6    1.85    0.28
   1  -2   7    8.26    0.46
  -2  -1  -7    9.65    0.57
   1   2   7    7.89    0.47
   2  -1  -7    7.60    0.51
   2  -1   7    6.94    0.45
  -1  -2  -7    7.47    0.53
   1  -2  -7    8.39    0.55
   2   1   7    9.49    0.54
  -2  -2   0  327.63    8.26
  -2  -2   0  311.80    8.26
  -2   2  -1  121.65    3.22
  -2  -2  -1  123.53    3.24
  -2  -2  -1  118.30    3.23
  -2  -2   1  122.67    3.23
  -2  -2  -2  104.27    2.78
  -2   2  -2  111.32    2.84
  -2  -2  -2  104.96    2.87
   2   2  -3   74.94    2.24
  -2   2  -3   79.91    2.27
  -2   2  -4   58.45    1.90
   2   2  -4   60.48    1.90
   2  -2  -4   57.66    1.96
  -2  -2  -4   57.16    1.96
  -2   2   5   26.00    1.20
  -2  -2   5   27.57    1.23
  -2   2   6  265.30    7.47
  -2  -2   6  269.49    7.49
   2  -2   6  271.51    7.53
   2   2   6  279.27    7.56
   2  -2   7   24.19    0.92
  -2  -2  -7   25.37    1.06
   2   2   7   28.05    1.01
   2  -2  -7   25.21    1.03
   0  -3   0    0.10    0.07
   0  -3   0    0.01    0.04
   0  -3   0    0.13    0.02
  -3   0   0    0.06    0.05
  -3   0  -1  422.44   10.73
  -3   0  -1  422.41   10.71
  -3   0  -1  423.63   10.71
  -3   0   1  414.11   10.71
   0  -3  -1  416.61   10.65
   0   3  -1  413.52   10.55
   0   3  -2    6.60    0.28
  -3   0   2    7.09    0.31
  -3   0  -2    7.31    0.36
   0  -3  -2    7.14    0.35
  -3   0  -2    6.71    0.31
   0   3  -3  155.95    4.24
   0  -3  -3  159.65    4.36
  -3   0  -3  157.71    4.35
   0  -3  -4   28.75    1.16
   3   0  -4   27.55    1.15
  -3   0  -4   28.98    1.15
   0   3   5  152.91    4.47
  -3   0   5  152.31    4.50
   0  -3   5  158.60    4.50
   3   0   6   11.04    0.75
   0   3   6   10.03    0.63
   0  -3   6    9.71    0.63
   3   0  -7   34.07    1.18
   0  -3  -7   30.69    1.25
  -3   0   7   31.43    1.11
   3   0   7   31.07    1.16
  -1  -3   0    8.34    0.31
  -1  -3   0    8.64    0.39
  -3  -1   0    9.89    0.39
  -3  -1   0    9.76    0.44
  -1  -3   0    9.74    0.39
  -3   1  -1    2.94    0.20
  -3  -1  -1    3.24    0.20
  -3  -1   1    3.42    0.20
  -3  -1  -1    3.32    0.21
   1  -3  -1    3.88    0.19
  -1   3  -1    3.30    0.14
  -1  -3  -1    3.32    0.21
  -3   1  -1    2.59    0.18
  -1  -3   1    2.69    0.18
  -1  -3  -1    3.42    0.18
  -3  -1   2  736.56   19.09
  -3   1  -2  757.58   19.18
   1  -3  -2  752.25   19.16
  -3  -1  -2  757.34   19.11
  -3  -1  -2  771.33   19.21
   1   3  -2  756.98   19.07
  -1  -3  -2  753.71   19.11
  -3   1  -2  746.57   19.12
  -3   1   2  734.45   19.12
  -1  -3  -2  733.76   19.16
  -1   3  -2  740.09   19.07
   1  -3  -3   56.00    1.76
  -1  -3  -3   53.28    1.74
  -3  -1  -3   57.66    1.78
  -3   1  -3   54.60    1.73
  -1   3  -3   55.67    1.66
   1   3  -3   56.09    1.66
   3   1  -4    1.77    0.23
   3  -1  -4    1.01    0.19
   1  -3  -4    0.98    0.18
  -3  -1  -4    1.06    0.19
  -3   1  -4    1.54    0.22
  -1  -3  -4    1.07    0.19
  -1  -3   5   30.12    1.28
  -1   3  -5   29.24    1.45
  -1   3   5   32.41    1.32
  -1  -3  -5   30.75    1.27
  -3  -1   5   29.40    1.30
  -3   1   5   28.03    1.27
   1  -3   5   29.78    1.29
   1   3   5   28.23    1.26
   1   3  -5   26.64    1.38
   1  -3   6    8.70    0.59
   3  -1   6    8.92    0.64
  -1   3   6    7.90    0.55
   3   1   6    9.14    0.67
  -1  -3   6    9.02    0.59
   1   3   6    7.79    0.55
   1  -3  -7   18.37    0.84
   3   1   7   19.41    0.80
  -3   1   7   16.92    0.71
  -3  -1   7   17.77    0.72
   3  -1   7   15.50    0.70
   3  -1  -7   16.53    0.74
  -1  -3  -7   18.75    0.86
  -3  -2   0    0.11    0.06
  -2  -3   0    0.08    0.06
  -3  -2   0    0.22    0.08
  -2  -3   0    0.11    0.06
   2  -3   0    0.12    0.06
  -2  -3   0    0.17    0.06
  -3  -2  -1  123.20    3.46
  -2  -3   1  127.48    3.46
  -2   3  -1  119.60    3.38
  -3  -2   1  123.29    3.45
  -3   2  -1  134.92    3.47
  -3  -2  -1  124.25    3.46
  -2  -3  -1  133.79    3.41
  -3  -2  -1  129.51    3.47
  -2  -3  -1  132.72    3.48
  -2  -3  -1  132.51    3.43
  -2   3  -1  127.77    3.41
  -3   2  -1  141.14    3.50
  -2  -3  -2    1.15    0.12
  -3  -2   2    1.21    0.12
  -3  -2  -2    0.98    0.11
  -2   3  -2    1.25    0.13
  -3  -2  -2    1.08    0.14
  -2  -3   2    1.09    0.13
  -3   2  -2    1.03    0.13
  -2  -3  -2    1.17    0.14
   3   2  -3   50.73    1.55
   2   3  -3   42.59    1.44
   2  -3  -3   46.86    1.55
  -2  -3  -3   44.04    1.54
  -3   2  -3   50.38    1.54
  -2   3  -3   52.47    1.50
  -2  -3  -4    2.88    0.32
   2  -3  -4    3.06    0.32
  -3  -2  -4    2.76    0.32
   3   2  -4    2.92    0.29
   3  -2  -4    3.06    0.32
  -3   2  -4    3.10    0.31
  -3   2  -5   41.72    1.82
   2   3  -5   45.62    1.86
   2   3   5   48.23    1.75
  -2  -3   5   51.13    1.76
  -2   3   5   42.34    1.67
  -2  -3  -5   43.49    1.67
   2  -3   5   39.90    1.66
  -3   2   5   46.79    1.73
  -3  -2   5   40.74    1.66
  -2   3  -5   45.90    1.87
  -2   3  -5   41.01    1.78
   3  -2   6    1.00    0.22
   2  -3   6    0.84    0.19
   3   2   6    1.16    0.24
   2   3   6    1.40    0.24
   2  -3  -7   11.40    0.57
  -3   2   7    9.30    0.45
  -3  -2   7   10.45    0.48
   2   3   7    9.03    0.43
   3  -2   7    7.81    0.42
  -2   3   7    8.62    0.42
  -2  -3  -7    9.30    0.54
   3   2   7   12.39    0.54
   3  -2  -7    9.09    0.49
  -3  -3   0  115.29    3.17
  -3  -3   0  116.20    3.12
   3  -3   0  114.27    3.10
  -3  -3   0  117.81    3.18
  -3  -3  -1    0.20    0.07
  -3  -3   1    0.17    0.07
  -3   3  -1    0.25    0.07
  -3  -3  -1    0.21    0.07
  -3  -3  -1    0.24    0.08
  -3  -3   2   59.99    1.62
  -3  -3  -2   51.34    1.63
  -3  -3  -2   48.29    1.58
  -3   3  -2   52.16    1.59
  -3  -3  -2   53.76    1.60
  -3   3  -2   55.64    1.63
   3   3  -3    1.73    0.18
   3  -3  -3    1.70    0.21
  -3  -3  -3    1.88    0.22
  -3   3  -3    1.72    0.19
  -3  -3  -4   31.66    1.27
  -3  -3  -4   32.12    1.34
  -3   3  -4   29.26    1.34
   3  -3  -4   28.86    1.23
  -3   3   5    1.66    0.27
  -3  -3  -5    2.42    0.32
  -3   3  -5    2.00    0.36
  -3  -3  -6   12.42    0.79
   3  -3  -6   13.08    0.80
   3  -3   6   11.79    0.68
   3   3   6   12.88    0.72
  -4   0   1   39.51    1.21
  -4   0  -1   37.36    1.24
   0  -4  -1   39.01    1.11
  -4   0  -1   37.40    1.20
  -4   0  -1   39.12    1.24
  -4   0   2    4.39    0.27
   0  -4  -2    4.60    0.28
  -4   0  -2    4.25    0.27
  -4   0  -2    4.57    0.29
  -4   0  -2    5.06    0.32
  -4   0  -3   25.01    1.01
   0  -4  -3   27.42    1.00
   0  -4  -4  710.06   18.24
   4   0  -4  683.89   18.31
  -4   0  -4  703.08   18.29
  -4   0  -5   43.05    1.62
   0  -4   5   42.33    1.61
   0   4   5   46.14    1.66
   0  -4  -5   42.29    1.63
   4   0   6   14.05    0.85
   0   4   6   13.60    0.71
   0  -4  -6   13.40    0.90
   0  -4  -7    4.88    0.38
  -4   0   7    4.52    0.30
   4   0   7    3.81    0.28
   1  -4   0    0.06    0.07
  -1  -4   0    0.07    0.07
  -1  -4   0    0.09    0.03
  -1  -4   0    0.11    0.07
  -4  -1   0    0.05    0.06
   1  -4   0    0.21    0.03
  -4   1  -1   38.49    1.37
  -1  -4  -1   43.11    1.27
  -4   1  -1   41.87    1.38
  -1  -4  -1   41.85    1.35
  -4  -1  -1   44.67    1.36
  -1  -4   1   41.80    1.34
  -4  -1   1   49.08    1.38
   1  -4  -1   47.20    1.27
  -4   1  -2    2.23    0.20
  -4  -1  -2    2.69    0.23
  -4   1  -2    1.96    0.20
  -4  -1   2    2.35    0.19
  -4  -1  -2    2.52    0.21
  -4  -1  -2    2.43    0.20
   1  -4  -2    2.31    0.19
  -4   1   2    2.33    0.20
  -4   1  -2    2.21    0.19
  -1  -4  -2    2.11    0.18
   1  -4  -3   20.38    0.81
  -4   1  -3   17.23    0.78
  -1  -4  -3   17.29    0.76
  -4  -1  -3   19.21    0.82
   1   4  -4    2.04    0.33
   1  -4  -4    2.73    0.30
   4   1  -4    2.10    0.28
   4  -1  -4    2.10    0.28
  -1  -4  -4    1.78    0.25
  -4   1  -4    2.38    0.33
  -4   1   4    2.23    0.29
  -1   4  -4    2.11    0.33
  -4  -1  -4    2.07    0.28
  -4  -1   4    2.27    0.29
  -4   1  -4    1.81    0.26
   1   4   5   55.84    2.06
  -1   4   5   74.09    2.21
  -1  -4   5   54.68    2.04
  -4  -1  -5   64.99    2.13
   1  -4   5   69.73    2.16
  -1  -4  -5   58.05    2.10
  -4   1  -5   54.94    2.05
  -1   4  -5   61.99    2.38
   1   4  -5   52.93    2.27
  -1  -4  -6    2.28    0.37
   4   1   6    1.85    0.31
   1   4   6    1.42    0.22
   1  -4  -6    1.65    0.32
   4  -1   6    1.36    0.25
   1  -4  -7    7.02    0.44
  -1  -4  -7    6.49    0.44
  -4   1   7    6.58    0.36
   4   1   7    6.96    0.39
  -4  -1   7    6.53    0.36
  -2  -4   0  122.41    3.12
   2  -4   0  105.27    3.07
  -2  -4   0  116.77    3.11
  -4  -2   0  103.56    3.06
  -2  -4  -1   19.05    0.63
  -2  -4  -1   19.51    0.64
  -4  -2  -1   16.91    0.70
  -4  -2   1   17.26    0.68
  -2  -4  -1   19.44    0.71
  -4   2  -1   18.62    0.72
  -4  -2  -1   16.73    0.67
  -2  -4   1   18.13    0.69
  -4  -2  -1   18.36    0.73
  -4   2  -1   18.40    0.72
  -4  -2   2  144.83    3.94
  -2  -4   2  149.14    3.98
  -4   2  -2  136.69    3.97
  -4  -2  -2  145.55    3.99
  -4  -2  -2  151.01    4.04
  -4  -2  -2  144.72    3.95
   2  -4  -2  146.20    3.96
  -2  -4  -2  142.74    3.96
  -4   2  -2  150.22    4.03
  -2  -4  -2  143.70    3.95
  -4  -2  -3   81.01    2.47
   2  -4  -3   80.19    2.47
  -4   2  -3   83.65    2.48
  -4   2  -3   82.06    2.50
  -2  -4  -3   86.30    2.51
  -2  -4  -4   15.19    0.81
  -2   4  -4   14.20    0.88
  -4  -2  -4   16.14    0.84
   4   2  -4   17.31    0.81
   4  -2  -4   14.79    0.82
  -4   2  -4   15.81    0.78
  -4  -2  -4   14.83    0.84
   2   4  -4   14.72    0.88
  -2   4  -4   15.73    0.88
  -4   2  -4   16.22    0.82
   2  -4  -4   17.54    0.84
  -4  -2  -4   16.19    0.88
  -2  -4  -4   14.32    0.82
  -4  -2  -4   16.87    0.81
  -4   2  -5    4.41    0.41
  -4   2  -5    4.10    0.50
  -4  -2  -5    3.76    0.41
  -2   4  -5    3.77    0.46
   2   4  -5    3.68    0.46
  -2   4  -5    3.70    0.44
  -2  -4  -5    4.36    0.43
  -2  -4   5    3.72    0.38
  -2   4   5    4.63    0.42
  -4  -2  -5    4.68    0.42
   2  -4   5    4.79    0.43
   2   4   5    4.66    0.43
  -2  -4  -6   32.79    1.50
   4  -2   6   32.48    1.35
   2  -4  -6   34.04    1.50
   2   4   6   37.03    1.33
   4   2   6   36.65    1.48
   4  -2  -6   34.81    1.41
  -2   4   7   34.06    1.07
  -4   2   7   32.29    1.08
   2  -4  -7   36.78    1.19
   4   2   7   33.75    1.10
  -3  -4   0    0.09    0.07
  -4  -3   0    0.05    0.05
  -4  -3   0    0.05    0.06
  -3  -4   0    0.08    0.06
   3  -4   0    0.13    0.07
  -3  -4  -1    8.05    0.40
  -3  -4  -1    7.66    0.39
  -3  -4   1    8.19    0.43
  -4  -3  -1    9.93    0.47
   3  -4   1    9.03    0.43
  -4  -3  -1    8.68    0.43
  -4   3  -1    7.76    0.42
  -3  -4  -1    8.44    0.44
  -4  -3   1    8.97    0.39
  -4  -3  -1    9.97    0.47
  -4  -3   1    8.25    0.42
  -3  -4   1    7.98    0.42
  -4  -3  -2    2.68    0.23
  -4   3  -2    3.01    0.26
  -4  -3   2    2.50    0.22
  -3  -4  -2    2.82    0.24
  -4  -3  -2    2.65    0.25
  -3  -4  -2    3.44    0.25
  -4  -3  -2    3.09    0.26
  -3   4  -2    2.75    0.22
  -3  -4   2    3.18    0.25
  -4   3  -2    3.50    0.27
  -3  -4  -2    3.26    0.26
  -4   3  -3   65.40    2.06
   4  -3  -3   63.44    2.13
   3  -4  -3   66.86    2.10
  -3  -4  -3   59.70    1.99
  -3   4  -3   66.64    2.03
  -4  -3  -3   74.95    2.19
  -4  -3  -3   73.40    2.10
  -3  -4  -3   65.07    2.10
  -4  -3  -4    3.28    0.38
  -4   3  -4    2.53    0.37
  -4   3  -4    2.85    0.31
  -3  -4  -4    3.14    0.34
  -4  -3  -4    3.51    0.37
  -4  -3  -4    3.21    0.32
   3   4  -4    3.52    0.40
  -3   4  -4    3.12    0.37
  -3  -4  -4    3.14    0.37
  -4  -3  -4    3.30    0.39
  -3   4  -4    2.44    0.35
   4  -3  -4    3.33    0.36
   3  -4  -4    3.03    0.34
  -4   3  -4    2.85    0.34
  -3  -4  -4    3.14    0.37
   3   4  -5   42.88    1.75
  -4  -3  -5   36.61    1.52
  -3   4  -5   43.24    1.73
  -3  -4  -5   43.03    1.64
   3  -4  -5   39.25    1.74
  -3  -4  -5   47.26    1.57
  -4   3  -5   39.74    1.81
   3  -4   5   34.98    1.52
  -4   3  -5   48.34    1.65
  -4  -3  -5   39.23    1.61
  -3   4  -5   37.43    1.71
  -3  -4  -5   44.35    1.81
  -4   3   6    2.15    0.26
   4  -3   6    2.61    0.29
   4  -3  -6    3.55    0.37
  -4  -3   6    2.24    0.26
   3  -4  -6    2.33    0.33
  -3  -4  -6    2.71    0.36
   4   3   6    2.68    0.31
  -3  -4  -6    2.45    0.27
   3   4   6    2.61    0.27
  -4  -4   0    5.57    0.36
   4  -4   0    5.83    0.31
  -4  -4   0    4.72    0.28
  -4  -4   1    0.21    0.07
  -4  -4   1    0.01    0.06
  -4  -4  -1    0.11    0.07
   4  -4   1    0.18    0.07
  -4  -4  -1    0.17    0.08
  -4  -4  -2  119.91    3.27
  -4  -4  -2  108.73    3.22
  -4   4  -2  118.45    3.27
  -4  -4  -2  114.14    3.28
  -4  -4   2  108.03    3.22
   4  -4  -3   98.71    2.99
  -4   4  -3   98.76    2.94
  -4  -4  -3  100.23    2.94
  -4  -4  -3   97.96    3.00
  -4   4  -4   61.27    2.11
  -4  -4  -4   58.23    2.13
   4   4  -4   64.57    2.17
  -4   4  -4   61.34    2.03
  -4  -4  -4   60.23    2.00
  -4  -4  -4   57.58    2.20
  -4  -4  -4   60.65    2.18
  -4  -4  -5    1.07    0.26
  -4  -4  -5    1.45    0.23
   4  -4  -5    1.13    0.26
  -4   4  -5    1.41    0.34
  -4  -4  -5    1.37    0.26
   4   4   6    7.23    0.44
  -4   4   6    7.30    0.45
   4  -4  -6    6.96    0.51
  -4  -4  -6    8.02    0.49
  -4   4   6    7.44    0.45
   0  -5   0    0.01    0.07
  -5   0   0    0.17    0.08
  -5   0  -1   38.09    1.22
   0  -5  -1   35.54    1.05
  -5   0  -1   34.85    1.24
   0  -5   1   36.40    1.26
  -5   0   1   35.91    1.21
  -5   0  -1   37.10    1.27
  -5   0   2    7.25    0.40
   0  -5  -2    6.60    0.35
  -5   0  -2    6.75    0.39
  -5   0  -2    6.85    0.44
  -5   0  -2    7.00    0.43
   0  -5  -3    9.68    0.54
  -5   0  -3   10.76    0.62
   5   0  -4    0.60    0.18
   0  -5  -4    0.59    0.21
   0  -5  -4    0.64    0.16
  -5   0  -4    0.75    0.17
  -5   0  -4    0.55    0.16
   0   5  -4    0.45    0.20
   0  -5  -4    0.68    0.19
  -5   0  -4    0.59    0.18
  -5   0  -4    0.40    0.16
   0  -5  -5    4.06    0.41
   0   5  -5    3.12    0.45
   0  -5  -5    3.65    0.50
  -5   0  -5    4.07    0.41
  -5   0   6    5.34    0.42
   0  -5  -6    5.16    0.53
  -5   1   0  679.82   17.17
  -1  -5   0  700.74   17.24
   1  -5   0  637.61   17.19
  -1  -5   0  659.90   17.16
  -5  -1   0  654.45   17.14
  -5   1   1    0.46    0.12
  -5  -1  -1    0.51    0.11
   1  -5  -1    0.55    0.07
  -5   1  -1    0.58    0.13
  -5  -1   1    0.46    0.10
  -1  -5  -1    0.43    0.07
  -1  -5   1    0.34    0.11
   1  -5   1    0.35    0.11
  -5  -1  -1    0.79    0.15
  -5   1  -1    0.60    0.13
  -1  -5  -1    0.40    0.10
  -5   1  -1    0.52    0.12
  -5   1   2  176.39    4.76
   1  -5  -2  175.30    4.70
  -1  -5  -2  170.03    4.69
  -5  -1   2  176.31    4.76
  -5  -1  -2  179.39    4.85
  -5   1  -2  176.49    4.77
  -5   1  -2  165.49    4.84
  -5   1  -2  178.30    4.83
  -5  -1  -2  176.10    4.83
  -5  -1  -2  173.94    4.76
   1  -5  -3   54.84    1.80
  -5  -1  -3   54.54    1.85
  -1  -5  -3   57.11    1.80
  -5  -1  -3   53.67    1.88
  -5   1  -3   57.16    1.87
  -5   1  -3   57.60    1.89
  -5   1  -4  117.78    3.52
   1  -5  -4  112.68    3.50
  -1  -5  -4  113.19    3.73
  -5   1  -4  104.00    3.56
  -1   5  -4  112.78    3.74
   1  -5  -4  106.36    3.39
  -5  -1  -4  110.58    3.50
  -5  -1  -4  104.92    3.51
  -5  -1  -4  110.90    3.55
  -1  -5  -4  125.68    3.48
   1  -5  -4  112.62    3.73
   5  -1  -4  118.62    3.60
   5   1  -4  112.80    3.52
  -1  -5  -4  118.20    3.54
  -5   1  -4  123.23    3.50
   1   5  -4  116.68    3.76
  -5  -1  -4  114.91    3.47
  -5  -1  -4  104.90    3.51
  -1   5  -5   29.61    1.48
  -5   1  -5   31.35    1.32
  -1  -5  -5   29.27    1.28
   1  -5  -5   29.34    1.48
  -5  -1  -5   30.62    1.32
   1   5  -5   29.22    1.48
  -1  -5  -5   30.52    1.50
  -5  -1  -5   31.97    1.33
  -5   1  -5   26.25    1.36
  -5   1   6   18.66    0.87
   5  -1   6   18.71    0.91
   5   1   6   20.54    1.02
   1  -5  -6   19.30    1.05
  -5  -1   6   17.47    0.85
  -1  -5  -6   21.61    1.11
   2  -5   0   -0.01    0.07
  -2  -5   0    0.04    0.07
  -2  -5   0    0.02    0.06
  -5  -2   0    0.07    0.07
   2  -5  -1   90.50    2.45
  -2  -5  -1   88.53    2.63
  -2  -5  -1   84.24    2.48
  -2  -5   1   86.15    2.63
  -2  -5   1   80.93    2.58
   2  -5   1   94.35    2.64
  -5  -2  -1   94.55    2.69
  -5  -2  -1   94.61    2.61
  -5  -2   1  100.11    2.64
  -5   2  -2    5.30    0.35
  -2  -5  -2    4.83    0.31
   2  -5  -2    3.98    0.28
  -5  -2  -2    4.59    0.35
  -5   2  -2    5.82    0.40
  -2  -5  -2    5.03    0.33
  -5  -2  -2    4.89    0.36
  -5   2   2    5.00    0.34
  -5  -2   2    4.52    0.32
  -5  -2  -2    4.28    0.31
  -5   2  -2    5.42    0.38
  -5   2  -3   89.31    2.85
  -2  -5  -3   92.80    2.78
   2  -5  -3   91.49    2.78
  -5  -2  -3   95.25    2.85
  -5   2  -3   96.26    2.85
  -2  -5  -4    0.57    0.18
   2   5  -4    0.77    0.23
  -5  -2  -4    0.68    0.21
  -2  -5  -4    0.50    0.20
  -5  -2  -4    0.96    0.19
   2  -5  -4    0.69    0.24
  -5   2  -4    0.39    0.18
  -2   5  -4    0.82    0.24
  -5  -2  -4    0.57    0.19
  -2   5  -4    0.61    0.20
  -5   2  -4    0.98    0.19
   2   5  -5   44.95    1.90
  -2   5  -5   47.19    1.92
   2  -5  -5   48.36    1.98
  -2  -5  -5   40.62    1.88
  -5  -2  -5   48.62    1.80
  -2  -5  -5   42.13    1.70
  -5   2  -5   42.36    1.70
  -2   5  -5   43.33    1.75
  -5  -2  -5   53.91    1.82
   5   2   6    1.25    0.24
  -5  -2   6    1.32    0.21
  -5   2   6    1.54    0.23
  -5   2   6    1.50    0.20
  -2  -5  -6    1.75    0.31
   2  -5  -6    0.95    0.24
   5  -2   6    1.72    0.23
  -3  -5   0  445.80   11.60
  -3  -5   0  434.72   11.67
  -5  -3   0  457.66   11.66
   3  -5   0  443.93   11.60
  -3  -5  -1    0.79    0.14
   3  -5   1    0.62    0.13
  -3  -5  -1    0.47    0.10
  -5  -3  -1    0.78    0.14
  -3  -5   1    0.68    0.13
  -5  -3   1    0.63    0.12
  -5  -3  -1    0.57    0.14
  -3  -5   1    0.70    0.13
   3  -5  -2   50.35    1.61
  -5  -3   2   45.18    1.62
  -3  -5   2   48.85    1.67
  -3  -5  -2   50.40    1.67
  -5  -3  -2   56.37    1.77
  -5   3  -2   56.82    1.77
  -3  -5  -2   53.85    1.66
  -5  -3  -2   49.88    1.65
  -5   3  -2   59.53    1.79
  -5  -3  -2   51.22    1.73
   3  -5  -3    4.33    0.36
  -5   3  -3    3.49    0.34
  -3  -5  -3    3.55    0.32
  -5  -3  -3    4.66    0.40
  -5  -3  -3    4.83    0.39
  -3   5  -4   57.23    2.10
  -3  -5  -4   54.44    2.19
   3   5  -4   57.21    2.11
  -3  -5  -4   52.50    2.02
  -5  -3  -4   61.03    2.01
  -5   3  -4   60.46    2.02
  -3   5  -4   48.27    2.02
  -5  -3  -4   57.19    2.08
   3  -5  -4   60.11    2.27
  -5   3  -4   48.36    2.10
  -5  -3  -4   60.15    2.15
  -3   5  -5    2.54    0.36
  -5  -3  -5    2.61    0.35
  -5   3  -5    2.74    0.34
  -5  -3   5    2.35    0.31
  -5  -3  -5    2.56    0.33
  -5   3   5    2.47    0.31
   3  -5  -5    3.17    0.43
   3   5  -5    2.65    0.37
  -3  -5  -5    2.68    0.41
  -3  -5  -5    2.51    0.33
  -3   5  -5    2.87    0.39
  -5   3  -5    2.25    0.40
  -3  -5   6    0.95    0.15
   5  -3   6    0.67    0.15
   5   3   6    1.09    0.19
  -3  -5  -6    1.02    0.18
  -5   3   6    0.90    0.16
   3  -5  -6    1.09    0.23
  -5   3   6    0.75    0.16
  -5  -3   6    0.82    0.15
  -5  -3   6    1.03    0.18
  -3  -5  -6    0.83    0.21
  -4  -5   0    0.07    0.07
   4  -5   0    0.15    0.07
  -5  -4   0   -0.01    0.06
  -4  -5   0    0.05    0.05
  -4  -5  -1   18.22    0.80
  -5  -4  -1   20.54    0.85
  -5  -4   1   22.01    0.87
   4  -5   1   24.88    0.83
  -5  -4  -1   21.12    0.88
  -4  -5  -1   17.14    0.81
  -4  -5   1   17.34    0.81
  -4  -5   1   19.17    0.77
   4  -5   2    1.66    0.21
  -5  -4   2    1.69    0.21
  -5  -4  -2    2.01    0.23
  -5  -4  -2    2.05    0.25
  -4  -5  -2    1.63    0.21
  -5  -4  -2    2.07    0.26
  -4  -5   2    1.88    0.23
  -5   4  -2    1.43    0.21
  -4  -5  -2    1.64    0.21
  -4  -5   2    1.85    0.23
  -4   5  -3   56.61    2.21
   5  -4  -3   57.18    2.04
   4  -5  -3   64.31    2.04
  -5  -4  -3   70.37    2.16
  -4  -5  -3   61.30    2.14
  -5   4  -3   57.17    2.02
  -4  -5  -3   59.06    2.03
  -5  -4  -3   71.82    2.12
  -5   4  -3   52.05    2.19
  -4  -5  -4    9.10    0.66
  -4   5  -4    8.97    0.72
   4   5  -4   10.52    0.69
  -5   4  -4    8.99    0.62
   4  -5  -4   11.69    0.83
  -4  -5  -4    8.68    0.65
  -5  -4   4    9.58    0.61
  -5   4   4    9.37    0.61
  -5  -4  -4   10.32    0.70
  -4  -5  -4    9.08    0.72
  -5  -4  -4   11.09    0.74
  -5  -4  -4   10.59    0.64
  -5   4  -4    6.14    0.64
  -4   5  -4   10.13    0.66
  -4  -5  -5    0.65    0.19
  -5  -4   5    0.41    0.13
  -4  -5  -5    0.92    0.25
   4  -5  -5    0.36    0.18
  -5   4   5    0.44    0.15
  -5  -4   5    0.73    0.17
  -5  -4  -5    0.54    0.18
  -4   5  -5    0.97    0.25
  -5   4  -5    0.46    0.22
  -5  -4   6    2.40    0.24
   5   4   6    2.58    0.23
  -5   4   6    2.56    0.24
  -5   4   6    2.72    0.25
  -5  -4  -6    2.31    0.25
   4  -5  -6    2.35    0.27
  -4  -5  -6    2.42    0.25
  -5  -5   0    0.44    0.13
  -5  -5  -1    0.27    0.11
  -5  -5   1    0.31    0.11
  -5  -5  -1    0.21    0.10
  -5  -5  -2   14.99    0.74
  -5  -5   2   13.93    0.72
  -5  -5  -2   15.72    0.79
   5  -5  -3    0.99    0.19
  -5  -5  -3    1.02    0.21
  -5  -5  -3    0.68    0.20
  -5   5  -3    0.63    0.22
  -5  -5  -3    0.69    0.20
  -5  -5  -4    5.25    0.49
  -5  -5  -4    4.38    0.46
  -5   5  -4    3.60    0.48
  -5  -5   5    0.34    0.13
  -5   5   5    0.37    0.14
  -5  -5  -5    0.21    0.13
  -5   5  -5    0.27    0.19
  -5  -5   6    5.81    0.35
  -5  -5  -6    5.91    0.37
   0  -6   0  235.79    6.35
  -6   0   0  229.65    6.29
  -6   0  -1  101.66    3.01
  -6   0   1  104.74    3.01
   0  -6   1  103.36    3.06
  -6   0  -2  970.55   25.28
  -6   0   2 1000.00   25.29
   0  -6  -2  999.75   25.14
  -6   0  -2  988.58   25.42
  -6   0  -2  942.70   25.40
   0  -6  -3   51.45    1.73
  -6   0  -3   55.11    1.94
  -6   0  -3   57.22    1.94
  -6   0  -4   22.76    1.14
  -6   0  -4   27.19    1.18
   0   6  -4   22.58    1.31
   0  -6  -4   20.16    1.22
  -6   0   4   21.53    0.96
  -6   0  -4   22.27    1.15
  -6   0   4   21.92    1.07
   0  -6  -4   25.29    1.15
  -6   0   5   24.34    1.16
   0  -6  -5   26.17    1.39
   0   6  -5   26.31    1.40
  -6   0  -5   29.67    1.28
   0  -6  -6  147.44    4.32
  -6   0   6  136.17    4.01
  -6   1   0    0.07    0.08
  -6  -1   0    0.15    0.09
   1  -6   0    0.24    0.10
  -1  -6   0    0.16    0.10
  -6   1  -1   99.35    2.99
  -6   1   1   97.09    2.97
  -6  -1  -1  101.86    2.97
  -1  -6   1  105.58    3.03
   1  -6   1  107.35    3.03
  -1  -6  -2    4.07    0.29
  -6   1  -2    3.93    0.33
  -6   1   2    4.31    0.34
   1  -6  -2    5.09    0.30
  -6   1  -2    4.67    0.40
  -6  -1  -2    4.98    0.36
  -6  -1  -2    5.13    0.41
  -6   1  -2    4.09    0.37
  -6  -1   2    5.21    0.37
  -6  -1  -2    5.52    0.42
   1  -6  -3   34.19    1.19
  -6   1  -3   28.63    1.27
  -6  -1  -3   33.32    1.34
  -6  -1  -3   35.91    1.35
  -1  -6  -3   28.62    1.13
  -6   1  -3   26.94    1.23
  -1   6  -4    0.07    0.17
  -1  -6  -4    0.07    0.16
  -6   1   4    0.14    0.12
  -6  -1   4    0.27    0.13
   1   6  -4    0.17    0.20
   1  -6  -4    0.17    0.17
  -1  -6  -4    0.19    0.13
   1  -6  -4    0.19    0.13
  -6  -1  -4    0.37    0.18
  -6   1  -4    0.08    0.13
  -6   1   4    0.22    0.12
  -6  -1  -4    0.12    0.13
  -6  -1  -4    0.14    0.15
  -6  -1  -4    0.19    0.14
  -6   1  -4    0.07    0.09
  -6   1  -4    0.14    0.15
  -6  -1   5   32.80    1.40
   1  -6  -5   35.44    1.66
  -1  -6  -5   36.57    1.68
  -1  -6  -5   37.77    1.46
  -6   1  -5   33.70    1.53
   1   6  -5   38.24    1.70
  -6   1   5   33.60    1.31
  -6  -1  -5   34.70    1.47
  -1   6  -5   36.23    1.66
  -6   1   5   36.55    1.45
  -6  -1   6    4.64    0.37
   6  -1   6    3.31    0.32
   1  -6  -6    5.16    0.48
  -1  -6  -6    4.31    0.46
  -6   1   6    4.69    0.37
  -6  -2   0   37.22    1.28
  -2  -6   0   32.97    1.26
  -2  -6   0   32.86    1.26
   2  -6   0   39.58    1.29
  -6   2  -1   63.67    2.09
  -6   2   1   69.10    2.12
  -2  -6   1   65.36    2.09
  -6  -2  -1   67.50    2.10
   2  -6   1   70.54    2.12
  -6  -2   1   67.68    2.11
  -2  -6  -1   68.58    2.13
  -6  -2  -1   65.47    2.16
  -2  -6   1   68.18    2.13
  -6   2  -2  401.88   10.50
  -2  -6  -2  399.13   10.37
  -6   2  -2  432.52   10.60
  -6  -2  -2  388.95   10.47
  -6  -2   2  384.03   10.47
  -6   2   2  400.08   10.48
  -2  -6   2  407.72   10.62
   2  -6   2  383.95   10.57
  -6  -2  -2  384.05   10.60
  -6   2  -2  391.36   10.58
  -6  -2  -2  390.03   10.59
   2  -6  -3   80.77    2.50
  -6   2  -3   81.25    2.66
  -6  -2  -3   82.39    2.66
  -6   2  -3   84.07    2.67
  -2  -6  -3   82.53    2.51
   2  -6  -4    6.20    0.63
  -6  -2  -4    5.97    0.57
  -6  -2  -4    5.52    0.52
  -2  -6  -4    6.18    0.53
  -6   2   4    4.60    0.41
  -6   2   4    4.34    0.43
  -2   6  -4    6.25    0.60
  -6   2  -4    5.38    0.54
  -2  -6  -4    4.64    0.56
  -2   6  -4    5.54    0.49
  -6  -2   4    5.16    0.47
   2   6  -4    5.29    0.56
  -6  -2  -4    6.64    0.54
  -6   2  -4    5.63    0.49
  -6  -2   5   11.57    0.65
  -2  -6  -5   10.94    0.83
  -6  -2  -5   11.27    0.74
  -6   2   5   10.73    0.63
  -2   6  -5   11.86    0.70
   2  -6  -5   12.55    0.88
  -2   6  -5   12.13    0.82
  -6   2  -5   10.91    0.79
  -2  -6  -5   11.61    0.71
   2   6  -5   12.18    0.83
  -6   2   5   10.68    0.68
  -6  -2   5   12.31    0.72
   2  -6  -6  116.86    3.51
  -2  -6  -6  122.33    3.55
  -6  -2   6  118.98    3.32
   6   2   6  120.07    3.39
  -6   2   6  114.11    3.30
   3  -6   0    0.08    0.07
  -6  -3   0    0.07    0.08
  -3  -6   0    0.10    0.08
  -3  -6   0    0.09    0.08
  -3  -6   1   14.96    0.72
  -6  -3   1   16.52    0.76
  -3  -6  -1   15.17    0.76
  -3  -6   1   15.53    0.76
  -6  -3  -1   17.36    0.81
  -6  -3  -1   17.64    0.78
   3  -6   1   19.05    0.78
  -3  -6  -2    1.64    0.21
  -6   3  -2    1.89    0.24
  -6   3   2    1.59    0.22
  -3  -6  -2    1.48    0.19
   3  -6   2    1.58    0.22
  -6  -3   2    1.67    0.22
  -3  -6   2    1.78    0.23
  -3  -6   2    1.89    0.25
  -6  -3  -2    1.78    0.23
  -6  -3  -2    1.55    0.24
  -6   3   3    2.06    0.28
   3  -6  -3    2.09    0.25
  -6  -3  -3    2.08    0.31
  -6   3   3    2.03    0.29
  -3  -6  -3    2.88    0.29
  -3  -6  -3    2.13    0.30
  -3  -6  -3    4.84    0.52
  -6  -3   3    2.59    0.30
   3  -6  -3    2.04    0.35
  -6   3  -3    2.47    0.38
  -3   6  -3    2.04    0.30
  -6  -3  -3    2.57    0.36
  -3  -6  -3    2.41    0.32
  -6  -3   3    3.85    0.38
  -6  -3  -3    2.20    0.32
  -6  -3  -3    2.54    0.32
  -6   3  -3    4.64    0.42
  -6  -3   4    7.70    0.53
  -3  -6  -4    6.57    0.65
  -3   6  -4    7.38    0.61
  -6  -3   4    7.04    0.54
  -6   3   4    8.17    0.56
   3  -6  -4    6.28    0.64
  -6  -3  -4    6.92    0.58
   3   6  -4    8.66    0.66
  -3  -6  -4    7.91    0.60
  -3   6  -4    6.22    0.55
  -6   3  -4    6.45    0.61
  -6   3   4    7.10    0.55
  -6  -3  -4    7.24    0.63
  -6   3  -4    8.31    0.61
  -6  -3  -4    7.87    0.59
  -6  -3   5    3.70    0.37
  -6   3   5    3.71    0.35
  -3   6  -5    3.25    0.37
  -6  -3  -5    3.96    0.41
   3   6  -5    3.19    0.40
   3  -6  -5    3.83    0.48
  -3  -6  -5    2.96    0.35
  -3   6  -5    3.77    0.41
  -6   3   5    3.16    0.35
  -3  -6  -5    3.82    0.47
  -3   6   6    2.25    0.22
  -6   3   6    2.06    0.22
   6   3   6    1.80    0.21
  -6  -3  -6    1.57    0.20
  -3  -6   6    2.25    0.21
  -6  -4   0    0.87    0.17
  -4  -6   0    1.06    0.19
   4  -6   0    0.95    0.15
  -4  -6   0    0.63    0.13
  -6  -4  -1   27.80    1.14
  -4  -6  -1   27.36    1.16
  -6  -4   1   28.81    1.16
  -4  -6   1   30.01    1.12
   4  -6   1   31.85    1.14
  -4  -6   1   30.38    1.19
  -6  -4   2  601.64   15.53
  -4  -6   2  603.37   15.51
  -4  -6  -2  593.33   15.53
  -4  -6   2  616.58   15.53
   4  -6   2  564.60   15.47
  -6  -4  -2  591.65   15.64
  -6  -4  -2  580.40   15.51
  -6  -4   3   77.22    2.50
  -4  -6   3   77.32    2.49
  -6  -4   3   71.84    2.45
  -6   4   3   72.84    2.45
  -4   6  -3   72.23    2.62
   4  -6   3   80.00    2.52
  -4  -6  -3   77.77    2.56
  -6  -4  -3   76.24    2.49
  -4  -6  -3   72.29    2.66
  -4  -6  -3   76.53    2.54
  -6  -4  -3   71.64    2.56
  -6   4  -4    0.87    0.26
  -4   6  -4    0.70    0.19
  -6  -4  -4    0.61    0.18
  -6  -4   4    0.71    0.18
  -6   4   4    1.22    0.24
  -6  -4  -4    1.09    0.25
   4  -6  -4    1.43    0.33
  -4  -6   4    1.20    0.23
  -4  -6  -4    0.85    0.21
   4   6  -4    0.75    0.21
  -4  -6  -4    0.49    0.20
  -4   6  -4    0.73    0.22
  -6  -4  -4    1.48    0.25
   4   6  -5    2.12    0.30
  -6   4   5    1.59    0.24
   4  -6  -5    1.89    0.32
  -6  -4  -5    1.81    0.28
  -4  -6  -5    1.08    0.22
  -6   4   5    1.67    0.24
  -4   6  -5    1.53    0.28
  -6   4  -5    1.07    0.28
  -6   4   6  100.08    2.76
  -6  -4  -6   95.85    2.77
  -4   6   6  102.85    2.80
  -4  -6   6   92.74    2.69
  -6  -4   6   97.59    2.72
  -5  -6   0    0.12    0.10
  -6  -5   0   -0.04    0.08
  -5  -6  -1   97.28    2.86
  -5  -6   1   96.69    2.85
  -6  -5  -1   83.87    2.77
  -6  -5   1   82.55    2.77
  -5   6  -2    1.88    0.32
  -5   6   2    1.88    0.26
  -6  -5  -2    2.05    0.30
  -5  -6  -2    1.99    0.28
  -6   5   2    1.44    0.24
  -5  -6   2    1.76    0.25
  -6  -5  -2    2.00    0.27
  -6  -5   2    2.69    0.32
  -6  -5  -2    1.75    0.27
  -6  -5   2    1.83    0.26
  -6   5  -2    2.48    0.35
  -5  -6  -2    1.92    0.29
  -6  -5  -2    1.64    0.27
  -5  -6  -2    1.71    0.25
  -5  -6  -3   63.48    2.21
  -5  -6  -3   64.81    2.23
  -6   5  -3   59.66    2.34
  -5   6   3   60.70    2.12
  -6   5   3   62.41    2.15
  -6  -5   3   62.01    2.16
  -5   6  -3   55.52    2.29
  -6  -5  -3   60.29    2.22
  -6  -5  -3   62.12    2.23
  -6   5   4   11.36    0.69
  -5   6   4   11.53    0.68
  -6  -5   4   11.75    0.69
  -6  -5  -4   11.82    0.77
  -5   6  -4   10.08    0.76
  -6   5  -4    9.78    0.78
  -6  -5  -4   11.31    0.74
  -6  -5   5   24.16    1.03
  -5  -6  -5   23.96    1.06
  -6  -5   5   25.13    0.98
  -5  -6   5   25.93    1.02
  -5   6  -5   20.78    1.10
  -6  -5  -5   24.75    1.08
  -5   6   5   24.42    1.02
  -6   5  -5   25.55    1.23
  -5   6   6    2.24    0.19
  -6   5   6    2.37    0.19
  -5  -6   6    2.07    0.19
  -6  -5  -6    2.20    0.19
  -6  -5   6    2.47    0.19
  -6  -6   0  197.20    5.49
  -6   6   0  185.41    5.41
  -6   6   1   61.45    2.12
  -6  -6  -1   65.12    2.17
  -6  -6   1   68.93    2.25
  -6  -6   1   63.61    2.21
  -6  -6  -1   59.72    2.16
  -6  -6  -1   65.93    2.21
  -6   6  -1   63.34    2.23
  -6  -6  -1   65.05    2.17
  -6  -6   1   63.77    2.15
  -6  -6   2  277.48    7.86
  -6  -6  -2  277.60    7.86
  -6   6   2  292.41    7.86
  -6   6  -2  298.40    8.07
  -6  -6  -2  280.79    7.90
  -6   6   3   65.33    2.27
  -6  -6   3   68.37    2.31
  -6   6  -3   63.19    2.45
  -6  -6  -3   66.89    2.34
  -6  -6  -3   64.44    2.33
  -6   6  -4   56.76    2.21
  -6  -6   4   60.63    2.05
  -6   6   4   57.69    2.03
  -6  -6  -4   60.26    2.13
  -6   6   5   12.74    0.64
  -6   6  -5   12.21    0.74
  -6  -6   5   13.00    0.62
  -6  -6   5   12.57    0.65
  -6  -6  -5   12.52    0.66
  -7   0   0    0.05    0.09
   0  -7   0    0.07    0.08
  -7   0  -1  141.04    4.15
   0  -7   1  140.93    4.20
  -7   0  -2    6.29    0.50
   0  -7   2    6.45    0.50
  -7   0   3  160.46    4.82
  -7   0   3  164.23    4.65
   0  -7  -3  154.00    5.10
   0  -7   3  174.62    4.91
  -7   0  -3  167.30    4.88
   0  -7  -3  174.16    4.87
  -7   0  -3  165.92    4.74
  -7   0  -3  164.36    4.86
   0  -7  -4   12.61    0.77
  -7   0   4   11.74    0.65
  -7   0   4   11.02    0.74
   0  -7  -4   11.82    0.92
  -7   0  -4   12.24    0.77
  -7   0  -4   11.40    0.80
  -7   0  -4   12.06    0.79
  -7   0   5   26.71    1.16
   0  -7  -5   26.46    1.36
  -7   0  -5   24.78    1.14
  -7   0   6    9.56    0.51
   0  -7  -6   10.58    0.57
  -7   1   0   29.23    1.22
  -1  -7   0   31.28    1.26
  -7   1  -1    6.18    0.44
  -7   1   1    6.07    0.44
  -7  -1   1    6.96    0.46
   1  -7   1    5.93    0.44
  -1  -7   1    5.68    0.44
  -7   1  -2    1.64    0.23
  -7   1   2    1.96    0.25
  -7  -1  -2    2.81    0.33
  -7  -1  -2    2.57    0.28
  -1  -7   2    2.65    0.31
   1  -7   2    2.60    0.31
  -7  -1   3    1.29    0.23
  -7  -1   3    1.29    0.26
  -7   1  -3    1.58    0.27
  -7  -1  -3    1.76    0.29
  -1  -7   3    1.59    0.28
  -7   1   3    1.43    0.23
  -1  -7  -3    0.92    0.28
   1  -7  -3    1.35    0.32
  -7   1   3    1.38    0.26
   1  -7   3    1.36    0.26
  -1  -7  -3    0.96    0.24
  -7  -1  -3    1.65    0.27
  -7   1  -3    1.63    0.27
  -7  -1  -3    1.40    0.30
   1  -7   4    7.40    0.60
  -7  -1   4    6.03    0.53
  -7   1   4    5.09    0.43
  -1   7  -4    5.98    0.63
  -1  -7  -4    5.60    0.62
   1  -7  -4    6.63    0.67
  -7   1  -4    6.34    0.55
  -7  -1  -4    5.49    0.48
  -1  -7  -4    6.68    0.55
  -7   1   4    5.57    0.50
   1   7  -4    4.72    0.58
  -1  -7   4    6.63    0.57
  -7  -1  -4    5.09    0.54
  -7  -1  -4    6.30    0.56
  -7  -1  -4    6.48    0.58
  -7   1  -4    5.07    0.53
  -7   1  -4    5.31    0.51
  -7  -1   4    7.46    0.52
  -7  -1  -5    0.79    0.21
  -7  -1   5    0.74    0.20
  -7   1   5    0.59    0.19
  -1  -7  -5    0.66    0.24
   1  -7  -5    0.84    0.27
  -1   7  -5    0.62    0.22
   1   7  -5    0.47    0.21
   7  -1   6    0.38    0.10
   7   1   6    0.73    0.15
  -7  -1   6    0.53    0.13
  -7   1   6    0.73    0.14
  -1  -7  -6    0.75    0.16
   1  -7  -6    0.56    0.15
  -7  -2   0    0.07    0.08
  -7   2   0    0.10    0.09
  -2  -7   0    0.05    0.08
   2  -7   0    0.05    0.08
  -2  -7   1   11.74    0.67
  -7   2  -1   12.44    0.68
  -7   2   1   12.74    0.68
  -7  -2   1   13.02    0.68
  -7  -2  -1   11.80    0.65
   2  -7   1   12.73    0.68
   2  -7   2    0.10    0.10
  -7   2  -2    0.50    0.14
  -7   2   2    0.14    0.10
  -7  -2   2    0.14    0.10
  -7  -2  -2    0.19    0.11
  -7  -2  -2    0.07    0.10
  -2  -7   2    0.06    0.11
  -7  -2   3   82.25    2.61
   2  -7  -3   85.62    2.99
  -7  -2   3   77.40    2.66
  -7   2   3   73.23    2.53
  -2  -7  -3   66.19    2.79
  -7   2   3   74.82    2.62
  -2  -7   3   81.98    2.67
  -2  -7  -3   80.24    2.66
  -7  -2  -3   86.83    2.72
   2  -7   3   84.75    2.69
  -7  -2  -3   79.05    2.74
  -7  -2  -3   77.23    2.76
  -7  -2   4    2.86    0.34
  -2   7  -4    3.20    0.44
  -7  -2   4    2.25    0.32
  -7   2   4    2.70    0.36
  -7   2   4    2.77    0.32
  -2  -7  -4    2.10    0.42
   2  -7  -4    2.49    0.43
   2  -7   4    3.36    0.40
   2   7  -4    2.48    0.40
  -2  -7  -4    3.03    0.37
  -7   2  -4    3.02    0.39
  -2  -7   4    2.66    0.36
  -7  -2  -4    2.55    0.37
  -7  -2  -4    2.68    0.40
  -7  -2  -4    3.49    0.41
  -7   2  -4    2.87    0.37
  -7  -2   5    1.73    0.27
  -7   2   5    1.80    0.24
  -7   2   5    1.67    0.26
   2  -7  -5    2.09    0.36
  -2  -7  -5    1.54    0.33
  -2   7  -5    2.35    0.34
   2   7  -5    2.08    0.34
  -2  -7  -5    2.50    0.30
  -7  -2  -5    2.05    0.30
  -7  -2   5    1.96    0.24
  -7   2  -5    1.84    0.31
   7  -2   6    0.12    0.07
   7   2   6    0.24    0.09
  -2   7   6    0.18    0.09
  -2  -7   6    0.15    0.08
  -7  -2   6    0.11    0.07
  -2  -7  -6    0.11    0.09
   2  -7  -6    0.15    0.09
  -7   2   6    0.21    0.09
  -7   3   0   32.58    1.25
  -7  -3   0   29.28    1.23
  -3  -7   0   36.65    1.34
   3  -7   0   27.71    1.15
  -3  -7   0   33.61    1.22
  -3  -7   1   10.33    0.60
  -7   3  -1    8.72    0.56
  -7   3   1    8.80    0.56
  -7  -3  -1    8.44    0.55
  -7  -3   1    8.21    0.54
   3  -7   1    9.64    0.57
  -3  -7  -1    7.82    0.54
  -3  -7   1    8.76    0.56
  -7   3  -2  117.23    3.35
  -7   3   2  120.26    3.35
  -7  -3   2   99.08    3.32
  -7  -3  -2  103.24    3.27
   3  -7   2  108.92    3.31
  -7  -3   2  110.33    3.31
  -3  -7   2  116.78    3.36
  -7  -3  -2   99.48    3.37
  -7  -3   3   17.02    0.90
  -7  -3   3   15.47    0.88
  -7   3   3   15.81    0.87
  -7   3  -3   18.19    0.99
  -3  -7   3   19.32    0.94
  -3   7  -3   15.10    0.86
   3  -7   3   18.64    0.93
  -3  -7  -3   19.06    0.96
  -7  -3  -3   16.19    0.95
  -7  -3  -3   16.36    0.98
  -7  -3   3   17.23    0.88
  -7   3   3   16.44    0.91
  -7  -3   4   13.27    0.78
  -7   3   4   15.20    0.85
  -7  -3   4   14.48    0.82
  -7   3   4   13.98    0.79
  -3  -7  -4   15.91    1.02
   3  -7  -4   13.01    0.95
  -3   7  -4   15.98    0.92
   3   7  -4   16.19    0.94
  -3  -7   4   16.24    0.87
   3  -7   4   15.94    0.87
  -3   7  -4   12.74    0.77
  -7  -3  -4   14.96    0.89
  -7   3  -4   16.33    0.96
  -7  -3  -4   15.20    0.94
  -7  -3   5    2.70    0.30
  -7   3   5    2.73    0.31
   3   7  -5    2.32    0.32
  -7   3   5    2.42    0.28
  -3   7  -5    2.29    0.28
  -3   7  -5    2.35    0.32
  -7   3  -5    2.31    0.33
  -3  -7  -5    2.62    0.31
  -7  -3  -5    1.93    0.29
  -7  -3   5    2.49    0.27
   7   3   6    7.13    0.37
  -7   3   6    9.46    1.14
  -3   7   6   10.33    0.45
  -3  -7   6   10.70    0.44
   3  -7  -6    7.45    0.39
  -4  -7   0    0.04    0.10
  -7  -4   0    0.14    0.11
  -4  -7   1   10.68    0.65
  -7  -4   1   10.12    0.64
  -4  -7  -1   10.91    0.66
  -4  -7   1   11.72    0.62
   4  -7   1    9.73    0.58
  -7  -4  -1    9.36    0.61
  -7   4  -2    1.74    0.26
  -7   4   2    1.79    0.26
  -4   7  -2    1.54    0.28
  -7   4   2    1.93    0.28
  -4  -7   2    1.65    0.24
  -7  -4   2    1.47    0.25
  -7  -4  -2    1.51    0.24
  -7  -4   2    1.68    0.27
  -7   4  -2    1.99    0.31
  -7  -4  -2    1.68    0.27
  -7  -4   2    1.64    0.25
  -4  -7  -2    1.46    0.26
  -7   4  -2    1.85    0.32
  -4  -7  -2    1.53    0.25
   4  -7   2    1.82    0.25
  -7  -4  -2    1.98    0.30
  -7  -4  -2    1.98    0.32
  -4  -7  -2    1.67    0.26
  -7  -4   3   13.52    0.81
  -7  -4   3   13.66    0.79
  -7   4   3   15.99    0.87
  -7  -4  -3   14.40    0.88
  -4   7   3   13.83    0.77
   4  -7   3   13.90    0.77
  -4  -7  -3   14.60    0.85
  -7  -4   3   13.49    0.79
  -4  -7  -3   15.16    0.85
  -4   7  -3   12.75    0.83
  -7   4  -3   15.08    0.92
  -4  -7  -3   13.45    0.80
  -4  -7   3   15.20    0.80
  -7  -4  -3   14.29    0.88
   4  -7  -3   14.39    0.86
   4   7  -4    0.70    0.20
  -4   7  -4    0.67    0.20
  -7   4  -4    0.50    0.21
  -4   7  -4    0.86    0.21
  -7   4   4    0.65    0.20
  -4   7   4    0.60    0.16
  -4  -7  -4    0.64    0.20
   4  -7  -4    0.75    0.22
  -7  -4   4    0.82    0.20
  -7  -4   4    0.45    0.15
  -7  -4  -4    0.78    0.22
  -7   4   4    0.52    0.17
  -7  -4  -4    0.75    0.23
  -7  -4   4    0.64    0.18
   4  -7  -5   12.71    0.68
  -7   4   5   13.35    0.66
  -7   4   5   13.24    0.67
  -4   7   5   11.76    0.64
  -4  -7   5   14.24    0.70
  -4  -7  -5   13.72    0.71
  -4   7  -5   11.76    0.67
  -7  -4  -5   12.20    0.70
  -7  -4   5   12.46    0.65
  -4  -7   6    3.18    0.22
  -4   7   6    2.64    0.20
  -7  -5   0   68.73    2.36
  -7  -5   0   71.61    2.39
  -5  -7   0   66.18    2.38
  -7  -5   0   77.72    2.44
  -7   5   0   71.77    2.35
  -5   7   0   68.43    2.34
  -7  -5   0   74.99    2.36
  -5  -7   1    1.66    0.25
  -5   7  -1    1.75    0.30
  -7   5   1    1.52    0.25
  -7   5  -1    1.85    0.29
  -7  -5   1    1.73    0.27
  -7  -5  -1    1.17    0.23
  -5  -7  -1    1.71    0.27
  -5  -7   1    1.59    0.26
  -7   5  -1    2.15    0.31
  -7  -5  -1    1.21    0.22
  -7  -5  -1    1.67    0.28
  -5  -7   1    1.46    0.25
  -7  -5  -1    1.50    0.25
  -7  -5  -1    1.58    0.28
  -7  -5   1    1.92    0.28
  -7   5  -2    3.18    0.35
  -7   5   2    2.92    0.33
  -7   5  -2    3.05    0.39
  -7   5   2    2.88    0.35
  -7  -5   2    3.47    0.39
  -5  -7   2    2.54    0.33
  -7   5  -2    3.11    0.39
  -5   7  -2    3.49    0.43
  -5  -7  -2    3.24    0.36
  -7  -5  -2    2.91    0.36
  -5  -7  -2    3.37    0.37
  -7  -5  -2    3.71    0.43
  -5   7   2    3.01    0.34
  -7  -5   2    3.14    0.37
  -7   5   3   11.07    0.70
  -5   7  -3   10.41    0.77
  -7  -5   3   11.35    0.72
  -5  -7   3    9.68    0.67
  -5  -7  -3   11.21    0.72
  -7  -5  -3   11.72    0.76
  -5   7   3   12.06    0.72
  -5  -7  -3   12.58    0.75
  -7  -5  -3   10.04    0.72
  -7  -5   4   14.40    0.79
  -7   5   4   13.85    0.76
  -5   7   4   13.24    0.74
  -5  -7  -4   13.93    0.80
  -7  -5   4   14.54    0.76
  -5  -7   4   13.67    0.76
  -7  -5  -4   14.47    0.83
  -5   7  -4   13.32    0.83
  -7   5  -4   13.75    0.86
  -7  -5  -4   12.23    0.78
  -5   7   5    3.21    0.30
  -7   5  -5    3.13    0.36
  -5  -7   5    2.99    0.28
  -5   7  -5    2.34    0.30
  -5  -7  -5    2.97    0.30
  -7  -5  -5    3.23    0.32
  -7  -5   5    2.79    0.24
  -7  -5   5    3.48    0.30
  -6   7   0   -0.02    0.10
  -6  -7   0    0.02    0.11
  -6  -7   0    0.08    0.10
  -7  -6   0    0.02    0.11
  -7  -6   0    0.06    0.10
  -7  -6  -1    2.14    0.29
  -7  -6   1    1.94    0.29
  -6  -7  -1    2.31    0.29
  -7   6  -1    2.43    0.32
  -7  -6   1    2.81    0.35
  -6  -7   1    2.23    0.32
  -6  -7  -1    2.05    0.28
  -7  -6  -1    2.12    0.31
  -6   7  -1    2.36    0.33
  -7  -6  -1    2.11    0.30
  -7   6   1    1.93    0.28
  -6   7   1    1.92    0.28
  -6  -7   1    2.20    0.28
  -7  -6   2    0.77    0.20
  -6  -7   2    0.95    0.21
  -7   6  -2    0.84    0.24
  -6   7  -2    0.85    0.25
  -7   6   2    0.77    0.18
  -7   6   2    1.19    0.24
  -6   7   2    0.83    0.20
  -7  -6   2    0.79    0.21
  -6  -7   2    0.79    0.21
  -6  -7  -2    0.55    0.17
  -7  -6  -2    1.15    0.24
  -6  -7  -2    0.92    0.21
  -7  -6  -2    0.84    0.22
  -7  -6   3    2.65    0.34
  -6  -7   3    2.50    0.32
  -6   7   3    2.92    0.35
  -7  -6   3    2.67    0.34
  -7   6  -3    2.84    0.39
  -6  -7  -3    2.01    0.30
  -7  -6  -3    2.87    0.36
  -6   7  -3    2.64    0.39
  -6  -7  -3    2.46    0.33
  -7  -6  -3    2.74    0.36
  -7   6   3    3.24    0.36
  -6  -7   3    2.36    0.32
  -6  -7   4    0.73    0.18
  -6   7  -4    0.90    0.23
  -7   6  -4    0.71    0.22
  -7   6   4    0.55    0.16
  -6   7   4    0.76    0.18
  -7  -6   4    0.92    0.19
  -6  -7   4    0.79    0.19
  -6  -7  -4    0.86    0.20
  -7  -6  -4    0.99    0.22
  -7  -6  -4    0.63    0.19
  -7   6   5    5.36    0.35
  -6   7   5    5.28    0.35
  -6  -7   5    5.58    0.35
  -6   7  -5    5.26    0.40
  -7   6  -5    5.96    0.43
  -6  -7  -5    5.78    0.38
  -7  -6  -5    6.08    0.39
  -7  -6   5    5.49    0.32
  -7  -6   5    6.10    0.38
  -7  -7   0    3.34    0.37
  -7  -7   0    3.48    0.38
  -7   7   0    4.02    0.40
  -7  -7   1    0.25    0.13
  -7   7  -1    0.52    0.19
  -7  -7  -1    0.73    0.18
  -7  -7  -1    0.56    0.17
  -7  -7   1    0.50    0.17
  -7  -7   1    0.61    0.18
  -7  -7  -1    0.62    0.17
  -7  -7  -2    4.33    0.43
  -7   7  -2    4.55    0.48
  -7  -7  -2    3.77    0.38
  -7  -7   2    4.01    0.40
  -7   7  -3    0.96    0.24
  -7  -7   3    0.88    0.20
  -7   7   3    1.24    0.22
  -7  -7   3    0.79    0.19
  -7  -7  -3    0.77    0.19
  -7  -7  -3    0.66    0.19
  -7   7  -4    0.44    0.17
  -7  -7   4    1.05    0.19
  -7   7   4    0.63    0.15
  -7  -7   4    0.73    0.16
  -7  -7  -4    0.62    0.16
  -7  -7   5    0.81    0.11
  -7   7  -5    0.89    0.14
  -7  -7   5    1.14    0.14
  -7   7   5    0.98    0.12
   0  -8   0  604.56   15.95
  -8   0   0  610.08   15.95
  -8   0  -1   94.37    3.00
  -8   0   1   96.06    3.01
  -8   0  -2   46.31    1.88
   0  -8   2   48.93    1.83
  -8   0   2   51.25    1.91
   0  -8  -2   47.22    1.82
   0  -8   2   50.34    1.85
  -8   0  -2   51.43    1.78
  -8   0   2   48.30    1.75
   0  -8  -2   50.53    1.99
   0  -8  -2   48.79    1.82
  -8   0   2   51.46    1.80
  -8   0   3    8.86    0.56
  -8   0   3    9.35    0.68
   0  -8  -3    9.04    0.65
   0  -8   3    8.71    0.64
   0  -8  -3    8.19    0.69
  -8   0  -3    8.52    0.69
  -8   0   3    8.75    0.58
  -8   0   4  253.04    7.01
   0   8  -4  229.77    7.23
  -8   0  -4  251.36    6.89
   0  -8   4  248.49    6.96
  -8   0  -4  260.98    7.12
  -8   0  -4  234.50    6.94
  -8   0   5   84.06    2.61
   0  -8  -5   84.62    2.68
  -8   0  -5   82.08    2.57
  -8   0   6    1.05    0.13
   0  -8  -6    1.04    0.14
  -8   1   0    0.11    0.11
  -8  -1   0    0.08    0.10
  -1  -8   0    0.04    0.08
   1  -8   0    0.06    0.09
  -8   1  -1   67.19    2.18
  -8   1   1   65.83    2.17
  -8  -1  -1   62.22    2.15
  -8  -1   1   60.55    2.14
   1  -8   1   58.49    2.15
  -8  -1   2    0.90    0.21
  -8   1  -2    0.74    0.17
  -8   1   2    0.47    0.14
  -8  -1   2    0.93    0.23
   1  -8  -2    0.61    0.18
   1  -8   2    0.60    0.18
  -1  -8   2    0.62    0.19
  -1  -8   2    0.69    0.19
   1  -8   2    0.54    0.17
   1  -8  -2    0.69    0.23
  -8  -1  -2    0.46    0.14
  -8  -1   2    0.65    0.16
  -1  -8  -2    0.74    0.20
  -1  -8  -2    0.90    0.25
  -1  -8   2    1.04    0.21
   1  -8   2    0.72    0.18
  -8   1   2    0.99    0.23
  -1  -8  -2    0.72    0.18
  -8   1   3   82.79    2.63
  -8  -1   3   78.34    2.74
  -8   1   3   84.84    2.78
  -1  -8   3   85.94    2.76
   1  -8   3   81.38    2.71
   1  -8  -3   69.40    2.76
  -1  -8  -3   90.70    2.95
  -1  -8  -3   87.42    2.77
  -8   1  -3   76.39    2.60
  -8  -1  -3   75.65    2.80
  -8  -1   3   79.23    2.61
   1  -8  -4   21.57    1.15
  -1   8  -4   20.32    1.21
  -8   1   4   21.94    0.97
  -8  -1   4   20.45    1.07
  -8   1   4   21.85    1.09
  -1  -8   4   24.32    1.11
   1  -8   4   21.40    1.07
  -1  -8  -4   24.20    1.20
  -8   1  -4   22.99    1.08
  -8  -1  -4   21.70    1.13
  -8   1  -4   21.84    1.14
  -8  -1  -4   19.36    1.08
   1   8  -4   20.16    1.19
  -8  -1   4   22.44    0.98
  -8  -1   5    3.63    0.35
  -8   1   5    3.54    0.35
   1   8  -5    3.44    0.40
   1  -8  -5    3.18    0.36
  -1  -8  -5    2.63    0.33
  -1   8  -5    3.07    0.39
  -8  -1  -5    3.27    0.34
   8  -1   6    1.73    0.16
   8   1   6    1.83    0.17
  -8   1   6    2.08    0.18
  -8  -1   6    1.98    0.18
  -1  -8   6    1.97    0.17
  -1  -8  -6    2.43    0.20
   1  -8  -6    2.02    0.18
  -8   2   0  259.72    7.16
  -8  -2   0  269.44    7.21
   2  -8   0  278.67    7.17
  -8   2  -1   67.39    2.29
  -8   2   1   67.88    2.29
  -2  -8   1   66.05    2.31
  -8  -2  -1   69.20    2.31
  -8  -2   1   71.27    2.32
  -8   2  -1   65.41    2.34
  -8  -2  -1   67.66    2.33
  -2  -8   1   69.83    2.33
   2  -8   1   73.12    2.33
  -8  -2   1   69.98    2.32
  -8   2  -2  140.54    4.14
  -8   2   2  138.16    4.12
  -8   2   2  142.51    4.29
  -8  -2   2  143.49    4.29
  -8   2   2  137.11    4.16
  -8   2  -2  135.49    4.35
  -2  -8   2  142.03    4.31
   2  -8   2  133.50    4.19
  -2  -8  -2  136.13    4.28
  -8   2  -2  141.08    4.17
   2  -8   2  133.13    4.15
  -8  -2  -2  143.08    4.16
  -8  -2   2  155.46    4.21
  -2  -8  -2  134.66    4.31
   2  -8  -2  136.60    4.31
   2  -8   2  149.84    4.24
   2  -8  -2  141.48    4.21
  -2  -8  -2  142.45    4.21
  -8  -2  -2  139.91    4.37
  -2  -8   2  148.83    4.24
  -8  -2   2  148.86    4.24
  -8  -2   3    5.25    0.50
  -8   2   3    5.95    0.53
  -8   2   3    6.62    0.51
   2  -8   3    5.20    0.47
   2  -8  -3    5.47    0.55
  -2  -8  -3    6.23    0.58
  -2  -8  -3    5.42    0.50
  -8  -2  -3    5.24    0.52
  -8  -2  -3    6.78    0.60
  -2  -8   3    5.52    0.49
  -8  -2   3    5.62    0.48
  -8  -2   4  213.66    6.02
  -8   2   4  209.45    5.99
  -8   2   4  205.28    5.86
   2  -8  -4  221.69    6.15
  -2  -8  -4  196.54    6.05
  -8   2  -4  209.49    6.01
  -2   8  -4  218.04    6.21
  -8  -2  -4  215.40    6.10
  -8   2  -4  194.76    6.01
  -8  -2  -4  216.16    6.14
   2   8  -4  196.43    6.10
  -8  -2   4  219.17    5.89
  -8  -2   5   76.39    2.40
  -8   2   5   74.53    2.38
  -2   8  -5   79.71    2.52
   2   8  -5   72.15    2.45
   2  -8  -5   81.37    2.47
  -2  -8  -5   74.79    2.43
  -8  -2  -5   72.85    2.40
  -2   8   5   77.84    2.32
  -8  -2   5   70.56    2.22
  -8   3   0    0.08    0.11
   3  -8   0    0.02    0.11
  -3  -8   0    0.03    0.13
  -3  -8   0    0.37    0.14
  -3  -8   0    0.04    0.09
  -8  -3   0   -0.02    0.10
  -8  -3   0    0.02    0.08
  -8  -3   0    0.08    0.11
  -3  -8   0   -0.04    0.08
  -8   3   1    1.85    0.26
  -8   3  -1    1.42    0.23
  -8   3  -1    1.22    0.23
   3  -8  -1    1.78    0.29
  -3  -8  -1    1.34    0.28
  -3  -8   1    1.72    0.31
   3  -8   1    2.02    0.31
   3  -8  -1    1.81    0.29
   3  -8   1    1.60    0.24
  -3  -8   1    1.38    0.25
  -3  -8  -1    1.51    0.24
  -3  -8   1    1.48    0.25
  -3  -8  -1    1.25    0.22
   3  -8   1    1.83    0.28
  -8  -3  -1    1.68    0.25
  -8  -3   1    1.40    0.25
  -8  -3   1    1.41    0.24
  -8  -3  -1    1.16    0.23
  -3  -8   1    1.43    0.23
   3  -8   1    1.94    0.26
  -8   3   1    1.45    0.21
  -8   3  -1    1.35    0.25
  -3  -8  -1    1.71    0.27
  -8  -3   2    1.20    0.24
  -8   3  -2    1.11    0.23
   3  -8   2    0.91    0.21
  -8   3  -2    1.20    0.22
  -8   3   2    1.17    0.22
  -3  -8  -2    1.01    0.24
  -8   3   2    0.85    0.22
  -8  -3   2    1.14    0.24
  -3  -8   2    1.31    0.27
  -8  -3   2    1.18    0.23
   3  -8  -2    1.07    0.24
  -8   3   2    0.89    0.21
  -3  -8   2    0.93    0.20
   3  -8   2    1.35    0.23
  -8   3  -2    0.88    0.25
  -3  -8  -2    1.05    0.22
   3  -8  -2    0.85    0.20
  -3  -8  -2    1.34    0.27
  -8  -3  -2    0.92    0.23
  -8  -3   3    1.38    0.25
  -3  -8  -3    1.12    0.25
  -8  -3   3    0.98    0.24
  -8   3   3    1.14    0.23
  -8  -3   3    1.36    0.23
   3  -8  -3    1.35    0.27
  -3  -8   3    1.06    0.22
   3  -8   3    1.24    0.23
  -3  -8  -3    1.28    0.25
  -8   3   3    0.94    0.23
  -8  -3  -3    1.29    0.28
  -8  -3   4    1.44    0.25
  -8  -3   4    1.68    0.27
  -8   3   4    1.19    0.24
  -3   8   4    1.31    0.22
  -8   3   4    1.03    0.21
  -3   8  -4    1.33    0.27
   3   8  -4    1.25    0.26
   3  -8  -4    1.32    0.27
  -3  -8  -4    1.37    0.26
  -3  -8  -4    1.18    0.23
  -8  -3  -4    1.51    0.28
  -8  -3  -4    1.44    0.29
  -8   3  -4    1.31    0.26
  -8  -3   5    0.51    0.12
   3  -8  -5    1.18    0.19
  -8  -3   5    1.12    0.18
  -8   3   5    0.93    0.17
  -8   3   5    0.48    0.12
  -3   8   5    0.41    0.13
   3   8  -5    0.45    0.14
  -3  -8  -5    1.13    0.19
  -8  -3  -5    0.62    0.16
  -8   3  -5    0.47    0.16
  -8   4   0   38.09    1.50
  -4  -8   0   37.10    1.63
  -4  -8   0   35.48    1.41
  -4  -8   0   36.04    1.41
  -4  -8   0   36.49    1.50
  -4  -8   0   35.76    1.42
  -8   4   0   38.70    1.44
  -4   8   0   37.46    1.46
  -8  -4   0   37.66    1.50
  -8   4  -1   28.86    1.26
  -8   4   1   27.56    1.22
   4  -8  -1   28.06    1.29
  -4  -8  -1   26.75    1.13
  -8  -4  -1   28.15    1.24
  -8  -4   1   30.66    1.27
  -8   4  -1   27.92    1.27
  -4  -8   1   27.28    1.18
  -4  -8  -1   27.40    1.18
  -8  -4  -1   27.90    1.26
   4  -8  -1   30.23    1.26
  -4  -8   1   28.30    1.16
   4  -8   1   29.31    1.16
  -8   4  -1   26.80    1.20
  -4   8  -1   27.94    1.25
  -8  -4  -1   28.83    1.30
  -8   4   1   27.43    1.15
  -8  -4   1   26.42    1.21
  -8   4  -2   14.82    0.80
  -8   4   2   14.26    0.78
  -8   4   2   14.75    0.82
  -8   4  -2   12.36    0.84
   4  -8   2   12.70    0.79
   4  -8  -2   13.15    0.80
  -8  -4   2   14.67    0.82
  -4  -8  -2   13.38    0.77
  -4  -8   2   15.78    0.80
   4  -8   2   13.33    0.75
  -8   4  -2   14.97    0.85
  -4   8  -2   13.74    0.81
  -4  -8  -2   14.12    0.79
  -8  -4  -2   12.41    0.81
   4  -8  -2   14.20    0.80
  -8  -4  -2   14.18    0.87
  -8   4   3   23.93    1.12
  -8  -4   3   23.78    1.09
  -8  -4   3   22.59    1.07
  -4   8  -3   22.21    1.09
   4  -8  -3   24.31    1.14
  -4  -8   3   25.01    1.08
  -4  -8  -3   21.40    1.07
  -4   8   3   24.35    1.08
  -8  -4  -3   23.82    1.17
  -8  -4  -3   23.59    1.19
  -4  -8  -3   24.14    1.11
  -8  -4   3   22.16    1.08
   4   8  -4   37.82    1.48
  -8   4   4   36.60    1.39
  -8  -4   4   36.33    1.38
  -8   4   4   36.30    1.40
  -4   8   4   33.81    1.34
  -8  -4   4   38.38    1.35
   4  -8  -4   41.27    1.51
  -4  -8  -4   34.51    1.42
  -4   8  -4   31.72    1.37
  -8  -4  -4   38.04    1.51
  -8   4  -4   36.69    1.51
  -8  -4  -4   38.32    1.54
  -8  -4   4   38.33    1.43
  -8   4   5   18.31    0.75
  -8   4   5   19.64    0.79
  -4   8   5   21.36    0.82
  -4  -8   5   19.23    0.82
  -8   4  -5   20.73    0.90
   4  -8  -5   19.86    0.78
  -4  -8  -5   18.73    0.82
  -8  -4  -5   21.19    0.87
  -8  -4   5   20.71    0.80
  -8   5   0    0.14    0.10
  -8   5   0   -0.02    0.10
  -5   8   0    0.04    0.11
  -5  -8   0   -0.02    0.09
  -8  -5   0    0.04    0.12
  -8  -5   0    0.05    0.11
  -8   5  -1   74.96    2.57
  -8   5   1   74.96    2.55
  -8  -5  -1   74.32    2.54
  -8   5  -1   78.04    2.60
  -8  -5   1   76.96    2.58
  -5  -8   1   73.80    2.52
  -8  -5  -1   74.07    2.57
  -8  -5   1   74.03    2.53
  -8  -5  -1   70.88    2.48
  -8   5  -1   75.07    2.56
  -5   8  -1   81.82    2.65
  -8  -5  -1   78.16    2.62
  -8   5   1   78.36    2.50
  -8  -5   1   81.52    2.58
  -5   8   1   81.46    2.56
  -5  -8   2    5.71    0.47
  -8   5  -2    6.49    0.51
  -8   5   2    5.53    0.47
  -8   5  -2    6.73    0.57
   5  -8  -2    6.77    0.55
  -8  -5   2    7.13    0.56
  -5  -8   2    5.71    0.49
  -8   5  -2    7.07    0.57
  -5   8  -2    6.26    0.56
  -5  -8  -2    6.01    0.48
  -8  -5  -2    6.84    0.55
  -5  -8  -2    5.83    0.47
  -8  -5  -2    6.49    0.56
   5  -8   2    7.29    0.59
  -8  -5   2    7.58    0.57
  -8   5   2    5.94    0.47
  -8   5   3   33.85    1.38
  -5   8   3   35.97    1.39
  -8  -5   3   33.39    1.38
  -5  -8   3   35.04    1.40
  -5  -8  -3   33.07    1.37
  -8   5  -3   33.43    1.47
  -5   8  -3   33.57    1.46
  -8  -5  -3   31.55    1.41
  -8  -5  -3   33.91    1.46
  -8  -5   3   34.16    1.40
  -5   8   4    2.24    0.26
  -8  -5   4    2.23    0.26
  -5  -8   4    2.10    0.27
  -5  -8  -4    2.24    0.29
  -5   8  -4    2.18    0.30
  -8   5  -4    1.99    0.30
  -8  -5  -4    2.43    0.32
  -8  -5   4    2.18    0.27
  -5  -8   5   27.76    1.03
  -5   8   5   29.60    1.02
  -5  -8   5   28.24    1.03
  -8  -5  -5   31.59    1.08
  -8  -5   5   30.16    1.02
  -8  -6   0  145.27    4.33
  -6  -8   0  138.21    4.23
  -8  -6   0  145.71    4.32
  -8   6   0  151.31    4.35
  -8   6   0  149.10    4.34
  -6   8   0  144.36    4.31
  -8  -6   0  145.78    4.28
  -8   6  -1   52.83    1.94
  -8   6   1   51.49    1.90
  -8   6  -1   52.09    1.90
  -8  -6  -1   49.96    1.86
  -8  -6   1   51.02    1.92
  -6  -8   1   52.75    1.91
  -8  -6  -1   50.74    1.90
  -6  -8   1   52.05    1.84
  -8  -6   1   50.91    1.89
  -8   6  -1   51.53    1.94
  -6   8  -1   54.47    1.98
  -8  -6  -1   53.73    1.93
  -8   6   1   51.70    1.87
  -6   8   1   51.80    1.88
  -8  -6   1   53.81    1.89
  -8   6  -2    6.79    0.53
  -8   6  -2    5.67    0.51
   6  -8  -2    6.53    0.54
   6  -8   2    7.19    0.58
  -8  -6   2    6.22    0.52
  -6  -8   2    7.02    0.55
  -6   8  -2    7.61    0.60
  -6  -8  -2    6.22    0.48
  -8  -6  -2    6.67    0.52
  -6  -8  -2    6.11    0.48
  -8  -6  -2    6.72    0.55
  -8   6   2    5.98    0.48
  -8  -6   2    6.37    0.51
  -6  -8   2    6.95    0.51
  -6  -8   3   15.07    0.78
  -6   8   3   15.26    0.79
  -8  -6   3   15.52    0.82
  -6  -8  -3   14.90    0.79
  -8  -6  -3   15.51    0.83
  -8  -6  -3   16.13    0.87
  -8  -6   3   14.50    0.80
  -8   6   4   87.47    2.60
  -6   8   4   85.58    2.62
  -8  -6   4   91.60    2.65
  -6  -8   4   86.40    2.68
  -6  -8  -4   85.23    2.68
  -8  -6  -4   92.96    2.74
  -6   8  -4   88.06    2.77
  -8   6  -4   88.50    2.79
  -8  -6   4   91.21    2.68
  -6  -8   4   84.26    2.64
  -6  -8   5   37.19    1.13
  -8  -6  -5   36.00    1.15
  -8  -6   5   34.48    1.12
  -6  -8   5   32.72    1.11
  -6   8   5   38.07    1.13
  -8   7   0    0.02    0.10
  -7   8   0    0.17    0.14
  -8  -7   0    0.12    0.11
  -7  -8   0    0.06    0.10
  -7  -8   0   -0.02    0.10
  -8  -7   0    0.12    0.12
  -8   7  -1    2.75    0.34
  -8   7   1    2.53    0.32
  -8  -7   1    3.09    0.36
  -7  -8   1    2.70    0.33
  -8  -7  -1    3.20    0.35
  -7  -8   1    2.65    0.31
  -8  -7   1    2.66    0.33
  -7   8  -1    2.41    0.33
  -8  -7  -1    2.78    0.32
  -8   7   1    2.31    0.31
  -7   8   1    2.71    0.33
  -7  -8   1    2.73    0.30
  -8  -7   2    0.57    0.17
  -7  -8   2    0.65    0.16
  -8   7  -2    0.90    0.22
  -7   8  -2    0.73    0.21
  -8   7   2    0.64    0.18
  -7   8   2    0.91    0.22
   7  -8  -2    0.77    0.20
   7  -8   2    0.65    0.20
  -7  -8   2    0.63    0.18
  -8  -7   2    0.53    0.17
  -7  -8   2    0.76    0.18
  -8  -7  -2    0.68    0.18
  -8  -7   3   13.19    0.72
  -7  -8  -3   13.82    0.70
  -8  -7  -3   14.19    0.72
  -8  -7  -3   13.91    0.74
  -8   7   3   14.34    0.71
  -8  -7   3   12.32    0.68
  -7  -8   3   14.19    0.70
  -7   8   3   15.18    0.75
  -8  -7   4    6.15    0.38
  -7  -8   4    6.93    0.41
  -7  -8  -4    6.40    0.39
  -7   8  -4    6.89    0.45
  -8   7  -4    5.61    0.42
  -8  -7  -4    5.51    0.38
  -8   7   4    5.91    0.36
  -8  -7   4    5.87    0.38
  -7  -8   4    6.49    0.39
  -8   8   0    1.40    0.25
  -8  -8   0    1.57    0.24
  -8  -8   0    1.47    0.23
  -8  -8   1   23.19    1.02
  -8  -8   1   21.32    0.96
  -8   8   1   23.21    0.99
  -8   8  -1   22.22    1.03
   8  -8   2    8.97    0.57
  -8  -8   2    7.59    0.52
  -8  -8   2    7.86    0.50
  -8   8  -2    7.44    0.53
  -8  -8   2    7.66    0.48
  -8  -8   3   11.98    0.60
  -8  -8   3   11.14    0.57
  -8   8   3   11.75    0.58
  -8  -8   3   11.51    0.57
  -8  -8   4    2.41    0.20
  -8   8  -4    2.42    0.22
  -8   8   4    2.30    0.18
   0  -9   0   -0.03    0.11
   0  -9   0    0.05    0.11
  -9   0   0    0.02    0.10
   0  -9   0    0.03    0.12
   0  -9   0   -0.04    0.08
  -9   0   0    0.15    0.12
  -9   0  -1   22.95    1.09
   0  -9   1   20.13    1.05
  -9   0  -1   21.65    1.02
   0  -9  -1   23.66    1.18
   0  -9   1   23.90    1.09
   0  -9   1   20.94    1.07
   0  -9  -2    1.22    0.26
   0  -9   2    1.03    0.24
  -9   0   2    1.13    0.24
   0  -9   2    1.04    0.23
   0  -9  -2    1.12    0.27
  -9   0  -2    1.11    0.26
   0  -9   2    0.91    0.22
  -9   0  -2    1.18    0.27
  -9   0   3   74.13    2.50
   0  -9  -3   69.67    2.52
   0  -9   3   67.73    2.39
  -9   0  -3   68.77    2.46
   0  -9  -4    0.09    0.15
  -9   0  -4    0.39    0.16
  -9   0   4    0.31    0.16
  -9   0  -4    0.13    0.13
   0   9  -4    0.26    0.18
  -9   0   5    5.00    0.37
   0  -9  -5    5.23    0.39
  -9   0  -5    4.28    0.32
  -9   1   0   34.24    1.40
  -1  -9   0   33.79    1.51
   1  -9   0   33.33    1.47
   1  -9   0   35.17    1.47
  -1  -9   0   38.13    1.49
   1  -9   0   33.60    1.45
  -9  -1   0   33.87    1.37
  -9  -1   0   34.48    1.40
  -9   1   0   36.47    1.44
  -1  -9   0   37.78    1.55
   1  -9   0   34.08    1.49
  -1  -9   0   37.78    1.48
  -9   1  -1   10.42    0.66
  -9   1   1   10.34    0.65
  -9  -1  -1   10.28    0.68
  -1  -9  -1   10.89    0.76
  -1  -9   1    9.53    0.71
   1  -9   1   10.46    0.71
   1  -9  -1    9.38    0.69
  -1  -9   1   10.32    0.70
   1  -9   1    8.77    0.64
  -9   1  -1    9.50    0.67
   1  -9   1    9.94    0.68
  -1  -9  -1    9.94    0.65
  -1  -9   1   10.27    0.69
  -9  -1   1   10.29    0.65
  -9  -1  -1    9.25    0.64
  -9  -1   1    9.87    0.63
  -9  -1   1   10.30    0.62
  -1  -9  -1   10.58    0.74
   1  -9  -1   10.09    0.72
  -1  -9   1   10.75    0.69
   1  -9   1    9.88    0.66
  -9   1   2   18.51    0.98
  -9  -1   2   18.71    0.98
  -1  -9  -2   14.13    0.90
  -1  -9  -2   15.28    0.93
  -1  -9   2   15.04    0.88
   1  -9   2   17.96    0.93
  -1  -9  -2   15.56    0.83
   1  -9  -2   19.21    1.02
  -1  -9   2   16.35    0.92
   1  -9   2   19.43    0.98
  -1  -9   2   12.95    0.87
  -9  -1  -2   17.48    1.00
  -9  -1   3    0.12    0.11
  -9   1   3    0.17    0.15
  -9  -1   3    0.15    0.15
  -1  -9  -3    0.11    0.15
   1  -9  -3    0.14    0.15
  -1  -9   3    0.09    0.11
   1  -9   3    0.27    0.14
  -9   1  -3    0.15    0.12
  -9  -1   4    4.90    0.44
  -9   1   4    4.39    0.43
  -1  -9  -4    5.28    0.48
   1  -9  -4    5.41    0.49
  -9  -1  -4    4.26    0.43
  -9   1  -4    4.93    0.46
  -9  -1  -4    4.28    0.42
  -1   9  -4    5.00    0.52
   1   9  -4    4.46    0.48
  -9   1   5    5.39    0.37
  -9  -1   5    4.53    0.35
  -1   9  -5    5.82    0.45
   1   9  -5    5.25    0.41
  -1  -9  -5    4.91    0.37
   1  -9  -5    5.89    0.40
  -9  -1  -5    4.90    0.36
  -9   2   0    0.14    0.12
  -9   2   0    0.09    0.11
  -2  -9   0    0.17    0.14
  -2  -9   0   -0.04    0.12
   2  -9   0    0.09    0.11
  -2  -9   0    0.04    0.12
  -9  -2   0    0.02    0.10
  -9  -2   0    0.09    0.12
  -2  -9   0    0.07    0.14
   2  -9   0    0.02    0.14
  -9  -2   0    0.02    0.08
   2  -9   0    0.13    0.14
  -9   2  -1   41.74    1.56
  -9   2   1   38.84    1.51
  -9  -2  -1   37.91    1.51
  -2  -9  -1   39.68    1.69
  -2  -9   1   38.33    1.64
   2  -9  -1   39.05    1.60
   2  -9   1   37.86    1.58
  -2  -9   1   38.07    1.55
   2  -9   1   32.01    1.43
  -2  -9  -1   35.77    1.48
  -2  -9  -1   36.67    1.47
   2  -9   1   39.24    1.58
  -9  -2   1   38.26    1.50
  -9  -2  -1   43.36    1.61
  -9  -2   1   41.70    1.55
  -2  -9  -1   38.84    1.59
   2  -9  -1   35.83    1.54
  -2  -9   1   38.71    1.52
   2  -9   1   35.95    1.47
  -9   2  -2    1.85    0.27
  -9   2   2    1.65    0.25
  -2  -9  -2    1.82    0.32
  -2  -9   2    1.78    0.31
   2  -9  -2    1.53    0.27
   2  -9   2    1.53    0.27
  -2  -9  -2    1.73    0.25
   2  -9   2    1.35    0.25
  -9  -2   2    1.69    0.26
  -9   2  -2    1.70    0.26
  -2  -9  -2    1.80    0.31
   2  -9  -2    1.83    0.32
  -2  -9   2    1.93    0.29
   2  -9   2    1.72    0.27
  -9   2  -2    1.58    0.31
  -2  -9  -2    1.70    0.27
  -9  -2  -2    1.34    0.29
  -9  -2   2    1.87    0.28
  -9   2   3   50.73    1.90
  -9  -2   3   50.70    1.91
  -2  -9  -3   52.26    1.96
   2  -9  -3   43.80    1.87
  -2  -9   3   53.64    1.89
   2  -9   3   50.53    1.86
  -2  -9  -3   52.09    1.87
  -9  -2  -3   51.79    1.97
  -9   2  -3   47.89    1.77
  -9  -2  -3   50.42    1.96
  -9  -2   3   49.54    1.80
  -9   2   4    2.79    0.33
  -9  -2   4    3.06    0.35
  -2   9  -4    3.15    0.39
   2   9  -4    2.44    0.34
  -2  -9  -4    3.05    0.36
   2  -9  -4    3.29    0.38
  -9   2  -4    2.52    0.31
  -9  -2  -4    2.71    0.34
  -9   2  -4    3.12    0.35
  -9  -2  -4    2.83    0.35
  -9  -2   4    2.75    0.29
  -9   2   5   10.14    0.51
  -9  -2   5    9.41    0.50
  -2   9  -5   10.91    0.58
   2   9  -5   10.04    0.55
  -2  -9  -5    9.24    0.50
   2  -9  -5   10.60    0.53
  -9  -2  -5   10.79    0.54
  -9   3   0   30.78    1.33
  -9  -3   0   33.47    1.37
  -3  -9   0   28.20    1.43
  -3  -9   0   29.93    1.31
   3  -9   0   34.45    1.38
  -3  -9   0   28.76    1.29
   3  -9   0   34.86    1.47
  -9  -3   0   31.77    1.35
  -3  -9   0   29.09    1.32
   3  -9   0   39.50    1.51
  -9   3   0   31.76    1.38
  -9   3   0   30.79    1.24
  -9   3  -1    4.40    0.43
  -9   3   1    4.15    0.42
  -3  -9  -1    3.81    0.48
  -3  -9   1    3.16    0.43
   3  -9  -1    4.63    0.47
   3  -9   1    3.88    0.44
   3  -9   1    4.57    0.42
  -3  -9  -1    3.93    0.39
  -3  -9   1    4.14    0.42
  -3  -9  -1    4.08    0.39
  -9   3  -1    4.66    0.47
   3  -9   1    4.71    0.47
  -9  -3   1    4.83    0.45
  -3  -9   1    3.91    0.38
  -9  -3  -1    4.03    0.43
  -9  -3   1    4.80    0.45
  -3  -9  -1    4.51    0.44
   3  -9  -1    4.62    0.46
  -3  -9   1    3.63    0.38
   3  -9   1    4.83    0.42
  -9   3  -1    4.38    0.40
  -9   3   1    3.77    0.35
  -3   9   1    4.66    0.41
  -9   3  -2   30.78    1.30
  -9   3   2   32.58    1.32
  -9   3  -2   34.15    1.50
   3  -9  -2   32.90    1.40
   3  -9   2   33.79    1.41
  -3  -9  -2   28.65    1.25
   3  -9   2   32.86    1.33
  -9  -3   2   34.23    1.36
  -3  -9  -2   29.27    1.33
   3  -9  -2   35.39    1.42
  -9   3  -2   31.37    1.32
  -3  -9   2   30.72    1.32
   3  -9   2   36.67    1.40
  -3  -9  -2   29.83    1.28
  -9  -3  -2   33.09    1.45
  -9  -3  -2   33.29    1.48
  -9  -3   2   36.33    1.42
  -9   3   3    2.83    0.35
  -9  -3   3    3.47    0.38
  -9  -3   3    3.36    0.34
  -3  -9  -3    3.53    0.39
   3  -9  -3    3.56    0.41
  -3  -9  -3    3.65    0.38
  -9  -3  -3    3.51    0.42
  -9  -3   3    3.42    0.37
  -3   9  -4   10.61    0.64
  -9   3   4    9.71    0.59
  -9  -3   4   10.21    0.60
   3   9  -4   10.03    0.63
  -3  -9  -4    8.98    0.58
   3  -9  -4   11.62    0.66
  -9   3  -4    9.34    0.60
  -3  -9  -4    8.91    0.58
  -9  -3  -4    9.49    0.63
  -9  -3  -4   12.49    0.70
  -9  -3   4    9.49    0.56
   3   9  -5   10.02    0.51
  -3  -9   5   10.35    0.50
  -9  -3   5   10.03    0.44
   3  -9  -5    9.97    0.47
  -9  -3  -5   10.50    0.51
  -9   4   0    0.07    0.14
  -9   4   0    0.31    0.14
  -9   4   0    0.05    0.10
  -4   9   0    0.02    0.10
   4  -9   0    0.08    0.16
  -4  -9   0    0.12    0.12
   4  -9   0    0.23    0.13
  -9  -4   0    0.07    0.12
  -9   4  -1   90.58    2.80
  -9   4   1   85.96    2.75
   4  -9  -1   79.49    2.80
   4  -9   1   80.38    2.81
  -4  -9  -1   85.43    2.66
  -9   4  -1   85.95    2.83
  -4  -9  -1   84.73    2.62
   4  -9   1   74.52    2.71
  -9  -4   1   85.58    2.75
  -4  -9  -1   83.25    2.68
   4  -9  -1   82.14    2.71
  -4  -9   1   81.42    2.63
  -9   4  -1   83.75    2.70
  -4   9  -1   78.74    2.70
  -9  -4  -1   82.60    2.73
  -9  -4   1   85.28    2.75
  -4  -9   1   83.42    2.67
  -9   4   1   81.51    2.61
  -9  -4  -1   87.37    2.85
  -4   9   1   81.73    2.68
  -9   4  -2   10.69    0.66
  -9   4   2   11.32    0.67
  -9   4  -2   10.19    0.73
   4  -9  -2   10.40    0.69
   4  -9   2    9.93    0.68
  -9  -4   2   10.11    0.66
  -4  -9   2   10.53    0.67
  -4  -9  -2   10.87    0.66
   4  -9  -2   10.85    0.67
  -9   4  -2   10.96    0.69
  -4   9  -2   10.27    0.67
  -4  -9  -2   10.15    0.63
  -4  -9   2   10.94    0.64
  -9  -4  -2   11.13    0.72
  -9  -4  -2   11.73    0.77
  -9   4   2   10.57    0.60
  -9  -4   2   10.47    0.68
  -9  -4   3   81.80    2.64
  -4  -9   3   78.87    2.67
  -4  -9  -3   79.95    2.63
   4  -9  -3   92.10    2.76
  -4  -9  -3   81.51    2.67
  -9  -4  -3   88.69    2.82
  -9  -4  -3   87.21    2.83
  -9  -4   3   90.07    2.75
   4  -9  -4    5.83    0.41
  -4  -9  -4    4.78    0.39
  -9   4  -4    5.42    0.44
  -9  -4  -4    6.02    0.46
  -9  -4  -4    6.17    0.47
   4   9  -4    5.75    0.45
  -9  -4   4    6.05    0.42
  -9  -4   5   22.21    0.77
  -9  -4  -5   22.25    0.82
  -9   5   0   78.06    2.63
   5  -9   0   78.72    2.71
  -9  -5   0   76.47    2.58
  -9  -5   0   75.94    2.57
  -9   5   0   80.82    2.64
  -9   5   0   77.07    2.54
  -5   9   0   77.44    2.57
  -9  -5   0   76.42    2.58
  -9   5  -1    5.77    0.51
  -9   5   1    5.86    0.50
   5  -9  -1    5.88    0.54
   5  -9   1    6.85    0.58
  -9   5  -1    5.84    0.52
   5  -9   1    5.72    0.49
  -9  -5   1    5.81    0.50
  -5  -9   1    6.08    0.49
  -9  -5  -1    5.72    0.50
  -9   5  -1    5.67    0.49
  -5   9  -1    6.83    0.56
  -9  -5  -1    6.38    0.49
  -9   5   1    6.22    0.47
  -9  -5  -1    7.21    0.56
  -5   9   1    6.44    0.51
  -9   5  -2    3.11    0.39
   5  -9   2    3.90    0.42
  -9  -5   2    4.10    0.41
  -5  -9   2    4.89    0.44
  -9  -5   2    3.63    0.39
  -9   5  -2    3.30    0.39
  -5   9  -2    4.39    0.44
  -9  -5  -2    3.73    0.39
  -9  -5  -2    4.55    0.45
   5  -9  -2    3.84    0.40
  -9   5   2    3.85    0.36
  -9  -5   2    4.15    0.41
  -5   9   2    4.66    0.43
  -9  -5   3    0.81    0.19
  -9   5   3    1.09    0.18
  -9  -5   3    0.77    0.17
  -5  -9   3    0.94    0.20
  -5  -9  -3    0.95    0.18
  -9  -5  -3    1.17    0.22
  -9  -5  -3    1.00    0.22
  -5   9   4   16.27    0.68
  -9  -5   4   16.82    0.69
  -5   9  -4   17.04    0.75
  -5  -9  -4   16.87    0.76
  -9   5  -4   18.95    0.84
  -9  -5  -4   17.97    0.81
  -9  -5   4   17.86    0.76
  -9   6   0    0.04    0.12
  -9   6   0    0.10    0.14
  -9   6   0    0.35    0.16
  -6   9   0    0.04    0.12
  -9  -6   0    0.13    0.12
  -9  -6   0    0.10    0.13
  -9  -6   0    0.06    0.11
  -9   6  -1   10.26    0.68
  -9   6  -1   10.20    0.66
   6  -9  -1   10.56    0.71
   6  -9   1   11.24    0.75
  -6  -9   1   10.94    0.66
  -9  -6  -1   10.20    0.66
  -9  -6   1   11.41    0.68
  -9   6  -1   10.59    0.68
  -6   9  -1   10.52    0.69
  -9   6   1   11.54    0.66
  -9  -6  -1   10.51    0.66
  -6   9   1   10.96    0.67
  -9  -6   2    1.21    0.22
  -9   6  -2    1.22    0.25
  -6   9  -2    1.31    0.25
  -9   6   2    1.21    0.21
  -6   9   2    1.63    0.26
   6  -9  -2    1.06    0.22
   6  -9   2    1.38    0.25
  -9  -6   2    1.46    0.25
  -6  -9   2    1.37    0.24
  -9  -6   2    1.50    0.25
  -9  -6  -2    1.28    0.22
  -9  -6  -2    1.44    0.25
  -9  -6   3   20.72    0.91
  -6  -9   3   21.45    0.94
  -9  -6  -3   19.63    0.91
  -9  -6  -3   22.30    0.98
  -9   6   3   20.73    0.86
  -9  -6   3   21.17    0.93
  -6   9   3   22.83    0.95
  -9  -6   4    0.41    0.11
  -6   9   4    0.45    0.11
  -9  -6   4    0.41    0.10
  -6  -9   4    0.33    0.11
  -9  -6   4    0.62    0.13
  -6  -9  -4    0.33    0.10
  -9  -6  -4    0.27    0.10
  -6   9  -4    0.31    0.10
  -9   6  -4    0.56    0.14
  -9  -7   0   64.53    2.12
  -9   7   0   62.84    2.09
  -9  -7   0   62.69    2.11
  -9   7   0   64.47    2.15
  -7   9   0   60.60    2.12
  -9   7  -1    7.16    0.50
   7  -9  -1    7.49    0.57
   7  -9   1    8.33    0.61
  -9  -7   1    7.06    0.52
  -7  -9   1    7.42    0.50
  -9  -7   1    7.71    0.52
  -9   7   1    7.61    0.52
  -9   7  -1    7.22    0.53
  -7   9  -1    7.79    0.55
  -9   7   1    7.43    0.51
  -7   9   1    7.34    0.53
   7  -9   2   20.57    0.96
  -9  -7   2   22.16    0.96
  -7  -9   2   19.77    0.90
  -9  -7   2   19.94    0.91
  -7   9  -2   19.94    0.96
  -9  -7  -2   21.18    0.92
  -9   7   2   21.05    0.90
  -7   9   2   21.53    0.95
  -9  -7   3    1.25    0.19
  -7  -9   3    1.43    0.20
  -9  -7   3    1.46    0.20
  -9  -7  -3    1.52    0.21
  -9   7   3    1.08    0.16
  -7   9   3    1.45    0.20
  -9  -7   4   18.90    0.68
  -7  -9   4   19.75    0.72
  -9  -7   4   20.02    0.71
  -9   7  -4   20.38    0.76
  -7   9   4   20.88    0.71
  -8   9   0    0.07    0.12
  -9  -8   0    0.06    0.08
   8  -9  -1   12.88    0.70
   8  -9   1   12.72    0.71
  -9  -8   1   11.88    0.63
  -8  -9   1   11.21    0.60
  -9   8   1   12.33    0.62
  -9  -8   1   11.79    0.61
  -8   9  -1   10.96    0.63
  -9   8   1   11.21    0.63
  -8   9   1   12.59    0.67
  -9   8  -2    0.23    0.12
  -8   9  -2    0.38    0.13
  -9   8   2    0.34    0.11
  -9   8   2    0.29    0.12
  -8   9   2    0.38    0.14
   8  -9   2    0.24    0.11
   9  -8   2    0.08    0.09
  -9  -8   2    0.32    0.12
  -8  -9   2    0.30    0.11
  -9  -8   2    0.27    0.11
  -9  -8   3    6.17    0.35
  -8  -9   3    6.01    0.35
  -9  -8   3    6.42    0.34
  -9   8   3    5.85    0.33
  -8   9  -3    5.35    0.35
  -9   8  -3    5.79    0.36
  -9   8   3    6.15    0.34
  -9   9   0    3.63    0.32
  -9   9  -1    0.70    0.15
   9  -9  -1    0.55    0.15
   9  -9   1    0.49    0.14
  -9  -9   1    0.47    0.11
   9  -9   2    0.28    0.08
  -9  -9   2    0.39    0.10
   0 -10   0   13.71    0.88
   0 -10   0   13.69    0.83
 -10   0   0   12.75    0.76
 -10   0   0   12.52    0.71
   0 -10   0   14.33    0.89
 -10   0  -1   15.94    0.90
   0 -10  -1   17.67    1.01
   0 -10   1   16.74    0.98
   0 -10   1   17.94    0.97
   0 -10   1   17.12    0.94
   0 -10  -1   17.41    0.93
 -10   0   1   16.04    0.85
   0 -10  -1   17.56    0.99
   0 -10   1   17.27    0.92
   0 -10  -2  310.74    8.75
   0 -10   2  318.05    8.78
   0 -10   2  320.68    8.68
   0 -10  -2  311.49    8.61
   0 -10  -2  306.23    8.73
   0 -10   2  325.48    8.65
 -10   0  -2  308.45    8.72
   0 -10  -3    7.26    0.56
 -10   0  -3    7.24    0.55
   0 -10  -4    0.34    0.14
 -10   0  -4    0.59    0.16
   0  10  -4    0.35    0.16
   0 -10  -5   15.33    0.61
  -1 -10   0    0.06    0.15
   1 -10   0    0.05    0.13
   1 -10   0    0.03    0.12
  -1 -10   0   -0.02    0.13
   1 -10   0   -0.02    0.13
 -10  -1   0    0.06    0.11
  -1 -10   0   -0.03    0.15
   1 -10   0   -0.08    0.15
 -10  -1   0    0.08    0.11
 -10   1   0    0.11    0.14
 -10  -1  -1   15.30    0.84
  -1 -10  -1   13.81    0.90
 -10   1  -1   13.34    0.82
  -1 -10   1   14.36    0.91
  -1 -10   1   13.99    0.84
   1 -10   1   14.02    0.84
  -1 -10  -1   13.30    0.80
  -1 -10   1   13.52    0.83
   1 -10   1   15.14    0.87
  -1 -10  -1   14.10    0.81
   1 -10  -1   13.84    0.84
 -10  -1   1   14.83    0.77
 -10  -1   1   15.67    0.80
  -1 -10  -1   13.69    0.86
   1 -10  -1   15.28    0.89
 -10   1   1   13.90    0.79
  -1 -10   1   12.05    0.76
   1 -10   1   14.82    0.82
  -1 -10  -2    2.18    0.35
   1 -10  -2    2.50    0.35
   1 -10   2    2.24    0.35
  -1 -10   2    2.20    0.34
   1 -10   2    2.61    0.35
  -1 -10  -2    2.42    0.31
 -10  -1   2    2.28    0.29
  -1 -10  -2    2.58    0.37
   1 -10  -2    2.95    0.38
  -1 -10   2    2.32    0.31
   1 -10   2    2.79    0.34
 -10  -1  -2    2.44    0.34
 -10   1  -2    3.13    0.38
   1 -10  -3    3.96    0.37
 -10  -1   3    4.30    0.35
  -1 -10  -3    4.66    0.44
   1 -10  -3    4.33    0.43
 -10  -1  -3    4.11    0.43
 -10   1  -3    3.93    0.38
 -10  -1  -3    4.33    0.43
  -1  10  -4    2.55    0.33
   1  10  -4    1.82    0.27
  -1 -10  -4    2.43    0.28
   1 -10  -4    2.00    0.26
 -10  -1  -4    2.14    0.26
 -10   1  -4    1.89    0.25
 -10  -1  -4    2.29    0.25
  -1  10  -5    7.84    0.42
   1  10  -5    7.44    0.40
  -1 -10   5    7.13    0.36
  -1 -10  -5    7.21    0.36
   1 -10  -5    7.85    0.38
 -10   2   0   77.66    2.71
 -10  -2   0   81.73    2.67
  -2 -10   0   78.55    2.90
   2 -10   0   92.34    2.95
  -2 -10   0   83.82    2.79
   2 -10   0   90.66    2.87
  -2 -10   0   83.54    2.77
   2 -10   0   94.36    2.92
 -10   2   0   81.48    2.77
 -10  -2   0   85.11    2.77
 -10   2  -1    8.02    0.58
 -10   2   1    8.87    0.60
  -2 -10  -1    8.61    0.70
  -2 -10   1    8.07    0.67
   2 -10  -1    9.68    0.70
   2 -10   1    8.33    0.61
  -2 -10  -1    8.46    0.60
  -2 -10  -1    8.15    0.58
   2 -10   1    9.91    0.68
 -10  -2   1    8.34    0.58
 -10  -2  -1    9.69    0.65
 -10  -2   1    8.59    0.59
   2 -10   1    8.75    0.67
  -2 -10  -1    8.61    0.65
   2 -10  -1    7.88    0.62
 -10   2   1    8.62    0.62
  -2 -10   1    8.81    0.61
   2 -10   1    8.71    0.60
 -10   2  -2   21.55    1.10
  -2 -10  -2   19.09    1.05
   2 -10  -2   23.21    1.11
  -2 -10  -2   20.82    0.99
   2 -10   2   21.55    1.03
  -2 -10  -2   20.37    0.93
 -10  -2   2   21.87    0.97
  -2 -10   2   19.47    0.94
 -10  -2   2   23.34    1.01
  -2 -10  -2   21.35    1.06
   2 -10  -2   22.44    1.08
  -2 -10   2   20.86    1.01
   2 -10   2   21.54    1.01
 -10  -2  -2   22.46    1.11
 -10   2  -2   22.88    1.05
  -2 -10   2   19.16    1.07
  -2 -10  -3    4.29    0.37
 -10  -2   3    4.56    0.38
  -2 -10  -3    4.58    0.42
   2 -10  -3    4.31    0.43
 -10  -2  -3    4.70    0.44
  -2  10  -4   39.02    1.40
   2  10  -4   35.61    1.35
  -2 -10   4   33.28    1.26
 -10  -2   4   34.38    1.18
  -2 -10  -4   34.21    1.28
   2 -10  -4   36.98    1.31
 -10  -2  -4   38.60    1.36
 -10   2  -4   35.36    1.28
 -10  -2  -4   36.07    1.30
  -2 -10   5   13.29    0.52
 -10   3   0    0.11    0.11
  -3 -10   0    0.36    0.19
   3 -10   0    0.03    0.13
  -3 -10   0    0.02    0.12
   3 -10   0    0.09    0.13
  -3 -10   0    0.13    0.13
   3 -10   0    0.03    0.12
 -10  -3   0    0.22    0.14
 -10   3  -1    7.30    0.56
 -10   3   1    7.08    0.54
  -3 -10  -1    8.28    0.67
  -3 -10   1    7.90    0.65
   3 -10  -1    7.54    0.61
   3 -10   1    7.82    0.62
 -10   3  -1    7.11    0.58
   3 -10   1    6.13    0.51
  -3 -10  -1    8.27    0.57
  -3 -10  -1    7.96    0.53
   3 -10   1    7.61    0.60
 -10  -3   1    7.56    0.55
 -10  -3  -1    7.02    0.56
 -10  -3   1    6.96    0.53
  -3 -10  -1    7.78    0.58
   3 -10  -1    6.98    0.55
 -10   3  -1    6.76    0.48
 -10  -3  -1    7.13    0.58
  -3  10   2    0.68    0.17
   3 -10   2    0.79    0.20
  -3 -10  -2    0.64    0.17
   3 -10   2    0.37    0.16
 -10  -3   2    0.53    0.16
  -3 -10   2    0.57    0.16
 -10  -3   2    0.43    0.17
  -3 -10  -2    0.51    0.17
   3 -10  -2    0.56    0.17
 -10   3  -2    0.70    0.22
 -10  -3  -2    0.55    0.18
 -10  -3  -2    0.70    0.20
 -10  -3   3   25.89    1.04
  -3 -10   3   29.09    1.15
 -10  -3   3   28.66    1.13
  -3 -10  -3   30.96    1.19
   3 -10  -3   25.02    1.13
 -10  -3  -3   29.18    1.23
 -10  -3  -3   28.58    1.22
  -3 -10   4    1.41    0.19
 -10  -3   4    1.49    0.18
   3 -10  -4    1.51    0.20
 -10  -3  -4    1.57    0.21
 -10  -3  -4    1.49    0.21
   3  10  -4    1.31    0.20
  -3  10   4    1.73    0.19
 -10   4   0    0.30    0.12
  -4  10   0    0.43    0.15
 -10   4   0    0.35    0.15
   4 -10   0    0.26    0.16
   4 -10   0    0.57    0.17
   4 -10   0    0.52    0.19
 -10  -4   0    0.22    0.15
 -10   4   0    0.63    0.20
 -10   4  -1    4.98    0.46
 -10   4   1    6.09    0.48
 -10   4  -1    5.99    0.53
   4 -10  -1    5.27    0.50
   4 -10   1    6.41    0.54
  -4 -10  -1    4.91    0.41
   4 -10   1    6.16    0.51
 -10  -4   1    5.14    0.45
 -10  -4  -1    5.73    0.49
 -10  -4   1    5.72    0.48
  -4 -10  -1    4.83    0.43
   4 -10  -1    4.89    0.44
 -10   4  -1    4.57    0.40
 -10  -4  -1    5.89    0.47
 -10   4   1    5.84    0.42
  -4  10   1    4.54    0.40
 -10  -4  -1    5.50    0.50
 -10   4  -2  163.89    4.84
   4 -10  -2  161.84    4.77
   4 -10   2  165.69    4.81
 -10  -4   2  158.86    4.68
  -4 -10   2  164.25    4.69
 -10  -4   2  171.77    4.75
  -4 -10  -2  162.28    4.66
   4 -10  -2  158.56    4.68
 -10   4  -2  164.86    4.69
 -10  -4  -2  162.31    4.76
 -10  -4  -2  167.60    4.84
  -4  10   2  162.85    4.64
   4  10  -3    8.42    0.59
 -10  -4   3    6.51    0.42
  -4 -10   3    6.48    0.45
 -10  -4   3    7.44    0.48
   4 -10  -3    7.01    0.47
 -10  -4  -3    7.44    0.51
 -10   4  -3    5.81    0.44
 -10  -4  -3    7.11    0.51
  -4  10   3    6.12    0.42
  -4  10   4    0.18    0.08
  -4 -10   4    0.19    0.09
 -10  -4   4    0.29    0.10
   4 -10  -4    0.28    0.09
   4  10  -4    0.21    0.10
 -10  -4  -4    0.17    0.09
 -10   5   0    0.04    0.11
  -5  10   0    0.14    0.11
   5 -10   0    0.02    0.15
   5 -10   0    0.02    0.12
 -10   5   0    0.06    0.13
 -10  -5   0    0.24    0.14
 -10   5  -1   16.67    0.88
   5 -10  -1   16.63    0.90
   5 -10   1   17.55    0.93
   5 -10  -1   16.77    0.78
   5 -10   1   18.14    0.86
 -10  -5   1   15.27    0.82
 -10  -5   1   14.69    0.81
 -10   5   1   16.33    0.85
 -10   5  -1   14.79    0.79
  -5  10  -1   14.53    0.79
 -10   5   1   14.91    0.75
  -5  10   1   15.26    0.79
 -10  -5  -1   15.46    0.84
 -10   5  -2    1.61    0.25
  -5  10  -2    1.49    0.23
  -5  10   2    1.16    0.21
   5 -10   2    1.35    0.24
  -5 -10   2    1.59    0.23
 -10  -5   2    1.42    0.23
 -10  -5   2    1.37    0.23
 -10  -5  -2    0.90    0.19
 -10  -5  -2    1.26    0.24
 -10  -5   3   13.75    0.65
  -5 -10   3   13.37    0.67
 -10  -5   3   14.58    0.68
 -10  -5  -3   13.54    0.68
 -10   5  -3   14.18    0.69
  -5  10   3   13.60    0.64
  -5 -10   4    3.47    0.26
 -10  -5   4    3.40    0.24
 -10   5  -4    3.36    0.26
 -10  -5  -4    3.54    0.26
  -5  10   4    3.87    0.25
   6 -10   0  182.38    5.13
 -10   6   0  181.38    5.13
 -10  -6   0  177.40    5.10
 -10   6   0  177.72    5.08
  -6  10   0  182.26    5.13
 -10   6  -1   15.49    0.81
   6 -10  -1   15.91    0.86
   6 -10   1   16.54    0.89
 -10  -6   1   17.19    0.83
 -10   6   1   17.35    0.85
 -10   6  -1   17.34    0.84
  -6  10  -1   17.90    0.86
 -10   6   1   16.99    0.79
  -6  10   1   18.60    0.86
 -10  -6  -1   17.00    0.82
   6 -10   2   18.60    0.87
   6 -10  -2   19.50    0.77
 -10  -6   2   19.00    0.85
  -6 -10   2   15.33    0.76
 -10   6  -2   17.61    0.84
  -6  10  -2   16.85    0.82
 -10   6   2   17.10    0.75
 -10  -6  -2   18.32    0.83
  -6  10   2   18.09    0.82
 -10  -6   3    7.87    0.43
  -6 -10   3    8.19    0.45
 -10  -6   3    8.18    0.44
  -6  10  -3    6.70    0.40
 -10   6  -3    8.54    0.47
 -10  -6  -3    7.45    0.45
  -6  10   3    8.50    0.45
 -10  -6   4   75.60    2.05
 -10   6   4   71.86    2.05
 -10   7   0    0.03    0.09
  -7  10   0    0.11    0.11
   7 -10   0   -0.01    0.10
 -10  -7   0    0.03    0.09
 -10   7   0    0.12    0.10
 -10   7  -1    3.14    0.29
   7 -10  -1    3.11    0.32
   7 -10   1    2.87    0.32
 -10  -7   1    3.31    0.31
 -10   7   1    3.54    0.32
 -10  -7   1    3.16    0.30
 -10   7  -1    3.00    0.31
  -7  10  -1    2.60    0.29
 -10   7   1    3.26    0.30
  -7  10   1    3.28    0.32
 -10   7  -2    0.82    0.17
  -7  10  -2    0.74    0.15
 -10   7   2    0.58    0.14
 -10   7   2    0.77    0.14
  -7  10   2    0.81    0.16
   7 -10   2    0.81    0.15
 -10  -7   2    0.88    0.16
 -10  -7   2    0.62    0.14
 -10   7  -3    0.56    0.11
 -10   7   3    0.68    0.12
 -10  -7   3    0.64    0.11
  -7 -10   3    0.72    0.12
 -10  -7   3    0.81    0.12
  -7  10   3    0.75    0.12
  -7  10  -3    0.58    0.55
 -10   8   0   19.62    0.82
  -8  10   0   20.73    0.85
   8 -10  -1    9.56    0.52
   8 -10   1    9.88    0.54
  10  -8  -1   10.25    0.54
  10  -8   1   10.17    0.55
 -10   8   1    9.30    0.47
   8 -10  -1    9.58    0.48
 -10   8  -1    9.77    0.52
  -8  10  -1   10.06    0.52
 -10   8   1   10.67    0.52
  -8  10   1   10.86    0.55
   8 -10   2   14.57    0.62
  10  -8   2   14.50    0.61
 -10   8   2   18.08    0.65
 -10  -8   2   17.99    0.65
 -10   8   2   18.92    0.67
  -8  10   2   19.06    0.70
  -9  10   0    0.06    0.07
   9 -10   1   27.89    0.99
  10  -9   1   30.90    1.02
  -9  10  -1   32.50    1.02
 -10   9   1   29.29    0.98
  -9  10   1   31.18    1.01
   0 -11   0    0.03    0.16
   0 -11   0    0.05    0.12
 -11   0   0    0.08    0.11
 -11   0  -1   60.93    2.14
   0 -11  -1   61.72    2.29
   0 -11   1   64.57    2.32
   0 -11   1   60.77    2.18
 -11   0   1   61.71    2.07
   0 -11  -1   60.47    2.15
   0 -11  -1   63.51    2.25
   0 -11  -2    8.53    0.61
   0 -11   2    6.97    0.57
   0 -11  -2    8.99    0.59
   0 -11  -2    8.16    0.55
   0 -11  -2    8.89    0.61
 -11   0  -2    8.39    0.59
   0 -11  -3   28.46    1.12
   0 -11  -3   27.60    1.15
 -11   0  -3   29.54    1.19
 -11   0  -3   29.78    1.13
   0 -11  -4    0.53    0.12
 -11   0  -4    0.30    0.09
 -11  -1   0    1.70    0.26
  -1 -11   0    1.26    0.29
   1 -11   0    2.03    0.34
   1 -11   0    1.58    0.28
   1 -11   0    1.98    0.31
  -1 -11   0    1.55    0.27
 -11  -1   0    1.48    0.24
 -11   1   0    1.43    0.25
  -1 -11  -1    0.36    0.19
  -1 -11   1    0.36    0.19
   1 -11  -1    0.37    0.18
   1 -11   1    0.54    0.21
   1 -11   1    0.52    0.18
  -1 -11  -1    0.21    0.15
   1 -11  -1    0.20    0.13
  -1 -11   1    0.44    0.17
   1 -11   1    0.48    0.19
  -1 -11  -1    0.30    0.15
   1 -11  -1    0.35    0.16
 -11  -1   1    0.25    0.13
  -1 -11  -1    0.33    0.17
   1 -11  -1    0.40    0.19
 -11   1  -1    0.33    0.17
 -11   1   1    0.47    0.16
  -1 -11  -2   27.33    1.24
  -1 -11   2   29.95    1.29
   1 -11  -2   25.42    1.21
   1 -11   2   25.88    1.22
  -1 -11  -2   32.47    1.23
   1 -11  -2   26.10    1.16
 -11  -1   2   28.20    1.07
 -11   1   2   27.97    1.13
  -1 -11  -2   33.89    1.30
   1 -11  -2   25.96    1.19
 -11  -1  -2   29.15    1.23
 -11   1  -2   27.90    1.18
  -1 -11  -3    0.78    0.16
  -1 -11  -3    0.76    0.18
   1 -11  -3    0.94    0.19
 -11  -1  -3    0.77    0.18
 -11   1  -3    0.83    0.19
 -11  -1  -3    0.83    0.18
   1  11  -4    3.69    0.30
   1 -11  -4    3.09    0.24
  -1 -11  -4    3.93    0.28
   1 -11  -4    3.41    0.26
 -11  -1  -4    3.51    0.27
 -11   1  -4    2.98    0.24
 -11  -1  -4    3.08    0.22
  -1  11  -4    3.87    0.31
  -2 -11   0    0.28    0.17
  -2 -11   0    0.11    0.12
   2 -11   0    0.02    0.13
  -2 -11   0    0.06    0.10
   2 -11   0    0.18    0.12
 -11  -2   0    0.02    0.10
 -11   2   0    0.06    0.13
  -2 -11  -1   64.38    2.53
  -2 -11   1   69.89    2.57
   2 -11  -1   76.58    2.60
   2 -11   1   85.17    2.68
   2 -11   1   77.69    2.48
  -2 -11  -1   69.14    2.41
   2 -11  -1   81.84    2.53
  -2 -11  -1   68.21    2.36
   2 -11   1   84.24    2.58
 -11   2   1   77.92    2.48
 -11  -2   1   72.19    2.38
  -2 -11  -1   67.78    2.45
   2 -11  -1   77.18    2.52
 -11  -2  -1   77.61    2.54
   2 -11  -2    1.94    0.29
   2 -11   2    2.14    0.31
  -2 -11  -2    2.40    0.28
   2 -11  -2    1.98    0.28
 -11  -2   2    1.91    0.24
   2 -11  -2    2.11    0.29
 -11   2   2    1.86    0.26
  -2 -11  -2    1.44    0.25
 -11  -2  -2    2.00    0.29
 -11  -2  -2    2.02    0.29
 -11   2  -2    1.71    0.24
 -11  -2   3   65.62    2.00
   2 -11  -3   71.71    2.17
 -11  -2  -3   70.03    2.15
   2 -11  -4    2.15    0.20
  -2 -11  -4    2.34    0.20
   2 -11  -4    1.85    0.19
 -11  -2  -4    1.93    0.19
 -11   2  -4    1.77    0.17
 -11  -2  -4    1.80    0.17
  -2  11  -4    2.24    0.21
   2  11  -4    2.54    0.23
   3 -11   0   17.07    0.95
   3 -11   0   17.04    0.86
   3 -11   0   17.55    0.92
 -11  -3   0   14.84    0.81
  -3 -11  -1    0.56    0.15
   3 -11  -1    0.77    0.19
   3 -11   1    0.85    0.21
   3 -11  -1    0.56    0.19
 -11  -3   1    0.63    0.16
 -11   3  -1    0.62    0.20
 -11  -3  -1    0.57    0.17
 -11  -3  -1    0.43    0.17
 -11   3   1    0.65    0.18
   3 -11   2   39.81    1.58
   3 -11  -2   40.94    1.56
 -11  -3   2   42.87    1.50
  -3 -11  -2   41.95    1.52
   3 -11  -2   42.45    1.54
 -11   3   2   44.74    1.56
 -11  -3  -2   43.17    1.57
 -11  -3  -2   43.73    1.59
 -11   3   3    0.35    0.12
   3  11  -3    0.87    0.19
   3 -11  -3    0.51    0.13
 -11  -3   3    0.47    0.12
   3 -11  -3    0.38    0.12
 -11  -3  -3    0.35    0.14
 -11  -3  -3    0.57    0.15
   3 -11  -4    1.96    0.18
 -11  -3  -4    1.64    0.17
   4 -11   0    0.05    0.13
   4 -11   0    0.11    0.10
   4 -11   0   -0.02    0.13
 -11  -4   0   -0.02    0.11
 -11   4   0    0.04    0.14
 -11  -4   0    0.12    0.12
 -11   4  -1    6.76    0.53
   4 -11  -1    7.06    0.54
   4 -11   1    6.12    0.52
   4 -11  -1    6.47    0.46
   4 -11   1    6.42    0.48
   4 -11  -1    6.80    0.52
 -11  -4   1    7.69    0.51
 -11  -4  -1    7.34    0.52
 -11   4   2    0.32    0.14
   4 -11   2    0.39    0.14
   4 -11  -2    0.29    0.13
 -11  -4   2    0.36    0.13
 -11  -4  -2    0.27    0.12
 -11  -4  -2    0.29    0.14
   4  11  -3    3.04    0.29
   4 -11  -3    2.52    0.25
 -11  -4   3    2.04    0.21
   4 -11  -3    2.37    0.22
 -11   4   3    2.66    0.25
 -11  -4  -3    2.66    0.25
 -11  -4  -3    2.77    0.26
 -11   5   0   19.63    0.90
   5 -11   0   20.46    0.90
 -11  -5   0   17.68    0.85
  -5  11   0   17.50    0.79
   5 -11  -1    1.13    0.22
   5 -11   1    1.37    0.24
   5 -11  -1    1.21    0.18
   5 -11   1    1.14    0.19
   5 -11  -1    1.16    0.22
 -11   5   1    1.56    0.23
 -11  -5   1    1.45    0.22
 -11   5  -1    1.47    0.24
  -5  11   1    1.59    0.20
 -11  -5  -1    1.42    0.22
   5 -11   2    7.10    0.48
   5 -11  -2    7.45    0.43
 -11  -5   2    8.70    0.48
 -11   5   2    9.21    0.51
  -5  11   2    7.21    0.41
 -11  -5  -2    8.85    0.50
  -5  11   3    0.06    0.06
   5 -11  -3    0.10    0.08
   5 -11  -3    0.15    0.08
 -11  -5   3    0.15    0.08
  -6  11   0    0.08    0.08
   6 -11   0    0.09    0.09
 -11  -6   0    0.01    0.09
 -11   6   0    0.03    0.09
 -11   6  -1    5.19    0.37
   6 -11  -1    4.78    0.39
   6 -11   1    5.26    0.41
   6 -11  -1    5.39    0.39
 -11   6   1    5.41    0.38
  -6  11  -1    4.78    0.34
  -6  11   1    4.97    0.35
  -6  11   2    0.20    0.09
   6 -11   2    0.14    0.08
   6 -11  -2    0.19    0.10
 -11  -6   2    0.28    0.10
 -11  -6  -2    0.16    0.08
 -11   6   2    0.11    0.08
   6 -11  -3    3.31    0.23
 -11   6   3    3.73    0.23
 -11   7   0    9.69    0.49
  -7  11   0   10.90    0.51
 -11   7  -1    0.05    0.07
  -7  11  -1    0.19    0.08
  -7  11   1    0.14    0.08
   7 -11  -1    0.16    0.09
   7 -11   1    0.18    0.10
   7 -11  -1    0.09    0.07
 -11  -7   1    0.22    0.08
 -11   7   1    0.17    0.08
  -7  11   2    0.28    0.07
   7 -11  -2    0.38    0.09
 -11  -7   2    0.41    0.09
 -11   7   2    0.40    0.09
  -8  11   0    0.01    0.05
 -12   0   0  100.94    3.12
   0 -12   0  104.56    3.37
   0 -12   0  110.28    3.24
   0 -12  -1   45.93    1.76
   0 -12   1   46.54    1.77
   0 -12   1   46.92    1.66
   0 -12  -1   46.76    1.64
 -12   0  -1   45.88    1.65
   0 -12  -2   46.20    1.56
   0 -12  -2   42.96    1.58
 -12   0  -2   46.89    1.55
   0 -12  -3   44.85    1.35
   0 -12  -3   42.48    1.37
 -12   0  -3   44.23    1.38
  -1 -12   0    0.22    0.15
   1 -12   0    0.12    0.13
   1 -12   0    0.02    0.11
  -1 -12   0    0.05    0.10
   1 -12   0   -0.02    0.11
 -12   1   0    0.03    0.10
  -1 -12  -1   16.46    0.87
  -1 -12   1   14.89    0.84
   1 -12  -1   14.96    0.84
   1 -12   1   15.39    0.86
 -12   1   1   14.68    0.73
  -1 -12  -1   17.26    0.80
   1 -12  -1   15.40    0.78
   1 -12   1   14.79    0.77
  -1 -12  -1   16.50    0.77
   1 -12  -1   15.65    0.78
 -12  -1  -1   15.48    0.78
 -12   1  -1   15.72    0.77
   1 -12   2    0.70    0.17
  -1 -12  -2    0.73    0.15
   1 -12  -2    0.67    0.15
  -1 -12  -2    0.52    0.15
   1 -12  -2    0.48    0.15
 -12  -1  -2    0.45    0.14
 -12  -1  -2    0.38    0.13
 -12   1  -2    0.73    0.15
  -1  12  -3   31.13    1.09
   1  12  -3   31.28    1.09
   1 -12  -3   25.89    0.96
  -1 -12  -3   28.43    1.00
   1 -12  -3   23.65    0.96
 -12   1  -3   27.50    1.00
 -12  -1  -3   28.91    0.96
 -12   2   0  117.25    3.57
   2 -12   0  120.50    3.73
   2 -12   0  123.31    3.58
   2 -12   0  123.77    3.62
   2 -12  -1   34.28    1.40
   2 -12   1   36.01    1.43
  -2 -12  -1   34.72    1.30
 -12   2   1   35.65    1.31
   2 -12  -1   36.99    1.35
   2 -12   1   38.89    1.38
 -12  -2   1   34.26    1.24
 -12  -2  -1   36.19    1.36
 -12   2  -1   34.16    1.29
   2 -12   2    1.05    0.19
   2 -12  -2    1.40    0.20
 -12   2   2    1.24    0.18
   2 -12  -2    1.36    0.20
 -12  -2   2    1.22    0.16
 -12  -2  -2    1.60    0.21
 -12  -2  -2    1.37    0.20
   2 -12  -3   25.37    0.91
  -2  12  -3   23.95    0.93
   2  12  -3   25.70    0.96
 -12  -2  -3   26.87    0.93
 -12   2  -3   27.78    0.94
 -12  -2  -3   26.51    0.91
   3 -12   0    0.16    0.14
   3 -12   0    0.08    0.10
   3 -12   0    0.05    0.12
 -12  -3   0    0.10    0.10
 -12   3  -1   26.55    1.13
   3 -12  -1   30.36    1.22
   3 -12   1   30.19    1.23
   3 -12  -1   28.14    1.10
 -12   3   1   30.45    1.14
   3 -12   1   28.46    1.12
   3 -12  -1   29.71    1.16
 -12  -3   1   29.50    1.08
 -12  -3  -1   28.98    1.14
 -12  -3   1   30.70    1.12
   3 -12   2    0.53    0.14
   3 -12  -2    0.48    0.13
   3 -12  -2    0.45    0.13
 -12  -3   2    0.47    0.11
 -12   3   2    0.59    0.13
 -12  -3  -2    0.48    0.13
   3 -12  -3   16.42    0.62
 -12  -3  -3   16.79    0.63
 -12  -3  -3   18.30    0.64
 -12   4   0   23.42    0.95
   4 -12   0   20.95    0.90
 -12  -4   0   21.97    0.89
   4 -12  -1   22.40    0.97
   4 -12   1   23.95    1.00
   4 -12  -1   21.99    0.86
   4 -12   1   23.28    0.88
   4 -12  -1   23.63    0.95
 -12  -4   1   22.41    0.89
 -12  -4  -1   23.70    0.93
   4 -12   2   49.68    1.65
   4  12  -2   51.23    1.64
   4 -12  -2   50.88    1.60
 -12   4   2   54.99    1.64
 -12  -4   2   54.11    1.61
 -12  -4  -2   53.55    1.65
   5 -12   0    0.11    0.09
 -12   5   0    0.10    0.09
   5 -12  -1   34.22    1.21
   5 -12   1   34.92    1.24
 -12   5   1   33.92    1.16
   5 -12  -1   33.35    1.16
 -12  -5   1   32.24    1.13
   5 -12  -2    0.99    0.14
 -12  -5   2    0.68    0.11
 -12  -5  -2    0.90    0.13
 -12   6   0   67.89    1.99
 -12   6   1   31.58    1.01
   6 -12   1   32.64    1.06
   6 -12  -1   29.88    0.99
   0 -13   0    0.07    0.11
 -13   0   0   -0.01    0.08
   0 -13  -1   11.69    0.54
 -13   0  -1   11.86    0.55
 -13   0  -1   12.49    0.57
   0 -13  -2    0.07    0.06
 -13   0  -2    0.12    0.07
 -13   0  -2    0.11    0.06
   1 -13   0   18.73    0.86
   1 -13   0   19.57    0.79
 -13  -1   0   17.58    0.77
 -13   1   0   18.18    0.76
   1 -13  -1    3.65    0.32
   1 -13   1    3.54    0.32
   1 -13  -1    3.57    0.28
   1 -13  -1    3.61    0.28
 -13  -1  -1    4.06    0.30
 -13   1  -1    4.22    0.29
 -13  -1  -2   44.28    1.38
 -13  -1  -2   46.50    1.38
   2 -13   0   -0.06    0.10
   2 -13   0   -0.02    0.08
 -13  -2   0   -0.03    0.07
 -13   2   0   -0.03    0.07
   2 -13  -1    0.20    0.11
   2 -13   1    0.13    0.10
   2 -13  -1    0.36    0.10
   2 -13  -1    0.30    0.10
 -13  -2  -1    0.43    0.11
 -13   2  -1    0.10    0.06
 -13  -2   1    0.33    0.10
   2 -13  -2    0.15    0.07
 -13   2  -2    0.11    0.06
 -13  -2  -2    0.12    0.06
   3 -13   0   22.05    0.79
 -13  -3   0   24.85    0.81
 -13   3   1    6.74    0.36
   3 -13  -1    6.29    0.38
   3 -13   1    6.41    0.39
   3 -13  -1    6.63    0.36
 -13  -3  -1    6.66    0.36
   4 -13   0    0.01    0.05
 -13   4   1   28.74    0.93
   4 -13  -1   28.95    0.93
   0   0   0    0.00    0.00
;
_shelx_hkl_checksum              97611
loop_
_space_group_symop_operation_xyz
'x, y, z'
'-x, -y, z'
'-y, x, z'
'y, -x, z'
loop_
_atom_site_label
_atom_site_type_symbol
_atom_site_fract_x
_atom_site_fract_y
_atom_site_fract_z
_atom_site_U_iso_or_equiv
_atom_site_adp_type
_atom_site_occupancy
_atom_site_site_symmetry_order
_atom_site_calc_flag
_atom_site_refinement_flags_posn
_atom_site_refinement_flags_adp
_atom_site_refinement_flags_occupancy
_atom_site_disorder_assembly
_atom_site_disorder_group
Al1 Al 0.7485(4) 0.2495(4) 0.1654(10) 0.0091(5) Uani 1 1 d . . . . .
P1A P 1.0055(4) 0.2961(4) 0.4109(8) 0.0150(11) Uani 0.6 1 d . . P . .
P1B P 1.0014(5) 0.2238(6) 0.4135(12) 0.0167(12) Uani 0.4 1 d . . P . .
P2A P 0.4938(4) 0.2024(4) 0.9230(7) 0.0143(9) Uani 0.6 1 d . . P . .
P2B P 0.4973(5) 0.2781(5) 0.9224(11) 0.0152(12) Uani 0.4 1 d . . P . .
O1 O 0.6277(4) 0.2387(4) 0.9456(16) 0.0132(16) Uani 1 1 d . . . . .
O2 O 0.6437(5) 0.2755(4) 0.3891(14) 0.0101(18) Uani 1 1 d . . . . .
O3 O 0.8578(4) 0.2254(4) -0.0580(14) 0.0049(14) Uani 1 1 d . . . . .
O4 O 0.8724(5) 0.2617(5) 0.3855(19) 0.021(2) Uani 1 1 d . . . . .
O5 O 0.4198(8) 0.2449(7) 1.1250(16) 0.0170(15) Uani 1 1 d . . . . .
O6 O 1.0598(8) 0.2552(11) 0.6287(19) 0.037(3) Uani 1 1 d . . . . .
O7 O 1.0782(8) 0.2585(7) 0.2014(15) 0.0170(16) Uani 1 1 d . . . . .
O8 O 0.4405(7) 0.2388(8) 0.7027(18) 0.025(2) Uani 1 1 d . . . . .
O9 O 1.0049(17) 0.4419(15) 0.414(6) 0.050(6) Uani 0.375 1 d . . P . .
O10 O 0.4974(14) 0.0463(14) 0.941(4) 0.037(4) Uani 0.375 1 d . . P . .
O11 O 1.019(12) 0.093(6) 0.363(9) 0.08(3) Uani 0.125 1 d . . P . .
O12 O 0.479(14) 0.397(5) 0.863(8) 0.10(4) Uani 0.125 1 d . . P . .
OW1 O 1.0000 0.0000 -0.092(4) 0.030(3) Uani 1 4 d S T P . .
OW2 O 0.5000 0.5000 0.440(4) 0.047(7) Uani 1 4 d S T P . .
Li1 Li 0.760(2) 0.252(3) 0.683(5) 0.013(3) Uani 1 1 d . . . . .
Li2 Li 1.0220(16) 0.1817(19) -0.056(4) 0.007(6) Uani 0.6 1 d . . P . .
Li3 Li 0.4738(17) 0.320(3) 0.442(4) 0.016(7) Uani 0.6 1 d . . P . .
Li4 Li 0.495(5) 0.168(4) 0.376(11) 0.066(18) Uani 0.4 1 d . . P . .
Li5 Li 1.001(4) 0.327(3) -0.115(9) 0.038(12) Uani 0.4 1 d . . P . .
loop_
_atom_site_aniso_label
_atom_site_aniso_U_11
_atom_site_aniso_U_22
_atom_site_aniso_U_33
_atom_site_aniso_U_23
_atom_site_aniso_U_13
_atom_site_aniso_U_12
Al1 0.0091(7) 0.0093(7) 0.0089(8) -0.0001(5) -0.0005(5) -0.0011(3)
P1A 0.0103(18) 0.021(2) 0.014(2) -0.003(2) 0.0044(19) -0.0004(16)
P1B 0.014(3) 0.023(3) 0.013(2) -0.010(3) -0.001(3) 0.004(3)
P2A 0.0091(15) 0.025(2) 0.009(2) -0.001(2) -0.0038(19) -0.0027(16)
P2B 0.008(2) 0.033(4) 0.004(2) 0.012(4) 0.002(3) -0.002(3)
O1 0.010(2) 0.026(3) 0.003(4) 0.002(4) -0.001(3) 0.0013(17)
O2 0.0030(18) 0.011(2) 0.017(5) -0.008(3) -0.002(3) 0.0003(17)
O3 0.0020(17) 0.012(2) 0.000(4) 0.004(3) 0.001(3) 0.0010(16)
O4 0.013(3) 0.028(3) 0.021(6) -0.005(4) -0.001(3) -0.0013(18)
O5 0.014(3) 0.032(3) 0.005(3) 0.004(3) 0.003(4) 0.003(2)
O6 0.020(5) 0.082(7) 0.008(4) 0.004(4) -0.001(3) 0.006(3)
O7 0.013(3) 0.020(3) 0.019(4) 0.000(3) -0.005(4) -0.0049(19)
O8 0.011(4) 0.050(5) 0.015(5) 0.000(4) 0.000(3) -0.004(3)
O9 0.053(12) 0.024(10) 0.075(17) -0.010(10) 0.011(16) 0.009(7)
O10 0.020(8) 0.048(9) 0.042(10) 0.030(9) -0.018(12) -0.009(7)
O11 0.18(7) 0.03(3) 0.02(4) -0.01(3) 0.01(6) -0.05(4)
O12 0.29(11) 0.01(3) 0.01(3) 0.01(2) 0.00(6) 0.00(4)
OW1 0.028(3) 0.028(3) 0.033(9) 0.000 0.000 0.000
OW2 0.021(3) 0.021(3) 0.10(2) 0.000 0.000 0.000
Li1 0.018(7) 0.017(4) 0.005(7) -0.005(4) -0.008(5) -0.004(4)
Li2 0.001(8) 0.015(9) 0.006(14) -0.011(9) 0.004(8) -0.006(6)
Li3 0.004(9) 0.042(14) 0.002(13) 0.011(12) -0.002(8) -0.004(7)
Li4 0.027(17) 0.07(3) 0.11(4) 0.04(3) -0.05(3) -0.02(2)
Li5 0.011(13) 0.020(16) 0.08(3) -0.041(19) 0.01(2) -0.004(14)
loop_
_atom_type_symbol
_atom_type_description
_atom_type_scat_dispersion_real
_atom_type_scat_dispersion_imag
_atom_type_scat_source
O O 0.0106 0.0060 'International Tables Vol C Tables 4.2.6.8 and 6.1.1.4'
Li Li -0.0003 0.0001 'International Tables Vol C Tables 4.2.6.8 and 6.1.1.4'
Al Al 0.0645 0.0514 'International Tables Vol C Tables 4.2.6.8 and 6.1.1.4'
P P 0.1023 0.0942 'International Tables Vol C Tables 4.2.6.8 and 6.1.1.4'
loop_
_geom_angle_atom_site_label_1
_geom_angle_atom_site_label_2
_geom_angle_atom_site_label_3
_geom_angle
_geom_angle_site_symmetry_1
_geom_angle_site_symmetry_3
_geom_angle_publ_flag
O2 Al1 O3 178.5(4) . . ?
O2 Al1 O1 94.7(3) . 1_554 ?
O3 Al1 O1 86.6(4) . 1_554 ?
O2 Al1 O5 87.8(4) . 3_654 ?
O3 Al1 O5 91.4(4) . 3_654 ?
O1 Al1 O5 90.0(4) 1_554 3_654 ?
O2 Al1 O4 86.0(4) . . ?
O3 Al1 O4 92.7(3) . . ?
O1 Al1 O4 179.2(5) 1_554 . ?
O5 Al1 O4 89.5(4) 3_654 . ?
O2 Al1 O7 92.7(4) . 3_645 ?
O3 Al1 O7 88.1(4) . 3_645 ?
O1 Al1 O7 89.3(4) 1_554 3_645 ?
O5 Al1 O7 179.2(7) 3_654 3_645 ?
O4 Al1 O7 91.2(4) . 3_645 ?
O2 Al1 Li1 140.8(7) . 1_554 ?
O3 Al1 Li1 40.2(5) . 1_554 ?
O1 Al1 Li1 47.9(5) 1_554 1_554 ?
O5 Al1 Li1 81.9(8) 3_654 1_554 ?
O4 Al1 Li1 131.4(5) . 1_554 ?
O7 Al1 Li1 97.2(7) 3_645 1_554 ?
O2 Al1 Li2 130.1(4) . 3_645 ?
O3 Al1 Li2 50.9(4) . 3_645 ?
O1 Al1 Li2 79.2(5) 1_554 3_645 ?
O5 Al1 Li2 140.9(5) 3_654 3_645 ?
O4 Al1 Li2 100.8(5) . 3_645 ?
O7 Al1 Li2 38.4(5) 3_645 3_645 ?
Li1 Al1 Li2 62.9(7) 1_554 3_645 ?
O2 Al1 Li3 46.2(5) . 3_655 ?
O3 Al1 Li3 132.7(5) . 3_655 ?
O1 Al1 Li3 104.9(6) 1_554 3_655 ?
O5 Al1 Li3 44.1(6) 3_654 3_655 ?
O4 Al1 Li3 75.2(5) . 3_655 ?
O7 Al1 Li3 136.6(6) 3_645 3_655 ?
Li1 Al1 Li3 122.9(8) 1_554 3_655 ?
Li2 Al1 Li3 174.2(8) 3_645 3_655 ?
O2 Al1 Li4 75.3(11) . 3_655 ?
O3 Al1 Li4 103.3(11) . 3_655 ?
O1 Al1 Li4 123.2(11) 1_554 3_655 ?
O5 Al1 Li4 35.2(13) 3_654 3_655 ?
O4 Al1 Li4 56.4(11) . 3_655 ?
O7 Al1 Li4 145.6(12) 3_645 3_655 ?
Li1 Al1 Li4 112.5(14) 1_554 3_655 ?
Li2 Al1 Li4 147.6(9) 3_645 3_655 ?
Li3 Al1 Li4 32.6(10) 3_655 3_655 ?
O2 Al1 Li1 43.7(5) . . ?
O3 Al1 Li1 135.2(7) . . ?
O1 Al1 Li1 137.1(6) 1_554 . ?
O5 Al1 Li1 96.7(7) 3_654 . ?
O4 Al1 Li1 43.6(6) . . ?
O7 Al1 Li1 84.1(7) 3_645 . ?
Li1 Al1 Li1 175.0(10) 1_554 . ?
Li2 Al1 Li1 116.8(8) 3_645 . ?
Li3 Al1 Li1 57.4(8) 3_655 . ?
Li4 Al1 Li1 64.8(14) 3_655 . ?
O2 Al1 Li4 35.5(10) . . ?
O3 Al1 Li4 146.0(11) . . ?
O1 Al1 Li4 69.1(10) 1_554 . ?
O5 Al1 Li4 111.3(9) 3_654 . ?
O4 Al1 Li4 111.7(10) . . ?
O7 Al1 Li4 68.9(10) 3_645 . ?
Li1 Al1 Li4 116.0(12) 1_554 . ?
Li2 Al1 Li4 99.7(11) 3_645 . ?
Li3 Al1 Li4 78.2(11) 3_655 . ?
Li4 Al1 Li4 110(2) 3_655 . ?
Li1 Al1 Li4 69.0(10) . . ?
P1B P1A O6 73.0(7) . . ?
P1B P1A O4 72.4(6) . . ?
O6 P1A O4 113.3(6) . . ?
P1B P1A O7 77.2(6) . . ?
O6 P1A O7 114.9(4) . . ?
O4 P1A O7 110.5(7) . . ?
P1B P1A O9 176.0(10) . . ?
O6 P1A O9 106.9(13) . . ?
O4 P1A O9 104.2(7) . . ?
O7 P1A O9 106.2(11) . . ?
P1B P1A O11 11(2) . . ?
O6 P1A O11 77.8(19) . . ?
O4 P1A O11 79(3) . . ?
O7 P1A O11 66(2) . . ?
O9 P1A O11 172(2) . . ?
P1B P1A Li5 95.7(10) . 1_556 ?
O6 P1A Li5 35.1(9) . 1_556 ?
O4 P1A Li5 96.5(10) . 1_556 ?
O7 P1A Li5 148.0(11) . 1_556 ?
O9 P1A Li5 82.4(14) . 1_556 ?
O11 P1A Li5 104.3(18) . 1_556 ?
P1B P1A Li4 135.6(14) . 3_655 ?
O6 P1A Li4 123.1(12) . 3_655 ?
O4 P1A Li4 63.2(11) . 3_655 ?
O7 P1A Li4 118.8(13) . 3_655 ?
O9 P1A Li4 41.1(13) . 3_655 ?
O11 P1A Li4 141(3) . 3_655 ?
Li5 P1A Li4 88.2(14) 1_556 3_655 ?
P1B P1A Li4 145.3(11) . 4_665 ?
O6 P1A Li4 93.1(12) . 4_665 ?
O4 P1A Li4 141.2(9) . 4_665 ?
O7 P1A Li4 80.5(14) . 4_665 ?
O9 P1A Li4 38.4(11) . 4_665 ?
O11 P1A Li4 137(3) . 4_665 ?
Li5 P1A Li4 89.2(12) 1_556 4_665 ?
Li4 P1A Li4 78.7(15) 3_655 4_665 ?
P1B P1A Li2 67.2(8) . . ?
O6 P1A Li2 130.1(6) . . ?
O4 P1A Li2 82.2(6) . . ?
O7 P1A Li2 28.3(5) . . ?
O9 P1A Li2 114.8(13) . . ?
O11 P1A Li2 58.3(15) . . ?
Li5 P1A Li2 162.6(9) 1_556 . ?
Li4 P1A Li2 106.3(12) 3_655 . ?
Li4 P1A Li2 102.8(13) 4_665 . ?
P1A P1B O11 163(3) . . ?
P1A P1B O4 76.9(6) . . ?
O11 P1B O4 112(5) . . ?
P1A P1B O6 76.1(8) . . ?
O11 P1B O6 110(3) . . ?
O4 P1B O6 116.5(9) . . ?
P1A P1B O7 73.2(6) . . ?
O11 P1B O7 90(3) . . ?
O4 P1B O7 110.6(8) . . ?
O6 P1B O7 114.5(5) . . ?
P1A P1B Li2 97.9(9) . . ?
O11 P1B Li2 68(2) . . ?
O4 P1B Li2 90.6(7) . . ?
O6 P1B Li2 149.3(7) . . ?
O7 P1B Li2 37.0(6) . . ?
P1A P1B Li5 69.2(11) . 1_556 ?
O11 P1B Li5 124(3) . 1_556 ?
O4 P1B Li5 89.9(9) . 1_556 ?
O6 P1B Li5 26.7(9) . 1_556 ?
O7 P1B Li5 131.3(10) . 1_556 ?
Li2 P1B Li5 166.7(10) . 1_556 ?
P2B P2A O8 75.4(6) . . ?
P2B P2A O1 72.2(5) . . ?
O8 P2A O1 112.6(6) . . ?
P2B P2A O5 74.0(6) . . ?
O8 P2A O5 114.1(4) . . ?
O1 P2A O5 111.2(6) . . ?
P2B P2A O10 174.8(10) . . ?
O8 P2A O10 109.3(9) . . ?
O1 P2A O10 103.4(6) . . ?
O5 P2A O10 105.5(9) . . ?
P2B P2A O12 11(3) . . ?
O8 P2A O12 64(2) . . ?
O1 P2A O12 80(4) . . ?
O5 P2A O12 78(2) . . ?
O10 P2A O12 173(2) . . ?
P2B P2A Li4 98.1(11) . 1_556 ?
O8 P2A Li4 155.7(14) . 1_556 ?
O1 P2A Li4 86.7(12) . 1_556 ?
O5 P2A Li4 42.4(13) . 1_556 ?
O10 P2A Li4 78.5(14) . 1_556 ?
O12 P2A Li4 107.4(17) . 1_556 ?
P2B P2A Li5 143.1(9) . 4_566 ?
O8 P2A Li5 83.7(10) . 4_566 ?
O1 P2A Li5 144.6(7) . 4_566 ?
O5 P2A Li5 87.8(12) . 4_566 ?
O10 P2A Li5 41.4(8) . 4_566 ?
O12 P2A Li5 134(4) . 4_566 ?
Li4 P2A Li5 88.6(15) 1_556 4_566 ?
P2B P2A Li5 135.5(11) . 3_646 ?
O8 P2A Li5 113.0(11) . 3_646 ?
O1 P2A Li5 64.2(9) . 3_646 ?
O5 P2A Li5 129.7(11) . 3_646 ?
O10 P2A Li5 41.0(9) . 3_646 ?
O12 P2A Li5 140(4) . 3_646 ?
Li4 P2A Li5 88.2(16) 1_556 3_646 ?
Li5 P2A Li5 80.6(11) 4_566 3_646 ?
P2B P2A Li1 84.5(6) . 4_565 ?
O8 P2A Li1 37.6(6) . 4_565 ?
O1 P2A Li1 147.5(6) . 4_565 ?
O5 P2A Li1 82.6(7) . 4_565 ?
O10 P2A Li1 100.6(8) . 4_565 ?
O12 P2A Li1 74(4) . 4_565 ?
Li4 P2A Li1 119.5(13) 1_556 4_565 ?
Li5 P2A Li1 61.2(8) 4_566 4_565 ?
Li5 P2A Li1 129.9(11) 3_646 4_565 ?
P2A P2B O12 162(4) . . ?
P2A P2B O1 75.9(5) . . ?
O12 P2B O1 116(6) . . ?
P2A P2B O8 72.6(7) . . ?
O12 P2B O8 89(3) . . ?
O1 P2B O8 112.9(7) . . ?
P2A P2B O5 74.4(6) . . ?
O12 P2B O5 111(4) . . ?
O1 P2B O5 112.9(7) . . ?
O8 P2B O5 113.0(4) . . ?
P2A P2B Li3 99.1(9) . . ?
O12 P2B Li3 65(2) . . ?
O1 P2B Li3 102.8(6) . . ?
O8 P2B Li3 32.5(7) . . ?
O5 P2B Li3 140.4(7) . . ?
P2A P2B Li4 65.8(11) . 1_556 ?
O12 P2B Li4 129(2) . 1_556 ?
O1 P2B Li4 78.8(12) . 1_556 ?
O8 P2B Li4 132.3(10) . 1_556 ?
O5 P2B Li4 34.1(12) . 1_556 ?
Li3 P2B Li4 164.2(11) . 1_556 ?
P2A P2B Li1 79.9(6) . 4_565 ?
O12 P2B Li1 83(6) . 4_565 ?
O1 P2B Li1 146.8(6) . 4_565 ?
O8 P2B Li1 36.7(7) . 4_565 ?
O5 P2B Li1 81.4(6) . 4_565 ?
Li3 P2B Li1 59.0(7) . 4_565 ?
Li4 P2B Li1 111.3(10) 1_556 4_565 ?
P2B O1 P2A 31.9(3) . . ?
P2B O1 Al1 136.2(6) . 1_556 ?
P2A O1 Al1 139.4(6) . 1_556 ?
P2B O1 Li1 123.9(9) . . ?
P2A O1 Li1 127.2(10) . . ?
Al1 O1 Li1 91.8(6) 1_556 . ?
Al1 O2 Li3 140.9(9) . . ?
Al1 O2 Li4 113.5(19) . . ?
Li3 O2 Li4 51.8(18) . . ?
Al1 O2 Li1 102.0(8) . . ?
Li3 O2 Li1 117.1(14) . . ?
Li4 O2 Li1 115.8(18) . . ?
Al1 O2 Li3 98.6(8) . 3_655 ?
Li3 O2 Li3 84.4(16) . 3_655 ?
Li4 O2 Li3 136.0(18) . 3_655 ?
Li1 O2 Li3 84.0(11) . 3_655 ?
Al1 O3 Li2 132.2(9) . . ?
Al1 O3 Li1 101.9(9) . 1_554 ?
Li2 O3 Li1 125.9(15) . 1_554 ?
Al1 O3 Li5 125.1(13) . . ?
Li2 O3 Li5 51.2(14) . . ?
Li1 O3 Li5 102.8(18) 1_554 . ?
Al1 O3 Li2 90.8(6) . 3_645 ?
Li2 O3 Li2 86.1(12) . 3_645 ?
Li1 O3 Li2 92.8(10) 1_554 3_645 ?
Li5 O3 Li2 135.6(12) . 3_645 ?
P1B O4 P1A 30.7(3) . . ?
P1B O4 Al1 137.9(7) . . ?
P1A O4 Al1 141.0(8) . . ?
P1B O4 Li1 115.9(10) . . ?
P1A O4 Li1 118.5(10) . . ?
Al1 O4 Li1 99.1(6) . . ?
P1B O4 Li4 116.2(12) . 3_655 ?
P1A O4 Li4 85.5(11) . 3_655 ?
Al1 O4 Li4 86.1(13) . 3_655 ?
Li1 O4 Li4 88.1(15) . 3_655 ?
P2A O5 P2B 31.6(3) . . ?
P2A O5 Al1 129.7(6) . 4_566 ?
P2B O5 Al1 130.2(7) . 4_566 ?
P2A O5 Li4 105(2) . 1_556 ?
P2B O5 Li4 119(2) . 1_556 ?
Al1 O5 Li4 110(2) 4_566 1_556 ?
P2A O5 Li3 132.0(7) . 1_556 ?
P2B O5 Li3 117.1(8) . 1_556 ?
Al1 O5 Li3 98.3(7) 4_566 1_556 ?
Li4 O5 Li3 50.0(18) 1_556 1_556 ?
P1B O6 P1A 30.9(4) . . ?
P1B O6 Li5 132.3(14) . 1_556 ?
P1A O6 Li5 117.1(16) . 1_556 ?
P1B O6 Li2 127.5(8) . 1_556 ?
P1A O6 Li2 144.9(7) . 1_556 ?
Li5 O6 Li2 49.2(17) 1_556 1_556 ?
P1B O6 Li1 122.7(12) . 4_665 ?
P1A O6 Li1 123.0(10) . 4_665 ?
Li5 O6 Li1 104.7(15) 1_556 4_665 ?
Li2 O6 Li1 91.7(10) 1_556 4_665 ?
P1A O7 P1B 29.5(3) . . ?
P1A O7 Li2 128.5(8) . . ?
P1B O7 Li2 112.4(9) . . ?
P1A O7 Al1 128.1(6) . 4_665 ?
P1B O7 Al1 128.0(6) . 4_665 ?
Li2 O7 Al1 102.5(8) . 4_665 ?
P1A O7 Li5 114.0(11) . . ?
P1B O7 Li5 124.7(13) . . ?
Li2 O7 Li5 47.0(11) . . ?
Al1 O7 Li5 107.3(14) 4_665 . ?
P2A O8 P2B 32.0(3) . . ?
P2A O8 Li3 143.2(9) . . ?
P2B O8 Li3 121.0(10) . . ?
P2A O8 Li1 116.3(10) . 4_565 ?
P2B O8 Li1 117.3(12) . 4_565 ?
Li3 O8 Li1 98.4(11) . 4_565 ?
P2A O8 Li4 125.8(13) . . ?
P2B O8 Li4 139.6(14) . . ?
Li3 O8 Li4 50.1(18) . . ?
Li1 O8 Li4 103.0(18) 4_565 . ?
O9 O9 P1A 175(2) 2_765 . ?
O9 O9 Li4 74(2) 2_765 4_665 ?
P1A O9 Li4 110.6(18) . 4_665 ?
O9 O9 Li4 68(2) 2_765 3_655 ?
P1A O9 Li4 107.2(18) . 3_655 ?
Li4 O9 Li4 139.7(18) 4_665 3_655 ?
O10 O10 P2A 176.0(14) 2_655 . ?
O10 O10 Li5 78(2) 2_655 4_566 ?
P2A O10 Li5 103.3(13) . 4_566 ?
O10 O10 Li5 73(2) 2_655 3_646 ?
P2A O10 Li5 105.0(13) . 3_646 ?
Li5 O10 Li5 144(2) 4_566 3_646 ?
P1B O11 O11 115(10) . 3_645 ?
P1B O11 O11 152(10) . 4_665 ?
O11 O11 O11 90.001(11) 3_645 4_665 ?
P1B O11 P1A 5.9(11) . . ?
O11 O11 P1A 119(10) 3_645 . ?
O11 O11 P1A 150(10) 4_665 . ?
P2B O12 O12 151(10) . 4_565 ?
P2B O12 O12 114(10) . 3_655 ?
O12 O12 O12 90.00(3) 4_565 3_655 ?
P2B O12 P2A 7.0(15) . . ?
O12 O12 P2A 149(10) 4_565 . ?
O12 O12 P2A 119(10) 3_655 . ?
P2B O12 Li3 87(2) . . ?
O12 O12 Li3 105(4) 4_565 . ?
O12 O12 Li3 101(5) 3_655 . ?
P2A O12 Li3 81.1(17) . . ?
Li2 OW1 Li2 89.3(2) 4_665 2_755 ?
Li2 OW1 Li2 167.7(19) 4_665 3_645 ?
Li2 OW1 Li2 89.3(2) 2_755 3_645 ?
Li2 OW1 Li2 89.3(2) 4_665 . ?
Li2 OW1 Li2 167.7(19) 2_755 . ?
Li2 OW1 Li2 89.3(2) 3_645 . ?
Li3 OW2 Li3 89.998(18) 2_665 4_565 ?
Li3 OW2 Li3 90.00(2) 2_665 3_655 ?
Li3 OW2 Li3 179(2) 4_565 3_655 ?
Li3 OW2 Li3 179(2) 2_665 . ?
Li3 OW2 Li3 90.00(2) 4_565 . ?
Li3 OW2 Li3 89.997(17) 3_655 . ?
O3 Li1 O8 95.9(12) 1_556 3_655 ?
O3 Li1 O6 90.8(11) 1_556 3_645 ?
O8 Li1 O6 173.2(14) 3_655 3_645 ?
O3 Li1 O1 76.9(13) 1_556 . ?
O8 Li1 O1 91.8(14) 3_655 . ?
O6 Li1 O1 89.4(10) 3_645 . ?
O3 Li1 O2 177.4(15) 1_556 . ?
O8 Li1 O2 86.2(10) 3_655 . ?
O6 Li1 O2 87.0(10) 3_645 . ?
O1 Li1 O2 101.6(9) . . ?
O3 Li1 O4 110.8(11) 1_556 . ?
O8 Li1 O4 89.8(11) 3_655 . ?
O6 Li1 O4 88.2(14) 3_645 . ?
O1 Li1 O4 171.9(12) . . ?
O2 Li1 O4 70.5(11) . . ?
O3 Li1 Al1 37.9(7) 1_556 1_556 ?
O8 Li1 Al1 87.3(12) 3_655 1_556 ?
O6 Li1 Al1 97.9(11) 3_645 1_556 ?
O1 Li1 Al1 40.3(7) . 1_556 ?
O2 Li1 Al1 141.1(14) . 1_556 ?
O4 Li1 Al1 147.8(9) . 1_556 ?
O3 Li1 Li3 133.6(12) 1_556 3_655 ?
O8 Li1 Li3 37.8(7) 3_655 3_655 ?
O6 Li1 Li3 135.5(11) 3_645 3_655 ?
O1 Li1 Li3 102.2(11) . 3_655 ?
O2 Li1 Li3 48.7(7) . 3_655 ?
O4 Li1 Li3 74.4(10) . 3_655 ?
Al1 Li1 Li3 118.8(12) 1_556 3_655 ?
O3 Li1 Li5 39.2(11) 1_556 1_556 ?
O8 Li1 Li5 72.5(10) 3_655 1_556 ?
O6 Li1 Li5 113.4(11) 3_645 1_556 ?
O1 Li1 Li5 108.5(15) . 1_556 ?
O2 Li1 Li5 143.2(18) . 1_556 ?
O4 Li1 Li5 79.6(13) . 1_556 ?
Al1 Li1 Li5 68.9(12) 1_556 1_556 ?
Li3 Li1 Li5 103.4(13) 3_655 1_556 ?
O3 Li1 Li2 48.4(7) 1_556 3_646 ?
O8 Li1 Li2 143.0(13) 3_655 3_646 ?
O6 Li1 Li2 43.5(8) 3_645 3_646 ?
O1 Li1 Li2 73.0(9) . 3_646 ?
O2 Li1 Li2 129.3(11) . 3_646 ?
O4 Li1 Li2 110.0(11) . 3_646 ?
Al1 Li1 Li2 59.1(7) 1_556 3_646 ?
Li3 Li1 Li2 174.7(12) 3_655 3_646 ?
Li5 Li1 Li2 80.6(11) 1_556 3_646 ?
O3 Li1 P2A 71.0(8) 1_556 3_655 ?
O8 Li1 P2A 26.2(6) 3_655 3_655 ?
O6 Li1 P2A 160.1(13) 3_645 3_655 ?
O1 Li1 P2A 78.8(10) . 3_655 ?
O2 Li1 P2A 110.9(11) . 3_655 ?
O4 Li1 P2A 105.6(9) . 3_655 ?
Al1 Li1 P2A 62.8(7) 1_556 3_655 ?
Li3 Li1 P2A 63.6(7) 3_655 3_655 ?
Li5 Li1 P2A 56.9(7) 1_556 3_655 ?
Li2 Li1 P2A 116.9(9) 3_646 3_655 ?
O3 Li1 P2B 80.3(10) 1_556 3_655 ?
O8 Li1 P2B 26.0(6) 3_655 3_655 ?
O6 Li1 P2B 157.1(15) 3_645 3_655 ?
O1 Li1 P2B 68.1(9) . 3_655 ?
O2 Li1 P2B 101.1(10) . 3_655 ?
O4 Li1 P2B 114.7(10) . 3_655 ?
Al1 Li1 P2B 62.4(7) 1_556 3_655 ?
Li3 Li1 P2B 57.9(7) 3_655 3_655 ?
Li5 Li1 P2B 72.2(8) 1_556 3_655 ?
Li2 Li1 P2B 121.0(10) 3_646 3_655 ?
P2A Li1 P2B 15.62(19) 3_655 3_655 ?
Li5 Li2 O3 67.3(16) . . ?
Li5 Li2 O7 77.5(19) . . ?
O3 Li2 O7 102.0(10) . . ?
Li5 Li2 OW1 156(2) . . ?
O3 Li2 OW1 97.9(9) . . ?
O7 Li2 OW1 125.1(14) . . ?
Li5 Li2 O6 58(2) . 1_554 ?
O3 Li2 O6 95.0(11) . 1_554 ?
O7 Li2 O6 120.4(11) . 1_554 ?
OW1 Li2 O6 107.9(12) . 1_554 ?
Li5 Li2 O3 108.7(18) . 4_665 ?
O3 Li2 O3 176.0(12) . 4_665 ?
O7 Li2 O3 76.4(8) . 4_665 ?
OW1 Li2 O3 85.9(7) . 4_665 ?
O6 Li2 O3 82.8(7) 1_554 4_665 ?
Li5 Li2 Li2 148.0(19) . 4_665 ?
O3 Li2 Li2 143.0(9) . 4_665 ?
O7 Li2 Li2 98.8(8) . 4_665 ?
OW1 Li2 Li2 45.33(10) . 4_665 ?
O6 Li2 Li2 100.4(7) 1_554 4_665 ?
O3 Li2 Li2 40.9(7) 4_665 4_665 ?
Li5 Li2 Li2 119.1(19) . 3_645 ?
O3 Li2 Li2 53.0(9) . 3_645 ?
O7 Li2 Li2 122.7(8) . 3_645 ?
OW1 Li2 Li2 45.33(10) . 3_645 ?
O6 Li2 Li2 113.2(7) 1_554 3_645 ?
O3 Li2 Li2 130.9(7) 4_665 3_645 ?
Li2 Li2 Li2 89.999(1) 4_665 3_645 ?
Li5 Li2 P1B 92(2) . . ?
O3 Li2 P1B 83.5(8) . . ?
O7 Li2 P1B 30.5(5) . . ?
OW1 Li2 P1B 104.8(11) . . ?
O6 Li2 P1B 147.1(11) 1_554 . ?
O3 Li2 P1B 96.5(8) 4_665 . ?
Li2 Li2 P1B 100.2(4) 4_665 . ?
Li2 Li2 P1B 92.1(5) 3_645 . ?
Li5 Li2 Al1 87.8(17) . 4_665 ?
O3 Li2 Al1 139.3(10) . 4_665 ?
O7 Li2 Al1 39.1(5) . 4_665 ?
OW1 Li2 Al1 114.1(8) . 4_665 ?
O6 Li2 Al1 98.0(7) 1_554 4_665 ?
O3 Li2 Al1 38.3(4) 4_665 4_665 ?
Li2 Li2 Al1 71.4(6) 4_665 4_665 ?
Li2 Li2 Al1 146.3(5) 3_645 4_665 ?
P1B Li2 Al1 65.1(5) . 4_665 ?
Li5 Li2 Li1 78.7(19) . 4_664 ?
O3 Li2 Li1 138.3(12) . 4_664 ?
O7 Li2 Li1 93.2(10) . 4_664 ?
OW1 Li2 Li1 104.6(8) . 4_664 ?
O6 Li2 Li1 44.8(6) 1_554 4_664 ?
O3 Li2 Li1 38.9(6) 4_665 4_664 ?
Li2 Li2 Li1 69.7(8) 4_665 4_664 ?
Li2 Li2 Li1 141.6(7) 3_645 4_664 ?
P1B Li2 Li1 122.5(9) . 4_664 ?
Al1 Li2 Li1 58.0(7) 4_665 4_664 ?
Li5 Li2 P1A 78(2) . . ?
O3 Li2 P1A 81.0(7) . . ?
O7 Li2 P1A 23.1(4) . . ?
OW1 Li2 P1A 119.6(11) . . ?
O6 Li2 P1A 132.4(10) 1_554 . ?
O3 Li2 P1A 98.0(7) 4_665 . ?
Li2 Li2 P1A 111.0(4) 4_665 . ?
Li2 Li2 P1A 101.9(5) 3_645 . ?
P1B Li2 P1A 14.85(18) . . ?
Al1 Li2 P1A 62.0(4) 4_665 . ?
Li1 Li2 P1A 115.6(8) 4_664 . ?
Li4 Li3 O8 76(3) . . ?
Li4 Li3 O2 65.9(19) . . ?
O8 Li3 O2 101.9(11) . . ?
Li4 Li3 OW2 159(3) . . ?
O8 Li3 OW2 121.1(18) . . ?
O2 Li3 OW2 96.3(11) . . ?
Li4 Li3 O5 58(2) . 1_554 ?
O8 Li3 O5 120.5(15) . 1_554 ?
O2 Li3 O5 91.3(12) . 1_554 ?
OW2 Li3 O5 114.4(15) . 1_554 ?
Li4 Li3 O2 106(2) . 4_565 ?
O8 Li3 O2 90.8(10) . 4_565 ?
O2 Li3 O2 161.9(16) . 4_565 ?
OW2 Li3 O2 88.0(9) . 4_565 ?
O5 Li3 O2 71.0(8) 1_554 4_565 ?
Li4 Li3 O12 121(3) . . ?
O8 Li3 O12 49.7(13) . . ?
O2 Li3 O12 102(4) . . ?
OW2 Li3 O12 71.9(16) . . ?
O5 Li3 O12 165(3) 1_554 . ?
O2 Li3 O12 96(3) 4_565 . ?
Li4 Li3 Li3 118(2) . 3_655 ?
O8 Li3 Li3 116.8(9) . 3_655 ?
O2 Li3 Li3 52.0(11) . 3_655 ?
OW2 Li3 Li3 45.001(11) . 3_655 ?
O5 Li3 Li3 116.7(7) 1_554 3_655 ?
O2 Li3 Li3 132.4(9) 4_565 3_655 ?
O12 Li3 Li3 78(3) . 3_655 ?
Li4 Li3 Li3 149(2) . 4_565 ?
O8 Li3 Li3 105.8(10) . 4_565 ?
O2 Li3 Li3 140.5(10) . 4_565 ?
OW2 Li3 Li3 45.001(11) . 4_565 ?
O5 Li3 Li3 98.3(8) 1_554 4_565 ?
O2 Li3 Li3 43.6(9) 4_565 4_565 ?
O12 Li3 Li3 76(2) . 4_565 ?
Li3 Li3 Li3 89.999(1) 3_655 4_565 ?
Li4 Li3 P2B 93(2) . . ?
O8 Li3 P2B 26.4(6) . . ?
O2 Li3 P2B 92.1(9) . . ?
OW2 Li3 P2B 98.6(13) . . ?
O5 Li3 P2B 146.2(12) 1_554 . ?
O2 Li3 P2B 104.8(9) 4_565 . ?
O12 Li3 P2B 27.8(13) . . ?
Li3 Li3 P2B 91.3(6) 3_655 . ?
Li3 Li3 P2B 100.4(5) 4_565 . ?
Li4 Li3 Li1 86(3) . 4_565 ?
O8 Li3 Li1 43.8(7) . 4_565 ?
O2 Li3 Li1 142.1(12) . 4_565 ?
OW2 Li3 Li1 114.6(11) . 4_565 ?
O5 Li3 Li1 95.1(11) 1_554 4_565 ?
O2 Li3 Li1 47.3(7) 4_565 4_565 ?
O12 Li3 Li1 70(3) . 4_565 ?
Li3 Li3 Li1 146.8(8) 3_655 4_565 ?
Li3 Li3 Li1 75.4(8) 4_565 4_565 ?
P2B Li3 Li1 63.1(8) . 4_565 ?
Li4 Li3 Al1 75.4(19) . 4_565 ?
O8 Li3 Al1 100.4(10) . 4_565 ?
O2 Li3 Al1 128.1(13) . 4_565 ?
OW2 Li3 Al1 110.9(10) . 4_565 ?
O5 Li3 Al1 37.6(4) 1_554 4_565 ?
O2 Li3 Al1 35.3(4) 4_565 4_565 ?
O12 Li3 Al1 128(3) . 4_565 ?
Li3 Li3 Al1 142.3(5) 3_655 4_565 ?
Li3 Li3 Al1 73.6(8) 4_565 4_565 ?
P2B Li3 Al1 124.4(8) . 4_565 ?
Li1 Li3 Al1 61.9(7) 4_565 4_565 ?
Li3 Li4 O5 72(2) . 1_554 ?
Li3 Li4 O9 156(3) . 3_645 ?
O5 Li4 O9 131(3) 1_554 3_645 ?
Li3 Li4 O9 148(4) . 4_565 ?
O5 Li4 O9 112(2) 1_554 4_565 ?
O9 Li4 O9 37.9(12) 3_645 4_565 ?
Li3 Li4 O2 62.4(16) . . ?
O5 Li4 O2 97(2) 1_554 . ?
O9 Li4 O2 104(3) 3_645 . ?
O9 Li4 O2 142(3) 4_565 . ?
Li3 Li4 O8 54(2) . . ?
O5 Li4 O8 115(3) 1_554 . ?
O9 Li4 O8 109(3) 3_645 . ?
O9 Li4 O8 99(3) 4_565 . ?
O2 Li4 O8 88.9(19) . . ?
Li3 Li4 O4 91(3) . 4_565 ?
O5 Li4 O4 70.5(16) 1_554 4_565 ?
O9 Li4 O4 101.0(19) 3_645 4_565 ?
O9 Li4 O4 63.1(15) 4_565 4_565 ?
O2 Li4 O4 154(3) . 4_565 ?
O8 Li4 O4 77(2) . 4_565 ?
Li3 Li4 P2A 95(3) . 1_554 ?
O5 Li4 P2A 32.6(12) 1_554 1_554 ?
O9 Li4 P2A 104(3) 3_645 1_554 ?
O9 Li4 P2A 104(2) 4_565 1_554 ?
O2 Li4 P2A 88(2) . 1_554 ?
O8 Li4 P2A 147(2) . 1_554 ?
O4 Li4 P2A 92.2(16) 4_565 1_554 ?
Li3 Li4 P1A 121(3) . 4_565 ?
O5 Li4 P1A 91.1(17) 1_554 4_565 ?
O9 Li4 P1A 69.7(14) 3_645 4_565 ?
O9 Li4 P1A 31.7(9) 4_565 4_565 ?
O2 Li4 P1A 172(3) . 4_565 ?
O8 Li4 P1A 88(2) . 4_565 ?
O4 Li4 P1A 31.3(6) 4_565 4_565 ?
P2A Li4 P1A 99.0(15) 1_554 4_565 ?
Li3 Li4 P1A 133(2) . 3_645 ?
O5 Li4 P1A 132(3) 1_554 3_645 ?
O9 Li4 P1A 31.0(10) 3_645 3_645 ?
O9 Li4 P1A 68.9(15) 4_565 3_645 ?
O2 Li4 P1A 73.7(17) . 3_645 ?
O8 Li4 P1A 112(2) . 3_645 ?
O4 Li4 P1A 132.0(18) 4_565 3_645 ?
P2A Li4 P1A 99(2) 1_554 3_645 ?
P1A Li4 P1A 100.7(15) 4_565 3_645 ?
Li3 Li4 P2B 80(2) . 1_554 ?
O5 Li4 P2B 26.6(11) 1_554 1_554 ?
O9 Li4 P2B 119(3) 3_645 1_554 ?
O9 Li4 P2B 119(2) 4_565 1_554 ?
O2 Li4 P2B 77.9(19) . 1_554 ?
O8 Li4 P2B 132(2) . 1_554 ?
O4 Li4 P2B 95.5(16) 4_565 1_554 ?
P2A Li4 P2B 16.1(4) 1_554 1_554 ?
P1A Li4 P2B 109.7(16) 4_565 1_554 ?
P1A Li4 P2B 108(2) 3_645 1_554 ?
Li3 Li4 Al1 72.0(19) . 4_565 ?
O5 Li4 Al1 34.6(10) 1_554 4_565 ?
O9 Li4 Al1 129(2) 3_645 4_565 ?
O9 Li4 Al1 94.1(17) 4_565 4_565 ?
O2 Li4 Al1 123(2) . 4_565 ?
O8 Li4 Al1 91(2) . 4_565 ?
O4 Li4 Al1 37.4(7) 4_565 4_565 ?
P2A Li4 Al1 63.4(11) 1_554 4_565 ?
P1A Li4 Al1 64.6(10) 4_565 4_565 ?
P1A Li4 Al1 153(2) 3_645 4_565 ?
P2B Li4 Al1 61.1(10) 1_554 4_565 ?
Li2 Li5 O6 73.2(16) . 1_554 ?
Li2 Li5 O3 61.5(15) . . ?
O6 Li5 O3 100.3(14) 1_554 . ?
Li2 Li5 O10 157(4) . 3_654 ?
O6 Li5 O10 130(3) 1_554 3_654 ?
O3 Li5 O10 108(2) . 3_654 ?
Li2 Li5 O10 149(3) . 4_664 ?
O6 Li5 O10 117(3) 1_554 4_664 ?
O3 Li5 O10 136(2) . 4_664 ?
O10 Li5 O10 29.6(9) 3_654 4_664 ?
Li2 Li5 O7 55(2) . . ?
O6 Li5 O7 116(2) 1_554 . ?
O3 Li5 O7 88(2) . . ?
O10 Li5 O7 106(2) 3_654 . ?
O10 Li5 O7 95.2(18) 4_664 . ?
Li2 Li5 P1A 95.2(18) . 1_554 ?
O6 Li5 P1A 27.9(10) 1_554 1_554 ?
O3 Li5 P1A 96.7(14) . 1_554 ?
O10 Li5 P1A 107(2) 3_654 1_554 ?
O10 Li5 P1A 106(2) 4_664 1_554 ?
O7 Li5 P1A 143.4(18) . 1_554 ?
Li2 Li5 P2A 135(2) . 3_654 ?
O6 Li5 P2A 127(2) 1_554 3_654 ?
O3 Li5 P2A 74.2(13) . 3_654 ?
O10 Li5 P2A 35.3(8) 3_654 3_654 ?
O10 Li5 P2A 64.9(11) 4_664 3_654 ?
O7 Li5 P2A 116(2) . 3_654 ?
P1A Li5 P2A 99.6(16) 1_554 3_654 ?
Li2 Li5 P2A 121(2) . 4_664 ?
O6 Li5 P2A 95.0(18) 1_554 4_664 ?
O3 Li5 P2A 164(2) . 4_664 ?
O10 Li5 P2A 63.6(9) 3_654 4_664 ?
O10 Li5 P2A 34.0(7) 4_664 4_664 ?
O7 Li5 P2A 82.8(12) . 4_664 ?
P1A Li5 P2A 98.2(17) 1_554 4_664 ?
P2A Li5 P2A 98.7(9) 3_654 4_664 ?
Li2 Li5 Li1 86.7(16) . 1_554 ?
O6 Li5 Li1 81.7(15) 1_554 1_554 ?
O3 Li5 Li1 38.0(10) . 1_554 ?
O10 Li5 Li1 95.5(16) 3_654 1_554 ?
O10 Li5 Li1 122.9(19) 4_664 1_554 ?
O7 Li5 Li1 126(2) . 1_554 ?
P1A Li5 Li1 65.4(12) 1_554 1_554 ?
P2A Li5 Li1 61.9(9) 3_654 1_554 ?
P2A Li5 Li1 150(2) 4_664 1_554 ?
Li2 Li5 P1B 80.5(16) . 1_554 ?
O6 Li5 P1B 21.1(7) 1_554 1_554 ?
O3 Li5 P1B 87.0(12) . 1_554 ?
O10 Li5 P1B 121(3) 3_654 1_554 ?
O10 Li5 P1B 121(3) 4_664 1_554 ?
O7 Li5 P1B 131.8(15) . 1_554 ?
P1A Li5 P1B 15.1(3) 1_554 1_554 ?
P2A Li5 P1B 108.0(16) 3_654 1_554 ?
P2A Li5 P1B 108.5(17) 4_664 1_554 ?
Li1 Li5 P1B 61.8(11) 1_554 1_554 ?
Li2 Li5 Li1 70.4(16) . 4_664 ?
O6 Li5 Li1 41.0(10) 1_554 4_664 ?
O3 Li5 Li1 126.3(13) . 4_664 ?
O10 Li5 Li1 125.7(19) 3_654 4_664 ?
O10 Li5 Li1 97.9(17) 4_664 4_664 ?
O7 Li5 Li1 83.7(15) . 4_664 ?
P1A Li5 Li1 64.4(11) 1_554 4_664 ?
P2A Li5 Li1 153(2) 3_654 4_664 ?
P2A Li5 Li1 65.2(11) 4_664 4_664 ?
Li1 Li5 Li1 121.7(18) 1_554 4_664 ?
P1B Li5 Li1 61.9(10) 1_554 4_664 ?
loop_
_geom_bond_atom_site_label_1
_geom_bond_atom_site_label_2
_geom_bond_distance
_geom_bond_site_symmetry_2
_geom_bond_publ_flag
Al1 O2 1.790(8) . ?
Al1 O3 1.819(7) . ?
Al1 O1 1.874(9) 1_554 ?
Al1 O5 1.889(8) 3_654 ?
Al1 O4 1.901(10) . ?
Al1 O7 1.896(8) 3_645 ?
Al1 Li1 2.90(3) 1_554 ?
Al1 Li2 2.93(2) 3_645 ?
Al1 Li3 3.07(2) 3_655 ?
Al1 Li4 3.12(5) 3_655 ?
Al1 Li1 3.10(3) . ?
Al1 Li4 3.18(6) . ?
P1A P1B 0.796(7) . ?
P1A O6 1.504(12) . ?
P1A O4 1.519(7) . ?
P1A O7 1.545(11) . ?
P1A O9 1.603(16) . ?
P1A O11 2.25(7) . ?
P1A Li5 2.86(5) 1_556 ?
P1A Li4 2.91(5) 3_655 ?
P1A Li4 2.91(6) 4_665 ?
P1A Li2 3.08(2) . ?
P1B O11 1.48(7) . ?
P1B O4 1.487(8) . ?
P1B O6 1.482(13) . ?
P1B O7 1.574(11) . ?
P1B Li2 2.86(2) . ?
P1B Li5 3.05(5) 1_556 ?
P2A P2B 0.833(7) . ?
P2A O8 1.499(12) . ?
P2A O1 1.531(6) . ?
P2A O5 1.531(11) . ?
P2A O10 1.719(15) . ?
P2A O12 2.18(5) . ?
P2A Li4 2.74(6) 1_556 ?
P2A Li5 2.90(4) 4_566 ?
P2A Li5 2.97(3) 3_646 ?
P2A Li1 3.05(3) 4_565 ?
P2B O12 1.37(6) . ?
P2B O1 1.503(7) . ?
P2B O8 1.521(12) . ?
P2B O5 1.528(11) . ?
P2B Li3 2.93(3) . ?
P2B Li4 2.98(6) 1_556 ?
P2B Li1 3.08(3) 4_565 ?
O1 Al1 1.874(9) 1_556 ?
O1 Li1 2.15(4) . ?
O2 Li3 1.96(2) . ?
O2 Li4 2.02(5) . ?
O2 Li1 2.19(3) . ?
O2 Li3 2.237(19) 3_655 ?
O3 Li2 1.868(17) . ?
O3 Li1 1.91(3) 1_554 ?
O3 Li5 1.96(4) . ?
O3 Li2 2.277(17) 3_645 ?
O4 Li1 2.17(4) . ?
O4 Li4 2.61(5) 3_655 ?
O5 Al1 1.889(8) 4_566 ?
O5 Li4 1.92(6) 1_556 ?
O5 Li3 2.16(3) 1_556 ?
O6 Li5 1.85(5) 1_556 ?
O6 Li2 2.10(3) 1_556 ?
O6 Li1 2.15(3) 4_665 ?
O7 Li2 1.87(3) . ?
O7 Al1 1.896(8) 4_665 ?
O7 Li5 2.21(6) . ?
O8 Li3 1.84(3) . ?
O8 Li1 2.07(3) 4_565 ?
O8 Li4 2.19(7) . ?
O9 O9 1.28(3) 2_765 ?
O9 Li4 1.93(6) 4_665 ?
O9 Li4 2.00(5) 3_655 ?
O10 O10 1.02(3) 2_655 ?
O10 Li5 1.97(4) 4_566 ?
O10 Li5 2.02(3) 3_646 ?
O11 O11 1.48(8) 3_645 ?
O11 O11 1.48(8) 4_665 ?
O12 O12 1.63(7) 4_565 ?
O12 O12 1.63(7) 3_655 ?
O12 Li3 2.66(6) . ?
OW1 Li2 2.02(2) 4_665 ?
OW1 Li2 2.02(2) 2_755 ?
OW1 Li2 2.02(2) 3_645 ?
OW1 Li2 2.02(2) . ?
OW2 Li3 2.00(3) 2_665 ?
OW2 Li3 2.00(3) 4_565 ?
OW2 Li3 2.00(3) 3_655 ?
OW2 Li3 2.00(3) . ?
Li1 O3 1.91(3) 1_556 ?
Li1 O8 2.07(3) 3_655 ?
Li1 O6 2.15(3) 3_645 ?
Li1 Al1 2.90(3) 1_556 ?
Li1 Li3 2.96(4) 3_655 ?
Li1 Li5 3.03(4) 1_556 ?
Li1 Li2 3.04(3) 3_646 ?
Li1 P2A 3.05(3) 3_655 ?
Li1 P2B 3.08(3) 3_655 ?
Li2 Li5 1.66(5) . ?
Li2 O6 2.10(3) 1_554 ?
Li2 O3 2.277(17) 4_665 ?
Li2 Li2 2.84(3) 4_665 ?
Li2 Li2 2.84(3) 3_645 ?
Li2 Al1 2.93(2) 4_665 ?
Li2 Li1 3.04(3) 4_664 ?
Li3 Li4 1.73(6) . ?
Li3 O5 2.16(3) 1_554 ?
Li3 O2 2.237(19) 4_565 ?
Li3 Li3 2.82(4) 3_655 ?
Li3 Li3 2.82(4) 4_565 ?
Li3 Li1 2.96(4) 4_565 ?
Li3 Al1 3.07(2) 4_565 ?
Li4 O5 1.92(6) 1_554 ?
Li4 O9 1.93(6) 3_645 ?
Li4 O9 2.00(5) 4_565 ?
Li4 O4 2.61(5) 4_565 ?
Li4 P2A 2.74(6) 1_554 ?
Li4 P1A 2.91(5) 4_565 ?
Li4 P1A 2.91(6) 3_645 ?
Li4 P2B 2.98(6) 1_554 ?
Li4 Al1 3.12(5) 4_565 ?
Li5 O6 1.85(5) 1_554 ?
Li5 O10 1.97(4) 3_654 ?
Li5 O10 2.02(3) 4_664 ?
Li5 P1A 2.86(5) 1_554 ?
Li5 P2A 2.90(4) 3_654 ?
Li5 P2A 2.97(3) 4_664 ?
Li5 Li1 3.03(4) 1_554 ?
Li5 P1B 3.05(5) 1_554 ?
Li5 Li1 3.17(5) 4_664 ?
