#------------------------------------------------------------------------------
#$Date: 2022-09-07 01:30:42 +0300 (Wed, 07 Sep 2022) $
#$Revision: 277693 $
#$URL: file:///home/coder/svn-repositories/cod/cif/7/24/54/7245446.cif $
#------------------------------------------------------------------------------
#
# This file is available in the Crystallography Open Database (COD),
# http://www.crystallography.net/
#
# All data on this site have been placed in the public domain by the
# contributors.
#
data_7245446
loop_
_publ_author_name
'Li, Xinlei'
'Zhang, Yang'
'Pan, Yang'
'Hao, Yucheng'
'Lin, Yuan'
'Li, Haijian'
'Li, Minghua'
'Fan, Changzeng'
'Alekseev, Evgeny V.'
_publ_section_title
;
 Li3[Al(PO4)2(H2O)1.5] and Na[AlP2O7]&#xFF1A;from 2D Layered Polar to 3D
 Centrosymmetric Framework Structures
;
_journal_name_full               CrystEngComm
_journal_paper_doi               10.1039/D2CE00994C
_journal_year                    2022
_chemical_formula_sum            'Al Na O7 P2'
_chemical_formula_weight         223.91
_space_group_crystal_system      monoclinic
_space_group_IT_number           15
_space_group_name_Hall           '-C 2yc'
_space_group_name_H-M_alt        'C 1 2/c 1'
_audit_creation_method           SHELXL-2014/7
_audit_update_record
;
2022-02-16 deposited with the CCDC.	2022-09-05 downloaded from the CCDC.
;
_cell_angle_alpha                90
_cell_angle_beta                 106.039(9)
_cell_angle_gamma                90
_cell_formula_units_Z            4
_cell_length_a                   7.3960(6)
_cell_length_b                   9.7388(7)
_cell_length_c                   8.2067(7)
_cell_measurement_reflns_used    2217
_cell_measurement_temperature    293(2)
_cell_measurement_theta_max      29.1020
_cell_measurement_theta_min      3.5350
_cell_volume                     568.10(8)
_computing_structure_refinement  'SHELXL-2014/7 (Sheldrick, 2014)'
_diffrn_ambient_temperature      293(2)
_diffrn_measured_fraction_theta_full 1.000
_diffrn_measured_fraction_theta_max 0.998
_diffrn_measurement_device_type  'ROD, Synergy Custom DW system, HyPix'
_diffrn_radiation_type           MoK\a
_diffrn_radiation_wavelength     0.71073
_diffrn_reflns_av_R_equivalents  0.1530
_diffrn_reflns_av_unetI/netI     0.0442
_diffrn_reflns_Laue_measured_fraction_full 1.000
_diffrn_reflns_Laue_measured_fraction_max 0.998
_diffrn_reflns_limit_h_max       8
_diffrn_reflns_limit_h_min       -8
_diffrn_reflns_limit_k_max       11
_diffrn_reflns_limit_k_min       -11
_diffrn_reflns_limit_l_max       9
_diffrn_reflns_limit_l_min       -9
_diffrn_reflns_number            2718
_diffrn_reflns_point_group_measured_fraction_full 1.000
_diffrn_reflns_point_group_measured_fraction_max 0.998
_diffrn_reflns_theta_full        24.376
_diffrn_reflns_theta_max         24.376
_diffrn_reflns_theta_min         3.549
_diffrn_source                   'Rotating-anode X-ray tube'
_exptl_absorpt_coefficient_mu    0.980
_exptl_crystal_colour            colorless
_exptl_crystal_density_diffrn    2.618
_exptl_crystal_description       block
_exptl_crystal_F_000             440
_exptl_crystal_size_max          0.06
_exptl_crystal_size_mid          0.04
_exptl_crystal_size_min          0.02
_refine_diff_density_max         0.876
_refine_diff_density_min         -0.836
_refine_diff_density_rms         0.192
_refine_ls_extinction_method     none
_refine_ls_goodness_of_fit_ref   1.118
_refine_ls_hydrogen_treatment    undef
_refine_ls_matrix_type           full
_refine_ls_number_parameters     58
_refine_ls_number_reflns         2718
_refine_ls_number_restraints     0
_refine_ls_restrained_S_all      1.118
_refine_ls_R_factor_all          0.0746
_refine_ls_R_factor_gt           0.0693
_refine_ls_shift/su_max          0.001
_refine_ls_shift/su_mean         0.000
_refine_ls_structure_factor_coef Fsqd
_refine_ls_weighting_details
'w=1/[\s^2^(Fo^2^)+(0.1628P)^2^] where P=(Fo^2^+2Fc^2^)/3'
_refine_ls_weighting_scheme      calc
_refine_ls_wR_factor_gt          0.2036
_refine_ls_wR_factor_ref         0.2135
_reflns_Friedel_coverage         0.000
_reflns_number_gt                2375
_reflns_number_total             2718
_reflns_threshold_expression     'I > 2\s(I)'
_cod_data_source_file            d2ce00994c2.cif
_cod_data_source_block           b
_cod_original_sg_symbol_H-M      'C 2/c'
_cod_database_code               7245446
_shelx_shelxl_version_number     2014/7
_shelx_space_group_comment
;
The symmetry employed for this shelxl refinement is uniquely defined
by the following loop, which should always be used as a source of
symmetry information in preference to the above space-group names.
They are only intended as comments.
;
_shelx_res_file
;

    b.res created by SHELXL-2014/7


TITL b in C2/c
CELL 0.71073   7.3960   9.7388   8.2067  90.000 106.039  90.000
ZERR    4.00   0.0006   0.0007   0.0007   0.000   0.009   0.000
LATT  7
SYMM -X, Y, 0.5-Z
SFAC O NA AL P
UNIT 28 4 4 8

L.S. 4
BOND
FMAP 2
PLAN 20
acta
shel 0.86 85
omit 0 8 0
omit 0 -8 0
omit -1 7 2
omit 0 -4 3
omit 1 5 -1
omit 0 2 2
WGHT    0.162800
BASF   0.58000
FVAR       0.05384
MOLE   1
P1    4    0.227797    0.104012    0.637766    11.00000    0.02477    0.00831 =
         0.01662   -0.00054   -0.00097   -0.00088
AL1   3    0.000000    0.140643    0.250000    10.50000    0.02171    0.00529 =
         0.01746    0.00000   -0.00046    0.00000
NA1   2    0.250000    0.250000    1.000000    10.50000    0.07968    0.09492 =
         0.04170   -0.02471    0.03804   -0.03840
O1    1    0.062920    0.147912    0.492323    11.00000    0.02428    0.01083 =
         0.01707    0.00158    0.00065    0.00012
O2    1    0.316350    0.224070    0.750235    11.00000    0.02753    0.01261 =
         0.01966   -0.00332    0.00334   -0.00636
O3    1    0.179583   -0.004047    0.750185    11.00000    0.05022    0.02697 =
         0.02919    0.01767   -0.01726   -0.02054
O4    1    0.366799    0.022454    0.569319    10.50000    0.05854    0.08902 =
         0.05406   -0.00953    0.00383    0.01101
HKLF 4

REM  b in C2/c
REM R1 =  0.0693 for    2375 Fo > 4sig(Fo)  and  0.0746 for all    2718 data
REM     58 parameters refined using      0 restraints

END

WGHT      0.1627      0.0000

REM Highest difference peak  0.876,  deepest hole -0.836,  1-sigma level  0.192
Q1    1   0.0786  0.1025  0.5867  11.00000  0.05    0.88
Q2    1   0.3809  0.1047  0.6785  11.00000  0.05    0.78
Q3    1   0.0530  0.1499  0.3951  11.00000  0.05    0.66
Q4    1   0.1536  0.1455  0.2967  11.00000  0.05    0.65
Q5    1   0.0000  0.2184  0.7500  10.50000  0.05    0.62
Q6    1  -0.0356  0.1502  0.4807  11.00000  0.05    0.52
Q7    1   0.0000  0.0221  0.7500  10.50000  0.05    0.51
Q8    1   0.1591  0.2137  0.7353  11.00000  0.05    0.49
Q9    1   0.1899  0.1406  0.5090  11.00000  0.05    0.48
Q10   1   0.3134  0.1153  0.5372  11.00000  0.05    0.46
Q11   1   0.1717 -0.0079  0.7943  11.00000  0.05    0.45
Q12   1   0.0628  0.1489  0.1392  11.00000  0.05    0.44
Q13   1   0.1603  0.0802  0.8821  11.00000  0.05    0.41
Q14   1   0.3679  0.0429  0.4487  11.00000  0.05    0.41
Q15   1   0.4449  0.2419  0.8145  11.00000  0.05    0.40
Q16   1   0.1253  0.3148  0.5276  11.00000  0.05    0.38
Q17   1   0.1815  0.1680  0.4212  11.00000  0.05    0.36
Q18   1   0.5000  0.1902  0.7500  10.50000  0.05    0.33
Q19   1   0.1529  0.0855  0.7395  11.00000  0.05    0.33
Q20   1   0.3819 -0.0522  0.4140  11.00000  0.05    0.32
;
_shelx_res_checksum              70295
_shelx_hkl_file
;
   0   0   1    0.02    0.01
   0   0  -1    0.01    0.01
   0   0   2    8.50    0.32
   0   0  -2    8.83    0.31
   0   0  -2    7.98    0.32
   0   0  -3    0.04    0.01
   0   0   3    0.04    0.01
   0   0  -3    0.02    0.01
   0   0   3    0.03    0.02
   0   0  -3    0.03    0.01
   0   0   4   25.88    0.78
   0   0  -4   20.65    0.76
   0   0  -4   21.90    0.73
   0   0  -4   24.37    0.76
   0   0   4   20.31    0.73
   0   0   5    0.02    0.02
   0   0  -5    0.01    0.01
   0   0  -5    0.02    0.01
   0   0  -5    0.01    0.02
   0   0   5    0.03    0.01
   0   0  -6    0.21    0.04
   0   0   6    0.24    0.03
   0   0  -6    0.20    0.03
   0   0  -7    0.02    0.02
   0   0  -7    0.02    0.02
   0   0  -8   22.93    0.78
   0   0  -8   20.60    0.79
   0   0  -9    0.01    0.02
   0   0  -9   -0.01    0.03
   0   0 -10    3.95    0.20
   0   2   0    0.66    0.07
   0  -2   0    0.57    0.03
   0   2   0    0.50    0.02
   0  -2   0    0.61    0.04
   0   2   1   11.27    0.28
   0   2  -1    6.96    0.30
   0  -2  -1    6.20    0.26
   0   2  -1    8.84    0.26
   0  -2   1    8.86    0.27
   0   2  -1    8.75    0.26
   0   2   1    6.25    0.26
   0  -2  -1    6.03    0.26
   0  -2  -2    2.71    0.11
   0   2   2    3.98    0.14
   0   2   2    2.69    0.12
   0   2   2    2.37    0.14
   0  -2  -2    2.07    0.11
   0   2  -2    2.73    0.11
   0  -2   2    3.67    0.12
   0   2   2    2.73    0.11
   0  -2   2    2.46    0.15
   0   2  -2    2.77    0.12
   0  -2   3    8.25    0.30
   0  -2  -3    7.93    0.29
   0   2   3    8.58    0.30
   0   2  -3    8.50    0.28
   0  -2  -3    7.90    0.29
   0   2   3    8.55    0.31
   0   2   3    7.81    0.31
   0   2  -3    7.98    0.29
   0   2  -4    7.50    0.30
   0   2  -4    7.52    0.30
   0   2   4    7.44    0.29
   0  -2   4    8.71    0.31
   0   2  -4    8.08    0.27
   0  -2  -4    6.84    0.29
   0  -2   4    8.08    0.27
   0   2   4    7.85    0.31
   0  -2  -4    7.87    0.30
   0  -2  -4    8.18    0.29
   0   2   4    8.26    0.31
   0   2   5   16.16    0.56
   0  -2  -5   14.85    0.53
   0  -2  -5   15.00    0.52
   0   2  -5   15.94    0.54
   0  -2  -5   13.69    0.54
   0   2  -5   14.88    0.54
   0  -2   5   17.79    0.56
   0  -2  -5   15.55    0.54
   0   2   5   14.12    0.50
   0  -2  -6    0.48    0.05
   0   2  -6    0.46    0.05
   0  -2  -6    0.41    0.04
   0   2  -6    0.40    0.05
   0  -2  -6    0.35    0.05
   0   2  -7    0.04    0.02
   0  -2  -7    0.01    0.02
   0  -2  -7    0.00    0.02
   0   2  -7   -0.01    0.02
   0  -2  -7    0.00    0.02
   0  -2   7    0.00    0.01
   0  -2  -8    0.26    0.05
   0   2  -8    0.33    0.05
   0   2  -8    0.28    0.04
   0  -2  -8    0.38    0.05
   0   2  -9    0.73    0.07
   0   2  -9    0.83    0.08
   0  -2  -9    0.69    0.08
   0  -2  -9    0.80    0.07
   0   2 -10    0.22    0.04
   0  -4   0    3.44    0.13
   0  -4   0    2.68    0.11
   0   4   0    3.77    0.20
   0   4   0    2.97    0.11
   0  -4   1    1.51    0.06
   0  -4  -1    1.11    0.06
   0   4   1    1.22    0.06
   0   4  -1    1.39    0.07
   0  -4   1    1.39    0.06
   0  -4  -1    1.16    0.05
   0   4   1    1.23    0.06
   0   4  -1    1.55    0.06
   0  -4  -2    3.03    0.14
   0   4   2    2.76    0.14
   0  -4  -2    3.06    0.13
   0   4  -2    4.42    0.14
   0   4   2    2.64    0.18
   0   4   2    3.52    0.14
   0  -4   2    4.66    0.15
   0   4  -2    3.67    0.13
   0   4  -2    4.57    0.15
   0   4  -2    2.77    0.17
   0   4   3    4.77    0.20
   0  -4   3    7.01    0.21
   0   4   3    4.57    0.20
   0  -4  -3    3.93    0.19
   0   4  -3    6.49    0.20
   0   4  -3    5.04    0.22
   0  -4  -3    4.84    0.20
   0   4   3    4.20    0.24
   0   4  -4   13.48    0.42
   0  -4   4   14.77    0.43
   0   4   4   10.96    0.42
   0   4  -4   10.89    0.41
   0  -4  -4   11.34    0.41
   0   4   4    9.44    0.43
   0   4   4   11.95    0.43
   0  -4  -4    9.04    0.40
   0  -4   5    1.80    0.10
   0   4  -5    1.54    0.09
   0  -4  -5    1.15    0.08
   0  -4  -5    1.13    0.07
   0  -4  -5    1.58    0.09
   0   4   5    1.27    0.09
   0   4   5    1.40    0.09
   0   4  -5    1.68    0.08
   0  -4   5    1.20    0.05
   0  -4  -6    3.43    0.16
   0   4   6    3.67    0.15
   0   4  -6    3.45    0.17
   0   4  -6    3.03    0.16
   0  -4  -6    3.39    0.16
   0  -4  -7    0.03    0.02
   0   4  -7    0.04    0.03
   0   4  -7    0.02    0.02
   0   4   7    0.03    0.02
   0  -4  -7    0.03    0.02
   0   4  -8    2.50    0.14
   0  -4  -8    2.61    0.15
   0  -4  -8    2.26    0.14
   0  -4  -9    1.10    0.09
   0   4  -9    1.12    0.10
   0   4  -9    0.83    0.07
   0  -4  -9    0.93    0.09
   0   6   0    0.06    0.05
   0  -6   0    0.10    0.01
   0   6   0    0.11    0.02
   0   6   1    0.59    0.04
   0  -6  -1    0.77    0.05
   0  -6   1    0.62    0.04
   0   6  -1    0.68    0.04
   0   6  -1    0.73    0.10
   0  -6  -1    0.67    0.04
   0   6  -2    0.16    0.06
   0   6  -2    0.18    0.02
   0  -6  -2    0.15    0.02
   0   6  -2    0.18    0.02
   0   6   2    0.13    0.02
   0   6  -2    0.17    0.03
   0   6   2    0.19    0.07
   0  -6  -2    0.23    0.04
   0  -6   2    0.12    0.02
   0   6   2    0.12    0.03
   0  -6  -2    0.12    0.02
   0   6   3    8.08    0.37
   0   6   3    8.96    0.42
   0   6  -3    9.91    0.34
   0   6  -3    9.40    0.40
   0  -6  -3    9.54    0.34
   0  -6   3   12.79    0.38
   0   6   3   11.33    0.38
   0  -6  -3    8.40    0.35
   0   6  -3   10.83    0.36
   0   6  -4   10.76    0.45
   0  -6   4   15.56    0.46
   0   6   4   10.08    0.47
   0   6   4   11.00    0.44
   0   6  -4   10.60    0.40
   0   6  -4   13.11    0.44
   0  -6  -4   10.81    0.43
   0  -6  -4   11.33    0.42
   0   6  -4   15.51    0.43
   0  -6  -5   11.80    0.47
   0   6   5   12.21    0.48
   0   6  -5   11.96    0.47
   0   6  -5   16.16    0.47
   0  -6   5   16.03    0.50
   0  -6  -5   10.59    0.46
   0   6   5   10.86    0.49
   0  -6  -5   12.31    0.46
   0  -6  -6    1.55    0.10
   0  -6  -6    2.05    0.12
   0   6  -6    2.82    0.13
   0   6  -6    2.09    0.11
   0   6   6    2.00    0.12
   0  -6  -6    2.11    0.11
   0   6  -6    1.38    0.10
   0   6   7    0.56    0.06
   0  -6  -7    0.70    0.06
   0  -6  -7    0.55    0.06
   0  -6  -7    0.65    0.07
   0   6  -7    0.47    0.05
   0  -6  -8    0.13    0.03
   0  -6  -8    0.13    0.03
   0   6  -8    0.21    0.05
   0  -6  -8    0.17    0.04
   0  -8   0   32.28    0.98
   0   8   0   24.73    0.96
   0  -8   0   29.12    0.96
   0   8   0   36.08    1.11
   0   8  -1   27.62    0.84
   0  -8  -1   28.17    0.75
   0  -8  -1   20.65    0.69
   0  -8  -1   21.99    0.71
   0   8  -1   19.40    0.68
   0  -8   1   17.69    0.67
   0   8   1   18.51    0.69
   0  -8  -2    2.80    0.17
   0   8   2    3.06    0.21
   0  -8  -2    2.50    0.13
   0   8  -2    3.54    0.21
   0   8  -2    3.04    0.12
   0  -8  -2    3.10    0.16
   0   8   3    0.36    0.07
   0  -8   3    0.46    0.06
   0   8   3    0.70    0.10
   0   8  -3    0.68    0.09
   0  -8  -3    0.55    0.05
   0  -8  -3    0.58    0.09
   0   8  -3    0.80    0.04
   0   8  -3    0.78    0.05
   0  -8  -3    0.63    0.05
   0  -8  -3    0.52    0.07
   0   8  -3    0.56    0.05
   0  -8  -4    0.93    0.07
   0   8  -4    0.99    0.10
   0   8  -4    0.92    0.05
   0   8   4    1.03    0.11
   0   8  -4    0.93    0.06
   0   8   4    0.89    0.09
   0  -8  -4    1.04    0.08
   0   8   5    0.13    0.05
   0   8  -5    0.15    0.05
   0  -8  -5    0.18    0.05
   0  -8  -5    0.20    0.03
   0   8  -5    0.24    0.05
   0   8  -5    0.16    0.03
   0   8   5    0.16    0.05
   0  -8  -6    0.23    0.04
   0   8  -6    0.19    0.05
   0  -8  -6    0.19    0.05
   0   8  -6    0.24    0.06
   0   8  -6    0.25    0.04
   0   8   6    0.16    0.05
   0  -8  -6    0.23    0.04
   0   8  -7    1.93    0.17
   0  -8  -7    1.95    0.11
   0   8   7    1.75    0.12
   0   8  -8    2.80    0.21
   0  -8  -8    2.31    0.14
   0  10   0    2.79    0.20
   0 -10   0    1.98    0.10
   0 -10  -1    0.24    0.03
   0  10  -1    0.27    0.08
   0 -10  -1    0.17    0.04
   0  10   1    0.29    0.08
   0  10  -1    0.18    0.03
   0 -10  -2    1.05    0.09
   0  10  -2    0.86    0.12
   0  10   2    0.86    0.12
   0 -10  -2    0.85    0.06
   0 -10  -3    0.10    0.02
   0 -10  -3    0.07    0.05
   0  10  -3    0.16    0.06
   0  10   3    0.20    0.07
   0 -10  -4    8.25    0.34
   0  10   4    8.29    0.40
   0 -10  -5    0.18    0.03
   0  10   5    0.14    0.06
   0  10  -6    0.21    0.06
   0  10   6    0.16    0.06
   0 -12   0    0.03    0.03
   0 -12  -1    4.20    0.21
   0 -12  -3    0.93    0.07
   1  -1 -10    0.16    0.04
   1   1 -10    0.15    0.04
   1   1  -9    0.41    0.06
   1  -1  -9    0.43    0.07
   1  -1  -9    0.44    0.06
   1   1  -8    5.80    0.26
   1  -1  -8    5.73    0.27
   1  -1  -8    6.18    0.27
   1  -1  -7    0.02    0.03
   1   1  -7    0.01    0.02
  -1  -1   7    0.02    0.01
   1  -1  -7    0.02    0.02
   1   1  -6    3.92    0.19
  -1  -1   6    3.36    0.15
   1  -1  -6    4.19    0.19
  -1   1   6    3.86    0.16
   1  -1  -6    3.44    0.18
  -1   1   5    0.55    0.04
  -1  -1   5    0.63    0.04
   1  -1  -5    0.50    0.05
   1  -1  -5    0.65    0.05
  -1  -1   5    0.66    0.07
   1  -1  -4    3.59    0.13
  -1  -1   4    3.20    0.12
  -1   1   4    3.26    0.12
   1  -1  -4    2.69    0.13
  -1  -1   4    3.85    0.16
  -1   1   3   27.23    0.79
  -1   1   3   24.19    0.80
  -1  -1   3   20.66    0.81
   1  -1  -3   18.92    0.80
   1  -1  -3   23.51    0.79
   1  -1  -3   24.37    0.81
   1  -1  -3   23.57    0.78
   1  -1  -2    6.17    0.29
  -1  -1   2    6.62    0.29
   1   1  -1   15.32    0.54
   1  -1  -1   20.35    0.55
   1  -1  -1   17.53    0.55
  -1   1   1   14.62    0.56
  -1  -1   1   14.75    0.55
   1  -1  -1   15.16    0.55
  -1   1   1   16.47    0.55
  -1  -1   1   11.02    0.57
   1  -1  -1   19.70    0.55
   1  -1  -1   14.93    0.57
   1  -1  -1   14.70    0.56
   1   1   0   16.71    0.57
  -1  -1   0   16.98    0.57
   1  -1   0   16.21    0.58
  -1  -1   0   16.48    0.58
   1  -1   0   15.55    0.57
   1  -1   0   15.81    0.58
  -1  -1  -1    2.09    0.10
  -1   1  -1    1.97    0.07
   1  -1   1    2.22    0.08
   1   1   1    2.33    0.08
   1  -1   2   26.52    0.83
   1  -1   2   26.26    0.83
   1   1   2   25.29    0.84
  -1   1  -2   25.68    0.83
   1  -1   2   23.44    0.84
  -1  -1  -2   22.35    0.84
  -1   1  -3    0.27    0.02
   1  -1   3    0.34    0.03
  -1   1  -3    0.30    0.02
  -1  -1  -3    0.22    0.03
   1   1   3    0.32    0.03
   1  -1   3    0.32    0.03
  -1  -1  -3    0.38    0.03
  -1  -1  -3    0.30    0.02
   1  -1   4    5.92    0.21
  -1  -1  -4    7.21    0.24
  -1   1  -4    6.26    0.21
   1   1   4    6.82    0.25
  -1  -1  -4    5.57    0.24
  -1   1  -4    6.42    0.23
   1  -1   4    6.44    0.24
   1  -1   4    5.13    0.21
  -1  -1  -5   10.37    0.31
  -1  -1  -5    8.33    0.31
   1  -1   5    9.53    0.32
   1  -1   5    6.98    0.27
  -1   1  -5    9.58    0.30
   1   1   5    8.96    0.32
  -1  -1  -5    9.59    0.31
   1  -1   5    5.42    0.27
  -1  -1  -6    2.08    0.10
  -1  -1  -6    2.28    0.08
  -1   1  -6    2.51    0.09
  -1  -1  -6    2.48    0.10
   1  -1   6    1.92    0.06
  -1  -1  -7    3.91    0.17
  -1  -1  -7    4.58    0.19
  -1  -1  -7    3.77    0.20
  -1   1  -7    4.28    0.19
  -1   1  -8    0.15    0.03
  -1  -1  -8    0.25    0.04
  -1  -1  -8    0.13    0.04
  -1   1  -9    0.75    0.07
  -1  -1  -9    0.86    0.08
  -1   1 -10    1.11    0.09
   1   3 -10    0.19    0.04
   1  -3  -9    0.15    0.04
   1   3  -9    0.11    0.04
   1  -3  -9    0.07    0.03
   1   3  -9    0.09    0.03
   1   3  -8    2.06    0.13
   1  -3  -8    2.09    0.13
   1  -3  -8    2.16    0.13
   1   3  -8    2.20    0.14
   1   3  -7    7.49    0.31
   1   3  -7    6.67    0.31
   1  -3  -7    7.65    0.31
   1  -3  -6    0.45    0.05
   1   3  -6    0.44    0.05
  -1  -3   6    0.43    0.03
   1   3  -6    0.41    0.03
   1  -3  -6    0.48    0.05
   1  -3  -5    0.34    0.04
   1   3  -5    0.39    0.04
  -1   3   5    0.39    0.03
   1  -3  -5    0.45    0.05
  -1   3   5    0.35    0.05
   1  -3  -5    0.31    0.04
  -1  -3   5    0.35    0.05
   1  -3  -5    0.34    0.04
   1   3  -5    0.37    0.04
   1  -3  -4    0.65    0.05
   1   3  -4    0.65    0.07
   1  -3  -4    0.65    0.05
   1  -3  -4    0.58    0.04
   1  -3  -4    0.48    0.05
  -1   3   4    0.77    0.07
  -1   3   4    0.62    0.04
  -1   3   4    0.88    0.07
   1   3  -4    0.58    0.05
  -1  -3   4    0.84    0.07
  -1   3   3    1.55    0.09
  -1   3   3    1.69    0.09
   1   3  -3    1.29    0.07
   1  -3  -3    1.27    0.08
  -1  -3   3    1.46    0.09
   1  -3  -3    1.39    0.11
   1  -3  -3    1.44    0.08
  -1   3   3    1.34    0.07
   1   3  -3    1.27    0.12
  -1  -3   2   12.47    0.44
   1  -3  -2   11.54    0.46
   1  -3  -2   11.29    0.43
  -1   3   2   10.69    0.42
   1   3  -2   12.98    0.42
  -1   3   2   12.46    0.44
   1  -3  -2   12.64    0.42
   1  -3  -2   13.36    0.45
  -1   3   2   11.29    0.42
   1  -3  -2   11.29    0.42
  -1   3   2   12.42    0.42
   1  -3  -1   25.60    0.90
   1   3  -1   23.51    0.87
   1   3  -1   24.45    0.86
  -1   3   1   28.06    0.88
   1  -3  -1   26.07    0.87
   1  -3  -1   25.58    0.87
   1  -3  -1   26.12    0.88
   1   3  -1   29.13    0.88
  -1   3   0   13.59    0.43
  -1   3   0   11.58    0.39
  -1  -3   0   10.29    0.39
   1  -3   0   11.14    0.39
   1   3   0   10.92    0.40
   1  -3   0   18.66    0.46
   1   3   0   11.21    0.39
   1  -3   0   11.62    0.40
  -1  -3   0   11.05    0.39
  -1   3   0   13.15    0.39
   1  -3   0   11.29    0.41
   1  -3   0   11.04    0.40
  -1   3   0   16.90    0.43
   1   3   0   10.99    0.39
   1   3   1   22.42    0.79
  -1   3  -1   22.40    0.80
  -1  -3  -1   23.90    0.80
   1   3   1   24.30    0.79
   1  -3   1   21.08    0.79
   1  -3   1   26.31    0.79
  -1   3  -1   23.26    0.81
  -1   3  -1   22.95    0.81
  -1   3  -1   23.38    0.80
  -1  -3  -1   23.23    0.79
  -1  -3  -1   23.06    0.81
  -1  -3  -2    0.62    0.05
   1  -3   2    0.68    0.06
   1   3   2    0.79    0.05
  -1   3  -2    0.58    0.05
   1   3   2    0.65    0.04
  -1   3  -2    0.48    0.03
   1  -3   2    0.57    0.03
   1  -3   2    0.72    0.04
   1   3   2    0.59    0.04
  -1   3  -2    0.70    0.05
  -1  -3  -2    0.55    0.04
   1   3   3    1.34    0.07
   1   3   3    1.46    0.08
   1  -3   3    1.56    0.10
  -1  -3  -3    1.24    0.07
   1  -3   3    1.55    0.08
  -1  -3  -3    1.44    0.08
  -1   3  -3    1.39    0.07
  -1   3  -3    1.28    0.06
  -1   3  -4    3.83    0.15
  -1  -3  -4    3.44    0.16
   1   3   4    3.83    0.17
   1  -3   4    4.32    0.17
  -1  -3  -4    4.03    0.16
   1  -3   4    3.84    0.20
   1   3   4    3.78    0.17
  -1   3  -4    3.78    0.17
   1   3   5    1.20    0.08
   1  -3   5    0.81    0.10
  -1   3  -5    1.13    0.06
   1  -3   5    1.22    0.08
  -1  -3  -5    0.95    0.07
  -1  -3  -5    1.04    0.06
  -1   3  -5    1.10    0.07
  -1  -3  -5    1.29    0.08
  -1  -3  -6    1.08    0.07
   1   3   6    0.80    0.08
  -1  -3  -6    0.94    0.08
  -1   3  -6    1.17    0.08
  -1  -3  -6    1.36    0.09
  -1   3  -6    1.11    0.07
  -1  -3  -7    6.49    0.21
  -1   3  -7    6.66    0.17
  -1   3  -7    7.56    0.22
  -1  -3  -7    7.50    0.21
  -1   3  -8    0.12    0.03
  -1  -3  -8    0.15    0.04
  -1  -3  -8    0.13    0.03
  -1   3  -9    0.01    0.02
  -1  -3  -9    0.04    0.02
   1  -5  -9    1.74    0.12
   1   5  -9    1.88    0.13
   1  -5  -8    2.15    0.13
   1   5  -8    2.39    0.14
   1  -5  -8    1.97    0.13
   1  -5  -7    0.14    0.04
   1   5  -7    0.09    0.03
   1  -5  -7    0.14    0.03
  -1   5   7    0.07    0.02
   1  -5  -7    0.15    0.03
   1   5  -7    0.22    0.04
  -1   5   6    5.97    0.23
   1   5  -6    5.76    0.24
   1  -5  -6    6.56    0.26
   1  -5  -6    5.05    0.24
   1  -5  -6    6.01    0.26
   1   5  -6    7.10    0.27
  -1   5   5    4.67    0.20
   1   5  -5    4.48    0.22
  -1   5   5    4.84    0.23
   1  -5  -5    4.64    0.20
   1   5  -5    5.31    0.21
  -1  -5   5    5.20    0.23
   1  -5  -5    4.75    0.20
   1  -5  -4    1.82    0.10
   1   5  -4    2.38    0.16
   1  -5  -4    1.86    0.10
   1   5  -4    2.34    0.11
  -1   5   4    1.78    0.11
  -1   5   4    1.88    0.12
  -1  -5   4    2.27    0.12
  -1   5   4    1.46    0.11
   1  -5  -4    1.82    0.11
   1   5  -3    0.11    0.08
   1   5  -3    0.06    0.01
   1  -5  -3    0.08    0.02
   1   5  -3    0.06    0.01
  -1   5   3    0.03    0.03
  -1  -5   3    0.10    0.03
   1   5  -3    0.09    0.02
  -1   5   3    0.07    0.02
  -1   5   3    0.11    0.04
   1  -5  -3    0.07    0.02
  -1  -5   2   12.30    0.48
   1  -5  -2   11.93    0.44
  -1   5   2   20.49    0.53
   1   5  -2   10.09    0.54
   1  -5  -2   12.55    0.45
   1   5  -2   12.80    0.44
  -1   5   2   14.76    0.49
   1  -5  -2   14.47    0.51
   1  -5  -2   17.57    0.61
  -1   5   2   10.84    0.46
   1   5  -2   13.52    0.44
   1  -5  -1   15.99    0.43
   1   5  -1    9.64    0.35
  -1   5   1   10.92    0.37
   1  -5  -1   10.23    0.35
   1  -5  -1   12.00    0.36
   1   5  -1   13.12    0.54
   1   5  -1   11.15    0.36
   1   5  -1    9.23    0.35
  -1  -5   1    9.30    0.36
   1  -5  -1    9.59    0.36
   1  -5  -1   17.53    0.55
   1  -5   0    2.52    0.12
   1   5   0    1.96    0.08
  -1   5   0    2.85    0.14
   1  -5   0    3.64    0.21
   1   5   0    2.10    0.09
  -1   5   0    2.44    0.09
   1  -5   0    2.20    0.09
  -1   5   0    3.74    0.15
  -1  -5   0    2.26    0.09
   1   5   1    0.44    0.04
  -1  -5  -1    0.37    0.03
  -1   5  -1    0.56    0.06
  -1  -5  -1    0.56    0.04
   1  -5   1    0.49    0.03
  -1  -5  -1    0.42    0.03
  -1   5  -1    0.53    0.05
  -1   5  -1    0.41    0.03
  -1  -5  -1    0.43    0.03
  -1   5  -1    0.46    0.02
   1   5   1    0.43    0.03
  -1   5  -1    0.48    0.03
  -1   5  -2    9.48    0.37
   1   5   2    9.11    0.36
   1  -5   2   11.08    0.35
   1   5   2    9.25    0.35
   1  -5   2    9.25    0.45
  -1  -5  -2    9.37    0.35
  -1   5  -2   10.72    0.37
  -1   5  -2   10.07    0.33
  -1   5  -2    9.54    0.36
  -1  -5  -2    9.29    0.36
   1   5   3    2.92    0.13
   1  -5   3    3.13    0.22
  -1  -5  -3    3.08    0.13
  -1   5  -3    3.61    0.16
   1  -5   3    3.60    0.14
  -1  -5  -3    3.03    0.16
  -1   5  -3    3.18    0.16
   1  -5   3    2.85    0.11
  -1   5  -3    3.01    0.10
  -1   5  -3    3.18    0.15
   1   5   3    2.71    0.22
   1   5   4    1.58    0.09
   1  -5   4    1.30    0.15
   1  -5   4    1.74    0.09
   1   5   4    1.21    0.15
  -1  -5  -4    1.64    0.09
  -1  -5  -4    1.39    0.11
  -1   5  -4    1.49    0.11
  -1   5  -4    1.44    0.08
  -1   5  -4    1.32    0.07
   1  -5   5    0.03    0.03
  -1   5  -5    0.03    0.01
   1   5   5    0.07    0.03
  -1   5  -5    0.02    0.02
  -1  -5  -5    0.03    0.02
  -1  -5  -5    0.04    0.02
   1   5   5    0.06    0.07
   1   5   6    3.14    0.19
  -1  -5  -6    3.12    0.15
  -1  -5  -7    1.24    0.08
  -1   5  -7    1.18    0.07
  -1  -5  -8    0.39    0.05
  -1  -5  -8    0.39    0.09
   1  -7  -9   -0.01    0.03
   1   7  -9    0.03    0.03
   1   7  -8    1.71    0.12
   1  -7  -8    1.57    0.11
   1  -7  -7    1.89    0.11
   1  -7  -7    2.07    0.13
  -1   7   7    1.84    0.11
   1   7  -6    0.37    0.06
   1   7  -6    0.57    0.06
   1  -7  -6    0.56    0.05
   1   7  -6    0.47    0.04
   1  -7  -6    0.36    0.05
   1  -7  -6    0.60    0.06
  -1   7   6    0.46    0.06
   1   7  -5    0.28    0.03
   1   7  -5    0.31    0.07
  -1  -7   5    0.31    0.06
   1   7  -5    0.43    0.04
  -1   7   5    0.39    0.06
  -1   7   5    0.27    0.06
   1  -7  -5    0.38    0.05
   1   7  -5    0.39    0.03
   1  -7  -5    0.40    0.05
   1  -7  -5    0.40    0.04
  -1   7   4   10.25    0.36
   1   7  -4    8.34    0.27
   1   7  -4    8.56    0.38
   1  -7  -4    8.73    0.31
  -1  -7   4    8.66    0.33
   1   7  -4   10.33    0.29
  -1   7   4   10.78    0.36
   1  -7  -4    9.26    0.29
   1   7  -3   14.41    0.66
   1   7  -3   16.47    0.54
   1   7  -3   17.02    0.55
  -1   7   3   11.40    0.57
   1  -7  -3   14.49    0.56
   1  -7  -3   16.66    0.55
   1  -7  -3   19.70    0.66
  -1   7   3   21.39    0.63
   1  -7  -2    2.69    0.13
   1   7  -2    3.45    0.13
   1   7  -2    2.92    0.12
   1  -7  -2    3.09    0.12
   1  -7  -2    4.45    0.13
  -1   7   2    2.69    0.15
   1   7  -2    3.39    0.25
   1  -7  -2    5.40    0.23
  -1   7   2    4.28    0.20
   1   7  -1    1.93    0.09
  -1  -7   1    1.98    0.09
   1  -7  -1    1.87    0.09
  -1   7   1    2.15    0.10
  -1  -7   0   14.61    0.52
   1  -7   0   16.36    0.55
   1  -7   0   14.17    0.50
   1   7   0   14.14    0.51
  -1  -7   0   14.51    0.51
  -1   7   0   15.02    0.51
  -1  -7  -1    2.28    0.08
  -1   7  -1    2.93    0.15
   1  -7   1    1.39    0.07
   1   7   1    2.11    0.23
  -1   7  -1    2.05    0.08
  -1   7  -1    1.86    0.07
  -1  -7  -1    2.87    0.12
  -1  -7  -1    2.18    0.12
  -1  -7  -1    2.14    0.10
  -1   7  -1    2.31    0.13
   1   7   1    2.34    0.10
  -1  -7  -2    0.55    0.04
  -1   7  -2    0.64    0.07
  -1  -7  -2    0.52    0.06
  -1  -7  -2    0.53    0.04
  -1   7  -2    0.46    0.04
   1  -7   2    0.42    0.03
  -1   7  -2    0.49    0.04
  -1  -7  -2    0.50    0.04
  -1   7  -2    0.58    0.06
  -1   7  -2    0.61    0.03
   1   7   2    0.34    0.11
   1   7   2    0.44    0.04
  -1  -7  -3    6.75    0.24
  -1   7  -3    5.48    0.25
   1  -7   3    5.32    0.22
  -1   7  -3    6.98    0.24
   1   7   3    5.18    0.22
  -1  -7  -3    6.17    0.24
  -1  -7  -3    5.76    0.23
  -1   7  -3    5.17    0.19
  -1   7  -3    6.12    0.24
   1   7   3    5.62    0.35
   1  -7   4    6.60    0.22
   1   7   4    6.29    0.22
  -1  -7  -4    6.28    0.22
  -1  -7  -4    5.98    0.24
   1   7   4    6.37    0.34
   1  -7   4    5.80    0.18
  -1   7  -4    6.16    0.24
  -1   7  -4    6.59    0.25
  -1   7  -5    1.54    0.06
   1   7   5    1.74    0.11
  -1   7  -5    1.53    0.09
   1   7   5    1.74    0.16
  -1   7  -5    2.03    0.13
  -1   7  -5    1.61    0.12
   1  -7   5    1.90    0.11
  -1  -7  -5    1.78    0.12
  -1  -7  -5    1.80    0.10
  -1   7  -5    1.18    0.06
  -1  -7  -6    0.54    0.08
  -1  -7  -6    0.47    0.06
  -1   7  -6    0.53    0.07
   1   7   6    0.43    0.09
  -1  -7  -6    0.63    0.06
  -1   7  -6    0.40    0.05
  -1   7  -6    0.59    0.08
   1   7   7    1.78    0.13
  -1  -7  -7    2.37    0.17
  -1   7  -7    2.56    0.19
  -1  -7  -7    2.57    0.13
  -1  -7  -7    1.77    0.11
  -1  -7  -8    2.86    0.16
  -1   7  -8    3.40    0.23
  -1  -7  -8    2.93    0.21
  -1   9   7    1.10    0.09
   1  -9  -6    1.77    0.13
   1  -9  -6    2.07    0.12
   1   9  -6    1.95    0.15
   1   9  -5    1.25    0.13
   1  -9  -5    1.42    0.09
   1   9  -4    1.20    0.14
   1   9  -4    1.35    0.07
   1  -9  -4    1.17    0.08
   1  -9  -3    0.01    0.04
   1  -9  -3    0.03    0.02
   1   9  -3    0.04    0.01
   1   9  -3    0.02    0.01
   1   9  -3    0.09    0.07
  -1   9   3    0.07    0.05
   1   9  -3    0.03    0.01
   1  -9  -2    4.42    0.20
  -1   9   2    6.14    0.28
   1  -9  -2    6.06    0.24
   1   9  -2    4.76    0.31
   1   9  -2    4.64    0.19
   1  -9  -1    1.13    0.08
   1  -9  -1    0.91    0.06
   1  -9  -1    1.17    0.09
   1   9  -1    0.91    0.06
   1   9  -1    0.90    0.15
  -1   9   1    1.07    0.07
   1  -9   0    0.09    0.03
   1  -9   0    0.13    0.02
  -1  -9   0    0.09    0.02
  -1  -9   0    0.06    0.03
  -1   9   0    0.09    0.02
  -1  -9  -1    5.41    0.20
  -1   9  -1    5.19    0.24
  -1  -9  -1    4.05    0.17
   1   9   1    3.26    0.28
  -1   9  -1    3.37    0.16
  -1   9  -2   10.40    0.37
  -1  -9  -2    8.93    0.34
   1   9   2    6.99    0.42
  -1  -9  -2    8.24    0.29
  -1   9  -2    6.45    0.26
  -1   9  -3    3.14    0.17
   1   9   3    2.93    0.24
  -1   9  -3    3.25    0.14
  -1   9  -4    0.07    0.03
  -1   9  -4    0.09    0.03
   1   9   4    0.06    0.07
  -1   9  -4    0.07    0.05
  -1  -9  -4    0.16    0.03
  -1   9  -5    0.51    0.07
  -1   9  -5    0.40    0.06
  -1  -9  -5    0.52    0.06
   1   9   6    1.64    0.15
  -1   9  -6    1.42    0.10
  -1  -9  -7    0.00    0.02
  -1  11   6    0.85    0.10
   1 -11  -5    0.47    0.05
   1  11  -5    0.52    0.10
   1  11  -4    0.92    0.13
   1 -11  -4    1.07    0.08
   1  11  -3    1.23    0.16
   1 -11  -3    1.37    0.12
   1 -11  -3    1.25    0.08
   1  11  -2    1.55    0.18
   1 -11  -2    1.68    0.10
   1 -11  -1    0.47    0.06
   1  11  -1    0.42    0.11
  -1  11   0    0.63    0.10
  -1 -11   0    0.62    0.07
  -1 -11   0    0.50    0.05
  -1  11  -1    2.56    0.18
  -1 -11  -1    3.07    0.16
   1  11   1    1.61    0.19
  -1 -11  -1    2.09    0.11
  -1 -11  -2    1.84    0.11
   1  11   2    1.27    0.17
  -1 -11  -2    1.68    0.13
  -1  11  -2    2.23    0.17
  -1 -11  -3    1.87    0.11
  -1  11  -3    2.35    0.17
  -1  11  -4    0.24    0.06
   1  11   4    0.27    0.09
  -1 -11  -4    0.25    0.04
   1  11   5    0.45    0.10
   2   0 -10    1.33    0.11
   2   0  -9    0.01    0.03
   2   0  -9    0.00    0.03
   2   0  -8    1.68    0.12
   2   0  -8    1.75    0.12
   2   0  -7    0.02    0.03
   2   0  -7    0.00    0.02
   2   0  -6    4.87    0.24
  -2   0   6    5.31    0.21
  -2   0   5    0.01    0.03
  -2   0   5    0.01    0.01
  -2   0   5    0.01    0.01
   2   0  -5    0.01    0.02
   2   0  -4    1.25    0.09
  -2   0   4    1.41    0.07
   2   0  -3    0.00    0.03
   2   0  -3    0.00    0.02
  -2   0   3    0.00    0.03
   2   0  -2    5.32    0.20
   2   0  -2    5.25    0.20
  -2   0   1    0.04    0.02
  -2   0   1    0.04    0.02
   2   0  -1    0.04    0.02
   2   0  -1    0.06    0.01
   2   0   0   32.55    1.10
   2   0   0   34.47    1.11
  -2   0   0   31.45    1.11
   2   0   0   33.16    1.08
  -2   0   0   33.24    1.11
   2   0   1    0.07    0.02
  -2   0  -1    0.06    0.02
  -2   0  -1    0.07    0.01
  -2   0  -1    0.05    0.02
   2   0   1    0.05    0.01
  -2   0  -2    2.21    0.13
  -2   0  -2    2.45    0.10
   2   0   2    2.53    0.11
   2   0   3    0.02    0.01
   2   0   3    0.03    0.01
  -2   0  -3    0.00    0.02
  -2   0  -3    0.02    0.01
  -2   0  -4   13.11    0.44
  -2   0  -4   12.37    0.51
   2   0   4   12.74    0.46
   2   0   4   11.81    0.46
  -2   0  -5    0.01    0.01
  -2   0  -5    0.02    0.03
   2   0   5   -0.01    0.02
  -2   0  -6    0.01    0.01
  -2   0  -6    0.02    0.03
   2   0   6    0.00    0.01
  -2   0  -6    0.01    0.01
  -2   0  -7    0.00    0.02
  -2   0  -7    0.02    0.01
   2   0   7    0.01    0.02
  -2   0  -7   -0.01    0.04
  -2   0  -8    2.24    0.20
  -2   0  -8    2.37    0.13
  -2   0  -9    0.00    0.02
   2   2 -10    0.34    0.06
   2  -2  -9    8.65    0.39
   2   2  -9    9.63    0.40
   2   2  -9    8.93    0.40
   2  -2  -8    0.06    0.03
   2   2  -8    0.01    0.03
   2  -2  -8    0.07    0.03
   2   2  -8    0.03    0.03
   2  -2  -7    0.04    0.03
   2   2  -7    0.04    0.03
  -2  -2   7    0.03    0.02
   2   2  -6    0.02    0.04
  -2  -2   6    0.03    0.01
   2   2  -6    0.02    0.03
   2  -2  -6    0.01    0.02
   2   2  -5    0.06    0.03
  -2   2   5    0.09    0.04
  -2   2   5    0.06    0.02
   2  -2  -5    0.04    0.03
  -2  -2   5    0.02    0.03
   2  -2  -5    0.04    0.03
   2  -2  -5    0.08    0.03
   2  -2  -4    0.89    0.07
  -2   2   4    1.54    0.09
   2  -2  -4    1.03    0.07
   2   2  -4    0.99    0.08
  -2   2   4    1.16    0.08
   2  -2  -4    1.12    0.06
  -2   2   4    1.26    0.07
  -2   2   4    1.53    0.11
   2  -2  -4    1.18    0.08
  -2  -2   4    1.10    0.09
   2   2  -3    0.33    0.04
   2  -2  -3    0.34    0.03
   2  -2  -3    0.31    0.05
  -2   2   3    0.50    0.07
  -2   2   3    0.42    0.04
   2  -2  -3    0.31    0.04
   2  -2  -3    0.34    0.03
  -2   2   3    0.35    0.04
  -2   2   3    0.29    0.03
  -2  -2   3    0.30    0.06
   2   2  -3    0.25    0.04
   2  -2  -2    0.97    0.05
   2  -2  -2    0.98    0.08
   2  -2  -2    1.16    0.06
   2   2  -2    0.96    0.06
   2  -2  -2    1.12    0.06
  -2   2   2    1.02    0.06
  -2   2   2    0.90    0.08
   2  -2  -2    0.93    0.05
   2  -2  -2    1.07    0.07
   2   2  -2    0.82    0.08
   2  -2  -2    0.73    0.07
  -2  -2   1   52.65    1.80
  -2  -2   1   55.06    1.82
  -2   2   1   49.79    1.81
   2  -2  -1   57.79    1.81
   2  -2  -1   55.98    1.80
   2   2  -1   57.27    1.81
   2  -2  -1   55.95    1.80
   2  -2   0    0.23    0.03
  -2   2   0    0.30    0.02
  -2   2   0    0.29    0.03
   2  -2   0    0.32    0.04
   2  -2   0    0.26    0.03
  -2  -2   0    0.26    0.02
  -2  -2   0    0.30    0.03
   2   2   0    0.24    0.03
   2   2   0    0.28    0.02
   2  -2   0    0.27    0.02
   2   2   0    0.25    0.03
  -2  -2  -1    7.91    0.30
  -2   2  -1    8.07    0.30
  -2  -2  -1    8.31    0.30
  -2   2  -1    8.12    0.29
  -2   2  -1    8.29    0.27
   2   2   1    7.75    0.28
   2   2   1    7.38    0.30
   2  -2   1    7.52    0.30
   2  -2   1    7.80    0.26
   2  -2   1    8.37    0.29
   2  -2   2    1.57    0.08
  -2   2  -2    1.71    0.10
  -2  -2  -2    1.69    0.11
   2   2   2    1.56    0.08
   2  -2   2    1.71    0.07
  -2   2  -2    1.69    0.06
   2   2   2    1.96    0.08
  -2   2  -2    1.70    0.07
   2  -2   2    1.84    0.08
   2  -2   3    0.20    0.03
   2  -2   3    0.23    0.03
   2   2   3    0.22    0.03
  -2   2  -3    0.19    0.04
  -2  -2  -3    0.19    0.02
  -2   2  -3    0.17    0.02
   2   2   3    0.19    0.03
   2  -2   3    0.18    0.02
  -2  -2  -3    0.17    0.04
   2  -2   4    1.68    0.09
  -2   2  -4    1.99    0.14
  -2   2  -4    2.16    0.08
   2  -2   4    1.56    0.07
  -2  -2  -4    1.75    0.08
   2   2   4    1.88    0.10
  -2  -2  -4    1.97    0.14
  -2  -2  -4    1.92    0.09
   2   2   4    2.02    0.10
   2  -2   4    2.14    0.11
  -2  -2  -5    1.89    0.08
   2  -2   5    1.13    0.08
  -2  -2  -5    2.09    0.10
   2  -2   5    1.18    0.06
  -2  -2  -5    1.99    0.14
  -2   2  -5    2.20    0.15
  -2   2  -5    2.18    0.09
  -2   2  -6    0.18    0.06
   2  -2   6    0.08    0.04
  -2  -2  -6    0.18    0.06
  -2   2  -6    0.18    0.03
  -2  -2  -6    0.15    0.03
  -2  -2  -7    5.60    0.25
  -2  -2  -7    5.94    0.34
  -2   2  -7    5.97    0.34
  -2  -2  -7    6.37    0.26
  -2   2  -7    6.52    0.25
  -2  -2  -8    0.34    0.08
  -2   2  -8    0.41    0.04
  -2  -2  -8    0.37    0.05
  -2   2  -8    0.39    0.09
  -2   2  -9    4.26    0.19
  -2  -2  -9    4.27    0.20
   2   4 -10    0.17    0.05
   2   4  -9   -0.01    0.03
   2  -4  -9    0.00    0.03
   2   4  -9    0.00    0.03
   2   4  -8    0.72    0.08
   2  -4  -8    0.74    0.07
   2  -4  -8    0.71    0.08
   2   4  -7    0.42    0.05
  -2  -4   7    0.51    0.04
   2  -4  -7    0.52    0.06
   2   4  -7    0.55    0.06
   2  -4  -7    0.44    0.06
   2  -4  -6    4.80    0.22
   2  -4  -6    5.51    0.24
   2   4  -6    4.98    0.26
   2   4  -6    5.16    0.24
   2  -4  -6    5.76    0.24
   2   4  -5    8.08    0.32
   2  -4  -5    7.86    0.32
   2  -4  -5    8.68    0.33
   2  -4  -5    7.39    0.36
   2   4  -5    7.59    0.38
   2  -4  -5    7.53    0.31
  -2  -4   5    7.55    0.35
  -2   4   5    8.86    0.37
   2   4  -4   44.94    1.50
   2  -4  -4   45.04    1.49
   2  -4  -4   53.16    1.58
   2  -4  -4   44.17    1.53
  -2  -4   4   40.27    1.53
  -2   4   4   50.24    1.56
   2  -4  -4   46.31    1.50
  -2   4   4   40.40    1.47
   2  -4  -3    1.28    0.11
   2  -4  -3    1.42    0.09
   2   4  -3    1.35    0.06
  -2  -4   3    1.48    0.12
   2  -4  -3    1.51    0.09
   2   4  -3    1.43    0.09
   2  -4  -3    1.25    0.10
   2  -4  -3    1.20    0.08
   2  -4  -3    1.43    0.08
   2  -4  -3    1.43    0.08
  -2   4   3    1.69    0.13
  -2   4   3    1.29    0.07
  -2   4   2    0.18    0.03
   2  -4  -2    0.10    0.02
   2  -4  -2    0.16    0.04
   2   4  -2    0.13    0.02
   2  -4  -2    0.18    0.04
   2  -4  -2    0.03    0.02
   2   4  -2    0.14    0.02
   2  -4  -2    0.10    0.02
   2  -4  -2    0.18    0.03
   2  -4  -2    0.13    0.02
   2   4  -2    0.05    0.02
   2  -4  -1    1.78    0.11
  -2  -4   1    1.55    0.07
   2   4  -1    1.80    0.08
   2   4  -1    1.56    0.08
   2  -4  -1    1.84    0.09
  -2  -4   1    1.60    0.08
  -2   4   1    1.88    0.12
   2  -4  -1    1.75    0.08
   2  -4  -1    1.60    0.08
   2   4  -1    1.91    0.12
   2  -4  -1    2.05    0.13
   2  -4   0   10.00    0.36
  -2   4   0   10.62    0.37
   2   4   0    9.38    0.33
   2  -4   0    9.48    0.34
   2   4   0    8.83    0.32
   2  -4   0    9.32    0.31
  -2  -4   0    9.07    0.34
  -2   4   0    8.30    0.33
   2   4   0    9.61    0.34
  -2  -4   0    8.90    0.33
   2  -4   0    9.15    0.33
  -2  -4   0    8.19    0.32
   2  -4   0    9.66    0.34
  -2   4  -1    0.52    0.04
   2  -4   1    0.53    0.06
  -2  -4  -1    0.54    0.04
  -2   4  -1    0.51    0.04
  -2  -4  -1    0.45    0.04
   2  -4   1    0.47    0.03
  -2  -4  -1    0.48    0.04
  -2   4  -1    0.50    0.05
   2   4   1    0.49    0.05
   2  -4   1    0.53    0.05
  -2   4  -1    0.45    0.04
   2  -4   2    3.81    0.18
   2   4   2    3.07    0.16
  -2  -4  -2    4.21    0.18
  -2   4  -2    3.91    0.17
  -2   4  -2    4.08    0.18
  -2  -4  -2    4.02    0.16
   2  -4   2    4.38    0.16
   2   4   2    3.83    0.15
   2   4   2    4.00    0.16
  -2  -4  -2    4.05    0.18
  -2   4  -2    3.28    0.15
  -2   4  -2    3.74    0.19
   2  -4   3    9.14    0.36
  -2   4  -3    9.45    0.37
  -2  -4  -3    9.04    0.37
   2   4   3    9.15    0.34
   2  -4   3    9.91    0.34
   2   4   3    9.24    0.33
   2  -4   4   29.30    1.06
  -2  -4  -4   33.64    1.08
  -2   4  -4   33.90    1.09
  -2   4  -4   32.43    0.99
   2  -4   4   38.29    1.05
   2   4   4   35.15    1.04
  -2  -4  -5    1.96    0.11
  -2   4  -5    2.16    0.16
  -2  -4  -5    2.20    0.11
  -2  -4  -5    2.06    0.15
  -2   4  -5    2.24    0.09
  -2  -4  -6    2.10    0.11
  -2   4  -6    2.20    0.17
  -2  -4  -6    2.09    0.16
  -2  -4  -6    2.02    0.10
  -2   4  -6    2.24    0.09
  -2   4  -7    0.06    0.04
   2   4   7    0.06    0.06
  -2  -4  -7    0.07    0.04
  -2  -4  -7    0.05    0.02
  -2   4  -7    0.06    0.02
  -2  -4  -8    0.25    0.04
  -2  -4  -8    0.20    0.07
  -2   4  -8    0.24    0.07
   2   6  -9    3.80    0.19
   2  -6  -9    3.98    0.19
   2  -6  -8    3.02    0.17
   2   6  -8    3.56    0.19
   2  -6  -8    3.21    0.18
   2  -6  -7   -0.01    0.03
   2   6  -7    0.00    0.03
   2  -6  -7    0.01    0.02
   2   6  -7    0.01    0.04
   2  -6  -7    0.01    0.02
   2   6  -6    1.32    0.13
   2  -6  -6    1.21    0.09
   2  -6  -6    1.49    0.10
   2   6  -6    1.67    0.10
  -2   6   6    1.29    0.08
   2  -6  -6    1.60    0.10
   2   6  -5    0.39    0.05
   2  -6  -5    0.34    0.04
  -2  -6   5    0.20    0.07
   2   6  -5    0.25    0.03
   2   6  -5    0.36    0.11
   2   6  -5    0.32    0.03
  -2   6   5    0.24    0.04
  -2   6   5    0.38    0.08
   2  -6  -5    0.34    0.04
  -2   6   4    0.03    0.03
   2   6  -4    0.04    0.01
   2  -6  -4   -0.03    0.08
   2   6  -4   -0.04    0.09
   2  -6  -4    0.02    0.02
  -2  -6   4   -0.02    0.05
  -2   6   4    0.04    0.06
   2  -6  -4    0.02    0.02
   2   6  -4    0.04    0.02
   2  -6  -3    0.24    0.04
   2  -6  -3    0.24    0.06
   2   6  -3    0.25    0.03
   2  -6  -3    0.19    0.03
   2  -6  -3    0.27    0.04
   2   6  -3    0.24    0.03
   2  -6  -3    0.22    0.09
  -2   6   3    0.29    0.05
   2   6  -3    0.18    0.02
   2  -6  -3    0.20    0.03
  -2   6   2    0.40    0.05
   2  -6  -2    0.22    0.03
   2  -6  -2    0.23    0.05
   2  -6  -2    0.27    0.09
   2  -6  -2    0.41    0.04
   2   6  -2    0.28    0.03
   2  -6  -2    0.27    0.04
   2  -6  -2    0.34    0.03
   2   6  -2    0.28    0.03
   2  -6  -2    0.31    0.03
   2   6  -2    0.32    0.03
   2  -6  -1   15.83    0.60
   2  -6  -1   14.09    0.51
   2  -6  -1   16.21    0.54
   2   6  -1   12.80    0.48
   2  -6  -1   15.03    0.49
   2  -6  -1   15.08    0.49
   2   6  -1   12.72    0.48
  -2  -6   1   13.98    0.49
   2   6  -1   12.75    0.50
   2  -6  -1   16.17    0.51
   2   6  -1   14.41    0.49
   2  -6  -1   13.63    0.48
  -2   6   1   15.36    0.56
  -2   6   0   20.84    0.67
  -2   6   0   19.57    0.66
  -2  -6   0   20.23    0.61
  -2   6   0   20.56    0.60
   2  -6   0   17.30    0.61
   2  -6   0   20.12    0.65
  -2  -6   0   18.73    0.60
   2   6   0   15.60    0.60
   2  -6   0   16.14    0.58
  -2  -6   0   14.67    0.60
   2   6   0   17.01    0.60
   2  -6   0   17.10    0.60
  -2   6  -1    1.54    0.10
  -2   6  -1    1.65    0.09
  -2   6  -1    2.16    0.12
   2  -6   1    1.69    0.15
  -2  -6  -1    1.92    0.09
   2  -6   1    1.90    0.08
   2  -6   1    1.55    0.08
  -2  -6  -1    1.71    0.09
   2   6   1    1.53    0.07
   2   6   1    1.86    0.09
  -2  -6  -1    1.94    0.10
  -2  -6  -2    1.20    0.07
  -2   6  -2    1.12    0.07
   2  -6   2    0.92    0.05
   2  -6   2    0.88    0.12
  -2   6  -2    1.03    0.07
  -2   6  -2    0.99    0.08
  -2  -6  -2    1.18    0.08
  -2  -6  -2    1.08    0.07
   2  -6   2    1.01    0.06
   2   6   2    1.03    0.06
  -2   6  -2    1.01    0.07
  -2   6  -3    0.19    0.04
  -2   6  -3    0.26    0.05
  -2   6  -3    0.32    0.04
  -2  -6  -3    0.34    0.05
  -2  -6  -3    0.34    0.04
  -2   6  -3    0.33    0.05
  -2  -6  -3    0.25    0.04
   2  -6   3    0.27    0.04
   2   6   3    0.29    0.04
  -2  -6  -4    0.11    0.04
   2   6   4    0.09    0.03
  -2   6  -4    0.05    0.03
   2  -6   4    0.09    0.03
  -2   6  -4    0.12    0.04
  -2   6  -4    0.12    0.04
  -2  -6  -4    0.08    0.02
  -2  -6  -5    0.57    0.08
  -2  -6  -5    0.58    0.05
  -2   6  -5    0.54    0.07
   2   6   6    0.40    0.11
  -2  -6  -6    0.43    0.05
  -2  -6  -6    0.37    0.07
  -2   6  -6    0.44    0.07
  -2  -6  -7    0.74    0.06
  -2  -6  -7    0.78    0.10
  -2  -6  -7    0.76    0.07
  -2   6  -7    0.86    0.11
  -2   6  -8    3.16    0.22
  -2  -6  -8    2.95    0.15
  -2  -6  -8    3.32    0.22
   2   8  -8    0.06    0.03
   2   8  -7    0.31    0.05
   2  -8  -7    0.23    0.04
   2  -8  -7    0.32    0.05
  -2   8   7    0.28    0.05
   2   8  -6    0.83    0.12
   2  -8  -6    0.80    0.07
   2  -8  -6    1.23    0.09
   2   8  -6    1.36    0.09
   2  -8  -6    1.26    0.08
  -2   8   6    1.14    0.08
  -2   8   5    6.54    0.29
   2   8  -5    6.76    0.26
   2   8  -5    6.42    0.37
   2  -8  -5    6.47    0.28
   2  -8  -5    6.89    0.26
  -2   8   4    1.45    0.11
   2  -8  -4    0.97    0.10
   2   8  -4    1.28    0.09
   2   8  -4    0.85    0.16
   2   8  -4    1.28    0.07
   2  -8  -4    1.26    0.08
   2  -8  -4    1.66    0.08
   2   8  -3    0.01    0.01
   2   8  -3    0.03    0.10
   2  -8  -3    0.02    0.01
   2   8  -3    0.00    0.01
   2  -8  -3    0.01    0.02
   2   8  -3    0.01    0.01
  -2   8   3    0.02    0.03
   2  -8  -3    0.02    0.04
   2  -8  -3    0.01    0.01
   2  -8  -2    0.03    0.01
   2   8  -2    0.08    0.02
   2   8  -2    0.01    0.01
   2  -8  -2    0.03    0.01
   2   8  -2   -0.01    0.11
   2  -8  -2    0.03    0.01
   2  -8  -2    0.02    0.03
   2   8  -2    0.03    0.01
   2  -8  -2    0.02    0.01
   2   8  -2    0.04    0.02
  -2   8   2    0.02    0.04
   2  -8  -1    2.43    0.10
   2   8  -1    2.63    0.28
  -2  -8   1    3.12    0.13
   2  -8  -1    2.93    0.12
  -2   8   0    1.23    0.11
  -2  -8   0    1.66    0.08
   2  -8   0    0.85    0.05
  -2  -8   0    1.31    0.07
   2  -8   0    1.28    0.08
   2  -8   0    1.38    0.10
   2  -8   0    1.09    0.05
   2  -8   0    1.00    0.04
  -2  -8   0    1.06    0.07
   2   8   1    1.74    0.08
  -2   8  -1    2.51    0.15
  -2   8  -1    2.01    0.14
  -2   8  -1    2.28    0.09
  -2  -8  -1    2.97    0.13
  -2  -8  -1    2.42    0.10
   2  -8   1    2.11    0.11
  -2  -8  -1    2.44    0.11
   2   8   1    2.16    0.25
   2  -8   1    1.74    0.08
  -2   8  -2    0.05    0.04
   2   8   2    0.02    0.11
  -2   8  -2    0.03    0.03
   2   8   2    0.03    0.02
  -2   8  -2    0.05    0.02
  -2  -8  -2    0.07    0.02
  -2  -8  -2    0.02    0.02
   2  -8   2    0.04    0.02
  -2   8  -3    3.77    0.20
   2   8   3    3.33    0.16
  -2   8  -3    3.72    0.16
  -2  -8  -3    4.14    0.18
  -2   8  -3    3.73    0.17
   2   8   3    2.89    0.29
  -2  -8  -3    3.88    0.17
  -2   8  -3    3.00    0.17
   2   8   4    1.97    0.11
  -2   8  -4    1.93    0.11
  -2  -8  -4    1.98    0.11
  -2   8  -4    1.96    0.13
  -2   8  -4    1.79    0.12
   2   8   4    1.42    0.21
  -2  -8  -4    2.00    0.12
  -2   8  -4    1.48    0.11
  -2  -8  -5    2.29    0.15
  -2   8  -5    1.88    0.14
  -2   8  -5    1.93    0.14
  -2  -8  -5    2.23    0.12
  -2   8  -6    0.00    0.04
   2   8   6   -0.01    0.07
  -2   8  -6   -0.01    0.04
  -2  -8  -6    0.00    0.02
  -2  -8  -7    0.03    0.02
  -2   8  -7    0.04    0.04
  -2  10   7    0.11    0.04
  -2  10   6    0.35    0.06
   2 -10  -6    0.31    0.05
   2  10  -6    0.30    0.08
  -2  10   5    0.06    0.04
   2 -10  -5    0.01    0.02
   2  10  -5    0.05    0.07
  -2  10   4    0.21    0.06
   2 -10  -4    0.13    0.03
   2  10  -3    0.21    0.11
  -2  10   3    0.25    0.06
   2 -10  -3    0.23    0.03
   2  10  -2    2.11    0.25
   2 -10  -2    2.20    0.11
   2  10  -1    1.43    0.21
  -2  10   0   15.92    0.64
  -2 -10   0   14.48    0.58
  -2  10  -1    1.11    0.11
   2  10   1    1.09    0.19
  -2 -10  -1    1.34    0.08
  -2  10  -2    0.12    0.04
  -2 -10  -2    0.19    0.03
   2  10   2    0.17    0.12
  -2  10  -2    0.19    0.05
  -2  10  -3    0.16    0.05
  -2 -10  -3    0.21    0.04
   2  10   3    0.20    0.12
  -2  10  -3    0.18    0.05
  -2  10  -4    0.25    0.05
   2  10   4    0.26    0.11
  -2 -10  -4    0.34    0.05
   2  10   5    0.06    0.08
  -2  10  -5    0.06    0.04
   2  10   6   -0.03    0.08
  -2 -12   1   -0.05    0.04
  -2 -12   0    0.29    0.06
  -2 -12  -1    0.12    0.05
  -2 -12  -1    0.08    0.03
  -2 -12  -2    0.22    0.04
   3  -1 -10    0.48    0.07
   3   1 -10    0.58    0.08
   3  -1  -9    1.95    0.14
   3  -1  -9    1.97    0.14
   3   1  -9    1.70    0.14
   3  -1  -8    1.76    0.13
  -3  -1   8    1.82    0.11
   3  -1  -8    1.54    0.12
  -3   1   7    0.02    0.02
  -3  -1   7    0.01    0.01
   3  -1  -7    0.03    0.03
   3  -1  -7    0.00    0.02
   3  -1  -6    0.70    0.07
  -3   1   6    0.75    0.06
  -3  -1   6    0.80    0.06
   3   1  -5    3.39    0.17
   3  -1  -5    3.20    0.18
  -3   1   5    2.49    0.13
   3  -1  -5    2.34    0.15
  -3   1   5    2.73    0.12
  -3  -1   5    3.26    0.20
   3  -1  -5    2.07    0.10
   3  -1  -4    4.44    0.22
   3   1  -4    4.69    0.21
  -3   1   4    4.27    0.18
  -3   1   4    4.37    0.18
  -3   1   4    5.25    0.19
  -3  -1   4    5.07    0.28
   3  -1  -3   28.98    0.99
   3   1  -3   27.52    0.96
  -3   1   3   30.86    0.93
   3  -1  -3   30.62    0.97
  -3   1   3   26.29    0.94
  -3   1   2    0.84    0.08
  -3  -1   2    0.80    0.07
   3  -1  -2    1.00    0.07
  -3   1   2    1.04    0.06
   3  -1  -2    1.15    0.06
   3   1  -2    0.96    0.06
   3  -1  -1    3.01    0.14
  -3   1   1    2.98    0.12
   3   1  -1    2.89    0.11
  -3  -1   1    2.87    0.14
   3  -1   0    0.15    0.03
   3  -1   0    0.18    0.02
  -3  -1   0    0.16    0.02
  -3   1   0    0.17    0.02
  -3   1   0    0.26    0.04
  -3  -1   0    0.16    0.03
   3   1   0    0.19    0.02
  -3  -1   0    0.16    0.03
   3  -1   0    0.19    0.03
  -3  -1  -1    1.54    0.09
  -3   1  -1    1.44    0.06
  -3  -1  -1    1.46    0.09
  -3  -1  -1    1.42    0.07
   3  -1   1    1.52    0.10
   3  -1   1    1.49    0.06
   3   1   1    1.49    0.07
  -3  -1  -2   13.17    0.50
  -3  -1  -2   13.18    0.51
  -3   1  -2   13.19    0.45
  -3  -1  -2   12.72    0.46
   3  -1   2   12.32    0.52
   3   1   2   14.08    0.47
   3  -1   2   14.74    0.46
  -3  -1  -3    7.81    0.31
  -3  -1  -3    6.85    0.24
  -3  -1  -3    7.50    0.33
  -3   1  -3    7.07    0.25
  -3  -1  -3    7.15    0.26
   3  -1   3    6.39    0.27
   3   1   3    7.55    0.27
   3  -1   3    7.30    0.26
  -3  -1  -4    0.09    0.04
  -3   1  -4    0.07    0.01
  -3  -1  -4    0.06    0.01
   3   1   4    0.08    0.02
   3  -1   4    0.09    0.02
  -3  -1  -5    4.18    0.23
  -3   1  -5    4.43    0.15
  -3  -1  -5    4.35    0.16
   3  -1   5    4.16    0.17
  -3  -1  -6    2.99    0.12
  -3   1  -6    2.80    0.09
  -3  -1  -6    2.76    0.18
  -3   1  -6    2.97    0.11
  -3  -1  -7    0.07    0.04
  -3   1  -7    0.12    0.02
  -3  -1  -7    0.15    0.03
  -3   1  -8    0.30    0.04
  -3  -1  -8    0.37    0.04
  -3  -1  -8    0.23    0.07
  -3  -1  -9    0.04    0.02
   3   3 -10    0.94    0.10
   3   3  -9    1.23    0.11
   3  -3  -9    1.43    0.12
   3   3  -8    0.59    0.08
   3  -3  -8    0.69    0.08
  -3  -3   8    0.67    0.06
   3  -3  -8    0.72    0.08
   3  -3  -7   12.57    0.43
  -3  -3   7   11.77    0.38
   3  -3  -7   13.16    0.44
   3   3  -6    1.26    0.10
   3  -3  -6    1.60    0.11
   3  -3  -6    1.50    0.11
   3   3  -6    1.37    0.11
   3   3  -5    0.75    0.07
   3  -3  -5    0.67    0.07
   3  -3  -5    0.58    0.06
  -3  -3   5    0.59    0.10
  -3   3   5    0.67    0.06
   3   3  -5    0.74    0.07
  -3   3   5    0.72    0.07
   3  -3  -5    0.67    0.07
  -3   3   5    0.93    0.13
   3  -3  -4   15.18    0.56
   3   3  -4   14.36    0.50
   3  -3  -4   13.54    0.49
  -3   3   4   14.99    0.49
   3  -3  -4   12.33    0.49
  -3   3   4   13.87    0.51
   3   3  -4   12.69    0.53
   3  -3  -4   13.66    0.53
   3  -3  -4   12.81    0.51
  -3  -3   4   12.94    0.59
  -3   3   4   16.66    0.63
   3  -3  -3    0.12    0.04
   3  -3  -3    0.05    0.04
   3  -3  -3    0.09    0.02
   3  -3  -3    0.09    0.03
   3   3  -3    0.14    0.03
   3   3  -3    0.19    0.03
   3   3  -3    0.14    0.04
   3  -3  -3    0.09    0.04
   3  -3  -3    0.09    0.03
   3  -3  -2   20.84    0.71
  -3  -3   2   19.91    0.70
   3  -3  -2   20.34    0.70
   3  -3  -2   22.76    0.72
   3   3  -2   20.47    0.71
  -3   3   2   20.69    0.71
   3  -3  -2   22.68    0.70
   3   3  -2   15.32    0.77
   3  -3  -2   15.73    0.76
   3  -3  -1    0.78    0.05
   3  -3  -1    0.78    0.05
  -3   3   1    0.83    0.06
  -3  -3   1    0.70    0.06
   3  -3  -1    0.84    0.07
  -3  -3   1    0.62    0.05
   3   3  -1    0.73    0.06
   3  -3  -1    0.81    0.06
  -3   3   1    0.72    0.05
   3   3  -1    0.74    0.04
  -3  -3   1    0.61    0.03
   3   3   0   12.22    0.44
   3   3   0   12.30    0.44
   3  -3   0   13.05    0.45
   3  -3   0   10.84    0.41
  -3   3   0   12.63    0.45
  -3  -3   0   12.63    0.45
  -3   3   0   11.89    0.42
   3  -3   0   13.13    0.45
  -3  -3   0   11.55    0.42
   3   3   0   12.27    0.42
   3  -3   1   23.87    0.74
  -3  -3  -1   23.20    0.75
  -3   3  -1   22.44    0.74
   3  -3   1   20.21    0.71
  -3   3  -1   22.91    0.78
  -3  -3  -1   24.17    0.76
  -3   3  -1   23.30    0.76
  -3   3  -1   22.29    0.72
   3   3   1   21.65    0.76
   3  -3   1   23.41    0.77
   3  -3   1   21.97    0.70
   3   3   1   23.32    0.72
   3  -3   2    1.97    0.10
  -3  -3  -2    1.90    0.11
  -3   3  -2    1.82    0.11
   3  -3   2    1.71    0.07
  -3   3  -2    1.77    0.08
   3   3   2    2.00    0.09
  -3  -3  -2    1.85    0.12
  -3   3  -2    1.84    0.12
   3  -3   2    1.81    0.07
  -3   3  -2    1.72    0.12
  -3  -3  -3    9.76    0.40
  -3  -3  -3    9.91    0.38
  -3   3  -3    9.95    0.38
  -3   3  -3    9.78    0.32
  -3   3  -3   10.11    0.40
  -3  -3  -3    9.31    0.35
   3  -3   3    9.73    0.35
   3   3   3    8.62    0.35
   3   3   3    9.64    0.35
  -3   3  -4   13.04    0.50
  -3   3  -4   12.12    0.39
  -3  -3  -4   12.14    0.42
  -3  -3  -4   13.01    0.50
  -3  -3  -5    0.13    0.02
   3  -3   5    0.08    0.04
  -3   3  -5    0.17    0.02
  -3  -3  -5    0.21    0.05
  -3   3  -5    0.18    0.05
  -3  -3  -5    0.15    0.03
  -3   3  -6    3.47    0.21
  -3   3  -6    3.69    0.12
  -3  -3  -6    3.42    0.14
  -3   3  -7    0.60    0.09
  -3   3  -7    0.58    0.04
  -3  -3  -7    0.55    0.05
  -3  -3  -7    0.48    0.09
  -3  -3  -8    4.19    0.19
   3   5 -10    0.12    0.04
   3   5  -9    1.84    0.14
   3  -5  -9    1.96    0.14
   3  -5  -8    1.74    0.12
   3  -5  -8    1.70    0.12
   3   5  -8    1.79    0.13
   3   5  -7    1.41    0.11
   3   5  -7    1.57    0.11
   3  -5  -7    1.45    0.10
   3  -5  -7    1.43    0.10
   3   5  -6    1.45    0.10
   3   5  -6    1.56    0.11
   3  -5  -6    1.49    0.11
   3  -5  -6    1.40    0.10
   3   5  -5    4.47    0.18
   3   5  -5    4.73    0.22
   3  -5  -5    4.67    0.21
   3  -5  -5    4.25    0.25
   3  -5  -5    4.60    0.21
  -3  -5   5    4.03    0.28
  -3   5   5    4.91    0.31
   3  -5  -4    3.87    0.21
   3  -5  -4    5.16    0.21
   3  -5  -4    3.30    0.17
   3   5  -4    4.33    0.20
   3  -5  -4    4.51    0.20
   3   5  -4    3.66    0.15
   3   5  -4    4.24    0.16
   3  -5  -4    4.16    0.19
   3   5  -4    4.13    0.19
   3  -5  -3    1.39    0.12
   3  -5  -3    1.22    0.10
   3  -5  -3    1.58    0.09
   3   5  -3    1.33    0.09
   3  -5  -3    1.38    0.09
   3  -5  -3    1.21    0.08
   3   5  -3    1.27    0.10
   3  -5  -3    1.17    0.08
   3  -5  -3    1.14    0.09
   3   5  -3    1.38    0.07
   3  -5  -3    1.35    0.08
  -3   5   3    1.21    0.08
   3  -5  -2   12.02    0.46
   3  -5  -2   10.76    0.42
   3  -5  -2   12.68    0.43
   3  -5  -2   13.94    0.44
   3   5  -2   11.42    0.43
   3  -5  -2   11.22    0.42
   3   5  -2   11.91    0.41
   3   5  -2   10.54    0.46
   3  -5  -2   12.02    0.47
   3  -5  -2   12.28    0.42
  -3   5   2   10.57    0.42
  -3   5   2   10.98    0.48
  -3   5   1    6.99    0.33
   3  -5  -1    7.55    0.31
   3   5  -1    6.99    0.28
   3  -5  -1    7.80    0.29
  -3  -5   1    7.22    0.29
  -3  -5   1    6.90    0.26
   3   5  -1    7.41    0.28
   3  -5  -1    7.75    0.29
   3  -5  -1    6.92    0.27
  -3  -5   1    7.11    0.27
   3   5  -1    7.17    0.26
  -3   5   1    7.13    0.28
   3  -5  -1    7.64    0.31
   3  -5  -1    7.21    0.26
  -3   5   0    1.47    0.11
  -3   5   0    1.28    0.08
   3   5   0    1.14    0.08
   3  -5   0    1.28    0.08
  -3  -5   0    1.29    0.07
  -3  -5   0    1.28    0.07
   3  -5   0    1.35    0.10
   3  -5   0    1.41    0.09
   3   5   0    1.21    0.08
   3   5   0    1.19    0.07
   3  -5   0    1.09    0.05
  -3  -5   0    1.21    0.08
  -3   5   0    1.30    0.08
   3  -5   1    4.69    0.23
  -3   5  -1    4.77    0.23
  -3  -5  -1    4.91    0.19
   3   5   1    4.18    0.21
   3  -5   1    4.79    0.22
  -3  -5  -1    4.91    0.21
  -3   5  -1    4.77    0.21
   3  -5   2    3.26    0.18
  -3  -5  -2    3.83    0.17
  -3   5  -2    3.81    0.17
  -3   5  -2    3.07    0.18
  -3  -5  -2    3.62    0.18
  -3   5  -2    3.50    0.18
   3  -5   2    3.68    0.15
  -3  -5  -2    3.63    0.15
   3   5   2    3.50    0.15
   3  -5   3    4.44    0.25
  -3  -5  -3    5.31    0.24
  -3   5  -3    5.08    0.24
  -3   5  -3    5.41    0.27
  -3  -5  -3    5.17    0.25
   3  -5   3    5.54    0.22
   3   5   3    5.29    0.22
  -3   5  -3    5.34    0.25
  -3   5  -4    0.51    0.07
  -3  -5  -4    0.54    0.08
  -3   5  -4    0.53    0.08
  -3   5  -5    0.81    0.03
  -3  -5  -5    1.02    0.11
  -3   5  -5    1.00    0.10
  -3  -5  -5    0.92    0.07
  -3   5  -6    6.27    0.31
  -3  -5  -6    5.95    0.31
  -3  -5  -6    5.92    0.24
  -3  -5  -7    1.44    0.09
  -3  -5  -7    1.62    0.15
  -3   5  -7    1.80    0.16
  -3  -5  -7    1.79    0.11
   3   7  -9    0.13    0.04
   3  -7  -9    0.18    0.05
   3  -7  -8   -0.02    0.04
   3   7  -8   -0.01    0.03
   3  -7  -8    0.00    0.02
   3  -7  -7    2.20    0.13
   3   7  -7    2.34    0.14
   3  -7  -7    2.34    0.13
   3   7  -6    0.02    0.03
   3  -7  -6    0.02    0.02
   3   7  -6   -0.06    0.11
   3  -7  -6    0.01    0.02
   3  -7  -5   -0.01    0.02
  -3   7   5   -0.01    0.02
   3  -7  -5    0.01    0.02
   3   7  -5    0.00    0.02
   3  -7  -5    0.00    0.02
   3   7  -5    0.01    0.03
   3  -7  -5   -0.01    0.02
   3  -7  -4    0.10    0.04
   3  -7  -4    0.09    0.03
  -3   7   4    0.05    0.03
   3   7  -4    0.06    0.03
   3  -7  -4    0.07    0.03
   3   7  -4    0.05    0.02
   3  -7  -4    0.09    0.03
   3  -7  -4    0.09    0.02
   3  -7  -3    9.97    0.37
   3  -7  -3    7.95    0.34
   3   7  -3    8.54    0.34
   3  -7  -3    8.32    0.34
   3   7  -3    8.85    0.34
   3  -7  -3    8.65    0.33
  -3   7   3    7.13    0.34
   3   7  -2    0.90    0.06
   3  -7  -2    1.06    0.07
   3  -7  -2    0.82    0.07
   3   7  -2    0.90    0.06
   3  -7  -2    1.16    0.07
   3   7  -2    0.76    0.07
   3  -7  -2    1.33    0.08
   3  -7  -2    1.03    0.06
  -3   7   2    0.77    0.07
  -3   7   1    0.72    0.09
   3  -7  -1    0.60    0.08
   3   7  -1    0.52    0.05
   3  -7  -1    0.77    0.06
  -3  -7   1    0.49    0.04
   3  -7  -1    0.71    0.06
  -3  -7   1    0.61    0.05
   3   7  -1    0.60    0.05
   3  -7  -1    0.53    0.05
   3  -7  -1    0.63    0.04
   3   7  -1    0.45    0.07
   3  -7  -1    0.71    0.08
  -3   7   0   -0.02    0.04
  -3   7   0   -0.01    0.03
  -3  -7   0    0.01    0.03
   3  -7   0    0.02    0.03
  -3   7   0    0.02    0.02
  -3  -7   0    0.02    0.02
   3  -7   0    0.01    0.01
  -3  -7   0    0.01    0.01
   3  -7   0    0.01    0.00
   3   7   0    0.00    0.02
   3  -7   0    0.02    0.02
  -3   7  -1    5.90    0.26
  -3   7  -1    5.36    0.21
  -3  -7  -1    4.98    0.21
   3  -7   1    4.48    0.19
   3  -7   1    5.24    0.19
  -3  -7  -1    5.06    0.21
   3   7   1    4.59    0.19
  -3   7  -1    4.18    0.21
   3  -7   2    0.04    0.02
   3   7   2    0.02    0.02
  -3   7  -2    0.06    0.03
  -3  -7  -2    0.02    0.02
  -3   7  -2    0.03    0.02
  -3  -7  -2    0.03    0.02
  -3  -7  -3    1.41    0.10
  -3   7  -3    1.58    0.10
  -3   7  -3    1.30    0.12
  -3  -7  -3    1.58    0.11
  -3   7  -3    1.42    0.10
  -3  -7  -3    1.54    0.09
   3  -7   3    1.59    0.09
   3   7   3    1.40    0.09
  -3   7  -4   -0.02    0.03
  -3  -7  -4    0.00    0.02
  -3   7  -4    0.02    0.03
  -3  -7  -4    0.00    0.01
  -3  -7  -5    2.15    0.15
  -3   7  -5    2.14    0.15
  -3  -7  -5    2.21    0.12
  -3   7  -5    2.08    0.16
  -3  -7  -6    0.23    0.04
  -3   7  -6    0.34    0.08
   3   7   6    0.10    0.11
  -3  -7  -6    0.33    0.07
  -3   7  -6    0.33    0.07
  -3   7  -7    1.66    0.16
  -3   7  -7    1.61    0.16
  -3  -7  -7    1.90    0.16
   3  -9  -7    0.24    0.05
   3   9  -6    0.40    0.12
   3  -9  -6    0.63    0.07
  -3   9   6    0.46    0.06
   3  -9  -5    1.21    0.10
   3  -9  -5    1.65    0.10
   3   9  -5    1.40    0.09
   3   9  -5    1.45    0.22
  -3   9   5    1.29    0.10
   3  -9  -4    1.84    0.13
   3   9  -4    1.48    0.26
   3  -9  -4    1.28    0.10
   3  -9  -4    1.69    0.10
   3   9  -4    1.42    0.08
  -3   9   4    1.35    0.10
   3   9  -3    0.90    0.06
   3   9  -3    0.81    0.20
   3  -9  -3    1.00    0.06
   3   9  -3    0.77    0.05
  -3   9   3    0.74    0.08
   3   9  -2    2.49    0.11
   3  -9  -2    2.65    0.12
  -3   9   2    2.38    0.15
   3   9  -1    2.80    0.12
   3   9  -1    3.02    0.32
   3   9   0    0.26    0.05
  -3  -9   0    0.58    0.05
   3   9   0    0.37    0.03
  -3   9   0    0.47    0.06
  -3   9   0    0.53    0.09
  -3   9  -1    0.46    0.08
  -3   9  -1    0.47    0.04
  -3   9  -1    0.38    0.06
   3   9   1    0.46    0.18
  -3  -9  -1    0.58    0.05
  -3   9  -2    2.99    0.20
  -3   9  -2    3.59    0.15
   3   9   2    2.18    0.29
  -3  -9  -2    3.59    0.16
  -3   9  -2    2.61    0.16
  -3   9  -3    0.66    0.09
  -3   9  -3    0.71    0.07
  -3  -9  -3    0.86    0.07
  -3   9  -3    0.65    0.07
  -3   9  -4    0.01    0.04
   3   9   4   -0.06    0.12
  -3   9  -4    0.02    0.02
  -3  -9  -4    0.02    0.02
   3   9   5    0.09    0.12
   3   9   6    0.73    0.17
   3  11  -3    1.27    0.23
  -3  11   3    1.15    0.11
  -3 -11   2    0.26    0.04
  -3  11   2    0.25    0.06
   3 -11  -2    0.49    0.07
   3  11  -2    0.28    0.17
   3 -11  -1    1.93    0.12
  -3 -11   1    1.58    0.10
   3  11  -1    1.30    0.25
  -3 -11   0    4.81    0.22
  -3  11   0    3.94    0.24
  -3 -11  -1    1.58    0.10
  -3 -11  -2    6.03    0.26
   4   0  -9   -0.02    0.04
  -4   0   9    0.01    0.02
   4   0  -9   -0.02    0.04
  -4   0   8    3.07    0.17
   4   0  -8    2.89    0.19
  -4   0   7    0.01    0.02
   4   0  -7   -0.02    0.03
   4   0  -6    3.30    0.21
  -4   0   6    4.45    0.19
   4   0  -5    0.02    0.03
   4   0  -5    0.04    0.04
  -4   0   5    0.00    0.01
   4   0  -4    0.03    0.03
  -4   0   4    0.02    0.02
   4   0  -4    0.02    0.02
   4   0  -4    0.00    0.04
  -4   0   3    0.00    0.03
   4   0  -3    0.01    0.05
   4   0  -3    0.00    0.02
   4   0  -3    0.01    0.02
  -4   0   2    5.81    0.28
  -4   0   2    6.48    0.28
   4   0  -2    6.19    0.27
   4   0  -1    0.05    0.02
  -4   0   1    0.03    0.03
  -4   0   1    0.05    0.02
   4   0  -1    0.07    0.02
   4   0  -1    0.05    0.01
   4   0   0   17.51    0.64
   4   0   0   18.52    0.65
   4   0   0   18.55    0.60
  -4   0   0   16.98    0.65
  -4   0  -1    0.00    0.02
  -4   0  -1    0.01    0.02
   4   0   1    0.00    0.02
  -4   0  -1    0.01    0.01
   4   0   1    0.01    0.01
  -4   0  -2    0.24    0.04
  -4   0  -2    0.34    0.05
  -4   0  -2    0.32    0.03
   4   0   2    0.26    0.03
   4   0   2    0.20    0.05
  -4   0  -3    0.00    0.03
  -4   0  -3    0.00    0.01
   4   0   3    0.01    0.01
  -4   0  -4    1.17    0.11
  -4   0  -4    1.09    0.06
   4   0   4    1.17    0.07
  -4   0  -5    0.02    0.03
  -4   0  -5    0.00    0.01
  -4   0  -6    0.11    0.05
  -4   0  -6    0.06    0.02
  -4   0  -7    0.01    0.04
  -4   0  -7    0.01    0.01
  -4   0  -8    7.71    0.30
   4   2 -10    0.18    0.05
  -4  -2   9    0.04    0.02
   4   2  -9    0.06    0.04
   4  -2  -9    0.01    0.03
  -4  -2   8    0.16    0.03
   4   2  -8    0.08    0.04
   4  -2  -8    0.15    0.05
   4  -2  -8    0.13    0.04
   4   2  -7    0.87    0.09
   4  -2  -7    0.92    0.09
  -4  -2   7    1.12    0.07
  -4   2   7    1.04    0.09
   4  -2  -7    0.94    0.09
   4   2  -6    0.08    0.04
   4  -2  -6    0.03    0.02
   4   2  -6    0.02    0.04
   4  -2  -6    0.05    0.04
  -4   2   6    0.08    0.03
  -4   2   5   20.61    0.63
   4   2  -5   19.95    0.69
   4  -2  -5   17.95    0.67
  -4   2   5   18.19    0.60
   4  -2  -4    2.41    0.15
  -4   2   4    2.25    0.12
  -4   2   4    1.93    0.10
   4  -2  -4    2.76    0.15
   4   2  -4    2.66    0.14
   4   2  -4    1.63    0.14
   4  -2  -4    1.57    0.14
   4  -2  -4    1.83    0.10
  -4   2   3    0.05    0.04
  -4  -2   3    0.03    0.03
   4   2  -3    0.01    0.05
   4  -2  -3    0.01    0.04
  -4   2   3    0.01    0.01
   4   2  -3    0.02    0.02
   4  -2  -3    0.03    0.02
   4   2  -3    0.02    0.02
  -4   2   2    1.59    0.12
  -4  -2   2    1.70    0.11
   4  -2  -2    1.78    0.08
  -4   2   2    1.66    0.11
  -4  -2   2    1.76    0.12
  -4   2   2    1.66    0.09
   4  -2  -2    1.85    0.11
   4   2  -2    1.84    0.11
  -4   2   2    1.70    0.09
   4   2  -2    1.88    0.08
  -4   2   1    0.02    0.03
   4   2  -1    0.00    0.02
   4  -2  -1    0.00    0.02
  -4  -2   1    0.00    0.02
   4  -2  -1    0.01    0.02
  -4   2   1    0.01    0.01
  -4   2   1   -0.01    0.02
  -4  -2   1    0.01    0.02
   4   2  -1    0.02    0.02
   4  -2  -1   -0.01    0.02
   4   2  -1    0.02    0.01
   4   2   0    1.16    0.08
   4  -2   0    1.14    0.09
  -4   2   0    1.03    0.09
  -4  -2   0    1.13    0.09
  -4   2   0    1.13    0.09
  -4  -2   0    1.17    0.09
   4   2   0    1.22    0.09
   4  -2   0    1.29    0.09
  -4  -2   0    1.03    0.06
   4  -2   0    1.17    0.05
   4   2   0    1.14    0.06
  -4  -2  -1    0.37    0.05
  -4   2  -1    0.28    0.04
  -4  -2  -1    0.27    0.03
   4   2   1    0.27    0.05
   4  -2   1    0.30    0.02
   4   2   1    0.25    0.03
   4  -2   1    0.21    0.04
  -4  -2  -2    0.08    0.03
  -4   2  -2    0.05    0.03
  -4  -2  -2    0.09    0.03
  -4   2  -2    0.06    0.03
  -4  -2  -2    0.05    0.01
   4   2   2    0.08    0.03
   4  -2   2    0.06    0.03
   4   2   2    0.09    0.02
   4  -2   2    0.10    0.02
  -4  -2  -3   19.50    0.69
  -4   2  -3   19.48    0.69
  -4   2  -3   19.83    0.59
  -4  -2  -3   18.98    0.61
   4  -2   3   19.35    0.60
  -4  -2  -4    1.84    0.07
  -4  -2  -4    2.24    0.16
  -4   2  -4    2.31    0.16
  -4   2  -4    2.20    0.08
  -4  -2  -4    1.99    0.10
   4  -2   4    2.14    0.10
  -4  -2  -5    3.48    0.21
  -4   2  -5    3.52    0.21
  -4   2  -5    3.42    0.11
  -4  -2  -5    3.27    0.13
  -4  -2  -6    0.03    0.04
  -4   2  -6   -0.01    0.04
  -4   2  -6    0.01    0.01
  -4  -2  -6    0.02    0.02
  -4  -2  -7   -0.02    0.04
  -4   2  -7    0.01    0.04
  -4   2  -7   -0.01    0.01
  -4  -2  -7    0.00    0.02
  -4  -2  -8    0.10    0.03
   4   4  -9    1.33    0.12
   4  -4  -9    1.40    0.12
   4  -4  -9    1.23    0.11
   4  -4  -8    0.44    0.07
  -4  -4   8    0.39    0.05
   4   4  -8    0.34    0.07
   4  -4  -8    0.42    0.06
   4   4  -7    0.21    0.05
   4   4  -7    0.16    0.05
   4  -4  -7    0.20    0.05
   4  -4  -7    0.18    0.04
   4   4  -6    0.16    0.04
   4  -4  -6    0.09    0.05
   4   4  -6    0.08    0.04
   4  -4  -6    0.10    0.04
   4  -4  -6    0.16    0.04
   4   4  -5    0.23    0.06
   4  -4  -5    0.20    0.04
   4  -4  -5    0.24    0.06
  -4   4   5    0.21    0.05
   4  -4  -5    0.33    0.05
   4  -4  -4    1.08    0.08
   4  -4  -4    1.33    0.10
   4   4  -4    1.04    0.09
   4  -4  -4    0.95    0.07
   4   4  -4    1.18    0.07
   4   4  -4    0.94    0.10
   4  -4  -4    1.22    0.11
   4  -4  -4    1.15    0.09
   4  -4  -3    0.02    0.03
   4  -4  -3    0.02    0.01
   4   4  -3    0.03    0.04
   4  -4  -3    0.00    0.02
   4  -4  -3    0.01    0.04
  -4   4   3    0.01    0.02
   4  -4  -3    0.01    0.02
   4   4  -3    0.01    0.02
   4   4  -3    0.01    0.01
   4  -4  -2   13.31    0.62
   4  -4  -2   14.45    0.52
  -4  -4   2   14.13    0.51
   4  -4  -2   14.14    0.50
   4  -4  -2   13.32    0.50
   4  -4  -2   15.43    0.56
   4   4  -2   13.81    0.52
   4  -4  -2   16.35    0.53
  -4   4   2   14.15    0.52
   4  -4  -1    4.70    0.21
  -4   4   1    4.73    0.25
   4   4  -1    4.75    0.22
   4  -4  -1    4.37    0.19
  -4   4   1    5.11    0.23
  -4  -4   1    5.32    0.24
  -4  -4   1    4.66    0.21
   4  -4  -1    5.51    0.25
  -4   4   1    4.82    0.21
   4   4  -1    4.71    0.22
   4  -4  -1    5.45    0.23
   4   4  -1    5.00    0.19
   4   4   0   10.80    0.41
   4  -4   0   12.17    0.42
   4  -4   0    9.18    0.37
  -4  -4   0   11.05    0.42
  -4   4   0   10.42    0.39
   4   4   0   10.88    0.42
   4  -4   0   12.06    0.43
  -4  -4   0   10.33    0.38
   4  -4   0   10.31    0.35
   4   4   0   11.15    0.38
  -4   4   0   10.14    0.41
   4  -4   1    0.20    0.02
   4  -4   1    0.16    0.04
  -4   4  -1    0.17    0.05
  -4   4  -1    0.18    0.03
   4  -4   1    0.18    0.01
  -4   4  -1    0.22    0.04
  -4  -4  -1    0.32    0.05
   4   4   1    0.18    0.04
   4  -4   1    0.16    0.04
  -4  -4  -2    0.36    0.05
  -4   4  -2    0.40    0.05
   4  -4   2    0.32    0.02
  -4   4  -2    0.24    0.06
  -4   4  -2    0.31    0.03
  -4  -4  -2    0.37    0.05
  -4   4  -2    0.34    0.05
  -4  -4  -2    0.37    0.04
   4  -4   2    0.24    0.02
   4   4   3    0.00    0.03
  -4   4  -3    0.08    0.05
  -4  -4  -3    0.06    0.03
  -4   4  -3    0.05    0.03
  -4  -4  -3    0.08    0.02
  -4  -4  -4    0.85    0.09
  -4   4  -4    0.94    0.10
  -4  -4  -4    0.92    0.07
  -4  -4  -5    0.30    0.03
  -4   4  -5    0.42    0.03
  -4  -4  -5    0.32    0.04
  -4  -4  -5    0.38    0.07
  -4   4  -5    0.38    0.07
  -4  -4  -6    1.20    0.13
  -4   4  -6    1.27    0.13
  -4  -4  -6    1.14    0.08
  -4  -4  -7    1.68    0.16
  -4   4  -7    1.40    0.15
  -4  -4  -7    1.61    0.10
   4  -6  -9    0.12    0.05
   4   6  -9    0.10    0.04
   4   6  -8    0.15    0.05
   4  -6  -8    0.23    0.05
   4  -6  -8    0.13    0.04
   4   6  -7    0.23    0.05
   4  -6  -7    0.25    0.05
   4  -6  -7    0.21    0.04
   4  -6  -6    3.14    0.17
   4   6  -6    3.80    0.20
   4  -6  -6    3.56    0.19
   4  -6  -6    3.70    0.19
   4   6  -5    6.51    0.28
   4  -6  -5    6.30    0.28
   4  -6  -5    6.01    0.26
   4  -6  -4    1.03    0.09
   4  -6  -4    1.20    0.09
   4   6  -4    0.97    0.08
   4   6  -4    0.90    0.09
   4  -6  -4    1.02    0.09
   4  -6  -4    0.87    0.07
   4  -6  -4    1.10    0.08
   4  -6  -3    0.03    0.03
   4  -6  -3    0.01    0.01
   4   6  -3    0.02    0.03
   4  -6  -3    0.04    0.03
   4  -6  -3    0.00    0.02
   4   6  -3    0.01    0.02
   4  -6  -3    0.02    0.02
  -4   6   2    0.03    0.05
  -4  -6   2    0.01    0.02
   4   6  -2    0.03    0.02
   4  -6  -2    0.03    0.02
   4  -6  -2    0.01    0.02
   4  -6  -2    0.04    0.02
   4   6  -2    0.01    0.05
   4   6  -2    0.03    0.02
   4  -6  -2    0.03    0.02
   4  -6  -2    0.03    0.04
   4  -6  -2    0.04    0.02
  -4   6   1    0.14    0.05
   4   6  -1    0.15    0.03
   4  -6  -1    0.18    0.03
  -4  -6   1    0.14    0.03
  -4  -6   1    0.15    0.03
   4  -6  -1    0.15    0.03
  -4   6   1    0.16    0.03
  -4  -6   1    0.14    0.04
   4  -6  -1    0.13    0.02
   4   6  -1    0.13    0.03
   4  -6  -1    0.25    0.04
  -4   6   0    2.79    0.17
   4  -6   0    2.58    0.12
  -4   6   0    2.57    0.14
  -4  -6   0    2.79    0.14
   4  -6   0    2.30    0.08
  -4  -6   0    2.87    0.12
   4   6   0    2.36    0.13
   4  -6   0    2.92    0.15
   4  -6   0    2.12    0.08
  -4   6  -1    0.46    0.07
  -4   6  -1    0.45    0.05
  -4  -6  -1    0.40    0.06
  -4  -6  -1    0.45    0.04
   4   6   1    0.35    0.06
   4  -6   1    0.41    0.06
  -4   6  -2    1.80    0.14
  -4  -6  -2    2.16    0.13
  -4   6  -2    2.03    0.13
  -4  -6  -2    2.10    0.11
   4  -6   2    2.04    0.11
   4   6   2    1.67    0.10
  -4   6  -3    6.88    0.35
  -4  -6  -3    8.01    0.34
  -4   6  -3    7.82    0.34
  -4   6  -4    3.13    0.21
  -4  -6  -4    3.17    0.19
  -4   6  -4    3.27    0.19
  -4   6  -5    0.42    0.08
  -4  -6  -5    0.61    0.09
  -4   6  -5    0.57    0.08
  -4  -6  -5    0.61    0.06
  -4   6  -6    0.02    0.05
  -4  -6  -6    0.02    0.03
  -4   6  -6   -0.01    0.04
   4   8  -8    0.27    0.06
   4   8  -7    0.05    0.03
   4   8  -7   -0.02    0.10
   4  -8  -7    0.05    0.03
   4  -8  -6    0.20    0.04
   4   8  -6    0.23    0.05
   4  -8  -6    0.22    0.05
   4   8  -6    0.08    0.14
   4  -8  -6    0.24    0.04
   4  -8  -5    0.02    0.02
   4   8  -5    0.03    0.03
   4  -8  -5    0.02    0.03
   4  -8  -5    0.06    0.03
   4  -8  -4    0.00    0.04
   4  -8  -4    0.01    0.02
   4   8  -4    0.00    0.02
   4   8  -4    0.01    0.03
   4  -8  -4   -0.01    0.02
   4  -8  -4    0.01    0.02
   4   8  -3    0.00    0.03
   4  -8  -3    0.01    0.02
   4   8  -3   -0.01    0.02
   4  -8  -3    0.00    0.02
   4  -8  -3    0.01    0.03
   4  -8  -3    0.00    0.02
   4   8  -3    0.01    0.02
   4  -8  -3    0.00    0.01
   4   8  -2    1.24    0.08
  -4  -8   2    1.05    0.07
   4  -8  -2    1.22    0.09
   4   8  -2    1.16    0.08
   4   8  -2    1.14    0.10
   4  -8  -2    1.23    0.10
   4  -8  -2    1.38    0.07
  -4   8   1   15.62    0.57
  -4  -8   1   13.69    0.44
   4   8  -1   10.54    0.44
   4   8  -1    9.63    0.49
   4  -8  -1   11.61    0.50
  -4   8   0    2.72    0.19
  -4   8   0    2.35    0.13
  -4  -8   0    2.28    0.14
  -4  -8   0    2.70    0.13
  -4   8  -1    0.31    0.07
  -4   8  -1    0.38    0.05
  -4  -8  -1    0.32    0.04
   4   8   1    0.22    0.03
  -4  -8  -1    0.28    0.05
  -4   8  -2    0.01    0.04
   4   8   2    0.01    0.02
  -4   8  -2    0.01    0.02
  -4  -8  -2    0.00    0.02
  -4  -8  -2    0.01    0.01
  -4  -8  -3    0.12    0.04
  -4   8  -3    0.11    0.04
  -4  -8  -3    0.13    0.03
  -4   8  -4   -0.02    0.04
  -4   8  -4    0.03    0.03
  -4  -8  -4    0.03    0.02
  -4   8  -5    0.73    0.10
  -4   8  -5    0.71    0.09
  -4   8  -6    0.09    0.05
  -4   8  -6    0.12    0.05
   4  10  -6    2.08    0.31
   4 -10  -6    4.10    0.19
   4  10  -5    0.57    0.20
   4  10  -4    1.79    0.32
   4 -10  -4    2.38    0.15
   4 -10  -3    0.22    0.04
   4  10  -3    0.09    0.15
  -4 -10   2    0.00    0.03
   4 -10  -2    0.08    0.04
  -4  10   2    0.08    0.04
   4 -10  -2    0.05    0.03
   4  10  -2   -0.02    0.14
  -4 -10   1    0.09    0.04
  -4  10   0    0.20    0.07
  -4 -10   0    0.21    0.04
  -4  10  -1    0.26    0.07
  -4 -10  -1    0.42    0.05
  -4  10  -2    1.20    0.14
   4  10   2    0.60    0.21
  -4  10  -3    0.43    0.09
  -5  -1  10    0.13    0.04
  -5   1   9    0.02    0.03
  -5  -1   9    0.02    0.02
   5  -1  -9    0.05    0.04
   5  -1  -8    2.26    0.17
  -5   1   8    2.45    0.15
  -5  -1   8    2.49    0.14
  -5   1   7    0.18    0.04
  -5  -1   7    0.22    0.04
   5  -1  -7    0.10    0.05
  -5   1   6    3.25    0.15
   5  -1  -6    2.86    0.18
  -5  -1   5    2.34    0.12
  -5   1   5    2.38    0.11
   5  -1  -5    2.48    0.18
  -5  -1   4    1.07    0.06
   5   1  -4    1.72    0.11
   5  -1  -4    0.94    0.12
  -5  -1   4    1.55    0.12
  -5   1   4    1.64    0.13
  -5   1   3   12.50    0.54
  -5  -1   3   13.06    0.53
  -5   1   3   12.67    0.47
   5  -1  -3   12.98    0.51
   5   1  -3   13.91    0.51
  -5   1   2    0.23    0.05
  -5  -1   2    0.13    0.04
   5  -1  -2    0.31    0.03
  -5   1   2    0.21    0.03
   5  -1  -2    0.22    0.04
   5  -1  -2    0.25    0.05
   5   1  -2    0.22    0.02
  -5  -1   2    0.27    0.05
   5  -1  -1    4.94    0.23
  -5   1   1    4.37    0.18
  -5  -1   1    4.92    0.24
  -5   1   1    4.16    0.23
  -5  -1   1    4.56    0.23
   5  -1  -1    5.05    0.23
   5  -1  -1    4.96    0.18
   5   1  -1    5.03    0.19
   5  -1   0    7.55    0.30
  -5  -1   0    7.51    0.31
   5  -1   0    7.48    0.31
   5  -1   0    7.33    0.24
   5   1   0    6.95    0.24
  -5  -1   0    6.76    0.30
  -5   1  -1   -0.01    0.04
  -5  -1  -1    0.00    0.03
  -5  -1  -1    0.03    0.02
  -5  -1  -1    0.01    0.01
   5  -1   1    0.01    0.01
   5   1   1    0.00    0.01
  -5   1  -2    9.13    0.42
  -5  -1  -2    8.77    0.40
  -5  -1  -2    9.56    0.34
   5   1   2    8.90    0.33
   5  -1   2    9.28    0.33
  -5  -1  -3    2.09    0.15
  -5   1  -3    2.22    0.10
  -5  -1  -3    2.17    0.11
   5  -1   3    2.34    0.11
  -5   1  -4    0.31    0.03
  -5  -1  -4    0.30    0.03
   5  -1   4    0.26    0.04
  -5  -1  -4    0.25    0.06
  -5  -1  -5    3.68    0.24
  -5   1  -5    4.24    0.17
  -5  -1  -5    4.13    0.18
  -5   1  -6    0.34    0.04
  -5  -1  -6    0.33    0.04
  -5  -1  -6    0.25    0.07
  -5  -1  -7    4.02    0.18
  -5  -3   9    0.10    0.03
   5   3  -9    0.10    0.05
   5  -3  -9    0.09    0.04
   5  -3  -9    0.04    0.04
  -5  -3   8    0.32    0.05
   5   3  -8    0.22    0.06
   5  -3  -8    0.22    0.06
   5  -3  -8    0.24    0.06
   5   3  -7    4.71    0.27
   5  -3  -7    5.44    0.28
  -5   3   7    5.24    0.26
   5  -3  -7    4.34    0.25
   5   3  -6    0.70    0.10
   5  -3  -6    0.65    0.09
  -5   3   6    0.84    0.08
   5   3  -5    2.08    0.12
  -5   3   5    1.92    0.12
   5  -3  -5    1.77    0.15
   5   3  -4    0.96    0.08
   5   3  -4    0.84    0.11
   5  -3  -4    0.94    0.12
  -5   3   3    1.66    0.15
  -5  -3   3    1.62    0.12
   5  -3  -3    1.93    0.10
   5  -3  -3    1.99    0.13
  -5   3   3    1.72    0.11
   5   3  -3    1.24    0.16
   5  -3  -3    1.35    0.16
  -5   3   2    0.00    0.04
  -5  -3   2    0.01    0.03
   5  -3  -2    0.03    0.02
  -5   3   2    0.02    0.02
  -5   3   2    0.04    0.03
  -5  -3   2    0.02    0.03
   5   3  -2    0.02    0.02
   5  -3  -2    0.01    0.02
  -5   3   1    0.53    0.08
   5   3  -1    0.52    0.06
   5  -3  -1    0.54    0.06
  -5   3   1    0.49    0.06
  -5  -3   1    0.43    0.06
  -5  -3   1    0.51    0.06
   5   3  -1    0.49    0.06
   5  -3  -1    0.55    0.06
  -5   3   1    0.47    0.05
   5   3   0    0.03    0.03
   5  -3   0    0.02    0.02
  -5  -3   0   -0.02    0.03
  -5   3   0    0.02    0.02
  -5   3   0    0.00    0.02
  -5  -3   0    0.01    0.02
   5  -3   0    0.00    0.01
  -5   3  -1    9.36    0.29
  -5  -3  -1    9.92    0.30
  -5   3  -1    9.32    0.22
  -5  -3  -1    9.47    0.22
   5  -3   1    9.16    0.18
  -5   3  -2    2.01    0.16
  -5  -3  -2    2.29    0.15
  -5   3  -2    2.30    0.15
  -5   3  -2    1.97    0.10
  -5  -3  -2    2.09    0.11
   5  -3   2    2.33    0.10
  -5   3  -3    0.04    0.04
  -5   3  -3    0.02    0.01
  -5  -3  -3    0.02    0.03
  -5   3  -3    0.05    0.03
  -5  -3  -3    0.03    0.02
  -5   3  -4    0.29    0.03
  -5  -3  -4    0.37    0.04
  -5  -3  -4    0.40    0.07
  -5   3  -4    0.36    0.07
  -5  -3  -5    1.44    0.14
  -5   3  -5    1.39    0.14
  -5   3  -5    1.67    0.08
  -5  -3  -5    1.54    0.09
  -5  -3  -6    0.23    0.04
  -5  -3  -6    0.27    0.07
  -5   3  -6    0.28    0.07
   5   5  -9    0.25    0.06
   5   5  -8    3.32    0.21
   5  -5  -8    3.53    0.21
   5  -5  -8    3.20    0.19
   5   5  -7    0.38    0.07
   5  -5  -7    0.42    0.07
   5  -5  -7    0.46    0.07
   5   5  -6    0.78    0.10
   5   5  -6    0.93    0.07
   5  -5  -6    1.05    0.11
   5  -5  -6    0.98    0.09
   5   5  -5    1.70    0.15
   5  -5  -5    1.92    0.15
   5  -5  -5    1.84    0.13
  -5   5   4    1.20    0.10
   5   5  -4    0.99    0.12
   5  -5  -4    1.07    0.12
   5  -5  -4    1.14    0.09
  -5  -5   3    0.55    0.06
   5  -5  -3    0.61    0.06
   5  -5  -3    0.40    0.04
  -5   5   3    0.48    0.06
   5   5  -3    0.30    0.09
   5  -5  -3    0.34    0.09
   5  -5  -3    0.47    0.05
   5   5  -2    1.51    0.18
   5  -5  -2    1.60    0.18
  -5   5   2    1.78    0.16
  -5  -5   2    1.76    0.11
   5   5  -2    1.73    0.11
   5  -5  -2    2.04    0.12
   5  -5  -2    1.73    0.10
   5  -5  -2    1.49    0.09
  -5   5   2    1.80    0.12
   5   5  -2    1.61    0.11
   5  -5  -2    2.15    0.13
  -5   5   1    2.84    0.19
   5   5  -1    2.52    0.14
   5  -5  -1    2.84    0.16
  -5   5   1    2.85    0.16
  -5  -5   1    2.90    0.17
   5  -5  -1    2.30    0.12
  -5  -5   1    2.46    0.14
  -5   5   1    2.71    0.15
   5   5  -1    2.15    0.14
   5  -5  -1    2.85    0.16
  -5   5   0    3.55    0.22
   5   5   0    4.03    0.19
   5  -5   0    3.24    0.14
  -5   5   0    3.55    0.19
  -5  -5   0    3.59    0.19
  -5  -5   0    3.75    0.19
  -5   5   0    3.60    0.17
   5  -5   0    3.22    0.12
   5  -5   1    0.94    0.05
  -5   5  -1    1.02    0.10
  -5   5  -1    1.27    0.10
  -5  -5  -1    1.07    0.09
  -5   5  -1    1.23    0.08
   5  -5   1    0.64    0.03
   5  -5   1    0.58    0.03
  -5  -5  -2    5.21    0.25
  -5   5  -2    4.91    0.24
  -5  -5  -2    4.60    0.20
  -5  -5  -3    1.34    0.12
  -5   5  -3    1.21    0.11
  -5  -5  -3    1.29    0.08
  -5   5  -4    0.19    0.07
  -5  -5  -4    0.31    0.04
  -5  -5  -4    0.26    0.06
  -5   5  -4    0.26    0.06
  -5   5  -5   -0.01    0.05
  -5  -5  -5    0.04    0.04
  -5   5  -5    0.02    0.03
  -5  -5  -5    0.05    0.02
  -5   5  -6    2.51    0.19
   5   7  -8    0.20    0.06
   5  -7  -8    0.30    0.06
   5   7  -7    0.79    0.10
   5  -7  -7    0.70    0.09
   5  -7  -7    0.75    0.08
   5   7  -6    1.95    0.15
   5  -7  -6    2.33    0.15
   5  -7  -6    2.06    0.13
   5  -7  -6    2.11    0.13
   5  -7  -5    0.10    0.03
   5  -7  -5    0.11    0.03
   5   7  -5    0.12    0.05
   5  -7  -5    0.09    0.05
   5  -7  -4    2.21    0.14
   5  -7  -4    1.84    0.12
   5   7  -4    1.79    0.15
   5  -7  -4    1.95    0.15
   5  -7  -4    2.06    0.12
   5   7  -3    5.03    0.24
   5  -7  -3    6.41    0.26
   5  -7  -3    6.28    0.25
   5  -7  -3    4.94    0.23
   5   7  -3    4.61    0.28
   5  -7  -3    4.93    0.28
   5  -7  -3    5.69    0.23
  -5   7   2    5.37    0.31
   5   7  -2    4.55    0.21
   5  -7  -2    5.35    0.23
   5  -7  -2    5.09    0.21
   5  -7  -2    4.20    0.20
   5   7  -2    4.19    0.21
   5  -7  -2    5.44    0.23
   5  -7  -2    4.52    0.19
   5   7  -2    3.67    0.27
   5  -7  -2    4.10    0.27
  -5   7   1   -0.01    0.05
   5   7  -1    0.10    0.03
   5  -7  -1    0.09    0.03
   5  -7  -1    0.02    0.02
  -5  -7   1    0.00    0.03
  -5   7   1    0.02    0.03
  -5  -7   1    0.02    0.03
   5   7  -1    0.00    0.02
   5  -7  -1    0.00    0.03
  -5   7   0    2.74    0.20
  -5   7   0    2.66    0.15
  -5  -7   0    2.48    0.15
  -5  -7   0    2.40    0.14
  -5  -7   0    2.57    0.13
  -5   7  -1    2.24    0.17
  -5   7  -1    2.54    0.15
  -5  -7  -1    2.59    0.15
  -5  -7  -1    2.73    0.13
  -5   7  -2    1.61    0.12
  -5  -7  -2    1.73    0.13
  -5  -7  -2    1.68    0.10
  -5   7  -3    0.34    0.08
  -5  -7  -3    0.51    0.07
  -5   7  -3    0.49    0.07
  -5  -7  -4    2.41    0.17
  -5   7  -4    2.61    0.17
  -5  -7  -4    2.50    0.14
  -5   7  -5    2.82    0.22
  -5  -7  -5    3.41    0.21
  -5   7  -5    3.10    0.20
   5   9  -6   -0.17    0.17
   5  -9  -6    0.01    0.02
   5  -9  -5    0.64    0.07
   5   9  -4    2.21    0.13
   5  -9  -4    2.39    0.14
   5   9  -3    0.06    0.04
   5   9  -3    0.02    0.02
   5  -9  -3    0.03    0.04
   5  -9  -3    0.01    0.02
   5  -9  -2    1.16    0.09
   5   9  -2    0.86    0.11
  -5   9   1    1.52    0.17
   5  -9  -1    1.24    0.09
  -5   9   0    0.52    0.10
   5  -9   0    0.52    0.05
  -5   9  -1    1.61    0.17
  -5  -9  -1    2.16    0.12
  -5   9  -2    0.89    0.13
  -5   9  -3    1.77    0.17
  -5   9  -4    0.27    0.08
   5 -11  -1    0.03    0.03
  -5  11  -1    0.41    0.10
  -6   0   9    0.00    0.02
  -6   0   8   -0.01    0.02
   6   0  -8   -0.01    0.04
   6   0  -7   -0.01    0.05
  -6   0   7    0.00    0.02
  -6   0   6   20.75    0.40
   6   0  -6   19.19    0.51
   6   0  -5    0.04    0.06
  -6   0   4    3.02    0.20
   6   0  -4    2.24    0.21
  -6   0   3    0.00    0.04
  -6   0   3    0.02    0.03
  -6   0   2    1.42    0.13
   6   0  -2    1.60    0.12
  -6   0   2    1.79    0.13
   6   0  -1    0.00    0.01
   6   0  -1    0.01    0.02
  -6   0   1    0.00    0.01
  -6   0   1   -0.02    0.03
  -6   0   1    0.03    0.02
   6   0  -1    0.00    0.01
   6   0   0    0.05    0.03
  -6   0   0    0.02    0.01
  -6   0   0    0.05    0.04
  -6   0   0    0.05    0.03
   6   0   0    0.03    0.01
  -6   0  -1    0.00    0.01
  -6   0  -1    0.03    0.04
  -6   0  -1    0.01    0.03
  -6   0  -2   18.06    0.75
  -6   0  -2   19.67    0.74
  -6   0  -3   -0.01    0.03
  -6   0  -3    0.01    0.01
  -6   0  -4    8.14    0.41
  -6   0  -4    9.02    0.33
  -6   0  -5    0.01    0.03
  -6   0  -5    0.00    0.01
  -6   0  -6    1.82    0.10
  -6  -2  10    0.90    0.09
  -6   2   9    2.31    0.16
  -6  -2   9    2.06    0.14
  -6   2   8    0.02    0.03
  -6  -2   8    0.01    0.02
   6   2  -8    0.01    0.04
   6  -2  -8   -0.01    0.04
   6   2  -7    0.24    0.08
   6  -2  -7    0.38    0.09
  -6   2   7    0.52    0.06
   6   2  -6    0.23    0.08
   6  -2  -6    0.33    0.08
  -6   2   6    0.43    0.06
   6  -2  -5    0.32    0.09
  -6   2   5    0.38    0.05
   6   2  -5    0.27    0.09
  -6   2   4    0.44    0.09
  -6  -2   4    0.42    0.08
   6   2  -4    0.47    0.06
   6   2  -4    0.25    0.10
   6  -2  -4    0.25    0.09
  -6   2   3    0.69    0.10
  -6  -2   3    0.54    0.08
   6   2  -3    0.30    0.13
   6  -2  -3    0.33    0.12
  -6   2   2    3.04    0.21
  -6  -2   2    3.47    0.20
   6   2  -2    3.72    0.19
   6  -2  -2    3.78    0.20
   6  -2  -2    3.75    0.15
  -6   2   2    3.13    0.15
  -6   2   2    3.71    0.21
  -6  -2   2    3.94    0.22
   6   2  -1   14.41    0.56
   6  -2  -1   15.54    0.57
  -6   2   1   13.71    0.56
  -6  -2   1   14.68    0.57
  -6  -2   1   13.37    0.56
   6  -2  -1   13.90    0.49
   6   2   0    0.00    0.03
   6  -2   0    0.00    0.03
  -6   2   0    0.01    0.03
  -6  -2   0   -0.01    0.03
  -6   2   0    0.01    0.03
  -6  -2   0    0.00    0.03
   6  -2   0    0.01    0.01
  -6   2  -1    0.00    0.04
  -6  -2  -1    0.02    0.03
  -6   2  -1    0.02    0.03
  -6  -2  -1    0.03    0.03
   6  -2   1    0.03    0.01
  -6   2  -2    0.02    0.04
  -6  -2  -2    0.00    0.03
  -6   2  -2    0.01    0.03
  -6  -2  -2    0.02    0.02
  -6  -2  -3    0.45    0.04
  -6  -2  -3    0.42    0.07
  -6   2  -3    0.30    0.07
  -6  -2  -4    0.15    0.05
  -6   2  -4    0.17    0.05
  -6  -2  -4    0.13    0.03
  -6  -2  -5    0.26    0.04
  -6  -2  -5    0.30    0.07
  -6   2  -5    0.31    0.07
  -6  -2  -6    0.07    0.02
  -6  -4   9    0.08    0.03
   6   4  -8    0.03    0.04
   6  -4  -8   -0.01    0.04
   6  -4  -8    0.00    0.03
   6  -4  -7    0.04    0.05
  -6   4   7    0.07    0.04
   6   4  -7    0.03    0.05
   6  -4  -7    0.00    0.03
   6   4  -6    2.56    0.15
  -6   4   6    2.98    0.18
   6   4  -6    2.26    0.19
   6  -4  -6    2.54    0.19
   6   4  -5    0.97    0.13
   6  -4  -5    1.29    0.14
  -6   4   4    0.25    0.08
   6   4  -4    0.17    0.08
   6  -4  -4    0.19    0.08
  -6   4   4    0.33    0.05
  -6  -4   3    0.46    0.07
   6  -4  -3    0.16    0.10
  -6   4   3    0.38    0.08
   6  -4  -3    0.36    0.05
  -6   4   3    0.29    0.05
   6   4  -3    0.07    0.09
  -6  -4   2    1.55    0.12
   6   4  -2    1.59    0.12
   6  -4  -2    1.57    0.09
  -6   4   2    1.34    0.12
  -6  -4   2    1.46    0.13
  -6   4   2    1.38    0.10
   6   4  -1    0.53    0.07
   6  -4  -1    0.52    0.07
  -6   4   1    0.64    0.08
  -6  -4   1    0.49    0.07
  -6  -4   1    0.42    0.06
  -6   4   1    0.44    0.05
   6  -4  -1    0.47    0.03
   6   4   0    2.21    0.15
   6  -4   0    2.64    0.17
  -6   4   0    2.29    0.15
  -6  -4   0    2.25    0.15
  -6  -4   0    2.00    0.15
  -6   4   0    2.02    0.12
  -6   4  -1    0.21    0.06
  -6  -4  -1    0.09    0.04
  -6   4  -1    0.15    0.03
  -6   4  -1    0.12    0.04
  -6  -4  -1    0.16    0.05
  -6  -4  -1    0.14    0.03
  -6   4  -2    1.04    0.12
  -6   4  -2    1.44    0.12
  -6  -4  -2    1.36    0.12
  -6   4  -2    1.14    0.07
  -6  -4  -2    1.33    0.08
  -6   4  -3    1.84    0.17
  -6  -4  -3    1.86    0.15
  -6   4  -3    1.95    0.15
  -6  -4  -3    1.83    0.10
  -6   4  -4    1.89    0.18
  -6  -4  -4    1.80    0.16
  -6   4  -4    1.78    0.15
  -6  -4  -4    1.75    0.11
  -6  -4  -5    0.00    0.02
   6   6  -8    0.02    0.05
   6  -6  -8    0.01    0.04
   6   6  -7   -0.01    0.04
   6  -6  -7    0.03    0.04
   6  -6  -7    0.02    0.03
   6   6  -6    0.22    0.07
   6  -6  -6    0.28    0.07
   6  -6  -6    0.28    0.06
   6   6  -5    0.01    0.05
   6  -6  -5    0.02    0.04
   6  -6  -5    0.01    0.03
   6  -6  -4    0.00    0.04
   6   6  -4    0.01    0.05
   6  -6  -4    0.02    0.05
   6  -6  -4    0.02    0.02
  -6   6   3    2.17    0.20
   6   6  -3    2.05    0.14
   6  -6  -3    2.69    0.16
   6  -6  -3    3.03    0.15
   6   6  -3    1.43    0.19
   6  -6  -3    2.05    0.20
   6  -6  -3    1.95    0.12
  -6   6   2    2.66    0.21
  -6  -6   2    3.03    0.16
   6   6  -2    2.74    0.16
   6  -6  -2    3.40    0.18
   6  -6  -2    3.01    0.14
   6  -6  -2    2.31    0.13
   6   6  -2    2.17    0.25
   6  -6  -2    2.30    0.25
  -6   6   1    6.74    0.37
   6   6  -1    6.78    0.31
  -6   6   1    6.51    0.32
  -6  -6   1    6.54    0.33
  -6  -6   1    6.93    0.30
  -6   6   0    2.16    0.18
  -6   6   0    2.20    0.15
  -6  -6   0    2.47    0.16
  -6  -6   0    2.15    0.15
  -6   6  -1    1.07    0.13
  -6   6  -1    1.19    0.11
  -6  -6  -1    1.16    0.11
  -6   6  -2   -0.01    0.04
  -6   6  -2   -0.01    0.03
  -6  -6  -2    0.00    0.03
  -6  -6  -2    0.01    0.02
  -6   6  -3    0.02    0.05
  -6   6  -3    0.01    0.03
  -6  -6  -3    0.02    0.03
  -6  -6  -3    0.02    0.02
  -6   6  -4    0.44    0.09
  -6  -6  -4    0.51    0.09
  -6   6  -4    0.54    0.09
   6   8  -7    0.97    0.11
   6  -8  -7    1.21    0.10
   6   8  -6    2.05    0.16
   6  -8  -6    2.35    0.14
   6   8  -5    3.40    0.21
   6   8  -4    0.53    0.06
   6   8  -4    0.42    0.09
   6  -8  -4    0.66    0.09
   6  -8  -4    0.43    0.08
   6  -8  -4    0.56    0.06
   6   8  -3    0.06    0.03
   6  -8  -3    0.02    0.03
   6  -8  -3    0.05    0.04
   6  -8  -3    0.03    0.02
   6   8  -3    0.02    0.05
   6  -8  -3    0.01    0.04
  -6   8   2    0.05    0.06
   6   8  -2    0.10    0.04
   6  -8  -2    0.15    0.04
   6  -8  -2    0.11    0.04
   6  -8  -2    0.11    0.03
   6   8  -2    0.03    0.07
   6  -8  -2    0.04    0.06
  -6   8   1    0.03    0.06
   6  -8  -1    0.07    0.02
   6   8  -1   -0.03    0.10
   6  -8  -1   -0.01    0.07
  -6   8   0    0.01    0.05
  -6   8   0    0.02    0.03
  -6   8  -1    0.18    0.08
  -6   8  -1    0.19    0.05
  -6  -8  -1    0.21    0.04
  -6   8  -2    1.92    0.19
  -6   8  -2    2.45    0.16
  -6   8  -3    5.84    0.30
   6 -10  -2    2.58    0.15
   7   1  -8    0.48    0.11
  -7   1   8    0.62    0.07
  -7  -1   8    0.59    0.07
   7  -1  -7    0.16    0.07
  -7   1   7    0.30    0.05
  -7   1   6    0.31    0.05
   7  -1  -6    0.17    0.07
   7  -1  -5    0.08    0.07
  -7   1   4    2.27    0.19
  -7  -1   4    2.20    0.17
  -7   1   3    1.25    0.14
  -7  -1   3    1.19    0.13
  -7  -1   3    1.22    0.12
  -7   1   2    2.75    0.20
  -7  -1   2    2.97    0.20
  -7  -1   2    3.25    0.21
   7  -1  -1    2.03    0.14
   7  -1  -1    0.91    0.06
  -7   1   1    1.13    0.07
  -7  -1   1    2.08    0.15
  -7  -1   1    1.63    0.13
   7  -1   0    2.16    0.16
  -7  -1   0    1.87    0.14
  -7   1   0    1.37    0.14
  -7  -1   0    1.52    0.14
  -7   1  -1    1.28    0.13
  -7  -1  -1    1.49    0.14
  -7  -1  -1    1.63    0.14
  -7   1  -2    0.03    0.05
  -7  -1  -2    0.09    0.05
  -7  -1  -2    0.06    0.04
  -7   1  -3    0.71    0.11
  -7  -1  -3    0.67    0.10
  -7  -1  -3    0.68    0.11
  -7  -1  -4    1.16    0.08
  -7  -1  -5    0.80    0.07
  -7   3   7    2.56    0.17
   7   3  -7    2.16    0.20
   7  -3  -7    1.96    0.19
   7   3  -6    0.65    0.13
   7  -3  -6    0.77    0.12
   7   3  -5    0.28    0.10
   7  -3  -5    0.34    0.10
  -7   3   4    0.79    0.12
  -7  -3   4    0.83    0.11
   7   3  -4    0.50    0.14
   7  -3  -4    0.72    0.15
  -7   3   4    0.99    0.08
  -7  -3   3    0.66    0.09
   7  -3  -3    0.40    0.15
  -7   3   3    0.69    0.11
   7   3  -3    0.78    0.08
   7  -3  -3    0.97    0.09
  -7   3   3    0.76    0.07
   7   3  -3    0.17    0.13
  -7   3   2    2.15    0.18
  -7  -3   2    1.88    0.15
   7   3  -2    2.01    0.15
   7  -3  -2    2.24    0.16
   7  -3  -2    2.05    0.10
  -7   3   2    2.08    0.16
  -7  -3   2    1.99    0.16
  -7   3   2    2.10    0.13
  -7   3   1    0.44    0.09
   7   3  -1    0.65    0.08
   7  -3  -1    0.63    0.08
  -7   3   1    0.59    0.08
  -7  -3   1    0.53    0.08
  -7  -3   1    0.47    0.08
  -7   3   1    0.54    0.06
   7   3   0    0.00    0.03
   7  -3   0    0.03    0.04
  -7  -3   0    0.00    0.03
  -7   3   0    0.02    0.02
  -7   3   0    0.02    0.03
  -7  -3   0    0.01    0.03
  -7   3  -1    4.44    0.29
  -7   3  -1    5.62    0.29
  -7  -3  -1    5.40    0.29
  -7  -3  -1    5.10    0.29
  -7   3  -1    5.06    0.22
  -7  -3  -2    0.30    0.08
  -7   3  -2    0.34    0.04
  -7   3  -2    0.26    0.06
  -7  -3  -2    0.27    0.07
  -7  -3  -3    0.20    0.03
  -7   3  -3    0.16    0.06
  -7  -3  -3    0.25    0.06
  -7  -3  -4    0.31    0.04
   7   5  -7    0.71    0.12
   7  -5  -7    0.76    0.12
   7  -5  -7    0.74    0.09
   7   5  -6   -0.02    0.05
   7  -5  -6   -0.01    0.06
  -7   5   6   -0.01    0.04
   7  -5  -6    0.02    0.03
  -7   5   5    0.29    0.06
   7   5  -5    0.17    0.08
   7  -5  -5    0.19    0.08
   7   5  -4    1.29    0.18
   7  -5  -4    1.61    0.19
  -7   5   4    1.88    0.19
  -7  -5   3    0.88    0.10
   7   5  -3    0.90    0.09
   7  -5  -3    1.19    0.11
   7  -5  -3    1.02    0.08
  -7   5   3    0.97    0.09
   7   5  -3    0.25    0.14
   7  -5  -3    0.39    0.14
  -7  -5   2    0.90    0.10
   7   5  -2    0.87    0.09
   7  -5  -2    1.18    0.11
   7  -5  -2    1.06    0.07
  -7   5   2    0.85    0.10
  -7  -5   2    0.77    0.10
  -7   5   2    0.82    0.08
  -7   5   1    1.49    0.16
   7   5  -1    1.56    0.13
   7  -5  -1    1.98    0.15
  -7   5   1    1.37    0.13
  -7  -5   1    1.52    0.14
  -7  -5   1    1.41    0.12
  -7   5   1    1.46    0.11
  -7   5   0    1.50    0.16
  -7   5   0    1.49    0.13
  -7  -5   0    1.59    0.14
  -7  -5   0    1.47    0.13
  -7   5   0    1.48    0.11
  -7   5  -1    0.98    0.11
  -7  -5  -1    0.88    0.11
  -7  -5  -1    0.99    0.11
  -7   5  -1    0.86    0.08
  -7   5  -2    0.80    0.10
  -7  -5  -2    0.76    0.10
  -7  -5  -2    0.67    0.10
  -7   5  -2    0.45    0.09
  -7  -5  -2    0.74    0.07
  -7   5  -3    1.27    0.13
  -7  -5  -3    1.13    0.13
   7   7  -7    0.54    0.10
   7   7  -6    0.51    0.11
   7  -7  -6    0.48    0.09
   7  -7  -6    0.62    0.07
   7   7  -5    0.15    0.08
   7  -7  -5    0.19    0.07
   7   7  -4   -0.01    0.03
   7  -7  -4   -0.01    0.03
   7  -7  -4    0.01    0.05
   7   7  -4   -0.01    0.07
   7  -7  -4   -0.05    0.06
  -7   7   3    1.29    0.17
   7   7  -3    1.28    0.11
   7  -7  -3    1.70    0.13
   7  -7  -3    1.85    0.12
   7   7  -3    0.48    0.15
   7  -7  -3    0.79    0.15
  -7   7   2    1.17    0.16
   7   7  -2    0.16    0.16
   7   7  -2    1.17    0.11
   7  -7  -2    1.55    0.13
   7  -7  -2    1.29    0.09
   7  -7  -2    0.57    0.16
  -7   7   1    0.44    0.10
  -7   7   1    0.36    0.07
  -7  -7   1    0.39    0.07
  -7   7   0   -0.02    0.06
  -7   7   0    0.05    0.04
  -7  -7   0    0.01    0.04
  -7   7  -1    2.04    0.16
  -7  -7  -1    1.99    0.16
  -7   7  -2    1.51    0.14
  -7  -7  -2    1.48    0.14
   8   0  -6    0.66    0.13
  -8   0   5   -0.01    0.05
   8   0  -5    0.03    0.07
  -8   0   4    0.01    0.07
   8   0  -4    0.11    0.10
  -8   0   3   -0.01    0.06
   8   0  -3    0.04    0.03
  -8   0   3    0.07    0.04
   8   0  -2    3.81    0.21
  -8   0   2    4.38    0.25
   8   0  -1    0.02    0.04
  -8   0   1   -0.02    0.04
  -8   0   0    0.21    0.06
  -8   0   0    0.22    0.06
  -8   0  -1    0.03    0.05
  -8   0  -1   -0.01    0.03
  -8   0  -2    1.20    0.14
   8   2  -6    0.04    0.06
   8  -2  -6    0.02    0.06
  -8   2   5    2.58    0.15
   8   2  -5    1.21    0.19
   8  -2  -5    1.69    0.20
  -8  -2   5    0.14    0.18
  -8   2   5    0.11    0.19
  -8   2   4    0.01    0.06
  -8  -2   4    0.01    0.05
   8   2  -4   -0.05    0.10
   8  -2  -4   -0.02    0.08
  -8   2   4    0.00    0.02
  -8   2   3    0.03    0.06
  -8  -2   3   -0.01    0.05
   8   2  -3    0.00    0.04
   8  -2  -3    0.00    0.04
   8  -2  -3   -0.05    0.12
   8   2  -3    0.01    0.11
  -8  -2   3   -0.02    0.05
  -8   2   2    0.30    0.09
   8   2  -2    0.26    0.06
   8  -2  -2    0.30    0.07
  -8   2   2    0.33    0.07
  -8  -2   2    0.31    0.08
  -8   2   1    0.46    0.09
   8   2  -1    0.49    0.08
   8  -2  -1    0.51    0.09
  -8   2   1    0.41    0.08
  -8  -2   1    0.53    0.09
  -8  -2   0    0.13    0.06
  -8   2   0    0.15    0.05
  -8  -2   0    0.20    0.06
  -8   2  -1    0.98    0.13
  -8   2  -1    1.39    0.13
  -8  -2  -1    1.28    0.13
  -8  -2  -1    1.04    0.13
  -8  -2  -2    0.23    0.08
   8   4  -6    0.01    0.06
   8  -4  -6    0.05    0.06
   8   4  -5   -0.01    0.06
   8  -4  -5   -0.02    0.06
  -8   4   5    0.00    0.02
  -8   4   4    0.16    0.08
   8   4  -4    0.13    0.05
   8  -4  -4    0.14    0.05
  -8   4   4    0.13    0.04
   8   4  -4   -0.03    0.12
   8  -4  -4    0.07    0.11
  -8   4   3    1.10    0.15
   8   4  -3    1.25    0.11
   8  -4  -3    1.39    0.12
   8   4  -3    0.66    0.18
  -8   4   3    1.04    0.09
   8  -4  -3    0.61    0.18
  -8   4   2    8.40    0.44
   8   4  -2    9.79    0.40
  -8   4   2    9.03    0.41
  -8  -4   2    8.74    0.41
  -8   4   2    8.50    0.35
  -8   4   1    1.41    0.16
   8   4  -1    1.68    0.15
   8  -4  -1    2.02    0.16
  -8   4   1    1.66    0.15
  -8  -4   1    1.80    0.16
  -8   4   1    1.41    0.11
  -8   4   0    1.35    0.13
  -8  -4   0    1.26    0.13
  -8  -4   0    1.37    0.13
  -8   4   0    1.06    0.09
  -8  -4  -1    0.21    0.06
  -8   4  -1    0.17    0.04
  -8   4  -1    0.25    0.06
  -8  -4  -1    0.24    0.07
  -8  -4  -2    0.44    0.09
   8   6  -5    0.68    0.09
   8  -6  -5    0.83    0.10
   8   6  -5    0.43    0.11
   8  -6  -5    0.44    0.11
   8   6  -4   -0.04    0.08
   8  -6  -4    0.01    0.07
   8   6  -4   -0.01    0.03
   8  -6  -4    0.04    0.04
  -8   6   4   -0.03    0.05
   8   6  -3    0.11    0.05
   8  -6  -3    0.17    0.05
   8   6  -3    0.04    0.10
   8  -6  -3    0.09    5.90
  -8   6   3    0.17    0.05
   8  -6  -2   -0.05    6.56
   8   6  -2    0.03    0.04
   8  -6  -2   -0.01    0.04
  -8   6   2    0.02    0.03
   8   6  -2    0.01    0.11
  -8   6   1    0.18    0.05
  -8   6   1    0.21    0.06
  -8  -6   1    0.16    0.06
  -8   6   0    0.18    0.05
  -8   6   0    0.11    0.05
  -8  -6   0    0.22    0.07
   8   8  -4   -0.03    0.04
   8   8  -3    0.18    0.06
  -9  -1   5   -0.01    0.06
  -9   1   5   -0.01    0.08
  -9   1   4    0.01    0.10
  -9  -1   4    0.02    0.11
  -9   1   3    0.06    0.16
  -9  -1   3 1000.00    4.20
  -9   1   2   -0.01    0.06
  -9  -1   2    0.01    0.06
  -9  -1   1   -0.01    0.07
  -9  -3   3    0.06    0.16
  -9   3   3    1.65    0.12
  -9  -3   2    0.05    0.14
  -9   3   2    1.26    0.10
  -9   3   1    0.00    0.02
  -9  -3   0    0.61    0.10
  -9   3   0    0.61    0.07
  -9   5   2    0.01    0.03
  -9   5   1    0.08    0.04
   0   0   0    0.00    0.00
;
_shelx_hkl_checksum              41334
loop_
_space_group_symop_operation_xyz
'x, y, z'
'-x, y, -z+1/2'
'x+1/2, y+1/2, z'
'-x+1/2, y+1/2, -z+1/2'
'-x, -y, -z'
'x, -y, z-1/2'
'-x+1/2, -y+1/2, -z'
'x+1/2, -y+1/2, z-1/2'
loop_
_atom_site_label
_atom_site_type_symbol
_atom_site_fract_x
_atom_site_fract_y
_atom_site_fract_z
_atom_site_U_iso_or_equiv
_atom_site_adp_type
_atom_site_occupancy
_atom_site_site_symmetry_order
_atom_site_calc_flag
_atom_site_refinement_flags_posn
_atom_site_refinement_flags_adp
_atom_site_refinement_flags_occupancy
_atom_site_disorder_assembly
_atom_site_disorder_group
P1 P 0.2278(2) 0.10401(12) 0.63777(17) 0.0179(8) Uani 1 1 d . . . . .
Al1 Al 0.0000 0.1406(2) 0.2500 0.0160(9) Uani 1 2 d S T P . .
Na1 Na 0.2500 0.2500 1.0000 0.0679(17) Uani 1 2 d S . P . .
O1 O 0.0629(6) 0.1479(3) 0.4923(5) 0.0184(12) Uani 1 1 d . . . . .
O2 O 0.3164(5) 0.2241(4) 0.7502(4) 0.0206(12) Uani 1 1 d . . . . .
O3 O 0.1796(7) -0.0040(5) 0.7502(6) 0.0411(16) Uani 1 1 d . . . . .
O4 O 0.3668(18) 0.0225(14) 0.5693(19) 0.070(4) Uani 0.5 1 d . . P . .
loop_
_atom_site_aniso_label
_atom_site_aniso_U_11
_atom_site_aniso_U_22
_atom_site_aniso_U_33
_atom_site_aniso_U_23
_atom_site_aniso_U_13
_atom_site_aniso_U_12
P1 0.0248(13) 0.0083(12) 0.0166(13) -0.0005(5) -0.0010(9) -0.0009(6)
Al1 0.0217(17) 0.0053(14) 0.0175(16) 0.000 -0.0005(12) 0.000
Na1 0.080(4) 0.095(4) 0.042(3) -0.025(3) 0.038(3) -0.038(3)
O1 0.024(3) 0.011(2) 0.017(2) 0.0016(15) 0.001(2) 0.0001(16)
O2 0.028(3) 0.013(2) 0.020(2) -0.0033(15) 0.003(2) -0.0064(17)
O3 0.050(3) 0.027(2) 0.029(3) 0.0177(18) -0.017(3) -0.0205(19)
O4 0.059(8) 0.089(10) 0.054(8) -0.010(6) 0.004(7) 0.011(6)
loop_
_atom_type_symbol
_atom_type_description
_atom_type_scat_dispersion_real
_atom_type_scat_dispersion_imag
_atom_type_scat_source
O O 0.0106 0.0060 'International Tables Vol C Tables 4.2.6.8 and 6.1.1.4'
Na Na 0.0362 0.0249 'International Tables Vol C Tables 4.2.6.8 and 6.1.1.4'
Al Al 0.0645 0.0514 'International Tables Vol C Tables 4.2.6.8 and 6.1.1.4'
P P 0.1023 0.0942 'International Tables Vol C Tables 4.2.6.8 and 6.1.1.4'
loop_
_geom_angle_atom_site_label_1
_geom_angle_atom_site_label_2
_geom_angle_atom_site_label_3
_geom_angle
_geom_angle_site_symmetry_1
_geom_angle_site_symmetry_3
_geom_angle_publ_flag
O3 P1 O1 113.9(2) . . ?
O3 P1 O2 107.5(2) . . ?
O1 P1 O2 112.3(2) . . ?
O3 P1 O4 99.2(6) . . ?
O1 P1 O4 109.6(6) . . ?
O2 P1 O4 113.8(5) . . ?
O3 P1 Na1 72.9(2) . . ?
O1 P1 Na1 115.01(17) . . ?
O2 P1 Na1 37.46(15) . . ?
O4 P1 Na1 134.0(5) . . ?
O3 Al1 O3 89.9(3) 5_556 6 ?
O3 Al1 O2 179.1(2) 5_556 7_556 ?
O3 Al1 O2 89.2(2) 6 7_556 ?
O3 Al1 O2 89.2(2) 5_556 8_455 ?
O3 Al1 O2 179.1(2) 6 8_455 ?
O2 Al1 O2 91.8(2) 7_556 8_455 ?
O3 Al1 O1 89.77(19) 5_556 . ?
O3 Al1 O1 93.23(18) 6 . ?
O2 Al1 O1 90.39(16) 7_556 . ?
O2 Al1 O1 86.66(16) 8_455 . ?
O3 Al1 O1 93.23(18) 5_556 2 ?
O3 Al1 O1 89.77(19) 6 2 ?
O2 Al1 O1 86.66(16) 7_556 2 ?
O2 Al1 O1 90.39(16) 8_455 2 ?
O1 Al1 O1 175.8(2) . 2 ?
O3 Al1 Na1 138.26(17) 5_556 1_554 ?
O3 Al1 Na1 73.22(18) 6 1_554 ?
O2 Al1 Na1 41.24(11) 7_556 1_554 ?
O2 Al1 Na1 107.57(13) 8_455 1_554 ?
O1 Al1 Na1 128.14(12) . 1_554 ?
O1 Al1 Na1 50.09(12) 2 1_554 ?
O3 Al1 Na1 73.22(18) 5_556 2_556 ?
O3 Al1 Na1 138.26(17) 6 2_556 ?
O2 Al1 Na1 107.57(13) 7_556 2_556 ?
O2 Al1 Na1 41.24(11) 8_455 2_556 ?
O1 Al1 Na1 50.09(12) . 2_556 ?
O1 Al1 Na1 128.14(12) 2 2_556 ?
Na1 Al1 Na1 142.29(7) 1_554 2_556 ?
O2 Na1 O2 180.0 7_557 . ?
O2 Na1 O1 114.14(13) 7_557 8_556 ?
O2 Na1 O1 65.86(13) . 8_556 ?
O2 Na1 O1 65.86(13) 7_557 2_556 ?
O2 Na1 O1 114.14(13) . 2_556 ?
O1 Na1 O1 180.0 8_556 2_556 ?
O2 Na1 O4 93.1(3) 7_557 6_556 ?
O2 Na1 O4 86.9(3) . 6_556 ?
O1 Na1 O4 98.3(3) 8_556 6_556 ?
O1 Na1 O4 81.7(3) 2_556 6_556 ?
O2 Na1 O4 86.9(3) 7_557 4_556 ?
O2 Na1 O4 93.1(3) . 4_556 ?
O1 Na1 O4 81.7(3) 8_556 4_556 ?
O1 Na1 O4 98.3(3) 2_556 4_556 ?
O4 Na1 O4 180.0 6_556 4_556 ?
O2 Na1 P1 24.28(9) 7_557 7_557 ?
O2 Na1 P1 155.72(9) . 7_557 ?
O1 Na1 P1 92.02(9) 8_556 7_557 ?
O1 Na1 P1 87.98(9) 2_556 7_557 ?
O4 Na1 P1 107.1(3) 6_556 7_557 ?
O4 Na1 P1 72.9(3) 4_556 7_557 ?
O2 Na1 P1 155.72(9) 7_557 . ?
O2 Na1 P1 24.28(9) . . ?
O1 Na1 P1 87.98(9) 8_556 . ?
O1 Na1 P1 92.02(9) 2_556 . ?
O4 Na1 P1 72.9(3) 6_556 . ?
O4 Na1 P1 107.1(3) 4_556 . ?
P1 Na1 P1 180.0 7_557 . ?
O2 Na1 Al1 146.32(9) 7_557 7_556 ?
O2 Na1 Al1 33.68(9) . 7_556 ?
O1 Na1 Al1 35.39(8) 8_556 7_556 ?
O1 Na1 Al1 144.61(8) 2_556 7_556 ?
O4 Na1 Al1 103.8(3) 6_556 7_556 ?
O4 Na1 Al1 76.2(3) 4_556 7_556 ?
P1 Na1 Al1 122.11(3) 7_557 7_556 ?
P1 Na1 Al1 57.89(3) . 7_556 ?
O2 Na1 Al1 33.68(9) 7_557 1_556 ?
O2 Na1 Al1 146.32(9) . 1_556 ?
O1 Na1 Al1 144.61(8) 8_556 1_556 ?
O1 Na1 Al1 35.39(8) 2_556 1_556 ?
O4 Na1 Al1 76.2(3) 6_556 1_556 ?
O4 Na1 Al1 103.8(3) 4_556 1_556 ?
P1 Na1 Al1 57.89(3) 7_557 1_556 ?
P1 Na1 Al1 122.11(3) . 1_556 ?
Al1 Na1 Al1 180.0 7_556 1_556 ?
P1 O1 Al1 136.1(3) . . ?
P1 O1 Na1 129.3(2) . 2_556 ?
Al1 O1 Na1 94.52(15) . 2_556 ?
P1 O2 Al1 136.3(3) . 7_556 ?
P1 O2 Na1 118.3(2) . . ?
Al1 O2 Na1 105.07(15) 7_556 . ?
P1 O3 Al1 141.4(3) . 5_556 ?
P1 O4 Na1 111.5(7) . 4_546 ?
loop_
_geom_bond_atom_site_label_1
_geom_bond_atom_site_label_2
_geom_bond_distance
_geom_bond_site_symmetry_2
_geom_bond_publ_flag
P1 O3 1.506(5) . ?
P1 O1 1.513(4) . ?
P1 O2 1.521(4) . ?
P1 O4 1.524(14) . ?
P1 Na1 3.2582(14) . ?
Al1 O3 1.880(4) 5_556 ?
Al1 O3 1.880(4) 6 ?
Al1 O2 1.893(4) 7_556 ?
Al1 O2 1.893(4) 8_455 ?
Al1 O1 1.914(4) . ?
Al1 O1 1.914(4) 2 ?
Al1 Na1 3.2952(7) 1_554 ?
Al1 Na1 3.2952(7) 2_556 ?
Na1 O2 2.250(4) 7_557 ?
Na1 O2 2.250(4) . ?
Na1 O1 2.536(4) 8_556 ?
Na1 O1 2.536(4) 2_556 ?
Na1 O4 2.800(14) 6_556 ?
Na1 O4 2.800(14) 4_556 ?
Na1 P1 3.2582(14) 7_557 ?
Na1 Al1 3.2953(7) 7_556 ?
Na1 Al1 3.2953(7) 1_556 ?
O1 Na1 2.536(4) 2_556 ?
O2 Al1 1.893(4) 7_556 ?
O3 Al1 1.880(4) 5_556 ?
O4 Na1 2.800(14) 4_546 ?
