#------------------------------------------------------------------------------
#$Date: 2022-08-17 01:29:32 +0300 (Wed, 17 Aug 2022) $
#$Revision: 277263 $
#$URL: file:///home/coder/svn-repositories/cod/cif/7/24/53/7245327.cif $
#------------------------------------------------------------------------------
#
# This file is available in the Crystallography Open Database (COD),
# http://www.crystallography.net/
#
# All data on this site have been placed in the public domain by the
# contributors.
#
data_7245327
loop_
_publ_author_name
'Wang, Xinmei'
'Qi, Lu'
'Wu, Lei'
'Zhang, Ruixin'
'Abudoureheman, Maierhaba'
'Lv, Jiarong'
'Wang, Peng'
'Dong, Xiaoyu'
'Jing, Qun'
'Chen, Zhaohui'
_publ_section_title
;
 Synergistic effect of 2[V2P2O14]\\infty layers and hydrogen bonds
 inducing large birefringence in M(VO)2(PO4)2&#x00B7;4H2O (M = Ca, Sr, Ba)
 system
;
_journal_name_full               CrystEngComm
_journal_paper_doi               10.1039/D2CE00728B
_journal_year                    2022
_chemical_absolute_configuration ad
_chemical_formula_moiety         'Ba H8 O14 P2 V2'
_chemical_formula_sum            'Ba H8 O14 P2 V2'
_chemical_formula_weight         533.22
_space_group_crystal_system      monoclinic
_space_group_IT_number           7
_space_group_name_Hall           'P -2yac'
_space_group_name_H-M_alt        'P 1 n 1'
_atom_sites_solution_hydrogens   difmap
_atom_sites_solution_primary     dual
_audit_creation_date             2021-08-04
_audit_creation_method
;
Olex2 1.5
(compiled 2021.07.19 svn.r715e62df for OlexSys, GUI svn.r6383)
;
_audit_update_record
;
2022-02-24 deposited with the CCDC.	2022-08-16 downloaded from the CCDC.
;
_cell_angle_alpha                90
_cell_angle_beta                 90.1650(10)
_cell_angle_gamma                90
_cell_formula_units_Z            2
_cell_length_a                   6.3867(8)
_cell_length_b                   12.7855(16)
_cell_length_c                   6.3889(8)
_cell_measurement_reflns_used    1484
_cell_measurement_temperature    297
_cell_measurement_theta_max      27.338
_cell_measurement_theta_min      3.187
_cell_volume                     521.70(11)
_computing_cell_refinement       'SAINT V8.38A (Bruker, 2018)'
_computing_data_reduction        'SAINT V8.38A (Bruker, 2018)'
_computing_molecular_graphics    'Olex2 1.5 (Dolomanov et al., 2009)'
_computing_publication_material  'Olex2 1.5 (Dolomanov et al., 2009)'
_computing_structure_refinement  'SHELXL 2018/3 (Sheldrick, 2015)'
_computing_structure_solution    'SHELXT  (Sheldrick, 2015)'
_diffrn_ambient_temperature      297
_diffrn_measured_fraction_theta_full 0.995
_diffrn_measured_fraction_theta_max 0.993
_diffrn_measurement_device_type  'CCD area detector'
_diffrn_measurement_method       'phi and omega scans'
_diffrn_radiation_monochromator  graphite
_diffrn_radiation_type           MoK\a
_diffrn_radiation_wavelength     0.71073
_diffrn_reflns_av_R_equivalents  0.0187
_diffrn_reflns_av_unetI/netI     0.0366
_diffrn_reflns_Laue_measured_fraction_full 0.995
_diffrn_reflns_Laue_measured_fraction_max 0.993
_diffrn_reflns_limit_h_max       7
_diffrn_reflns_limit_h_min       -8
_diffrn_reflns_limit_k_max       16
_diffrn_reflns_limit_k_min       -11
_diffrn_reflns_limit_l_max       8
_diffrn_reflns_limit_l_min       -8
_diffrn_reflns_number            3164
_diffrn_reflns_point_group_measured_fraction_full 0.913
_diffrn_reflns_point_group_measured_fraction_max 0.892
_diffrn_reflns_theta_full        25.242
_diffrn_reflns_theta_max         27.385
_diffrn_reflns_theta_min         3.187
_diffrn_source_current           30.0
_diffrn_source_power             1.35
_diffrn_source_voltage           45.0
_exptl_absorpt_coefficient_mu    5.877
_exptl_absorpt_correction_T_max  0.7455
_exptl_absorpt_correction_T_min  0.6827
_exptl_absorpt_correction_type   multi-scan
_exptl_absorpt_process_details
;
SADABS-2016/2 (Bruker,2016/2) was used for absorption correction.
wR2(int) was 0.0370 before and 0.0275 after correction.
The Ratio of minimum to maximum transmission is 0.9158.
The \l/2 correction factor is Not present.
;
_exptl_crystal_colour            colourless
_exptl_crystal_colour_primary    colourless
_exptl_crystal_density_diffrn    3.394
_exptl_crystal_description       block
_exptl_crystal_F_000             504
_exptl_crystal_size_max          0.07
_exptl_crystal_size_mid          0.05
_exptl_crystal_size_min          0.02
_refine_diff_density_max         0.503
_refine_diff_density_min         -0.499
_refine_diff_density_rms         0.125
_refine_ls_abs_structure_details
;
 Refined as an inversion twin.
;
_refine_ls_abs_structure_Flack   0.23(4)
_refine_ls_extinction_coef       0.0065(8)
_refine_ls_extinction_expression Fc^*^=kFc[1+0.001xFc^2^\l^3^/sin(2\q)]^-1/4^
_refine_ls_extinction_method     'SHELXL-2018/3 (Sheldrick 2018)'
_refine_ls_goodness_of_fit_ref   1.046
_refine_ls_hydrogen_treatment    constr
_refine_ls_matrix_type           full
_refine_ls_number_parameters     174
_refine_ls_number_reflns         2123
_refine_ls_number_restraints     2
_refine_ls_restrained_S_all      1.046
_refine_ls_R_factor_all          0.0305
_refine_ls_R_factor_gt           0.0248
_refine_ls_shift/su_max          0.000
_refine_ls_shift/su_mean         0.000
_refine_ls_structure_factor_coef Fsqd
_refine_ls_weighting_details
'w=1/[\s^2^(Fo^2^)+(0.0250P)^2^] where P=(Fo^2^+2Fc^2^)/3'
_refine_ls_weighting_scheme      calc
_refine_ls_wR_factor_gt          0.0524
_refine_ls_wR_factor_ref         0.0551
_reflns_Friedel_coverage         0.784
_reflns_Friedel_fraction_full    0.830
_reflns_Friedel_fraction_max     0.789
_reflns_number_gt                1848
_reflns_number_total             2123
_reflns_threshold_expression     'I > 2\s(I)'
_cod_data_source_file            d2ce00728b2.cif
_cod_data_source_block           ba
_cod_database_code               7245327
_shelx_shelxl_version_number     2018/3
_shelx_space_group_comment
;
The symmetry employed for this shelxl refinement is uniquely defined
by the following loop, which should always be used as a source of
symmetry information in preference to the above space-group names.
They are only intended as comments.
;
_shelx_estimated_absorpt_t_max   0.892
_shelx_estimated_absorpt_t_min   0.684
_olex2_refinement_description
;
1. Twinned data refinement
 Scales: 0.77(4)
 0.23(4)
2. Fixed Uiso
 At 1.5 times of:
  All O(H,H) groups
3.a Riding coordinates:
 O2(H2a,H2b), O6(H6a,H6b), O13(H13a,H13b), O14(H14a,H14b)
;
_shelx_res_file
;
TITL 74747 in Pn
    ba.res
    created by SHELXL-2018/3 at 21:03:20 on 04-Aug-2021
CELL 0.71073 6.3867 12.7855 6.3889 90 90.165 90
ZERR 2 0.0008 0.0016 0.0008 0 0.001 0
LATT -1
SYMM 0.5+X,-Y,0.5+Z
SFAC Ba H O P V
UNIT 2 16 28 4 4

L.S. 4
PLAN  6
SIZE 0.02 0.05 0.07
TEMP 23.85
CONF
FREE Ba1 P1
BOND
htab
MORE -1
BOND $H
fmap 2
acta
TWIN -1 0 0 0 -1 0 0 0 -1 2
OMIT 1 0 -1
OMIT 1 0 -3
OMIT 2 0 -2
OMIT 3 0 -3
OMIT 1 0 -5
OMIT 4 0 -4
OMIT 2 6 -1
OMIT -1 2 -5
REM <olex2.extras>
REM <HklSrc "%.\\Ba.hkl">
REM </olex2.extras>

WGHT    0.025000
EXTI    0.006541
BASF   0.22730
FVAR       0.18030
BA1   1    0.646380    0.749624    0.910993    11.00000    0.01291    0.01086 =
         0.01156   -0.00046    0.00051    0.00156
V1    5    0.253979    0.955823    0.684916    11.00000    0.00504    0.00759 =
         0.00547    0.00056    0.00001    0.00078
V2    5    0.867652    0.544494    0.514998    11.00000    0.00564    0.00592 =
         0.00444   -0.00008    0.00100    0.00061
P1    4    0.757336    1.000155    0.685086    11.00000    0.00407    0.00734 =
         0.00454   -0.00036   -0.00064   -0.00073
P2    4    0.864468    0.496581    0.017631    11.00000    0.00604    0.00578 =
         0.00429   -0.00028    0.00133    0.00016
O1    3    0.678016    0.420120    0.003006    11.00000    0.00725    0.00881 =
         0.01478   -0.00211    0.00123   -0.00007
O2    3    0.843527    0.728559    0.519811    11.00000    0.01174    0.02092 =
         0.01538    0.00145   -0.00575   -0.00072
AFIX   3
H2A   2    0.961277    0.759319    0.512591    11.00000   -1.50000
H2B   2    0.773037    0.753729    0.418621    11.00000   -1.50000
AFIX   0
O3    3    1.059915    0.427480    0.032788    11.00000    0.00819    0.00945 =
         0.01092    0.00145    0.00063   -0.00057
O4    3    0.776329    1.070258    0.492154    11.00000    0.01039    0.00678 =
         0.00763    0.00272   -0.00012   -0.00037
O5    3    0.874334    0.568313   -0.174837    11.00000    0.01723    0.00788 =
         0.00231    0.00029    0.00190    0.00272
O6    3    0.251372    0.766803    0.717111    11.00000    0.01762    0.00526 =
         0.00901    0.00022    0.00691   -0.00149
AFIX   3
H6A   2    0.149632    0.767763    0.810941    11.00000   -1.50000
H6B   2    0.271272    0.712403    0.647001    11.00000   -1.50000
AFIX   0
O7    3    0.562991    0.928273    0.673158    11.00000    0.00413    0.01395 =
         0.01279    0.00380   -0.00006   -0.00334
O8    3    0.845093    0.570679    0.204793    11.00000    0.01456    0.01147 =
         0.00659    0.00196    0.00077    0.00153
O9    3    0.945874    0.925232    0.706177    11.00000    0.01025    0.01142 =
         0.00956    0.00135   -0.00222    0.00008
O10   3    0.744050    1.075521    0.872708    11.00000    0.01453    0.00861 =
         0.00662    0.00167    0.00341   -0.00187
O11   3    0.249668    1.080433    0.674373    11.00000    0.01823    0.00985 =
         0.01766    0.00110    0.00116    0.00392
O12   3    0.881243    0.419746    0.510173    11.00000    0.01264    0.01510 =
         0.01767    0.00111   -0.00082   -0.00117
O13   3    1.046358    0.749401    1.077834    11.00000    0.01919    0.01014 =
         0.02567   -0.00051   -0.00345   -0.00242
AFIX   3
H13A  2    1.046998    0.795661    1.177414    11.00000   -1.50000
H13B  2    1.047238    0.688071    1.129154    11.00000   -1.50000
AFIX   0
O14   3    0.489215    0.755901    1.306029    11.00000    0.02539    0.00982 =
         0.01448    0.00304   -0.00241    0.00025
AFIX   3
H14A  2    0.467615    0.698421    1.371129    11.00000   -1.50000
H14B  2    0.391645    0.801331    1.311789    11.00000   -1.50000
AFIX   0
HKLF 4




REM  74747 in Pn
REM wR2 = 0.0551, GooF = S = 1.046, Restrained GooF = 1.046 for all data
REM R1 = 0.0248 for 1848 Fo > 4sig(Fo) and 0.0305 for all 2123 data
REM 174 parameters refined using 2 restraints

END

WGHT      0.0250      0.0000

REM Instructions for potential hydrogen bonds
EQIV $4 x+1, y, z
HTAB O2 O6_$4
EQIV $5 x+1/2, -y+2, z-1/2
HTAB O2 O11_$5
EQIV $1 x, y, z-1
HTAB O2 O14_$1
EQIV $12 x-1, y, z
HTAB O6 O13_$12
EQIV $6 x+1/2, -y+2, z+1/2
HTAB O13 O10_$6
HTAB O13 O11_$6
EQIV $8 x, y, z+1
HTAB O13 O8_$8
EQIV $9 x+1/2, -y+1, z+1/2
HTAB O13 O12_$9
EQIV $13 x-1/2, -y+1, z+3/2
HTAB O14 O1_$13
HTAB O14 O3_$13
EQIV $11 x-1/2, -y+2, z+1/2
HTAB O14 O10_$11

REM Highest difference peak  0.503,  deepest hole -0.499,  1-sigma level  0.125
Q1    1   0.3724  0.9389  0.7883  11.00000  0.05    0.50
Q2    1   0.6486  1.0743  0.9115  11.00000  0.05    0.48
Q3    1   0.7851  0.7615  0.9019  11.00000  0.05    0.46
Q4    1   0.7129  0.6180  0.3683  11.00000  0.05    0.45
Q5    1   0.5439  0.9176  0.8051  11.00000  0.05    0.44
Q6    1   0.3695  0.7075  1.2887  11.00000  0.05    0.43
;
_shelx_res_checksum              65233
_shelx_hkl_file
;
   0   0   1    1.41    0.28
   0   0  -1   -0.07    0.06
   0   0   2  123.18    1.93
   0   0   2  126.37    2.94
   0   0  -2  111.98    2.25
   0   0   3    0.09    0.24
   0   0  -3   -0.21    0.33
   0   0   3    0.01    0.14
   0   0   4  241.92    3.71
   0   0   4  239.39    5.93
   0   0  -4  231.67    4.49
   0   0   5    0.16    0.44
   0   0  -5    0.18    0.51
   0   0  -6  195.43    4.87
   0   0   6  183.10    6.32
   0   0   7   -0.39    0.58
   0   0   8  106.53    5.89
   0   1  -1  220.69    2.96
   0   1   1  210.84    3.09
   0   1   1  214.42    2.74
   0  -1  -1  228.49    2.59
   0  -1   1  217.24    3.21
   0   1   2  514.31    6.91
   0   1   2  510.16    5.79
   0   1  -2  525.80    6.38
   0  -1  -2  516.05    5.73
   0  -1   2  491.53    6.94
   0   1   3  146.12    3.83
   0   1   3  148.42    2.75
   0   1  -3  154.79    3.31
   0  -1   3  146.92    2.11
   0  -1   3  143.70    3.87
   0  -1  -3  149.42    3.00
   0   1   4  319.12    6.92
   0   1   4  334.79    4.91
   0   1  -4  346.68    5.92
   0  -1   4  323.52    4.95
   0  -1  -4  345.64    5.56
   0  -1   4  325.29    6.93
   0   1   5  231.32    6.51
   0   1  -5  233.58    5.13
   0  -1  -5  229.82    4.74
   0   1   6    2.81    1.01
   0   1  -6    1.02    0.66
   0  -1   6    0.64    0.71
   0   1   7   47.16    3.51
   0  -1   7   43.06    3.42
   0   1   8   53.96    4.26
   0  -1   8   57.90    4.40
   0   2   0   63.21    1.08
   0   2   0   61.39    1.28
   0   2   1   24.76    0.92
   0   2  -1   28.03    0.75
   0   2  -1   25.48    0.96
   0  -2   1   26.19    1.03
   0   2   2  513.11    6.24
   0   2   2  508.89    7.05
   0   2  -2  500.87    6.44
   0  -2  -2  511.02    5.37
   0  -2   2  504.32    7.20
   0   2   3  204.11    4.62
   0   2  -3  194.91    3.94
   0   2   3  207.27    3.71
   0  -2  -3  203.74    3.30
   0  -2   3  200.01    4.77
   0   2   4  191.69    5.13
   0   2   4  188.75    3.85
   0   2  -4  197.66    4.42
   0  -2   4  201.54    5.45
   0  -2  -4  204.01    3.87
   0   2   5    0.46    0.48
   0   2  -5    1.18    0.60
   0  -2   5    0.55    0.55
   0  -2  -5    1.08    0.60
   0   2  -6  398.71    7.79
   0   2   6  401.43    9.73
   0  -2   6  414.25   10.02
   0   2   7    6.33    1.60
   0   2  -7    7.26    1.30
   0  -2   7    8.69    1.93
   0   2   8    7.89    2.02
   0  -2   8    8.46    2.23
   0   3   0    0.20    0.24
   0   3   0    0.09    0.12
   0   3   1  399.33    4.05
   0   3   1  401.97    5.26
   0   3  -1  399.13    5.09
   0   3  -1  406.73    4.56
   0   3  -2  149.21    1.95
   0   3  -2  151.22    3.13
   0   3   2  147.88    3.01
   0  -3   2  143.95    3.44
   0  -3  -2  152.88    2.09
   0   3   3  165.52    3.52
   0   3   3  166.46    4.20
   0   3  -3  157.05    3.62
   0  -3   3  162.65    4.32
   0  -3  -3  155.54    2.58
   0   3   4  112.73    3.08
   0   3   4  114.43    3.90
   0   3  -4  122.05    3.49
   0  -3  -4  116.93    2.74
   0  -3   4  111.63    4.03
   0   3   5   89.06    2.92
   0   3  -5   90.24    3.31
   0   3   5   91.72    3.95
   0  -3   5   91.67    4.10
   0   3  -6    0.02    0.52
   0   3   6    0.28    0.63
   0  -3   6    0.31    0.64
   0   3   7  114.94    5.45
   0   3  -7  124.08    4.51
   0  -3   7  120.33    5.77
   0   3   8   32.65    3.85
   0  -3   8   31.84    3.94
   0   4   0  946.07    9.52
   0   4   0  957.55   10.23
   0   4  -1   37.61    1.32
   0   4   1   37.43    1.46
   0   4   1   36.84    0.90
   0   4  -1   38.15    1.23
   0   4   2  104.63    2.73
   0   4  -2  102.79    1.83
   0   4  -2  104.52    2.67
   0  -4  -2  100.37    1.55
   0  -4   2  108.37    3.06
   0   4  -3  272.16    5.15
   0   4   3  265.99    4.99
   0   4   3  263.95    5.57
   0  -4   3  263.73    5.75
   0  -4  -3  269.68    3.53
   0   4   4  100.77    3.10
   0   4  -4   95.72    3.22
   0   4   4  103.31    3.73
   0  -4   4   98.63    3.90
   0   4  -5    4.09    0.98
   0   4   5    3.49    0.99
   0   4   5    4.01    0.86
   0  -4   5    5.01    1.28
   0   4   6   43.05    3.13
   0   4  -6   49.70    2.73
   0  -4   6   47.26    3.38
   0   4   7   17.28    2.67
   0   4  -7   11.69    1.73
   0  -4   7   11.59    2.27
   0   4   8   76.99    4.91
   0   4  -8   67.64    3.71
   0  -4   8   71.96    4.97
   0   5   0   -0.12    0.11
   0   5   0    0.07    0.25
   0   5   1  199.34    3.95
   0   5  -1  203.17    3.55
   0   5  -1  191.97    3.39
   0   5   1  203.62    2.82
   0   5   2   30.84    1.57
   0   5  -2   31.63    1.53
   0   5  -2   38.87    1.25
   0  -5  -2   33.11    0.85
   0   5   3  119.69    3.65
   0   5   3  114.66    3.34
   0   5  -3  125.99    3.49
   0  -5   3  120.66    3.88
   0  -5  -3  126.47    2.06
   0   5  -4    5.45    0.99
   0   5   4    5.16    0.94
   0   5   4    6.04    1.11
   0  -5   4    5.88    1.18
   0   5   5  306.46    6.41
   0   5  -5  292.94    6.56
   0   5   5  292.14    7.41
   0  -5   5  315.22    8.08
   0   5   6   -0.14    0.49
   0   5  -6    0.27    0.62
   0  -5   6    0.17    0.59
   0   5   7   43.25    3.45
   0   5  -7   41.80    2.77
   0  -5   7   43.67    3.67
   0   6   0  949.15   10.26
   0   6   0  944.27   11.19
   0   6   1   46.10    1.29
   0   6   1   48.20    1.99
   0   6   2  165.25    4.07
   0   6  -2  154.62    3.63
   0   6  -2  161.35    3.04
   0  -6  -2  159.31    2.28
   0   6   3  202.68    4.82
   0   6  -3  194.31    4.53
   0  -6   3  197.01    5.25
   0   6  -4   80.09    3.10
   0   6   4   80.46    3.13
   0   6   4   75.43    3.36
   0  -6   4   85.59    3.76
   0   6   5    8.79    1.57
   0   6  -5    7.42    1.30
   0   6   5    9.87    1.42
   0  -6   5   10.96    1.86
   0   6  -6   49.68    2.86
   0   6   6   58.60    3.61
   0  -6   6   53.05    3.72
   0   6  -7   19.24    2.30
   0   6   7   17.19    2.71
   0  -6   7   16.14    2.71
   0   7   0   -0.21    0.28
   0   7   0    0.70    0.30
   0   7  -1  293.62    5.07
   0   7   1  311.69    5.85
   0   7   1  306.40    4.32
   0   7  -1  300.39    5.16
   0   7  -2   10.18    1.14
   0   7  -2   11.99    1.09
   0   7   2   10.62    0.61
   0   7   2   11.57    1.34
   0   7   3  102.46    3.54
   0   7  -3   99.53    3.28
   0   7  -4    5.94    1.05
   0   7   4    6.84    1.33
   0   7   4    7.92    1.30
   0  -7   4    7.75    1.47
   0   7  -5   24.94    2.32
   0   7   5   30.02    2.39
   0   7   5   25.28    2.39
   0  -7   5   30.34    2.58
   0   7   6    0.06    0.68
   0   7   6    0.52    0.75
   0   7  -6    0.71    0.59
   0  -7   6    0.21    0.67
   0   7  -7   94.14    4.40
   0   7   7   89.81    5.04
   0  -7   7   89.56    5.28
   0   8   0   31.68    1.46
   0   8   0   30.76    1.77
   0   8  -1   11.87    1.17
   0   8   1   11.17    0.79
   0   8  -1   11.74    1.25
   0   8   1   12.48    1.41
   0   8  -2  141.26    3.38
   0   8   2  131.99    4.05
   0   8  -2  141.29    3.79
   0   8   3   12.41    1.60
   0   8  -3   12.13    1.43
   0   8  -4   71.69    3.13
   0   8   4   75.28    3.37
   0   8   4   74.48    3.47
   0   8   5   10.47    1.80
   0   8  -5    8.93    1.52
   0   8   5    7.47    1.40
   0   8   6  108.47    4.55
   0   8  -6  101.16    4.38
   0   8   6  105.41    4.96
   0  -8   6  103.24    5.29
   0   8   7    1.68    1.22
   0   8  -7    2.57    0.99
   0  -8   7    1.22    1.11
   0   9   0    0.15    0.40
   0   9   0    0.37    0.31
   0   9   1  103.47    2.54
   0   9   1  101.39    3.58
   0   9  -1  102.38    3.24
   0   9  -1   98.88    3.02
   0   9  -2    1.57    0.58
   0   9  -2    0.86    0.48
   0   9   2    1.33    0.60
   0   9   3   94.74    3.82
   0   9  -3   84.04    3.27
   0   9   4    1.46    0.70
   0   9  -4    1.51    0.70
   0   9   4    3.20    1.00
   0   9  -5  198.51    5.97
   0   9   5  189.98    5.99
   0   9   5  188.37    6.22
   0   9  -6    0.34    0.58
   0   9   6    0.39    0.86
   0   9   6    0.53    0.90
   0  10   0  253.61    4.94
   0  10   0  252.05    5.90
   0  10   1    3.81    0.94
   0  10  -1    4.06    0.87
   0  10  -1    4.23    0.92
   0  10   2   82.06    3.52
   0  10  -2   81.91    3.12
   0  10  -2   81.81    2.92
   0  10  -3    0.35    0.43
   0  10   3   -0.06    0.43
   0  10  -4   50.32    2.84
   0  10   4   52.56    3.12
   0  10   4   56.32    3.21
   0  10   5    2.46    1.01
   0  10  -5    2.79    0.94
   0  10   6   38.47    3.55
   0  10  -6   34.12    3.24
   0  11   0    0.39    0.49
   0  11   0    0.27    0.45
   0  11  -1  114.34    3.87
   0  11  -1  115.26    3.63
   0  11   1  105.81    4.05
   0  11   2    3.67    1.00
   0  11  -2    2.43    0.76
   0  11  -3   61.81    3.03
   0  11   3   62.61    3.42
   0  11   4    1.25    0.86
   0  11  -4    0.05    0.52
   0  11   5   42.61    3.10
   0  11  -5   37.62    3.32
   0  11   6   -0.30    0.85
   0  11  -6    1.04    0.88
   0  12   0  195.79    5.65
   0  12  -1    1.48    0.70
   0  12  -1    2.85    0.92
   0  12   1    2.39    0.90
   0  12  -2   70.33    3.18
   0  12   2   77.40    3.82
   0  12   3   30.86    3.04
   0  12  -3   25.56    2.41
   0  12   4   51.57    3.41
   0  12  -4   47.06    2.95
   0  12  -5    0.19    0.69
   0  12   5    1.61    1.05
   0  13   0    0.65    0.62
   0  13  -1   80.14    3.66
   0  13   1   74.65    3.80
   0  13  -1   83.86    3.83
   0  13   2    3.42    1.16
   0  13  -2    2.81    0.99
   0  13   3   51.35    3.39
   0  13  -3   56.75    3.20
   0  13   4    1.93    1.04
   0  13  -4    2.53    0.99
   0  13  -5   34.88    3.39
   0  13   5   36.79    3.71
   0  14   0   14.60    2.06
   0  14  -1    4.76    1.28
   0  14   1    5.65    1.37
   0  14  -2   65.52    3.35
   0  14   2   56.18    3.57
   0  14   3    6.59    1.67
   0  14  -3    6.33    1.39
   0  14   4   46.88    3.53
   0  14  -4   39.84    3.45
   0  15   0    0.50    0.76
   0  15   1   46.57    3.35
   0  15   2    1.03    0.92
   0  15  -3   35.82    3.31
   0  15   3   33.89    3.58
   0  16   0  117.89    5.31
   0  16   1    3.61    1.30
   0  16   2   32.58    3.64
  -1   0   8   -0.29    0.86
  -1   0   7  114.55    5.48
  -1   0   6   -0.37    0.57
   1   0  -5    0.57    0.34
  -1   0   5   85.09    3.90
   1   0  -4    0.36    0.23
  -1   0   4    0.86    0.28
  -1   0   4    0.27    0.37
   1   0  -3    0.20    0.16
  -1   0   3   96.79    1.87
  -1   0   3   97.09    3.16
  -1   0   2    0.02    0.15
   1   0  -2   -0.06    0.10
  -1   0   2    0.05    0.21
   1   0  -1   -0.02    0.08
   1   0   0    0.25    0.11
   1   0   1  201.26    3.13
   1   0   1  191.88    2.89
  -1   0  -1  186.78    2.73
   1   0   2    0.02    0.13
   1   0   2    0.18    0.20
  -1   0  -2    0.54    0.24
   1   0   3  999.31   10.87
   1   0   3 1000.00   12.82
  -1   0  -3  924.88   10.63
   1   0   4    0.09    0.27
  -1   0  -4   -0.11    0.30
   1   0   4    0.11    0.36
   1   0   5   94.91    4.05
  -1   0  -5  108.68    3.60
  -1   0  -6   -0.99    0.72
   1   0   6    0.05    0.59
   1   0   7   42.89    3.38
   1   0   8    0.28    1.07
  -1   1   8   45.36    4.65
  -1  -1   8   45.64    4.74
  -1   1   7    1.76    1.02
  -1  -1   7    2.75    1.18
   1   1  -6   48.94    2.40
  -1   1   6   49.99    3.34
  -1  -1   6   58.42    3.57
  -1   1   5    4.04    1.11
   1   1  -5    3.35    0.73
   1  -1  -5    3.87    0.71
  -1  -1   5    3.89    1.12
  -1   1   4  119.04    2.59
   1   1  -4  119.26    3.08
   1  -1  -4  118.45    2.74
  -1  -1   4  118.58    4.09
  -1   1   3    9.87    0.72
  -1   1   3   11.04    1.30
   1   1  -3   10.19    0.98
  -1  -1   3   10.26    0.46
  -1  -1   3    9.10    1.15
   1  -1  -3    9.74    0.66
  -1   1   2  443.05    5.30
   1   1  -2  426.62    5.45
  -1  -1   2  431.50    6.39
  -1  -1   2  430.53    4.46
   1  -1  -2  430.03    4.86
   1   1  -1    2.25    0.34
  -1   1   1    1.72    0.31
   1  -1  -1    2.23    0.25
  -1  -1   1    2.06    0.34
  -1   1   0  211.94    2.64
   1   1   0  215.86    2.93
   1   1   0  212.03    2.94
   1   1   1   10.81    0.64
  -1   1  -1   10.79    0.59
   1   1   1   10.67    0.58
  -1  -1  -1    9.92    0.54
   1   1   2  174.64    3.49
   1   1   2  177.53    3.17
  -1   1  -2  175.73    3.20
   1  -1   2  176.16    3.75
  -1  -1  -2  178.95    3.01
  -1   1  -3   14.15    1.21
   1   1   3   15.67    0.97
   1   1   3   16.83    1.24
   1  -1   3   17.78    1.38
  -1  -1  -3   15.11    0.94
   1  -1   3   15.02    0.82
   1   1   4  128.30    3.10
  -1   1  -4  126.90    3.48
   1   1   4  127.08    4.08
  -1  -1  -4  128.35    3.21
   1  -1   4  128.40    2.72
   1  -1   4  126.24    4.22
  -1   1  -5    1.26    0.78
   1   1   5    0.66    0.59
   1  -1   5    0.32    0.44
  -1  -1  -5    1.62    0.74
  -1   1  -6   74.61    3.31
   1   1   6   82.81    4.21
  -1  -1  -6   87.33    3.46
   1  -1   6   79.05    4.19
   1   1   7   14.79    2.38
  -1   1  -7   15.97    2.01
   1  -1   7   13.38    2.40
   1   1   8   58.10    4.32
   1  -1   8   58.39    4.45
  -1   2   8   -0.05    0.88
  -1  -2   8   -0.23    0.89
  -1   2   7   71.68    4.47
  -1  -2   7   73.56    4.52
  -1   2   6    3.90    1.21
   1   2  -6    2.12    0.68
  -1  -2   6    4.36    1.39
   1   2  -5  105.08    3.36
  -1   2   5  101.18    4.26
  -1  -2   5  105.14    4.31
  -1   2   4    1.71    0.71
   1   2  -4    1.13    0.45
  -1   2   4    1.74    0.48
   1  -2  -4    1.16    0.35
  -1  -2   4    1.41    0.58
  -1   2   3  289.21    4.59
   1   2  -3  282.65    4.81
  -1   2   3  283.39    5.91
  -1  -2   3  284.00    5.81
   1  -2  -3  276.58    3.76
  -1   2   2    1.50    0.38
   1   2  -2    1.96    0.40
   1  -2  -2    2.30    0.27
  -1  -2   2    1.20    0.37
   1   2  -1  180.86    2.50
   1   2  -1  181.19    2.98
  -1   2   1  191.83    3.14
  -1  -2   1  191.04    2.99
  -1   2   0   83.47    1.82
   1   2   0   81.43    1.74
   1   2   0   79.41    1.67
  -1   2   0   81.86    1.42
   1   2   1  197.35    2.79
  -1   2  -1  188.66    2.98
   1   2   1  193.18    3.30
  -1  -2  -1  190.91    2.82
   1   2   2    3.12    0.51
   1   2   2    2.59    0.51
  -1   2  -2    3.98    0.57
   1  -2   2    6.64    0.92
   1   2   3  154.28    3.94
   1   2   3  155.84    3.43
   1  -2   3  159.23    4.27
   1   2   4    0.92    0.39
   1   2   4    1.02    0.55
  -1   2  -4    2.05    0.73
   1  -2   4    0.27    0.45
   1   2   5  100.89    3.13
   1   2   5  102.74    4.08
   1  -2   5  101.57    4.36
  -1  -2  -5   35.21    1.85
  -1   2  -6   24.13    2.39
   1   2   6   28.30    2.45
   1  -2   6   20.60    2.64
  -1   2  -7   44.10    2.84
   1   2   7   40.91    3.31
   1  -2   7   37.26    3.90
   1   2   8    0.53    1.01
   1  -2   8    0.38    1.03
  -1   3   8   41.16    4.42
  -1  -3   8   33.48    4.08
  -1   3   7    0.49    0.83
   1   3  -7    0.31    0.63
  -1  -3   7   -0.04    0.78
   1   3  -6   51.32    2.64
  -1   3   6   53.70    3.48
  -1  -3   6   45.33    3.25
   1   3  -5    2.11    0.68
  -1   3   5    2.19    0.84
  -1  -3   5    1.64    0.77
  -1   3   4  130.64    3.28
   1   3  -4  130.74    3.59
  -1   3   4  131.67    4.47
  -1  -3   4  131.43    4.35
  -1   3   3   -0.23    0.25
   1   3  -3    0.37    0.31
  -1   3   3   -0.03    0.26
  -1  -3   3   -0.01    0.24
   1  -3  -3    0.10    0.15
  -1   3   2  747.91    8.89
   1   3  -2  694.52    6.76
   1   3  -2  699.60    8.52
  -1  -3   2  727.03    9.27
   1   3  -1    0.48    0.19
   1   3  -1    0.18    0.17
  -1   3   1    0.58    0.28
  -1  -3   1    0.46    0.19
   1   3   0  317.83    4.39
   1   3   0  313.24    4.24
  -1   3   0  302.53    3.65
  -1   3   0  304.20    4.31
   1   3   1    3.82    0.56
   1   3   1    4.70    0.38
  -1   3  -1    3.19    0.46
   1   3   1    3.84    0.47
  -1   3  -1    1.92    0.37
   1   3   2  154.31    3.17
  -1   3  -2  146.40    3.17
   1   3   2  154.43    3.32
  -1  -3  -2  152.30    2.69
   1  -3   2  155.53    3.84
  -1   3  -3    1.19    0.51
   1   3   3    0.19    0.26
   1   3   3    0.39    0.29
  -1  -3  -3    0.26    0.21
   1  -3   3    0.41    0.38
   1   3   4  171.61    4.79
  -1   3  -4  172.30    4.55
   1   3   4  176.91    4.19
  -1  -3  -4  169.47    3.57
   1  -3   4  170.69    5.16
   1   3   5    0.73    0.55
  -1   3  -5    1.13    0.85
   1   3   5    1.10    0.54
  -1  -3  -5    1.00    0.54
   1  -3   5    1.37    0.74
   1   3   6   41.88    2.94
  -1   3  -6   47.78    2.83
   1  -3   6   47.08    3.29
   1   3   7    0.73    0.78
  -1   3  -7    0.62    0.81
   1  -3   7   -0.11    0.65
   1   3   8   37.16    4.12
  -1   3  -8   41.51    3.47
   1  -3   8   41.42    4.65
   1   4  -7   60.46    3.22
  -1   4   7   71.32    4.51
  -1  -4   7   58.29    4.10
   1   4  -6   13.40    1.78
  -1   4   6   12.51    2.10
  -1  -4   6   11.22    1.95
  -1   4   5   88.81    3.08
  -1   4   5   92.52    4.11
   1   4  -5   84.20    3.23
  -1  -4   5   85.61    4.01
  -1   4   4    3.19    0.71
   1   4  -4    4.19    0.82
  -1   4   4    3.39    0.96
  -1  -4   4    5.18    1.07
  -1   4   3  208.82    4.36
   1   4  -3  208.43    4.43
  -1  -4   3  215.90    5.06
  -1   4   2   -0.10    0.32
   1   4  -2    0.31    0.17
   1   4  -2    0.69    0.31
  -1  -4   2    0.26    0.22
   1   4  -1  160.66    3.20
   1   4  -1  162.42    2.83
  -1   4   1  156.30    3.28
  -1  -4   1  151.88    2.80
   1   4   0  106.37    2.28
   1   4   0  108.01    2.45
  -1   4   0  101.44    2.01
  -1   4   0  109.54    2.50
   1   4   1  154.88    3.30
  -1   4  -1  150.70    2.86
  -1   4  -1  148.89    2.98
   1   4   1  153.61    2.71
  -1   4  -2    0.37    0.41
  -1   4  -2    0.18    0.20
   1   4   2    0.29    0.26
   1   4   2    0.37    0.23
  -1  -4  -2    0.65    0.26
  -1   4  -3  197.23    3.18
   1   4   3  198.72    4.44
   1   4   3  197.34    4.39
  -1   4  -3  194.41    4.53
  -1  -4  -3  197.82    3.44
   1  -4   3  195.66    5.13
   1   4   4    2.52    0.75
  -1   4  -4    2.04    0.87
   1   4   4    0.81    0.45
   1  -4   4    2.01    0.75
  -1  -4  -4    1.50    0.45
   1   4   5  116.68    4.44
  -1   4  -5  125.50    4.22
   1   4   5  123.24    3.85
   1  -4   5  118.93    4.94
   1   4   6   41.12    2.95
  -1   4  -6   44.60    2.82
   1  -4   6   44.20    3.37
  -1   4  -7   40.22    2.82
   1   4   7   34.91    3.02
   1  -4   7   29.23    3.56
   1   5  -7    6.35    1.39
  -1   5   7    2.56    1.26
  -1  -5   7    3.09    1.41
  -1   5   6   63.68    3.83
   1   5  -6   59.43    3.08
  -1  -5   6   55.89    3.71
  -1   5   5    0.13    0.46
  -1   5   5    0.44    0.50
   1   5  -5    0.93    0.60
  -1  -5   5    0.25    0.56
  -1   5   4   73.08    2.79
  -1   5   4   75.09    3.43
   1   5  -4   73.20    2.89
  -1  -5   4   75.37    3.36
  -1   5   3    4.53    0.86
   1   5  -3    3.72    0.76
  -1  -5   3    6.27    1.09
  -1   5   2  431.68    6.88
   1   5  -2  420.84    6.50
   1   5  -2  418.16    5.19
  -1  -5   2  427.81    6.75
  -1   5   1    3.66    0.68
   1   5  -1    3.35    0.51
  -1   5   1    4.20    0.35
   1   5  -1    3.65    0.61
  -1   5   0  109.21    2.19
  -1   5   0  111.12    2.76
   1   5   0  115.98    2.57
   1   5   0  118.08    2.81
  -1   5  -1    4.94    0.68
  -1   5  -1    5.07    0.73
   1   5   1    6.78    0.68
   1   5   1    4.98    0.78
  -1   5  -2  128.47    3.32
   1   5   2  133.42    3.07
  -1   5  -2  131.40    2.79
   1   5   2  138.32    3.55
  -1  -5  -2  132.32    2.54
  -1   5  -3   13.02    0.84
   1   5   3   11.99    1.37
  -1   5  -3   16.84    1.65
  -1  -5  -3   12.07    0.80
   1   5   4  101.89    3.60
   1   5   4  102.41    3.43
  -1   5  -4  106.67    3.66
   1  -5   4   97.58    4.08
   1   5   5    1.69    0.72
   1   5   5    1.54    0.71
  -1   5  -5    1.03    0.80
   1  -5   5    1.15    0.76
   1   5   6   97.67    4.54
  -1   5  -6   85.74    3.85
   1  -5   6   93.14    4.87
  -1   5  -7   21.65    2.43
   1   5   7   25.10    3.04
   1  -5   7   22.60    3.14
   1   6  -7  121.87    4.93
  -1   6   7  121.34    5.82
  -1  -6   7  106.66    5.57
  -1   6   6   26.93    3.07
   1   6  -6   28.84    2.64
  -1  -6   6   36.85    3.04
  -1   6   5   87.61    3.46
  -1   6   5   85.73    4.19
   1   6  -5   85.18    3.52
  -1  -6   5   88.46    4.16
   1   6  -4   36.95    2.15
  -1   6   4   44.60    2.73
  -1   6   4   46.39    2.38
  -1  -6   4   46.93    2.70
   1   6  -3   97.98    3.20
  -1   6   3   91.17    3.17
  -1  -6   3   85.22    3.25
   1   6  -2    3.10    0.51
  -1   6   2    2.91    0.77
   1   6  -2    2.33    0.60
  -1  -6   2    2.50    0.62
  -1   6   1  156.50    3.81
  -1   6   1  156.66    2.30
   1   6   0  197.95    4.07
  -1   6   0  190.06    4.05
   1   6   0  193.78    3.68
  -1   6   0  195.70    3.26
   1   6   1  125.58    2.68
  -1   6  -1  124.05    2.93
  -1   6  -1  124.21    3.02
   1   6   1  122.07    3.32
   1   6   2   33.40    1.82
  -1   6  -2   34.28    1.78
   1   6   2   33.21    1.53
  -1   6  -2   33.46    1.44
  -1  -6  -2   29.76    1.21
  -1   6  -3  688.75   10.02
   1   6   3  685.68    9.78
   1   6   3  686.68   10.26
  -1   6  -3  677.94    8.18
  -1  -6  -3  678.23    7.99
   1   6   4    6.06    1.11
  -1   6  -4    5.19    1.10
   1   6   4    5.36    1.08
  -1   6  -5   56.97    2.97
   1   6   5   54.23    3.04
   1   6   5   59.31    2.85
   1  -6   5   49.19    3.31
  -1   6  -6   49.18    2.96
   1   6   6   51.77    3.45
   1   6   6   53.67    3.43
   1  -6   6   52.45    3.77
  -1   6  -7   39.39    3.34
   1   6   7   34.38    3.58
   1  -6   7   41.01    4.36
  -1   7   7   15.78    2.57
   1   7  -7   19.81    2.55
  -1  -7   7   15.17    2.72
   1   7  -6   38.51    3.21
  -1   7   6   37.78    3.06
  -1  -7   6   43.16    3.45
  -1   7   5   14.51    2.20
  -1   7   5   13.00    1.72
   1   7  -5   13.94    1.79
  -1  -7   5   12.54    1.98
   1   7  -4  175.13    4.93
  -1   7   4  172.30    4.89
  -1  -7   4  162.31    5.22
  -1   7   3   19.97    1.96
   1   7  -3   17.21    1.72
  -1  -7   3   18.75    1.95
   1   7  -2   51.56    1.80
   1   7  -2   51.48    2.22
  -1   7   2   53.78    2.47
  -1   7   1   35.04    1.91
   1   7  -1   34.04    1.68
  -1   7   1   33.87    1.08
  -1   7   0  220.59    3.70
  -1   7   0  222.76    4.70
   1   7   0  220.88    4.66
   1   7   0  228.10    4.25
  -1   7  -1  107.90    3.01
  -1   7  -1  103.71    2.78
   1   7   1  102.64    3.24
   1   7   1  108.71    2.61
  -1   7  -2  175.54    4.15
  -1   7  -2  177.84    3.79
   1   7   2  176.10    4.56
   1   7   2  172.76    3.32
   1   7   3   19.67    1.90
   1   7   3   20.67    1.52
  -1   7  -3   19.47    1.82
  -1   7  -4  204.58    5.39
  -1   7  -5   25.14    2.39
   1   7   5   21.06    2.37
   1   7   5   20.33    2.19
   1   7   6   40.54    3.01
   1   7   6   33.48    2.54
  -1   7  -6   33.18    2.98
   1   7   7   58.94    4.01
  -1   7  -7   60.59    3.56
   1  -7   7   65.09    4.61
   1   8  -7   13.86    2.15
  -1   8   7   16.53    2.83
  -1  -8   7   16.03    2.70
  -1   8   6   20.37    2.71
   1   8  -6   21.32    2.44
  -1   8   6   25.03    2.98
  -1  -8   6   21.85    2.88
  -1   8   5   54.20    3.50
   1   8  -5   52.02    2.95
  -1   8   5   55.60    3.08
  -1  -8   5   55.67    3.47
   1   8  -4   17.14    1.90
  -1   8   4   21.02    2.20
  -1  -8   4   24.69    2.53
   1   8  -3  373.06    7.29
  -1   8   3  399.13    7.87
   1   8  -2    4.91    0.77
   1   8  -2    5.09    0.93
  -1   8   2    4.39    1.00
   1   8  -1  205.78    4.51
   1   8  -1  197.98    4.40
  -1   8   1  203.70    3.27
  -1   8   1  204.72    5.07
  -1   8   0   29.14    1.31
   1   8   0   30.39    1.77
  -1   8   0   30.56    1.81
   1   8   0   30.08    1.51
  -1   8  -1  138.28    3.72
  -1   8  -1  140.91    3.40
   1   8   1  145.63    3.25
   1   8   1  142.01    4.10
  -1   8  -2   45.76    2.01
   1   8   2   42.66    2.32
  -1   8  -2   42.26    2.08
   1   8   2   45.69    1.69
  -1   8  -3    2.46    0.78
   1   8   3    3.83    0.88
   1   8   3    4.80    1.04
   1   8   4    1.90    0.78
  -1   8  -4    2.02    0.82
   1   8   4    1.74    0.79
   1   8   5  157.67    5.25
  -1   8  -5  153.08    5.13
  -1   8  -6    9.83    1.71
   1   8   6    6.92    1.55
  -1   8  -7   31.16    3.16
   1   9  -6   43.79    3.04
  -1   9   6   46.70    3.19
  -1   9   6   47.75    3.55
  -1  -9   6   49.73    3.76
  -1   9   5   34.89    2.87
  -1   9   5   38.55    2.71
   1   9  -5   35.97    3.09
   1   9  -4   51.89    2.87
  -1   9   4   46.99    2.79
  -1   9   3   11.29    1.61
   1   9  -3   13.98    1.75
   1   9  -2  527.78    7.97
   1   9  -2  542.31    8.98
  -1   9   2  492.27    8.98
  -1   9   1   42.50    2.39
   1   9  -1   42.00    2.07
   1   9  -1   46.23    2.18
   1   9   0   86.96    2.77
  -1   9   0   81.82    2.37
  -1   9   0   83.59    3.19
   1   9   0   85.41    3.16
  -1   9  -1   67.05    2.36
  -1   9  -1   66.69    2.75
   1   9   1   72.50    3.07
   1   9   1   69.10    2.30
   1   9   2  103.95    3.86
  -1   9  -2   94.76    3.13
  -1   9  -2  104.89    3.33
  -1   9  -3   19.52    1.93
   1   9   3   16.94    1.98
  -1   9  -4   72.04    3.31
   1   9   4   63.14    3.34
   1   9   5   18.68    2.30
  -1   9  -5   17.09    2.05
  -1   9  -6   49.14    3.15
   1   9   6   58.21    3.48
  -1  10   6    5.03    1.55
  -1  10   6    6.41    1.66
   1  10  -6    9.53    1.90
  -1  10   5   84.54    4.47
   1  10  -5   70.92    3.69
  -1  10   5   80.01    4.04
  -1  10   4   20.08    2.31
   1  10  -4   23.51    2.46
   1  10  -3   87.22    3.62
  -1  10   3   72.74    3.49
   1  10  -2    2.54    0.74
  -1  10   2    2.96    0.96
  -1  10   1  122.17    4.22
   1  10  -1  125.38    3.88
   1  10  -1  123.30    3.76
  -1  10   0   10.86    1.12
  -1  10   0    9.89    1.44
   1  10   0    9.42    1.19
   1  10   0   12.67    1.60
  -1  10  -1   58.39    2.74
   1  10   1   53.63    2.78
   1  10   1   49.71    2.05
  -1  10  -1   51.60    2.20
   1  10   2   27.65    2.10
   1  10   3  444.83    9.34
  -1  10  -3  450.50    8.43
  -1  10  -4    0.80    0.58
   1  10   4    0.82    0.70
  -1  10  -5   33.89    3.02
   1  10   5   36.69    2.80
   1  10   6    1.07    1.01
  -1  10  -6    1.42    0.81
  -1  11   6   20.65    2.96
   1  11  -6   24.45    2.92
  -1  11   6   27.21    3.08
  -1  11   5  109.26    5.21
  -1  11   5  102.55    4.78
   1  11  -5   99.12    4.57
  -1  11   4   62.02    3.50
   1  11  -4   70.34    3.59
   1  11  -3   12.68    1.76
  -1  11   3   13.43    1.92
  -1  11   2   43.18    2.75
   1  11  -2   38.79    2.34
  -1  11   1   58.86    3.06
   1  11  -1   65.65    2.96
   1  11  -1   58.97    2.73
  -1  11   0   86.67    3.59
   1  11   0  104.94    3.36
   1  11   0   99.63    3.83
  -1  11  -1  153.64    4.69
  -1  11  -1  163.71    4.21
   1  11   1  161.50    5.16
   1  11   2   89.79    3.95
   1  11   3    5.21    1.31
  -1  11  -3    4.86    1.08
  -1  11  -4   69.22    3.37
   1  11   4   77.97    4.05
  -1  11  -5   54.74    3.24
   1  11   5   52.74    3.53
  -1  11  -6   38.68    3.49
   1  11   6   38.20    3.64
   1  12  -5   22.31    2.70
  -1  12   5   27.02    3.12
  -1  12   4    6.83    1.55
   1  12  -4    6.03    1.39
   1  12  -3  223.08    6.38
  -1  12   3  211.61    6.59
   1  12  -2   -0.24    0.54
  -1  12   2   -0.29    0.50
   1  12  -1  186.27    5.13
  -1  12   1  181.35    5.67
   1  12  -1  192.59    5.44
  -1  12   0   21.44    2.24
   1  12   0   25.06    2.13
   1  12   0   22.65    2.37
  -1  12  -1  112.92    3.60
   1  12   1  104.29    4.30
  -1  12  -1  103.87    4.00
   1  12   2    0.58    0.71
  -1  12  -2    0.10    0.48
  -1  12  -3    6.18    1.25
   1  12   3    6.62    1.54
   1  12   4    2.64    1.03
  -1  12  -4    0.42    0.63
  -1  12  -5  141.34    5.43
   1  12   5  144.41    6.00
   1  13  -5   89.76    4.66
  -1  13   5   78.20    4.54
  -1  13   4   60.85    3.84
   1  13  -4   60.80    3.66
  -1  13   3    6.86    1.51
   1  13  -3    5.26    1.24
   1  13  -2   46.01    2.79
  -1  13   2   47.78    3.14
   1  13  -1   41.25    2.68
  -1  13   1   39.72    2.76
   1  13  -1   46.47    2.63
   1  13   0   77.51    3.73
  -1  13   0   75.26    3.68
  -1  13  -1   69.99    3.44
   1  13   1   69.15    3.67
   1  13   2   83.89    4.22
  -1  13  -2   81.10    3.43
  -1  13  -3    2.29    0.91
   1  13   3    4.04    1.28
  -1  13  -4   87.80    4.15
   1  13   4   80.69    4.49
   1  13   5   19.71    2.78
  -1  13  -5   23.34    2.76
   1  14  -4    4.75    1.47
  -1  14   4    6.07    1.68
  -1  14   3   27.80    3.05
   1  14  -3   36.80    3.26
  -1  14   2    2.06    0.82
   1  14  -2    1.38    0.82
   1  14  -1   79.58    3.85
  -1  14   1   76.49    3.98
   1  14   0   20.17    2.47
  -1  14   0   20.03    2.37
  -1  14  -1   36.19    2.59
   1  14   1   38.94    3.55
   1  14   2   12.76    2.11
  -1  14  -3  137.01    4.98
   1  14   3  156.81    6.25
  -1  14  -4    1.46    0.94
   1  14   4    1.36    1.02
  -1  15   3    5.11    1.51
   1  15  -3    2.78    1.22
   1  15  -2  231.48    6.77
  -1  15   2  201.53    7.01
  -1  15   1   23.42    2.74
  -1  15   0   38.43    2.89
   1  15   0   40.02    2.98
  -1  15  -1   81.13    4.03
   1  15   1   78.82    4.28
   1  15   2   45.55    3.46
  -1  15  -3    2.14    1.12
   1  15   3    3.10    1.45
  -1  16   1   70.78    4.18
   1  16   0   30.17    3.23
  -1  16   0   42.90    3.23
   1  16   1   46.73    4.23
  -2   0   8   45.09    3.90
  -2   0   7   -0.22    0.78
  -2   0   6  111.47    5.13
  -2   0   5    0.04    0.48
   2   0  -5    0.16    0.42
  -2   0   4  806.74   12.53
   2   0  -4  860.63   10.60
  -2   0   3    0.09    0.22
   2   0  -3    0.20    0.22
  -2   0   3    0.00    0.27
   2   0  -2   -0.07    0.13
   2   0  -1   -0.05    0.13
   2   0   0  351.83    4.78
  -2   0   0  329.41    4.53
  -2   0  -1    0.11    0.17
  -2   0  -2  223.39    4.00
   2   0   2  228.69    4.18
   2   0   2  223.64    4.47
   2   0   3    0.30    0.26
  -2   0  -3   -0.06    0.23
   2   0   3    0.05    0.27
  -2   0  -4  146.98    3.85
   2   0   4  148.52    3.66
   2   0   4  145.48    4.56
  -2   0  -5    0.07    0.41
   2   0   5   -0.06    0.41
   2   0   6  374.43    9.38
  -2   0  -6  385.86    8.00
   2   0   7    0.79    0.85
  -2   0  -7   -3.07    0.81
   2   0   8   31.36    3.88
  -2   1   8   49.64    4.14
  -2  -1   8   52.35    4.32
  -2   1   7   61.87    4.18
  -2  -1   7   64.63    4.29
  -2   1   6   65.82    3.90
  -2  -1   6   73.43    4.16
  -2   1   5  113.37    4.66
   2   1  -5  115.46    3.49
  -2  -1   5  121.54    4.78
   2   1  -4   23.24    1.42
  -2   1   4   24.27    1.96
  -2   1   4   25.83    1.34
  -2  -1   4   23.00    1.86
   2  -1  -4   24.89    1.31
  -2   1   3  112.13    3.71
   2   1  -3  116.21    2.88
  -2   1   3  116.18    2.66
  -2  -1   3  110.94    3.51
   2  -1  -3  116.58    2.55
  -2  -1   3  110.58    2.22
   2   1  -2  133.68    2.85
  -2   1   2  130.94    2.78
  -2  -1   2  133.66    3.32
   2  -1  -2  133.62    2.52
   2   1  -1  171.44    3.14
   2   1   0  284.15    4.26
   2   1   0  279.66    4.40
  -2   1   0  274.76    3.89
  -2   1  -1  419.80    5.63
   2   1   1  437.90    6.16
  -2  -1  -1  426.94    5.68
  -2   1  -2   13.22    0.92
  -2  -1  -2   12.99    0.90
   2   1   3  147.88    3.95
  -2   1  -3  138.04    3.46
   2   1   3  148.80    3.60
   2  -1   3  143.40    4.12
  -2  -1  -3  146.97    3.41
  -2   1  -4  130.53    3.69
   2   1   4  143.25    4.45
   2   1   4  140.82    3.70
   2  -1   4  136.68    4.56
  -2  -1  -4  140.82    3.66
   2   1   5   73.72    2.78
   2   1   5   69.91    3.48
  -2   1  -5   73.39    3.00
   2  -1   5   68.05    3.56
  -2  -1  -5   75.97    2.90
   2   1   6   50.68    3.36
  -2   1  -6   55.43    3.13
  -2  -1  -6   47.87    2.68
   2  -1   6   54.81    3.56
   2   1   7   46.44    3.53
  -2   1  -7   48.07    3.31
   2  -1   7   47.60    3.69
   2   1   8    2.98    1.49
   2  -1   8    0.82    1.31
  -2   2   7   13.12    2.43
  -2  -2   7   12.24    2.23
   2   2  -6  166.76    4.79
  -2   2   6  170.40    6.36
  -2  -2   6  163.64    6.17
  -2   2   5    0.14    0.49
   2   2  -5    0.65    0.46
  -2  -2   5   -0.09    0.46
  -2   2   4   35.06    2.38
   2   2  -4   31.71    1.72
  -2   2   4   35.96    1.70
   2  -2  -4   34.78    1.68
  -2  -2   4   35.87    2.28
   2   2  -3   14.94    1.36
  -2   2   3   17.47    1.13
  -2  -2   3   17.37    1.38
   2  -2  -3   16.83    0.86
   2   2  -2  248.14    4.37
  -2   2   2  250.99    4.35
   2  -2  -2  247.66    3.49
  -2  -2   2  255.90    4.70
   2   2  -1    3.44    0.55
  -2   2   1    3.29    0.41
  -2  -2   1    3.93    0.52
   2   2   0  719.45    8.48
   2   2   0  685.45    8.25
  -2   2   0  708.40    7.78
  -2   2  -1    2.22    0.42
   2   2   1    3.41    0.57
  -2  -2  -1    3.21    0.52
   2   2   2  353.86    5.84
  -2   2  -2  348.84    5.51
   2   2   2  355.80    5.40
  -2  -2  -2  354.27    5.36
   2   2   3   15.39    1.23
  -2   2  -3   14.25    1.36
   2   2   3   13.18    1.31
  -2  -2  -3   12.86    1.16
   2  -2   3   12.23    1.49
  -2   2  -4   63.87    2.61
   2   2   4   65.32    2.57
   2   2   4   66.17    2.90
   2  -2   4   64.48    3.17
  -2  -2  -4   64.97    2.41
  -2   2  -5    2.34    0.86
   2   2   5    3.81    0.89
   2   2   5    5.63    1.28
   2  -2   5    4.13    1.15
  -2  -2  -5    3.56    0.77
   2   2   6   11.60    1.99
  -2   2  -6   10.74    1.85
  -2  -2  -6    9.20    1.40
   2  -2   6   10.02    1.98
   2   2   7   -0.06    0.79
  -2   2  -7   -0.60    0.92
   2  -2   7   -0.32    0.92
  -2   3   7   32.43    3.66
  -2  -3   7   32.87    3.78
  -2   3   6   27.80    3.18
   2   3  -6   33.77    2.27
  -2  -3   6   30.93    3.24
  -2   3   5   81.95    4.06
   2   3  -5   95.32    3.45
  -2  -3   5   88.55    4.03
  -2   3   4   13.77    1.40
  -2   3   4   12.01    1.71
   2   3  -4    9.79    1.24
  -2  -3   4   11.15    1.55
   2   3  -3  124.75    3.38
  -2   3   3  115.05    3.10
   2  -3  -3  129.41    2.26
  -2  -3   3  117.43    3.60
  -2   3   2  121.72    3.09
   2   3  -2  115.89    2.99
  -2  -3   2  119.71    3.02
   2  -3  -2  123.07    1.99
  -2   3   1  150.63    2.35
  -2   3   1  151.18    3.30
  -2  -3   1  151.12    2.67
  -2   3   0  102.84    2.09
   2   3   0  109.65    2.68
   2   3   0  110.14    2.62
   2   3   1  729.24    8.83
   2   3   1  735.81    9.35
  -2   3  -1  703.34    8.38
  -2   3  -2   13.41    1.18
   2   3   2   11.58    1.18
   2   3   2   13.34    0.88
  -2  -3  -2   13.48    0.95
   2   3   3  205.46    4.66
  -2   3  -3  197.57    4.38
   2   3   3  211.62    4.58
  -2  -3  -3  195.90    3.97
  -2   3  -4   92.18    3.19
   2   3   4   89.58    3.14
   2   3   4   88.30    3.35
   2  -3   4   93.09    3.92
  -2  -3  -4   86.27    2.76
   2   3   5   61.53    2.77
   2   3   5   65.16    3.28
  -2   3  -5   65.09    3.14
  -2  -3  -5   60.12    2.52
   2  -3   5   65.36    3.62
   2   3   6   28.42    2.47
  -2   3  -6   34.81    3.06
   2  -3   6   25.57    2.97
  -2   3  -7   71.13    3.97
   2   3   7   73.86    4.34
   2  -3   7   86.22    4.99
   2   4  -7   29.77    2.79
  -2   4   7   27.74    3.47
  -2  -4   7   29.91    3.58
  -2   4   6   57.43    3.73
   2   4  -6   57.89    3.04
  -2  -4   6   53.22    3.55
   2   4  -5    0.80    0.60
  -2   4   5   -0.20    0.52
  -2  -4   5   -0.09    0.44
   2   4  -4  472.96    8.13
  -2   4   4  442.53    7.51
  -2   4   4  443.75    9.34
  -2  -4   4  449.50    8.60
  -2   4   3   35.93    1.82
   2   4  -3   37.16    1.90
  -2  -4   3   39.42    2.04
  -2   4   2  109.11    3.06
   2   4  -2  109.79    3.03
  -2   4   2  107.04    1.58
   2   4  -2  108.11    2.35
  -2  -4   2  101.98    2.76
  -2   4   1    0.33    0.29
  -2   4   1    0.14    0.14
   2   4  -1   -0.02    0.16
   2   4  -1    0.37    0.24
  -2  -4   1    0.13    0.16
  -2   4   0  121.95    2.41
   2   4   0  137.86    3.09
   2   4   0  140.52    3.22
  -2   4   0  127.34    3.13
   2   4   1    0.04    0.18
  -2   4  -1   -0.03    0.16
   2   4   1    0.23    0.13
   2   4   1    0.00    0.18
   2   4   2  225.12    4.75
  -2   4  -2  219.47    4.32
   2   4   2  216.54    3.78
  -2  -4  -2  215.45    3.98
   2   4   3   20.63    1.47
  -2   4  -3   22.82    1.48
   2   4   3   20.15    1.33
  -2  -4  -3   21.20    1.25
   2   4   4  105.53    3.62
   2   4   4  112.49    3.65
   2   4   5    0.39    0.53
   2   4   5    0.46    0.56
  -2   4  -5    0.35    0.97
   2  -4   5    0.47    0.54
  -2  -4  -5    0.45    0.47
  -2   4  -6  228.40    6.60
   2   4   6  236.35    7.04
   2  -4   6  232.01    7.77
   2   4   7   -0.31    0.70
  -2   4  -7    0.42    1.06
   2  -4   7    0.27    0.77
   2   5  -7   70.42    3.73
  -2   5   7   68.20    4.52
  -2  -5   7   70.52    4.54
  -2   5   6   13.22    2.30
   2   5  -6   13.76    1.91
  -2  -5   6   11.37    2.11
   2   5  -5   59.23    2.93
  -2   5   5   59.79    2.75
  -2   5   5   60.39    3.64
  -2  -5   5   59.92    3.37
   2   5  -4    5.18    1.00
  -2   5   4    4.37    1.00
  -2  -5   4    4.62    1.05
   2   5  -3  146.44    4.04
  -2   5   3  136.35    3.81
  -2  -5   3  134.95    3.92
   2   5  -2  142.76    2.93
  -2   5   2  145.34    3.78
   2   5  -2  140.94    3.65
  -2  -5   2  147.28    3.41
  -2   5   1  118.40    2.00
  -2   5   1  112.92    3.20
  -2  -5   1  114.36    2.27
  -2   5   0   18.75    1.23
   2   5   0   17.31    1.10
   2   5   0   16.14    1.13
  -2   5   0   16.80    0.88
   2   5   1  446.68    7.16
  -2   5  -1  442.06    6.71
  -2   5  -1  448.03    6.32
   2   5   1  435.78    6.42
   2   5   2   20.83    1.47
  -2   5  -2   22.55    1.37
  -2   5  -2   23.67    1.33
   2   5   2   24.21    1.13
  -2  -5  -2   22.79    1.23
   2   5   3   78.08    2.60
   2   5   3   78.41    3.01
  -2   5  -3   77.29    2.87
  -2  -5  -3   66.80    2.25
   2   5   4   78.89    3.17
  -2   5  -4   84.89    3.50
   2   5   4   71.68    2.92
  -2  -5  -4   82.70    2.66
  -2   5  -5   55.45    3.13
   2   5   5   52.93    2.92
   2   5   5   50.55    2.70
  -2   5  -6    6.92    1.71
   2   5   6    7.33    1.59
   2  -5   6    7.86    1.83
  -2   5  -7   34.81    3.34
   2   5   7   35.75    3.63
   2  -5   7   32.41    3.88
   2   6  -7   36.45    3.28
  -2   6   7   33.52    3.87
  -2  -6   7   35.37    3.87
   2   6  -6   65.18    3.47
  -2   6   6   71.88    4.33
  -2  -6   6   69.08    4.11
  -2   6   5    4.77    1.39
  -2   6   5    4.64    1.04
   2   6  -5    2.67    0.94
  -2  -6   5    2.76    1.01
   2   6  -4   92.60    3.56
  -2   6   4   87.42    3.43
  -2  -6   4   96.72    3.81
   2   6  -3   51.49    2.44
  -2   6   3   57.29    2.61
  -2  -6   3   56.77    2.55
   2   6  -2  160.10    4.09
  -2   6   2  159.52    4.24
   2   6  -2  154.87    3.27
  -2  -6   2  164.23    3.72
   2   6  -1   36.04    1.63
  -2   6   1   98.89    3.12
  -2   6   1   98.06    1.98
   2   6   0  175.26    3.86
   2   6   0  171.92    4.05
  -2   6   0  176.15    4.18
  -2   6   0  179.74    3.30
  -2   6  -1    1.50    0.51
   2   6   1    2.00    0.57
   2   6   1    1.55    0.43
  -2   6  -1    1.56    0.49
   2   6   2  236.42    5.40
   2   6   2  244.43    4.00
  -2   6  -2  224.08    4.86
  -2   6  -2  232.59    4.60
  -2   6  -3   68.30    2.97
  -2   6  -3   70.64    2.36
   2   6   3   73.30    3.05
   2   6   3   74.59    2.57
  -2  -6  -3   75.96    2.42
   2   6   4   72.24    2.96
   2   6   4   69.14    3.13
  -2   6  -4   70.64    3.30
  -2   6  -5   21.54    2.40
   2   6   5   26.77    2.04
  -2   6  -6   47.76    3.22
   2   6   6   39.91    2.73
  -2   6  -7   -0.21    0.88
   2   7  -7   24.95    2.90
  -2   7   7   25.79    3.54
  -2  -7   7   24.27    3.21
   2   7  -6    0.63    0.68
  -2   7   6    0.82    0.87
  -2  -7   6   -0.01    0.78
  -2   7   5  219.07    7.20
  -2   7   5  213.25    5.85
   2   7  -5  220.34    6.23
  -2  -7   5  213.50    6.55
   2   7  -4   -0.27    0.33
  -2   7   4    0.04    0.62
  -2  -7   4   -0.16    0.44
  -2   7   3  111.46    3.88
   2   7  -3  124.37    4.00
  -2  -7   3  113.18    3.75
  -2   7   2   32.08    1.99
   2   7  -2   29.34    1.47
   2   7  -2   28.39    1.75
   2   7  -1  145.13    3.65
   2   7  -1  144.96    3.81
  -2   7   1  142.18    2.48
  -2   7   1  135.31    3.95
  -2   7   0    3.06    0.77
  -2   7   0    2.24    0.57
   2   7   0    1.02    0.44
   2   7   0    2.07    0.56
   2   7   1   34.68    1.91
   2   7   1   37.42    1.72
  -2   7  -1   37.85    1.93
  -2   7  -1   34.79    1.76
  -2   7  -2    6.42    1.10
  -2   7  -2    6.55    0.99
   2   7   2    6.09    0.86
   2   7   2    7.02    1.15
  -2  -7  -2    6.65    0.87
  -2   7  -3  228.10    4.74
   2   7   3  221.67    5.68
  -2   7  -3  222.79    5.54
  -2  -7  -3  236.72    4.57
   2   7   4    7.05    1.32
  -2   7  -4    5.22    1.25
  -2   7  -5   73.86    3.64
   2   7   5   67.94    3.41
  -2   7  -6    0.84    1.00
   2   7   6    1.84    0.88
  -2   7  -7  118.36    5.26
  -2   8   6   47.04    3.73
   2   8  -6   44.93    3.09
  -2  -8   6   34.75    3.59
  -2   8   5    3.53    1.28
  -2   8   5    2.93    1.01
   2   8  -5    2.90    0.99
  -2  -8   5    2.12    1.07
  -2   8   4  118.77    4.35
   2   8  -4  121.38    4.42
  -2  -8   4  126.84    4.54
  -2   8   3   21.06    2.18
   2   8  -3   28.79    1.98
  -2  -8   3   27.65    1.91
   2   8  -2  104.40    3.00
  -2   8   2  116.32    4.01
   2   8  -2  113.39    3.71
  -2   8   1   71.97    3.00
   2   8  -1   74.62    2.72
   2   8  -1   71.03    2.73
   2   8   0  154.58    3.92
   2   8   0  156.69    4.15
  -2   8   0  153.91    3.28
  -2   8   0  146.15    4.18
   2   8   1    6.08    1.07
  -2   8  -1   10.41    1.33
   2   8   1    7.07    0.99
  -2   8  -1    8.11    1.09
  -2   8  -2  120.89    3.72
  -2   8  -2  111.53    3.42
   2   8   2  113.55    3.90
   2   8   2  108.76    3.09
   2   8   3   18.71    2.01
  -2   8  -3   21.76    2.11
  -2   8  -3   19.80    2.16
  -2   8  -4   60.53    3.13
   2   8   4   60.77    3.20
   2   8   5   65.05    3.52
  -2   8  -5   57.55    3.27
   2   8   6   80.48    4.04
  -2   8  -6   74.94    3.96
  -2   9   6    1.11    1.13
   2   9  -6    1.45    0.97
   2   9  -5   27.79    2.80
  -2   9   5   34.26    3.69
  -2   9   5   26.36    2.69
   2   9  -4    0.74    0.62
  -2   9   4    0.01    0.70
   2   9  -3   85.77    3.58
  -2   9   3   75.36    3.57
  -2   9   2   10.05    1.52
   2   9  -2    9.19    1.36
   2   9  -1   69.06    2.81
  -2   9   1   73.99    3.19
   2   9  -1   68.19    2.73
  -2   9   0    3.05    0.90
   2   9   0    4.19    0.91
  -2   9   0    3.57    0.69
   2   9   0    2.31    0.65
   2   9   1  549.66    8.33
  -2   9  -1  555.01    9.14
  -2   9  -1  556.85    8.29
   2   9   1  548.53    9.54
  -2   9  -2    2.46    0.80
   2   9   2    3.20    0.73
   2   9   2    2.36    0.86
  -2   9  -2    1.61    0.70
   2   9   3   52.65    2.89
  -2   9  -3   52.49    2.72
  -2   9  -4    5.33    1.28
   2   9   4    3.37    1.05
  -2   9  -5   42.80    2.93
   2   9   5   44.36    3.00
   2   9   6    1.20    0.93
  -2   9  -6    0.37    0.79
  -2  10   6   42.99    3.81
   2  10  -6   51.27    4.28
  -2  10   6   40.85    4.32
  -2  10   5    1.87    0.92
   2  10  -5    2.69    0.95
  -2  10   4  115.62    4.67
   2  10  -4  115.19    4.57
  -2  10   3    3.40    1.12
   2  10  -3    4.48    1.07
  -2  10   2   73.65    3.53
   2  10  -2   70.20    3.16
   2  10  -1   83.55    3.25
   2  10  -1   81.05    3.12
  -2  10   1   73.15    3.34
  -2  10   0   71.10    3.19
   2  10   0   76.99    2.95
   2  10   0   71.62    3.11
   2  10   1    4.75    1.11
   2  10   1    1.31    0.58
  -2  10  -1    0.79    0.58
  -2  10  -1    0.65    0.61
  -2  10  -2   76.47    3.06
  -2  10  -2   78.99    3.15
   2  10   2   80.65    3.66
  -2  10  -3   18.46    1.99
   2  10   3   17.46    2.16
  -2  10  -4   58.16    3.15
   2  10   4   62.62    3.50
  -2  10  -5   52.37    3.22
   2  10   5   53.65    3.48
   2  10   6   70.25    4.07
  -2  10  -6   64.85    3.86
   2  11  -5  115.81    5.04
  -2  11   5  114.48    5.01
  -2  11   4   -0.71    0.68
   2  11  -4    0.18    0.69
   2  11  -3   69.12    3.45
  -2  11   3   62.12    3.47
   2  11  -2   14.00    1.83
  -2  11   2    8.44    1.56
   2  11  -1   84.59    3.36
   2  11  -1   87.01    3.45
  -2  11   1   77.94    3.70
  -2  11   0    2.60    0.94
   2  11   0    4.11    0.92
   2  11   0    1.89    0.76
  -2  11  -1   27.72    2.10
   2  11   1   27.15    2.59
   2  11   1   28.29    1.83
  -2  11  -1   29.87    1.80
   2  11   2    0.32    0.58
  -2  11  -2   -0.66    0.44
  -2  11  -2    0.44    0.72
  -2  11  -3   87.94    3.68
   2  11   3   81.92    3.97
  -2  11  -4   13.41    1.88
   2  11   4   16.93    2.37
  -2  11  -5   48.46    3.15
   2  11   5   51.42    3.58
  -2  12   5    0.44    0.76
   2  12  -5    0.22    0.77
  -2  12   4   43.56    3.13
   2  12  -4   47.83    3.22
  -2  12   3    0.58    0.72
   2  12  -3   -0.40    0.50
  -2  12   2   79.95    3.99
   2  12  -2   83.58    3.69
   2  12  -1    2.12    0.82
   2  12  -1    2.06    0.81
  -2  12   1    0.42    0.78
  -2  12   0   77.64    3.72
   2  12   0   94.18    3.96
   2  12   0   92.67    3.55
   2  12   1    0.33    0.58
  -2  12  -1    1.30    0.77
   2  12   2   92.90    4.29
  -2  12  -2   95.60    3.58
  -2  12  -2   92.69    3.86
   2  12   3    3.27    1.13
  -2  12  -3    2.82    0.99
  -2  12  -4   38.36    3.20
   2  12   4   34.44    3.32
   2  12   5    2.66    1.13
  -2  12  -5    3.36    1.13
   2  13  -4   -0.20    0.68
  -2  13   4    0.63    0.73
   2  13  -3   45.86    3.05
  -2  13   3   45.30    3.22
  -2  13   2    7.33    1.61
   2  13  -2    7.47    1.55
   2  13  -1   60.26    3.11
   2  13  -1   58.81    3.12
  -2  13   1   47.57    3.15
  -2  13   0    0.35    0.81
   2  13   0   -0.19    0.53
   2  13   0    0.34    0.73
   2  13   1   56.17    3.35
  -2  13  -1   53.67    3.16
   2  13   2    0.55    0.78
   2  13   3   79.48    4.28
  -2  13  -3   75.76    3.51
   2  13   4    1.08    1.15
  -2  13  -4    2.12    0.86
  -2  14   3    7.41    1.65
   2  14  -3    6.54    1.47
   2  14  -2   43.89    2.92
  -2  14   2   41.97    3.15
  -2  14   1    7.40    1.72
   2  14  -1    9.96    1.70
   2  14   0   68.15    3.72
  -2  14   0   73.77    3.91
  -2  14  -1    1.22    1.06
   2  14   1    0.45    0.88
   2  14   2   48.49    3.41
   2  14   3    1.22    1.06
  -2  14  -3    4.64    1.29
   2  15  -2    5.13    1.47
  -2  15   2    6.71    1.59
  -2  15   1   25.75    2.98
   2  15   0    0.98    0.95
  -2  15   0    0.95    0.77
   2  15   1  177.56    6.47
  -2  15  -1  183.54    6.21
   2  15   2   -0.08    0.86
   2  16   0   30.94    3.27
  -2  16   0   26.75    3.13
  -3   0   7   13.84    2.44
  -3   0   6    0.30    0.61
  -3   0   5   96.95    4.43
  -3   0   4    0.06    0.45
   3   0  -4    0.13    0.34
  -3   0   3  101.23    3.68
  -3   0   3  103.95    2.79
   3   0  -3    0.01    0.24
   3   0  -2    0.34    0.29
   3   0  -1  980.48   11.25
  -3   0   0   -0.02    0.18
  -3   0  -1   69.29    2.24
  -3   0  -2   -0.06    0.20
  -3   0  -3   92.74    3.02
   3   0   4    0.06    0.43
  -3   0  -4    0.14    0.34
  -3   0  -5   80.30    3.32
   3   0   5   75.21    3.78
   3   0   6    0.29    0.72
  -3   0  -6   -0.45    0.57
   3   0   7   72.76    4.47
  -3   0  -7   60.80    3.66
  -3   1   7   -0.16    0.86
  -3  -1   7   -0.16    0.71
  -3   1   6  152.92    6.16
  -3  -1   6  132.35    5.71
   3   1  -5    4.13    0.95
  -3   1   5    3.60    1.16
  -3  -1   5    3.80    1.10
   3   1  -4  103.32    3.15
  -3   1   4   96.29    2.87
  -3   1   4  100.92    4.16
   3  -1  -4  100.24    2.83
  -3  -1   4  102.67    3.98
   3   1  -3  136.77    3.45
  -3   1   3  132.98    3.33
  -3  -1   3  133.52    4.15
   3  -1  -3  134.62    3.12
   3   1  -2  153.76    3.49
   3  -1  -2  148.60    3.16
   3   1  -1    1.46    0.42
   3  -1  -1    2.77    0.53
   3   1   0  187.70    3.87
  -3   1   0  188.33    3.60
   3   1   1   47.35    2.03
  -3   1  -1   43.33    1.74
  -3  -1  -1   45.28    1.79
   3   1   2   98.04    3.09
  -3   1  -2  103.99    2.94
  -3  -1  -2  102.71    2.96
  -3   1  -3  121.66    3.52
   3   1   3  121.94    3.66
  -3  -1  -3  118.54    3.38
  -3   1  -4  230.39    5.38
   3   1   4  240.23    6.08
   3   1   4  248.52    5.67
  -3  -1  -4  233.52    5.34
   3   1   5    0.62    0.57
  -3   1  -5    0.00    0.43
   3   1   5    0.01    0.55
   3  -1   5    0.23    0.58
  -3  -1  -5   -0.12    0.37
  -3   1  -6   40.23    2.62
   3   1   6   48.57    3.34
  -3  -1  -6   48.67    2.74
   3  -1   6   50.70    3.52
  -3   1  -7    7.50    1.78
   3   1   7    7.65    1.83
   3  -1   7   11.23    2.28
  -3  -1  -7    7.59    1.69
  -3   2   7  103.02    5.60
  -3  -2   7  107.10    5.58
  -3   2   6    4.20    1.39
  -3  -2   6    5.79    1.54
   3   2  -5   53.55    2.56
  -3   2   5   50.15    3.30
  -3  -2   5   50.41    3.15
   3   2  -4   48.43    2.24
  -3   2   4   54.05    2.26
  -3   2   4   53.66    3.11
  -3  -2   4   51.22    2.80
  -3   2   3  130.33    3.46
   3   2  -3  136.33    3.58
   3  -2  -3  141.10    3.03
  -3  -2   3  131.05    3.98
   3   2  -2    5.86    0.87
  -3   2   2    6.75    0.95
   3  -2  -2    7.81    0.81
  -3  -2   2    7.41    1.00
   3   2  -1  157.90    3.62
  -3   2   1  160.72    3.12
  -3   2   0   54.48    1.83
   3   2   0   56.46    2.08
   3   2   0   58.35    2.20
  -3   2  -1  250.10    4.48
   3   2   1  266.45    5.27
  -3  -2  -1  239.33    4.57
   3   2   2   26.76    1.64
  -3   2  -2   27.71    1.50
  -3  -2  -2   27.75    1.53
  -3   2  -3  153.16    4.07
   3   2   3  148.30    4.18
   3   2   3  158.11    4.13
  -3  -2  -3  150.93    3.86
   3   2   4    3.10    0.80
  -3   2  -4    2.58    0.78
   3   2   4    2.62    0.85
  -3  -2  -4    0.75    0.49
   3   2   5   88.29    3.51
  -3   2  -5   94.01    3.68
   3   2   5   88.13    3.96
   3  -2   5   87.47    4.25
  -3  -2  -5   93.77    3.51
   3   2   6   11.08    1.96
  -3   2  -6   12.05    1.86
  -3  -2  -6   10.38    1.54
   3  -2   6   12.18    2.16
   3   2   7   30.19    3.53
  -3   2  -7   29.18    3.27
   3  -2   7   23.80    3.35
  -3   3   7   -0.25    0.70
  -3  -3   7   -0.56    0.77
   3   3  -6   29.42    2.55
  -3   3   6   26.25    3.15
  -3  -3   6   24.56    2.95
   3   3  -5    0.65    0.60
  -3   3   5    0.48    0.63
  -3  -3   5   -0.05    0.45
  -3   3   4  101.61    3.30
   3   3  -4  108.74    3.56
  -3  -3   4  100.59    3.90
   3   3  -3    2.26    0.63
  -3   3   3    1.14    0.53
  -3  -3   3    2.13    0.68
  -3   3   2  234.35    3.75
   3   3  -2  230.45    4.77
  -3   3   2  239.33    4.94
  -3  -3   2  227.23    4.57
  -3   3   1    1.39    0.36
   3   3  -1    0.92    0.40
   3   3  -1    2.34    0.59
  -3  -3   1    2.18    0.45
   3   3   0  314.01    5.50
  -3   3   0  294.19    4.67
   3   3   0  318.18    5.72
   3   3   1    0.25    0.30
  -3   3  -1    0.40    0.25
  -3  -3  -1    0.65    0.33
  -3   3  -2  101.92    3.02
   3   3   2  106.94    3.43
  -3  -3  -2  105.43    3.03
   3   3   3    2.65    0.66
   3   3   3    3.24    0.81
  -3   3  -3    1.87    0.60
  -3  -3  -3    2.40    0.65
  -3   3  -4   66.10    2.87
  -3  -3  -4   65.99    2.67
   3   3   5    0.62    0.61
  -3   3  -5    0.10    0.53
   3   3   5    0.34    0.58
  -3  -3  -5    0.74    0.56
  -3   3  -6  154.40    5.50
   3   3   6  157.47    5.76
  -3  -3  -6  166.31    4.96
   3   3   7   -0.23    0.88
  -3   3  -7    0.12    1.27
  -3   4   7   88.20    5.28
  -3  -4   7   76.49    4.70
  -3   4   6    6.61    1.65
   3   4  -6   10.72    1.68
  -3  -4   6    9.44    1.85
   3   4  -5   61.48    2.96
  -3   4   5   58.82    3.66
  -3  -4   5   58.74    3.33
   3   4  -4   89.25    3.35
  -3   4   4   91.48    3.29
  -3  -4   4   91.78    3.77
   3   4  -3  113.52    3.54
  -3   4   3  112.92    3.54
  -3  -4   3  119.64    3.71
   3   4  -2   14.19    1.43
  -3   4   2   12.70    1.39
  -3   4   2   12.81    0.76
  -3  -4   2   12.73    1.03
  -3   4   1  188.06    4.42
   3   4  -1  174.12    4.09
   3   4  -1  178.05    3.97
  -3   4   1  185.19    3.22
  -3  -4   1  182.75    3.12
   3   4   0   75.06    2.53
  -3   4   0   73.05    2.09
   3   4   0   76.16    2.68
  -3   4  -1  179.75    3.81
   3   4   1  187.81    4.22
   3   4   1  181.39    4.48
   3   4   2   38.90    2.09
  -3   4  -2   38.89    1.87
  -3  -4  -2   41.91    1.89
   3   4   3  128.74    3.50
  -3   4  -3  124.79    3.75
   3   4   3  129.29    4.08
  -3  -4  -3  132.55    3.65
   3   4   4   10.10    1.45
   3   4   4   12.31    1.55
  -3   4  -4    9.95    1.42
  -3  -4  -4   10.25    1.27
  -3   4  -5   86.42    3.74
  -3  -4  -5   84.12    3.28
  -3   4  -6   13.32    2.21
  -3   4  -7   27.88    3.25
   3   5  -7    0.10    0.82
  -3   5   7    0.50    0.97
  -3  -5   7   -0.30    0.97
   3   5  -6  225.23    6.41
  -3   5   6  208.17    7.69
  -3  -5   6  215.45    7.25
   3   5  -5    9.29    1.51
  -3   5   5   12.78    2.18
  -3   5   5   14.60    1.97
  -3  -5   5   12.14    1.94
   3   5  -4   79.32    3.29
  -3   5   4   73.01    3.12
  -3  -5   4   76.59    3.34
   3   5  -3   57.76    2.62
  -3   5   3   51.49    2.49
  -3  -5   3   54.96    2.45
   3   5  -2   93.90    3.16
  -3   5   2   82.56    3.12
   3   5  -2   90.47    2.66
  -3  -5   2   91.64    2.60
   3   5  -1    0.47    0.34
  -3   5   1    0.59    0.28
   3   5  -1    0.69    0.38
  -3   5   1    0.70    0.44
  -3  -5   1    0.46    0.29
  -3   5   0  304.86    4.87
   3   5   0  285.61    5.49
  -3   5   0  297.44    5.92
   3   5   0  290.09    5.71
  -3   5  -1   22.84    1.32
   3   5   1   24.42    1.62
   3   5   1   21.99    1.43
  -3   5  -2   77.55    2.73
   3   5   2   84.99    3.21
  -3  -5  -2   85.22    2.76
  -3   5  -3   63.41    2.67
   3   5   3   62.86    2.90
  -3  -5  -3   60.29    2.44
  -3   5  -4  323.55    6.95
   3   5   4  309.32    7.05
  -3  -5  -4  313.53    6.23
  -3   5  -5    0.12    0.79
   3   5   5   -0.39    0.42
  -3  -5  -5    0.41    0.55
  -3   5  -6   34.33    3.41
   3   5   6   28.18    2.77
  -3   5  -7    8.82    2.14
  -3   6   7   13.73    2.64
   3   6  -7   18.74    2.47
  -3  -6   7   15.01    2.70
  -3   6   6    6.38    1.78
   3   6  -6    7.34    1.45
  -3  -6   6    8.08    1.79
  -3   6   5   87.04    3.73
  -3   6   5   89.03    4.71
   3   6  -5   79.67    3.67
  -3  -6   5   84.54    4.09
   3   6  -4   79.91    3.45
  -3   6   4   72.14    3.28
  -3  -6   4   76.65    3.41
   3   6  -3   61.56    2.80
  -3   6   3   80.68    3.28
  -3  -6   3   74.45    2.91
   3   6  -2   23.04    1.40
   3   6  -2   18.09    1.71
  -3   6   2   24.83    1.78
   3   6  -1  726.00   10.09
   3   6  -1  717.53   10.36
  -3   6   1  709.89    8.04
  -3   6   1  684.69   10.54
  -3   6   0   44.74    1.69
   3   6   0   42.47    2.12
   3   6   0   43.59    2.07
  -3   6   0   42.53    2.17
  -3   6  -1   43.98    2.18
   3   6   1   57.88    2.36
  -3   6  -1   45.56    1.90
   3   6   1   54.92    2.56
  -3   6  -2   90.20    3.00
   3   6   2   90.37    3.45
  -3   6  -2   92.62    3.15
  -3  -6  -2   90.06    2.92
   3   6   3   85.57    3.53
  -3   6  -3   59.63    2.56
  -3   6  -3   76.56    3.01
  -3  -6  -3   73.30    2.72
  -3   6  -4    7.69    1.37
   3   6   4    8.20    1.38
  -3  -6  -4   11.53    1.37
  -3   6  -5   81.27    4.03
   3   6   5   71.49    3.54
  -3   6  -6   11.80    2.17
   3   6   6   13.73    2.02
  -3   6  -7   72.08    4.44
  -3   7   6   35.29    3.95
   3   7  -6   30.41    2.99
  -3   7   5   33.28    2.54
   3   7  -5   39.81    2.68
   3   7  -4   87.55    3.74
  -3   7   4   88.09    3.75
   3   7  -3  207.91    5.49
  -3   7   3  202.24    5.53
   3   7  -2  243.83    5.70
  -3   7   2  246.87    5.97
   3   7  -2  235.10    4.93
   3   7  -1    0.15    0.34
  -3   7   1    0.76    0.60
   3   7  -1    0.36    0.40
   3   7   0  148.15    4.06
  -3   7   0  139.69    3.20
  -3   7   0  147.81    4.34
   3   7   0  149.50    4.25
   3   7   1  120.47    3.56
  -3   7  -1  117.70    3.75
  -3   7  -1  117.30    3.22
   3   7   1  118.65    3.90
  -3   7  -2   79.26    2.99
   3   7   2   76.61    3.25
  -3   7  -2   83.27    3.00
  -3  -7  -2   78.88    2.81
   3   7   3  167.35    5.12
  -3   7  -3  176.77    4.98
  -3  -7  -3  174.65    4.42
  -3   7  -4   30.31    2.82
   3   7   4   31.45    2.37
   3   7   5    0.38    0.64
  -3   7  -5    0.69    1.13
  -3   7  -6  109.23    4.99
   3   7   6  107.12    4.73
  -3   8   6    0.77    1.09
   3   8  -6    0.11    0.83
  -3   8   5   43.88    2.98
   3   8  -5   51.00    3.17
   3   8  -4   12.82    1.84
  -3   8   4    6.64    1.39
  -3   8   3  154.41    5.01
   3   8  -3  173.93    5.18
   3   8  -2   12.63    1.60
   3   8  -2   14.46    1.79
  -3   8   2   13.69    1.81
   3   8  -1   10.91    1.36
   3   8  -1   11.22    1.44
  -3   8   1   15.65    1.78
   3   8   0    0.98    0.50
  -3   8   0    1.32    0.68
   3   8   0    0.71    0.53
  -3   8   0    0.25    0.50
  -3   8  -1  248.57    5.93
  -3   8  -1  251.53    5.26
   3   8   1  260.21    5.60
   3   8   1  259.15    6.19
  -3   8  -2   17.32    1.81
  -3   8  -2   17.86    1.81
   3   8   2   15.50    1.57
   3   8   2   18.68    2.01
  -3  -8  -2   17.00    1.59
   3   8   3  169.36    5.35
  -3   8  -4    9.88    1.84
   3   8   4    9.31    1.64
   3   8   5  143.77    5.40
  -3   8  -5  137.44    5.40
  -3   8  -6    1.05    1.20
   3   8   6    0.18    0.89
   3   9  -6   68.58    4.01
  -3   9   6   65.08    4.64
  -3   9   5   38.81    2.87
   3   9  -5   44.63    3.69
  -3   9   4   57.65    3.37
   3   9  -4   53.17    3.13
  -3   9   3   92.92    4.07
   3   9  -3   90.82    3.84
   3   9  -2   58.71    2.92
  -3   9   2   58.16    3.09
   3   9  -1    2.70    0.82
  -3   9   1    0.17    0.58
   3   9  -1    1.45    0.62
  -3   9   0   96.52    3.73
   3   9   0   94.39    3.60
   3   9   0   96.49    3.44
   3   9   1   68.07    2.79
  -3   9  -1   63.87    3.01
   3   9   1   61.38    3.03
  -3   9  -1   64.95    2.77
   3   9   2   60.80    2.66
   3   9   2   60.08    3.14
  -3   9  -2   58.60    2.92
  -3   9  -2   58.98    2.84
   3   9   3  114.50    4.56
   3   9   4  130.93    5.07
  -3   9  -4  137.30    5.10
   3   9   5    0.55    0.73
  -3   9  -5   -2.67    0.60
  -3   9  -6   33.48    3.41
   3   9   6   31.95    3.24
   3  10  -5   77.68    4.15
  -3  10   5   77.77    4.12
  -3  10   4    1.31    0.98
   3  10  -4    0.25    0.70
   3  10  -3   48.92    2.92
  -3  10   3   54.09    3.27
   3  10  -2    3.49    0.98
  -3  10   2    3.12    1.15
   3  10  -1  445.93    8.60
   3  10  -1  443.27    8.36
  -3  10   1  419.77    8.83
  -3  10   0    2.47    0.93
   3  10   0    1.59    0.68
   3  10   0    0.95    0.61
   3  10   1   23.96    2.42
   3  10   1   21.12    1.93
  -3  10  -1   21.99    2.20
  -3  10  -1   23.21    2.00
  -3  10  -2   15.72    1.83
   3  10   2   15.95    1.69
  -3  10  -2   15.40    1.87
   3  10   2   17.64    2.16
   3  10   3   50.76    3.18
  -3  10  -3   47.58    2.90
  -3  10  -4    1.74    1.03
   3  10   4    0.17    0.62
   3  10   5   72.74    4.14
  -3  10  -5   71.64    3.91
  -3  11   5   41.36    3.16
   3  11  -5   43.69    3.78
   3  11  -4   53.82    3.37
  -3  11   4   42.06    3.14
   3  11  -3   69.60    3.64
  -3  11   3   58.72    3.58
   3  11  -2   81.77    3.73
  -3  11   2   88.94    4.19
  -3  11   1   -0.52    0.56
   3  11  -1    0.20    0.57
   3  11  -1    0.60    0.66
   3  11   0   72.24    3.19
  -3  11   0   74.46    3.63
   3  11   0   67.61    3.32
   3  11   1   80.29    3.80
   3  11   1   77.90    3.22
  -3  11  -1   78.45    3.65
   3  11   2   55.41    3.33
  -3  11  -2   60.65    2.97
  -3  11  -2   52.95    2.97
  -3  11  -3   48.02    2.92
   3  11   3   42.86    3.03
   3  11   4   66.72    3.89
  -3  11  -4   66.90    3.58
  -3  11  -5    1.25    0.92
   3  11   5    1.32    0.94
  -3  12   4   13.94    2.21
   3  12  -4   14.51    2.21
   3  12  -3   75.62    3.91
  -3  12   3   72.79    4.08
   3  12  -2    1.59    0.80
  -3  12   2    2.00    1.11
  -3  12   1    6.83    1.55
   3  12  -1    7.16    1.39
   3  12  -1    4.53    1.18
   3  12   0    6.45    1.35
  -3  12   0    7.49    1.53
   3  12   0    5.77    1.19
   3  12   1  133.32    5.15
   3  12   1  138.70    4.44
  -3  12  -1  130.01    4.88
  -3  12  -2    7.16    1.49
  -3  12  -2    7.52    1.50
   3  12   2    8.98    1.75
  -3  12  -3   76.60    3.64
   3  12   3   72.97    4.10
  -3  12  -4    1.23    0.79
   3  12   4    0.05    0.81
  -3  13   4   48.91    3.66
   3  13  -4   38.20    3.57
  -3  13   3    5.79    1.56
   3  13  -3    4.36    1.27
   3  13  -2   93.29    4.28
  -3  13   2   88.42    4.51
   3  13  -1    0.28    0.67
  -3  13   1    0.26    0.91
   3  13   0   82.05    3.74
   3  13   0   81.78    4.02
  -3  13   0   76.92    4.03
  -3  13  -1   26.25    2.70
   3  13   1   27.36    2.97
   3  13   2   33.88    3.39
  -3  13  -2   36.67    2.76
  -3  13  -3   13.90    2.01
   3  13   3   10.24    2.04
  -3  13  -4   20.32    2.48
   3  13   4   18.74    2.69
   3  14  -3   28.31    3.13
  -3  14   3   28.50    3.29
   3  14  -2    5.26    1.37
  -3  14   2    4.13    1.54
  -3  14   1  142.40    5.80
   3  14  -1  164.80    5.64
  -3  14   0    4.11    1.44
   3  14   0    4.80    1.42
  -3  14  -1   22.47    2.67
   3  14   1   22.54    2.78
   3  14   2    9.11    1.98
   3  14   3   27.39    3.28
   3  15  -1    2.13    1.16
  -3  15   1   -1.07    0.81
   3  15   0   46.86    3.42
  -3  15   0   44.97    4.09
   3  15   1   33.66    3.57
  -3  15  -1   34.79    3.43
  -4   0   7   -0.73    0.78
  -4   0   6   74.27    4.40
  -4   0   5    0.12    0.51
   4   0  -4    0.03    0.41
  -4   0   4   59.70    3.32
   4   0  -3    0.01    0.34
   4   0  -2  253.86    5.04
   4   0  -1    0.22    0.29
  -4   0   0   74.33    2.55
  -4   0  -1   -0.01    0.23
  -4   0  -2  775.22   10.84
  -4   0  -3    0.06    0.33
  -4   0  -4   31.36    2.08
  -4   0  -5    0.03    0.47
  -4   0  -6   43.38    2.86
  -4   0  -7   -0.20    0.96
  -4   1   7   33.33    3.94
  -4  -1   7   35.20    4.00
  -4   1   6   98.82    5.18
  -4  -1   6   97.65    5.01
  -4   1   5   59.87    3.71
  -4  -1   5   58.25    3.56
   4   1  -4   25.86    1.74
  -4   1   4   20.57    2.39
  -4  -1   4   27.35    2.21
  -4   1   3  244.00    5.31
   4   1  -3  235.60    5.14
  -4  -1   3  233.86    5.99
   4  -1  -3  244.10    4.85
   4   1  -2   50.29    2.17
   4  -1  -2   45.48    1.97
  -4   1   1  125.68    3.29
   4   1  -1  128.40    3.55
  -4   1   0  447.60    7.06
  -4  -1   0  460.46    7.36
  -4   1  -1  122.09    3.40
  -4  -1  -1  115.61    3.39
  -4   1  -2   31.41    1.79
  -4  -1  -2   31.44    1.82
  -4   1  -3  111.97    3.69
  -4  -1  -3  120.27    3.78
  -4   1  -4   79.26    3.32
  -4  -1  -4   78.55    3.24
  -4   1  -5   58.65    3.11
  -4  -1  -5   60.70    3.10
  -4   1  -6  159.82    5.46
  -4  -1  -6  172.98    5.61
  -4   1  -7   76.63    4.21
  -4  -1  -7   73.87    3.96
  -4   2   7    8.08    2.13
  -4  -2   7    7.27    1.93
  -4   2   6   33.84    3.61
  -4  -2   6   31.51    3.41
   4   2  -5    0.18    0.58
  -4   2   5   -0.03    0.59
  -4  -2   5    0.78    0.71
  -4   2   4  385.13    7.26
   4   2  -4  393.02    7.41
  -4  -2   4  370.98    8.23
   4   2  -3    2.72    0.70
  -4   2   3    2.48    0.68
  -4  -2   3    1.53    0.67
   4  -2  -3    2.33    0.58
  -4   2   2  126.75    3.16
   4   2  -2  127.01    3.69
   4  -2  -2  138.91    3.34
   4   2  -1   11.66    1.34
  -4   2   1   10.64    1.08
   4   2   0  152.68    4.01
  -4   2   0  138.63    3.49
  -4   2  -1    1.72    0.56
  -4  -2  -1    0.94    0.45
  -4   2  -2   11.86    1.37
   4   2   2   10.75    1.47
  -4  -2  -2   12.17    1.37
  -4   2  -3    4.61    0.93
   4   2   3    3.64    0.91
  -4  -2  -3    6.53    1.11
  -4   2  -4  310.35    6.99
   4   2   4  312.52    7.25
  -4  -2  -4  317.91    6.84
   4   2   5    7.59    1.43
  -4   2  -5    5.04    1.09
  -4  -2  -5    6.54    1.35
  -4   2  -6   49.68    3.13
  -4  -2  -6   52.65    3.10
  -4   2  -7    9.19    1.94
  -4   3   7   37.38    4.47
  -4  -3   7   22.15    3.12
  -4   3   6   60.68    4.21
  -4  -3   6   58.89    3.93
  -4   3   5   57.27    3.78
   4   3  -5   55.31    2.83
  -4  -3   5   52.41    3.32
  -4   3   4    8.43    1.32
   4   3  -4    7.37    1.23
  -4  -3   4   11.78    1.71
  -4   3   3   61.69    2.72
   4   3  -3   69.44    2.85
  -4  -3   3   58.11    2.69
  -4   3   2   38.70    2.15
   4   3  -2   41.26    2.11
  -4   3   2   38.79    1.63
  -4  -3   2   43.08    2.06
  -4   3   1  147.27    3.41
   4   3  -1  152.43    4.06
  -4   3   0  145.52    3.54
   4   3   0  139.10    4.07
   4   3   0  144.31    3.98
   4   3   1  156.36    4.49
  -4   3  -1  143.51    3.69
  -4  -3  -1  145.50    3.91
  -4   3  -2   15.24    1.60
   4   3   2   17.85    1.92
  -4  -3  -2   12.85    1.46
  -4   3  -3  180.62    4.85
   4   3   3  198.03    5.52
  -4  -3  -3  171.98    4.65
   4   3   4   32.75    2.35
  -4   3  -4   36.81    2.31
  -4  -3  -4   36.94    2.21
   4   3   5   41.94    2.78
  -4   3  -5   43.18    2.70
  -4  -3  -5   44.43    2.60
  -4   3  -6   62.75    3.53
  -4  -3  -6   65.54    3.39
  -4   3  -7   14.71    2.58
  -4   4   6   63.06    4.36
   4   4  -6   66.63    3.46
  -4  -4   6   68.67    4.14
  -4   4   5    0.20    0.78
   4   4  -5    0.69    0.66
  -4  -4   5    1.67    0.94
  -4   4   4   39.65    2.41
   4   4  -4   36.69    2.27
  -4  -4   4   37.60    2.51
  -4   4   3    0.23    0.51
   4   4  -3    1.93    0.69
  -4  -4   3    2.65    0.80
   4   4  -2  160.18    4.41
  -4   4   2  161.71    4.59
  -4   4   2  164.82    3.47
  -4   4   1   26.23    1.85
  -4   4   1   24.06    1.31
   4   4  -1   28.40    1.76
   4   4   0   71.30    2.92
   4   4   0   80.39    2.96
  -4   4   0   65.29    2.26
   4   4   1    8.13    1.28
  -4   4  -1    6.82    1.01
  -4  -4  -1    7.51    1.10
  -4   4  -2  432.12    7.59
   4   4   2  467.48    8.80
  -4  -4  -2  429.98    7.61
  -4   4  -3    6.51    1.11
   4   4   3    6.47    1.26
  -4  -4  -3    6.35    1.08
   4   4   4   34.48    2.44
  -4   4  -4   24.69    2.31
  -4  -4  -4   28.37    1.96
  -4   4  -5    7.48    1.42
   4   4   5    9.26    1.59
  -4  -4  -5    9.77    1.53
   4   4   6   28.91    2.96
  -4   4  -6   33.92    3.23
   4   5  -6   22.81    2.48
  -4   5   6   19.24    2.98
   4   5  -5   44.88    2.78
  -4   5   4    3.08    1.01
   4   5  -4    3.35    1.00
   4   5  -3  354.56    7.35
  -4   5   3  347.88    7.49
  -4   5   2   38.05    2.31
   4   5  -2   30.38    1.95
   4   5  -1   72.19    2.92
  -4   5   1   64.49    2.91
  -4   5   1   72.57    2.22
   4   5  -1   77.57    2.98
   4   5   0   13.78    1.52
  -4   5   0   11.91    1.15
   4   5   0   14.55    1.66
  -4   5  -1   67.45    2.54
   4   5   1   69.47    2.85
   4   5   1   75.14    3.19
  -4   5  -2    0.77    0.45
   4   5   2    0.36    0.49
  -4  -5  -2    0.18    0.39
   4   5   3  156.81    5.11
  -4   5  -3  168.02    4.80
  -4  -5  -3  170.64    4.71
   4   5   4   20.42    2.40
  -4   5  -4   15.15    1.81
  -4  -5  -4   14.76    1.71
  -4   5  -5   69.80    3.52
   4   5   5   66.40    3.60
  -4  -5  -5   68.33    3.21
   4   5   6    5.63    1.52
  -4   5  -6    2.64    1.31
   4   6  -6   41.30    3.50
  -4   6   6   32.47    3.88
   4   6  -5   21.27    2.42
  -4   6   5   24.56    3.74
  -4   6   4  110.92    4.27
   4   6  -4  113.86    4.32
   4   6  -3    3.47    0.93
  -4   6   3    4.65    1.13
   4   6  -2   82.07    3.32
  -4   6   2   88.51    3.68
  -4   6   1   68.06    3.09
   4   6  -1   66.07    2.90
   4   6  -1   69.01    2.89
  -4   6   0   80.00    3.30
  -4   6   0   73.62    2.49
   4   6   0   81.36    3.10
   4   6   0   78.06    3.21
  -4   6  -1   33.36    1.80
  -4   6  -1   35.19    2.24
   4   6   1   32.76    2.01
   4   6   1   33.36    2.19
  -4   6  -2   81.66    3.10
   4   6   2   88.81    3.73
  -4  -6  -2   78.09    3.02
  -4   6  -3    6.95    1.19
   4   6   3    5.87    1.24
  -4  -6  -3    6.30    1.09
   4   6   4   92.11    4.15
  -4   6  -4   91.14    3.80
  -4  -6  -4   93.65    3.56
  -4   6  -5   41.13    3.44
   4   6   5   39.78    2.90
  -4   6  -6   40.92    3.95
   4   6   6   37.36    3.50
  -4   7   6    1.28    1.09
   4   7  -6    0.05    0.82
  -4   7   5   64.31    3.63
   4   7  -5   65.99    3.57
  -4   7   4    1.22    0.88
   4   7  -4   -0.23    0.47
   4   7  -3   31.37    2.70
  -4   7   3   31.07    2.37
  -4   7   2    6.52    1.29
   4   7  -2    7.91    1.22
   4   7  -2    7.61    1.28
   4   7  -1  151.51    4.47
  -4   7   1  150.23    4.85
   4   7  -1  153.57    4.60
   4   7   0   19.22    1.98
  -4   7   0   19.98    2.06
   4   7   0   19.46    1.89
  -4   7   0   19.55    1.33
   4   7   1  197.52    5.58
  -4   7  -1  189.27    5.30
  -4   7  -1  185.55    4.47
   4   7   1  193.15    5.14
   4   7   2    0.14    0.47
  -4   7  -2    0.56    0.52
  -4   7  -2    0.01    0.44
  -4  -7  -2   -0.03    0.40
  -4   7  -3  140.54    4.48
  -4   7  -3  134.74    4.39
   4   7   3  132.59    4.87
  -4  -7  -3  125.74    4.13
   4   7   4   -0.14    0.50
  -4   7  -4    0.09    0.77
  -4  -7  -4    0.20    0.60
  -4   7  -5   22.63    2.76
   4   7   5   23.80    2.75
   4   7   6    7.06    1.78
  -4   7  -6    5.50    1.84
   4   8  -6   36.81    3.49
  -4   8   6   42.35    4.49
   4   8  -5   21.31    2.52
  -4   8   5   20.95    2.65
  -4   8   4   83.75    4.07
   4   8  -4   86.58    4.03
  -4   8   3   -0.44    0.54
   4   8  -3    0.15    0.57
  -4   8   2   70.06    3.50
   4   8  -2   65.04    3.17
   4   8  -1   34.69    2.21
   4   8  -1   36.15    2.27
  -4   8   1   34.13    2.44
   4   8   0   66.15    2.99
  -4   8   0   65.79    3.23
   4   8   0   63.80    3.08
   4   8   1   28.92    2.44
   4   8   1   30.09    2.75
  -4   8  -1   26.11    2.40
  -4   8  -1   30.85    1.85
   4   8   2  112.33    4.41
  -4   8  -2  109.91    3.75
  -4   8  -2  117.09    4.19
  -4  -8  -2  112.87    3.85
   4   8   3    1.97    0.86
  -4   8  -3   -0.17    0.67
  -4   8  -3    0.05    0.51
  -4  -8  -3    0.08    0.54
   4   8   4   67.86    3.71
  -4   8  -4   73.24    3.78
   4   8   5   16.69    2.40
  -4   8  -5   15.20    2.45
  -4   8  -6   28.93    3.50
   4   8   6   34.41    3.47
  -4   9   5   50.64    3.53
   4   9  -5   44.87    3.77
   4   9  -4   -0.22    0.59
  -4   9   4    1.55    0.94
  -4   9   3  161.17    5.63
   4   9  -3  187.14    5.90
   4   9  -2    2.29    0.83
  -4   9   2   -0.26    0.60
   4   9  -1   45.88    2.65
  -4   9   1   43.80    2.83
   4   9  -1   42.18    2.53
  -4   9   0    2.06    0.92
   4   9   0    1.44    0.76
   4   9   0    0.16    0.51
   4   9   1   44.85    2.57
   4   9   1   50.57    2.94
  -4   9  -1   48.06    2.91
  -4   9  -1   45.19    2.38
  -4   9  -2    1.40    0.77
   4   9   2    1.15    0.76
  -4   9  -2    0.61    0.82
  -4  -9  -2    1.40    0.67
  -4   9  -3   65.55    3.44
   4   9   3   58.15    3.41
  -4   9  -3   62.71    3.14
  -4  -9  -3   61.71    2.92
   4   9   4   -0.12    0.51
  -4   9  -4   -1.39    0.89
   4   9   5   58.30    3.79
  -4   9  -5   53.29    4.34
   4  10  -5   27.64    3.07
  -4  10   5   32.55    3.43
  -4  10   4   47.00    3.35
   4  10  -4   45.85    3.14
  -4  10   3   -0.94    0.66
   4  10  -3    0.70    0.70
   4  10  -2   51.10    3.02
  -4  10   2   57.63    3.47
  -4  10   1   16.63    2.20
   4  10  -1   20.85    2.28
   4  10  -1   16.67    1.99
  -4  10   0   47.92    3.05
   4  10   0   52.56    2.88
   4  10   0   57.01    3.09
  -4  10  -1   19.67    2.35
   4  10   1   18.61    2.06
   4  10   1   21.82    2.45
  -4  10  -2  104.24    4.31
   4  10   2  104.01    4.53
  -4  10  -2  108.95    4.28
  -4 -10  -2   98.74    3.80
  -4  10  -3    0.26    1.13
   4  10   3    1.01    0.78
  -4  10  -4   41.35    3.61
   4  10   4   43.22    3.17
  -4  10  -5   12.02    2.26
   4  10   5   16.95    2.60
  -4  11   4    1.29    1.21
   4  11  -4    0.20    0.73
  -4  11   3   64.64    3.88
   4  11  -3   59.61    3.51
  -4  11   2    2.86    1.17
   4  11  -2    1.05    0.76
   4  11  -1   75.28    3.57
   4  11  -1   69.52    3.49
  -4  11   1   67.07    3.78
   4  11   0    3.03    1.04
   4  11   0    4.30    1.19
  -4  11   0    4.47    1.32
   4  11   1   94.20    4.29
   4  11   1   86.92    3.74
  -4  11  -1   95.33    4.23
  -4  11  -2   -1.45    0.80
   4  11   2   -0.29    0.58
  -4  11  -2   -0.05    0.77
  -4 -11  -2    0.75    0.69
   4  11   3   52.38    3.49
  -4  11  -3   49.24    3.26
  -4  11  -4    2.36    1.26
   4  11   4    3.19    1.21
   4  12  -4   50.71    4.30
  -4  12   4   50.32    3.84
   4  12  -3    2.58    1.12
  -4  12   3   -0.30    0.92
   4  12  -2   49.37    3.19
  -4  12   2   40.15    3.70
  -4  12   1    2.67    1.25
   4  12  -1    1.40    0.83
  -4  12   0   39.05    2.96
   4  12   0   40.12    2.69
   4  12   0   35.41    3.22
   4  12   1    0.52    0.76
  -4  12  -1    0.46    0.80
   4  12   1    0.13    0.69
   4  12   2   42.13    3.16
  -4  12  -2   54.31    3.38
  -4  12  -3    0.34    0.90
   4  12   3    0.77    0.85
   4  12   4   44.56    4.19
  -4  12  -4   48.22    3.32
   4  13  -3   24.96    2.96
  -4  13   3   25.02    3.30
   4  13  -2    1.33    0.96
  -4  13   2    1.17    1.07
  -4  13   1   52.07    3.61
   4  13  -1   58.52    3.48
   4  13   0    9.95    1.76
   4  13   0    8.92    1.79
  -4  13   0    6.31    1.66
   4  13   1   56.03    3.64
  -4  13  -1   54.35    3.49
  -4  13  -2    0.02    0.94
   4  13   2    1.03    1.04
   4  13   3   61.44    4.10
  -4  14   1    7.91    2.02
   4  14  -1    4.95    1.39
   4  14   0   36.36    3.18
   4  14   0   37.76    3.52
  -4  14   0   46.68    3.49
  -4  14  -1    6.82    1.78
   4  14   1    5.02    1.56
  -5   0   6    0.65    0.91
  -5   0   5   66.51    4.06
  -5   0   4   -0.32    0.51
   5   0  -3   64.83    2.75
   5   0  -2   -0.02    0.41
  -5   0   1  107.27    3.49
  -5   0   0    1.16    0.59
  -5   0  -1   86.12    3.23
  -5   0  -2    0.63    0.46
  -5   0  -3   67.36    3.08
  -5   0  -4    0.39    0.61
  -5   0  -5   55.70    3.21
  -5   0  -6    0.05    0.69
  -5   1   6   43.50    3.56
  -5  -1   6   42.02    3.55
  -5   1   5    3.45    1.29
  -5  -1   5    1.08    0.97
  -5   1   4   60.73    3.65
   5   1  -4   59.76    2.82
  -5  -1   4   61.75    3.54
   5   1  -3    6.62    1.09
  -5   1   2   73.94    2.79
   5   1  -2   75.08    3.00
   5  -1  -2   73.58    2.82
   5   1  -1    2.65    0.74
  -5   1   1    2.15    0.62
  -5   1   0  200.19    4.85
  -5  -1   0  191.76    4.85
  -5   1  -1    2.32    0.73
  -5  -1  -1    3.76    0.89
  -5   1  -2  100.25    3.57
  -5  -1  -2  102.49    3.68
  -5   1  -3   10.29    1.48
  -5  -1  -3   14.01    1.73
  -5   1  -4   64.64    3.27
  -5  -1  -4   57.59    3.05
  -5   1  -5    1.50    0.79
  -5  -1  -5   -0.33    0.55
  -5   1  -6   43.03    3.61
  -5  -1  -6   34.48    3.19
  -5   2   6    0.15    0.90
  -5  -2   6    0.34    0.91
  -5   2   5   83.71    4.72
  -5  -2   5   91.04    4.53
   5   2  -4    3.84    0.98
  -5  -2   4    4.22    1.20
  -5   2   3   95.58    3.68
   5   2  -3   95.15    3.54
  -5  -2   3   97.71    3.89
  -5   2   2    3.10    0.74
   5   2  -2    5.32    1.07
   5   2  -1  109.72    3.74
  -5   2   1  106.08    3.31
  -5   2   0    0.19    0.35
  -5  -2   0    0.62    0.46
  -5   2  -1  100.44    3.44
  -5  -2  -1  100.99    3.53
  -5   2  -2    0.45    0.46
  -5  -2  -2    0.64    0.49
  -5   2  -3   45.08    2.54
  -5  -2  -3   40.62    2.46
  -5   2  -4    0.28    0.53
  -5  -2  -4    0.79    0.67
  -5   2  -5   96.89    4.27
  -5  -2  -5   91.14    4.09
  -5   2  -6   -0.03    0.68
  -5  -2  -6   -0.34    0.60
  -5   3   6   86.28    5.25
   5   3  -5    0.63    0.71
  -5   3   5    1.40    1.05
   5   3  -4   45.70    2.65
  -5   3   4   45.68    2.78
  -5   3   3    0.08    0.44
   5   3  -3    0.14    0.51
   5   3  -2   56.07    2.69
  -5   3   2   63.88    2.46
   5   3  -1    0.35    0.44
  -5   3   1    0.19    0.36
  -5   3   0   86.31    3.04
   5   3   0   90.04    3.42
  -5  -3   0   91.56    3.37
  -5   3  -1    1.06    0.50
  -5  -3  -1    1.31    0.53
  -5   3  -2   80.02    3.21
  -5  -3  -2   76.89    3.25
   5   3   3   -0.74    0.47
  -5   3  -3    0.25    0.48
  -5  -3  -3    0.75    0.57
   5   3   4   55.80    3.36
  -5   3  -4   49.65    2.89
  -5  -3  -4   54.09    2.95
  -5   3  -5    0.57    0.72
  -5  -3  -5   -0.61    0.51
  -5   3  -6   57.59    3.57
  -5  -3  -6   60.07    3.57
  -5   4   6   -0.69    1.01
   5   4  -5   58.33    3.24
  -5   4   5   68.84    4.44
  -5   4   4    6.59    1.50
   5   4  -4   10.31    1.58
  -5   4   3   74.43    3.43
   5   4  -3   68.03    3.19
  -5   4   2    1.78    0.71
   5   4  -2    2.88    0.87
   5   4  -1  129.46    4.23
  -5   4   1  128.29    3.56
   5   4   0    0.05    0.33
  -5   4   0    0.37    0.32
   5   4   1   90.40    3.83
  -5   4  -1   83.38    3.10
  -5  -4  -1   76.38    3.16
  -5   4  -2    0.14    0.42
   5   4   2   -0.24    0.40
  -5  -4  -2    0.20    0.51
   5   4   3   49.32    3.02
  -5   4  -3   57.68    2.95
  -5  -4  -3   53.99    2.84
   5   4   4    0.37    0.72
  -5   4  -4    0.03    0.52
  -5  -4  -4    1.80    0.77
   5   4   5   59.55    3.60
  -5   4  -5   58.85    3.40
  -5  -4  -5   59.31    3.28
  -5   4  -6   -0.61    0.69
   5   4   6   -0.56    0.88
  -5  -4  -6   -0.06    0.78
   5   5  -6   10.76    1.91
  -5   5   6   18.05    3.06
   5   5  -5    0.08    0.66
   5   5  -4   83.78    3.79
  -5   5   4   85.50    3.95
  -5   5   3   11.59    1.78
   5   5  -3   12.46    1.72
  -5   5   2   52.06    2.94
   5   5  -2   62.65    3.06
  -5   5   1    1.57    0.69
   5   5  -1    1.63    0.67
  -5   5   1    1.66    0.61
   5   5   0  299.71    6.86
  -5   5   0  288.04    5.76
   5   5   0  302.09    7.15
   5   5   1   -0.09    0.51
  -5   5  -1    0.12    0.44
  -5  -5  -1   -0.18    0.42
   5   5   2   56.38    3.17
  -5   5  -2   48.06    2.54
  -5  -5  -2   47.85    2.60
   5   5   3    9.01    1.70
  -5   5  -3   10.40    1.61
  -5  -5  -3    7.01    1.25
  -5   5  -4   44.99    2.80
   5   5   4   45.55    3.09
  -5  -5  -4   57.18    3.02
   5   5   5    1.26    0.98
  -5   5  -5    0.85    0.72
  -5  -5  -5    3.11    1.04
   5   5   6   45.59    3.42
  -5   5  -6   45.00    3.97
   5   6  -5   81.21    4.06
  -5   6   4   17.31    2.27
   5   6  -4   15.80    2.11
  -5   6   3   50.68    3.15
   5   6  -3   51.21    2.92
  -5   6   2   28.77    2.75
   5   6  -2   29.84    2.63
  -5   6   1   49.22    2.88
   5   6  -1   48.00    2.66
  -5   6   0    0.28    0.50
   5   6   0    0.99    0.57
   5   6   0    1.67    0.76
  -5   6   0    0.01    0.45
  -5   6  -1   86.22    3.21
   5   6   1   85.87    3.85
  -5  -6  -1   81.21    3.43
  -5   6  -2   22.20    2.11
   5   6   2   18.60    2.26
  -5  -6  -2   22.30    2.19
  -5   6  -3   53.72    2.92
   5   6   3   49.74    3.13
  -5  -6  -3   51.22    2.85
  -5   6  -4   20.85    2.34
   5   6   4   14.04    2.16
  -5  -6  -4   18.69    2.13
   5   6   5   78.40    4.30
  -5   6  -5   84.83    4.16
  -5  -6  -5   76.30    3.75
   5   7  -5    1.82    1.02
   5   7  -4   33.60    3.07
  -5   7   3   43.84    2.98
   5   7  -3   47.96    2.93
  -5   7   2   61.83    3.49
   5   7  -2   68.56    3.42
   5   7  -1   15.11    1.88
  -5   7   1   15.87    2.07
   5   7  -1   17.13    2.00
   5   7   0   24.27    2.33
   5   7   0   27.07    2.60
  -5   7   0   30.31    2.31
   5   7   1    0.19    0.52
  -5   7  -1    0.87    0.57
   5   7   1    0.72    0.63
  -5   7  -1    2.40    0.87
  -5  -7  -1    0.53    0.50
  -5   7  -2  159.54    4.81
  -5   7  -2  160.54    5.39
   5   7   2  159.17    5.57
  -5  -7  -2  167.40    5.01
  -5   7  -3   66.87    3.27
   5   7   3   73.86    3.90
  -5  -7  -3   62.58    3.17
   5   7   4   64.71    3.79
  -5   7  -4   59.06    3.32
  -5  -7  -4   61.18    3.19
   5   7   5    4.86    1.52
  -5   7  -5    3.25    1.42
  -5   8   5   21.99    2.89
   5   8  -5   21.35    2.69
  -5   8   4    8.31    1.77
   5   8  -4   10.59    1.86
   5   8  -3   73.71    3.73
  -5   8   3   74.61    3.97
   5   8  -2   43.65    2.80
  -5   8   2   45.64    3.08
   5   8  -1  181.17    5.57
   5   8  -1  178.76    5.50
  -5   8   1  166.00    5.74
   5   8   0    6.65    1.44
   5   8   0    3.66    1.00
  -5   8   0    4.88    1.27
  -5   8  -1   71.20    3.63
   5   8   1   83.50    3.69
  -5   8  -1   77.32    3.12
   5   8   1   76.35    3.80
  -5   8  -2   18.63    1.97
  -5   8  -2   21.54    2.35
   5   8   2   18.63    2.45
  -5  -8  -2   19.90    2.07
   5   8   3   31.26    3.24
  -5   8  -3   28.23    2.54
  -5   8  -3   31.92    2.42
  -5  -8  -3   29.55    2.66
   5   8   4   30.14    3.26
  -5   8  -4   32.01    3.01
  -5  -8  -4   27.25    2.60
  -5   8  -5   13.12    2.40
   5   8   5   15.87    2.47
  -5   9   4   70.48    4.10
   5   9  -4   65.89    3.83
  -5   9   3   63.93    3.82
   5   9  -3   75.35    3.93
  -5   9   2   35.83    3.37
   5   9  -2   38.39    3.25
  -5   9   1   22.65    2.63
   5   9  -1   23.53    2.45
   5   9  -1   28.11    2.70
   5   9   0  184.83    5.91
  -5   9   0  189.02    6.26
   5   9   0  185.29    5.70
  -5   9  -1    1.79    0.95
   5   9   1    4.49    1.28
   5   9   1    3.74    1.15
  -5   9  -2   10.93    1.65
   5   9   2   11.88    1.94
  -5   9  -2   11.64    1.81
  -5  -9  -2   13.58    1.83
   5   9   3   47.62    3.32
  -5   9  -3   54.47    3.23
  -5   9  -3   50.79    3.19
  -5  -9  -3   51.79    3.01
  -5   9  -4   30.88    3.23
   5   9   4   38.94    3.85
   5  10  -4    3.48    1.31
  -5  10   4    3.16    1.54
  -5  10   3   23.26    2.88
   5  10  -3   31.90    3.20
   5  10  -2   52.67    3.25
  -5  10   2   53.13    3.57
   5  10  -1   27.11    2.70
  -5  10   1   22.99    2.80
   5  10  -1   31.01    2.92
  -5  10   0    1.21    0.94
   5  10   0    1.18    0.71
   5  10   0    0.96    0.84
  -5  10  -1  132.18    5.32
   5  10   1  137.30    5.42
   5  10   1  122.28    4.71
   5  10   2   18.86    2.53
  -5  10  -2   20.00    2.36
  -5  10  -2   21.12    2.51
  -5 -10  -2   27.40    2.55
  -5  10  -3   46.81    3.24
   5  10   3   45.62    4.04
  -5  10  -3   43.16    3.10
  -5 -10  -3   45.69    3.20
  -5  10  -4   23.55    3.04
   5  10   4   26.23    3.19
   5  11  -3   68.99    3.97
  -5  11   3   64.06    4.14
  -5  11   2   52.95    3.66
   5  11  -2   56.91    3.48
  -5  11   1   43.66    3.25
   5  11  -1   41.55    2.91
   5  11   0   64.97    3.54
   5  11   0   55.96    3.51
  -5  11   0   43.77    3.23
   5  11   1   14.70    2.31
   5  11   1   13.42    2.03
  -5  11  -1   18.36    2.50
  -5  11  -2   70.27    3.99
   5  11   2   79.10    4.41
  -5 -11  -2   76.93    3.68
  -5  11  -3   84.60    4.51
   5  11   3   94.60    4.93
   5  12  -2    0.61    0.89
  -5  12   2    3.06    1.33
   5  12  -1  176.25    6.11
  -5  12   1  163.68    6.42
  -5  12   0   -0.24    0.92
   5  12   0    1.18    0.92
   5  12   0    0.98    1.00
   5  12   1  125.85    5.49
   5  12   1  133.29    5.15
  -5  12  -1  114.61    5.19
   5  12   2    0.96    0.85
  -5  12  -2   -0.69    0.82
  -5  13   1   23.43    3.13
   5  13  -1   23.00    2.69
   5  13   0   20.43    2.52
  -5  13   0   22.07    3.00
   5  13   0   19.41    2.67
  -5  13  -1   11.86    2.22
   5  13   1   15.54    2.56
   5  13   1   15.57    2.33
  -6   0   5    0.63    1.05
  -6   0   4   96.18    4.76
   6   0  -3    0.32    0.56
  -6   0   2  429.47    8.27
  -6   0   1    0.64    0.49
  -6   0   0    1.28    0.61
  -6   0  -1    0.02    0.51
  -6   0  -2   32.21    2.28
  -6   0  -3    0.23    0.48
  -6   0  -4  173.01    5.77
  -6   0  -5    0.73    0.82
  -6   1   5   35.16    3.91
   6   1  -3   49.80    2.77
  -6   1   2    1.88    0.75
   6   1  -2    1.40    0.76
  -6   1   1   88.75    3.41
  -6  -1   1   87.97    3.52
  -6   1   0  195.56    5.30
  -6  -1   0  191.41    5.33
  -6   1  -1   52.54    2.79
  -6  -1  -1   51.75    2.78
  -6   1  -2  117.35    4.28
  -6  -1  -2  124.84    4.48
  -6   1  -3  141.57    4.94
  -6  -1  -3  139.07    4.89
  -6   1  -4    0.30    0.57
  -6  -1  -4    0.72    0.78
  -6   1  -5   29.94    3.09
  -6  -1  -5   40.74    3.64
  -6   2   5    5.87    1.68
   6   2  -4   71.62    3.40
   6   2  -3    8.38    1.43
  -6   2   3    7.12    1.44
  -6   2   2   35.27    2.18
   6   2  -2   37.02    2.41
  -6   2   1    5.46    1.09
  -6  -2   1    7.71    1.34
  -6   2   0  223.95    5.66
  -6  -2   0  224.44    5.82
  -6   2  -1    6.47    1.19
  -6  -2  -1    8.78    1.46
  -6   2  -2  147.09    4.81
  -6  -2  -2  149.57    4.97
  -6   2  -3    2.14    0.85
  -6  -2  -3    3.07    1.04
  -6   2  -4  110.77    4.66
  -6  -2  -4  112.49    4.64
  -6   2  -5    1.49    0.98
  -6  -2  -5   -0.27    0.67
   6   3  -4   53.47    3.08
  -6   3   3  195.89    6.01
   6   3  -3  187.47    5.58
   6   3  -2    0.65    0.63
  -6   3   1   69.15    2.95
   6   3  -1   70.25    3.35
  -6   3   0   69.18    3.03
  -6  -3   0   66.10    3.16
  -6   3  -1   42.43    2.50
  -6  -3  -1   47.11    2.67
  -6   3  -2   49.57    2.82
  -6  -3  -2   48.39    2.86
  -6   3  -3   13.95    1.86
  -6  -3  -3   16.61    2.14
  -6   3  -4   -0.20    0.54
  -6  -3  -4    0.76    0.72
  -6   3  -5   82.74    4.31
  -6  -3  -5   74.43    3.99
   6   4  -5   15.88    2.12
  -6   4   5   16.95    2.84
   6   4  -4   36.23    3.06
  -6   4   4   47.67    3.26
   6   4  -3   13.89    1.93
  -6   4   3   14.97    2.14
   6   4  -2  242.21    6.47
  -6   4   2  233.90    6.75
  -6   4   1   10.44    1.41
   6   4  -1   11.84    1.72
  -6   4   0   30.81    2.02
  -6  -4   0   33.92    2.33
  -6   4  -1   15.07    1.82
  -6  -4  -1   10.86    1.61
  -6   4  -2   34.83    2.90
  -6  -4  -2   44.26    2.78
  -6   4  -3   12.08    1.81
  -6  -4  -3   10.58    1.69
  -6   4  -4   91.83    4.24
  -6  -4  -4  102.68    4.40
  -6   4  -5    2.70    1.04
  -6  -4  -5    3.80    1.23
   6   5  -5   25.28    2.83
   6   5  -4    4.95    1.23
  -6   5   4    5.78    1.58
   6   5  -3   20.37    2.34
  -6   5   3   16.04    2.24
  -6   5   2    1.09    0.73
   6   5  -2    1.69    0.85
  -6   5   1  140.74    5.30
   6   5  -1  136.97    4.90
  -6   5   0    5.81    1.13
   6   5   0    4.17    1.06
  -6  -5   0    7.29    1.38
  -6   5  -1   52.25    2.73
  -6  -5  -1   56.81    3.01
  -6   5  -2   11.68    1.72
  -6  -5  -2    9.60    1.59
  -6   5  -3  233.61    6.61
   6   5   3  228.52    7.34
  -6  -5  -3  221.07    6.42
   6   5   4   -0.40    0.74
  -6   5  -4   -0.39    0.70
  -6  -5  -4    0.09    0.70
  -6   5  -5   12.61    2.10
  -6  -5  -5   13.69    2.14
  -6   6   4   35.46    3.46
   6   6  -4   29.57    2.99
   6   6  -3   19.17    2.40
  -6   6   3   15.90    2.28
  -6   6   2   39.17    2.87
   6   6  -2   37.63    2.66
  -6   6   1   12.31    1.92
   6   6  -1   11.16    1.76
   6   6   0   47.87    2.90
  -6   6   0   50.11    3.22
  -6   6  -1   42.76    2.57
   6   6   1   44.36    3.07
  -6  -6  -1   49.64    2.88
   6   6   2   77.96    4.14
  -6   6  -2   75.35    3.53
  -6  -6  -2   74.51    3.59
   6   6   3   12.47    2.17
  -6   6  -3    8.55    1.58
  -6  -6  -3   10.04    1.71
  -6   6  -4   46.43    3.16
   6   6   4   46.38    3.45
  -6  -6  -4   44.95    2.99
  -6   7   4    5.22    1.56
   6   7  -4    7.89    1.67
   6   7  -3  113.77    4.82
  -6   7   3  131.20    5.49
   6   7  -2    0.74    0.69
  -6   7   2    2.25    1.01
  -6   7   1   61.90    3.67
   6   7  -1   50.90    3.06
  -6   7   0    6.19    1.43
   6   7   0    2.74    1.09
  -6   7  -1   36.69    2.41
  -6   7  -1   36.15    2.78
   6   7   1   32.02    3.16
  -6  -7  -1   40.62    2.69
   6   7   2    0.81    0.75
  -6   7  -2    0.27    0.66
  -6   7  -2    0.07    0.57
  -6  -7  -2   -0.18    0.59
   6   7   3   17.18    2.57
  -6   7  -3   13.74    1.92
  -6  -7  -3   13.28    1.98
   6   7   4    1.45    1.02
  -6   7  -4    0.97    0.79
  -6  -7  -4   -0.74    0.79
  -6   8   4   30.25    3.39
   6   8  -4   27.02    3.05
  -6   8   3    3.79    1.38
   6   8  -3    3.55    1.15
  -6   8   2   66.29    4.02
   6   8  -2   72.16    3.82
   6   8  -1    1.14    0.74
  -6   8   1    2.42    1.08
  -6   8   0   88.10    4.40
   6   8   0   84.36    4.04
   6   8   0   87.19    4.29
   6   8   1   21.56    2.72
  -6   8  -1   20.89    2.54
  -6  -8  -1   19.30    2.29
  -6   8  -2   37.65    2.63
  -6   8  -2   38.07    3.49
   6   8   2   42.75    3.22
  -6  -8  -2   40.94    2.76
  -6   8  -3    4.99    1.22
   6   8   3    6.46    1.65
  -6   8  -3    5.09    1.40
  -6  -8  -3    6.23    1.43
   6   8   4   33.65    3.66
  -6   8  -4   29.19    2.96
  -6  -8  -4   38.91    3.35
   6   9  -3   29.74    3.12
  -6   9   3   27.86    3.21
   6   9  -2    1.57    0.88
  -6   9   2    2.27    1.17
  -6   9   1   64.93    4.09
   6   9  -1   62.53    3.60
   6   9  -1   70.25    3.81
   6   9   0    2.44    1.16
  -6   9   0    1.62    0.96
   6   9   0    2.79    1.17
   6   9   1   33.54    3.37
  -6   9  -1   35.78    3.44
  -6  -9  -1   40.15    2.80
  -6   9  -2    1.20    0.96
  -6   9  -2    0.82    0.89
   6   9   2    1.56    1.13
  -6  -9  -2    0.15    0.71
  -6   9  -3   69.25    3.72
   6   9   3   78.23    4.59
  -6   9  -3   72.96    4.12
  -6  -9  -3   62.92    3.63
   6  10  -2   53.83    3.48
  -6  10   2   54.81    3.89
  -6  10   1    0.40    0.99
   6  10  -1    0.83    0.78
   6  10   0   32.80    3.18
  -6  10   0   26.72    3.21
   6  10   0   29.80    3.21
  -6  10  -1   17.02    2.52
   6  10   1   18.61    2.68
  -6 -10  -1   21.01    2.50
   6  10   2   43.31    4.10
  -6  10  -2   44.82    3.34
  -6 -10  -2   33.83    3.15
  -6  11   1   34.99    3.64
   6  11  -1   35.21    3.32
   6  11   0    0.47    0.92
  -6  11   0   -0.83    0.90
   6  11   0   -0.12    0.83
  -6  11  -1   27.08    3.30
   6  11   1   25.63    3.08
  -6 -11  -1   26.59    2.86
  -7   0   2   -0.25    0.54
  -7   0   1   42.26    2.66
  -7   0   0   -0.17    0.53
  -7   0  -1  108.68    4.42
  -7   0  -2    0.59    0.61
  -7   0  -3    7.19    1.51
  -7   0  -4   -0.57    0.65
   7   1  -3    2.14    1.02
  -7  -1   3    1.05    0.88
  -7   1   2   41.86    2.70
  -7  -1   2   39.09    2.63
  -7   1   1   17.56    2.07
  -7  -1   1   21.59    2.37
  -7   1   0   39.59    2.59
  -7  -1   0   39.15    2.66
  -7   1  -1    3.98    1.10
  -7  -1  -1    3.80    1.16
  -7   1  -2   58.91    3.32
  -7  -1  -2   61.84    3.44
  -7   1  -3    8.93    1.70
  -7  -1  -3    8.46    1.64
  -7   1  -4   27.49    3.01
  -7  -1  -4   27.61    2.94
   7   2  -3   30.51    2.95
  -7   2   3   29.84    3.03
  -7  -2   2    0.65    0.68
  -7   2   1   33.25    2.81
  -7  -2   1   39.87    2.63
  -7   2   0   12.65    1.84
  -7  -2   0   11.13    1.67
  -7   2  -1   60.33    3.19
  -7  -2  -1   60.16    3.32
  -7   2  -2    0.17    0.71
  -7  -2  -2    0.12    0.62
  -7   2  -3   92.15    4.29
  -7  -2  -3   81.53    4.05
  -7   2  -4    5.84    1.48
  -7  -2  -4    5.66    1.59
   7   3  -4   28.51    2.90
   7   3  -3    0.93    0.85
  -7   3   3    0.33    0.65
   7   3  -2   69.93    3.64
  -7   3   1    0.29    0.69
  -7  -3   1   -0.09    0.52
  -7   3   0  128.76    4.61
  -7  -3   0  123.22    4.71
  -7   3  -1    0.57    0.71
  -7  -3  -1    1.35    0.86
  -7  -3  -2   49.09    3.14
  -7   3  -3    0.00    0.66
  -7  -3  -3   -0.24    0.68
  -7   3  -4   23.98    2.81
  -7  -3  -4   25.62    2.90
   7   4  -3   41.50    3.53
  -7   4   3   30.13    3.13
  -7   4   2    6.25    1.56
   7   4  -2    3.55    1.21
  -7  -4   1   40.50    2.81
  -7   4   0   24.30    2.41
  -7  -4   0   23.14    2.48
  -7   4  -1   43.80    2.83
  -7  -4  -1   49.98    3.06
  -7   4  -2    0.00    0.66
  -7  -4  -2    0.65    0.78
  -7   4  -3   59.67    3.61
  -7  -4  -3   63.62    3.66
   7   5  -3    6.82    1.50
  -7   5   3    5.10    1.57
   7   5  -2   25.55    2.79
  -7   5   2   19.64    2.56
   7   5  -1   18.13    2.36
  -7   5   1   18.69    2.51
  -7  -5   1   17.05    2.23
  -7  -5   0   21.39    2.44
  -7   5  -1    3.21    1.06
  -7  -5  -1    4.59    1.16
  -7   5  -2   89.35    4.16
  -7  -5  -2   99.30    4.49
  -7   5  -3    8.33    1.60
  -7  -5  -3   11.72    1.99
   7   6  -3   83.58    4.27
  -7   6   3   90.33    4.78
   7   6  -2   19.95    2.53
  -7   6   2   16.41    2.41
   7   6  -1   38.25    3.48
  -7   6   1   31.72    3.29
  -7   6   0   27.70    3.08
  -7  -6   0   26.50    2.78
  -7   6  -1  137.28    4.94
  -7  -6  -1  130.66    5.09
  -7   6  -2    0.92    0.76
  -7  -6  -2    2.00    0.99
  -7   6  -3    2.51    1.19
  -7  -6  -3    2.63    1.21
   7   7  -2   59.74    3.77
  -7   7   2   65.34    4.06
  -7   7   1   67.02    4.07
   7   7  -1   71.53    3.97
  -7   7   0   86.60    4.60
  -7  -7   0   89.51    4.31
  -7   7  -1    5.63    1.54
  -7  -7  -1    3.83    1.21
  -7   7  -2   46.98    3.09
  -7   7  -2   46.76    3.53
  -7  -7  -2   47.59    3.86
  -7   8   1   37.66    3.81
   7   8  -1   40.52    3.67
  -7   8   0    5.48    1.53
  -7  -8   0    3.44    1.23
  -7   8  -1   13.87    2.40
  -7  -8  -1   15.36    2.24
  -8   0   2   11.09    1.96
  -8   0   1    0.30    0.79
  -8   0   0  160.51    5.77
  -8   0  -1   -0.71    0.64
  -8   0  -2   25.16    2.75
  -8  -1   2   18.27    2.39
  -8   1   1   60.93    3.62
  -8  -1   1   68.51    3.75
  -8   1   0    6.56    1.60
  -8  -1   0   10.13    1.87
  -8   1  -1   46.59    3.21
  -8  -1  -1   45.62    3.21
  -8   1  -2   47.54    3.95
  -8  -1  -2   50.73    3.40
  -8  -2   1    0.03    0.79
  -8   2   0   41.57    3.43
  -8  -2   0   38.38    3.51
  -8   2  -1    0.11    0.81
  -8  -2  -1    0.88    0.85
  -8  -3   1   24.26    2.75
  -8   3   0    7.70    1.68
  -8  -3   0    5.15    1.33
  -8   3  -1   37.11    3.32
  -8  -3  -1   29.96    3.11
  -8  -4   0   98.93    4.61
   0   0   0    0.00    0.00
;
_shelx_hkl_checksum              42896
_olex2_submission_special_instructions 'No special instructions were received'
loop_
_space_group_symop_operation_xyz
'x, y, z'
'x+1/2, -y, z+1/2'
loop_
_atom_site_label
_atom_site_type_symbol
_atom_site_fract_x
_atom_site_fract_y
_atom_site_fract_z
_atom_site_U_iso_or_equiv
_atom_site_adp_type
_atom_site_occupancy
_atom_site_site_symmetry_order
_atom_site_calc_flag
_atom_site_refinement_flags_posn
_atom_site_refinement_flags_adp
_atom_site_refinement_flags_occupancy
_atom_site_disorder_assembly
_atom_site_disorder_group
Ba1 Ba 0.64638(17) 0.74962(8) 0.91099(16) 0.01177(14) Uani 1 1 d . . . . .
V1 V 0.2540(2) 0.95582(11) 0.6849(2) 0.0060(4) Uani 1 1 d . . . . .
V2 V 0.8677(2) 0.54449(11) 0.5150(2) 0.0053(4) Uani 1 1 d . . . . .
P1 P 0.7573(3) 1.00015(16) 0.6851(3) 0.0053(5) Uani 1 1 d . . . . .
P2 P 0.8645(3) 0.49658(17) 0.0176(3) 0.0054(5) Uani 1 1 d . . . . .
O1 O 0.6780(11) 0.4201(5) 0.0030(10) 0.0103(13) Uani 1 1 d . . . . .
O2 O 0.8435(14) 0.7286(7) 0.5198(15) 0.016(2) Uani 1 1 d . . . . .
H2A H 0.961277 0.759319 0.512591 0.024 Uiso 1 1 d R U . . .
H2B H 0.773037 0.753729 0.418621 0.024 Uiso 1 1 d R U . . .
O3 O 1.0599(10) 0.4275(5) 0.0328(12) 0.0095(14) Uani 1 1 d . . . . .
O4 O 0.7763(11) 1.0703(5) 0.4922(10) 0.0083(14) Uani 1 1 d . . . . .
O5 O 0.8743(13) 0.5683(6) -0.1748(11) 0.0091(16) Uani 1 1 d . . . . .
O6 O 0.251(2) 0.7668(8) 0.7171(19) 0.011(2) Uani 1 1 d . . . . .
H6A H 0.149632 0.767763 0.810941 0.016 Uiso 1 1 d R U . . .
H6B H 0.271272 0.712403 0.647001 0.016 Uiso 1 1 d R U . . .
O7 O 0.5630(12) 0.9283(6) 0.6732(13) 0.0103(17) Uani 1 1 d . . . . .
O8 O 0.8451(12) 0.5707(5) 0.2048(11) 0.0109(14) Uani 1 1 d . . . . .
O9 O 0.9459(11) 0.9252(5) 0.7062(11) 0.0104(14) Uani 1 1 d . . . . .
O10 O 0.7441(11) 1.0755(5) 0.8727(10) 0.0099(14) Uani 1 1 d . . . . .
O11 O 0.2497(15) 1.0804(7) 0.6744(13) 0.015(2) Uani 1 1 d . . . . .
O12 O 0.8812(14) 0.4197(7) 0.5102(14) 0.015(2) Uani 1 1 d . . . . .
O13 O 1.046(2) 0.7494(13) 1.078(2) 0.018(3) Uani 1 1 d . . . . .
H13A H 1.046998 0.795661 1.177414 0.028 Uiso 1 1 d R U . . .
H13B H 1.047238 0.688071 1.129154 0.028 Uiso 1 1 d R U . . .
O14 O 0.4892(16) 0.7559(8) 1.3060(15) 0.017(2) Uani 1 1 d . . . . .
H14A H 0.467615 0.698421 1.371129 0.025 Uiso 1 1 d R U . . .
H14B H 0.391645 0.801331 1.311789 0.025 Uiso 1 1 d R U . . .
loop_
_atom_site_aniso_label
_atom_site_aniso_U_11
_atom_site_aniso_U_22
_atom_site_aniso_U_33
_atom_site_aniso_U_23
_atom_site_aniso_U_13
_atom_site_aniso_U_12
Ba1 0.0129(2) 0.0109(2) 0.0116(2) -0.0005(3) 0.00051(14) 0.0016(3)
V1 0.0050(8) 0.0076(8) 0.0055(8) 0.0006(5) 0.0000(7) 0.0008(5)
V2 0.0056(8) 0.0059(8) 0.0044(8) -0.0001(5) 0.0010(6) 0.0006(5)
P1 0.0041(11) 0.0073(11) 0.0045(11) -0.0004(8) -0.0006(9) -0.0007(8)
P2 0.0060(12) 0.0058(11) 0.0043(11) -0.0003(8) 0.0013(9) 0.0002(8)
O1 0.007(3) 0.009(3) 0.015(4) -0.002(3) 0.001(3) 0.000(2)
O2 0.012(4) 0.021(5) 0.015(4) 0.001(3) -0.006(3) -0.001(3)
O3 0.008(4) 0.009(3) 0.011(4) 0.001(3) 0.001(3) -0.001(2)
O4 0.010(4) 0.007(3) 0.008(3) 0.003(2) 0.000(3) 0.000(3)
O5 0.017(4) 0.008(3) 0.002(3) 0.000(3) 0.002(3) 0.003(3)
O6 0.018(5) 0.005(4) 0.009(4) 0.000(3) 0.007(3) -0.001(3)
O7 0.004(4) 0.014(4) 0.013(4) 0.004(3) 0.000(3) -0.003(3)
O8 0.015(4) 0.011(3) 0.007(3) 0.002(3) 0.001(3) 0.002(3)
O9 0.010(4) 0.011(3) 0.010(4) 0.001(3) -0.002(3) 0.000(3)
O10 0.015(4) 0.009(3) 0.007(3) 0.002(2) 0.003(3) -0.002(3)
O11 0.018(5) 0.010(4) 0.018(5) 0.001(3) 0.001(4) 0.004(3)
O12 0.013(5) 0.015(4) 0.018(4) 0.001(3) -0.001(4) -0.001(3)
O13 0.019(5) 0.010(4) 0.026(6) -0.001(3) -0.003(4) -0.002(3)
O14 0.025(5) 0.010(4) 0.014(4) 0.003(4) -0.002(3) 0.000(4)
loop_
_atom_type_symbol
_atom_type_description
_atom_type_scat_dispersion_real
_atom_type_scat_dispersion_imag
_atom_type_scat_source
Ba Ba -0.3244 2.2819 'International Tables Vol C Tables 4.2.6.8 and 6.1.1.4'
H H 0.0000 0.0000 'International Tables Vol C Tables 4.2.6.8 and 6.1.1.4'
O O 0.0106 0.0060 'International Tables Vol C Tables 4.2.6.8 and 6.1.1.4'
P P 0.1023 0.0942 'International Tables Vol C Tables 4.2.6.8 and 6.1.1.4'
V V 0.3005 0.5294 'International Tables Vol C Tables 4.2.6.8 and 6.1.1.4'
loop_
_geom_angle_atom_site_label_1
_geom_angle_atom_site_label_2
_geom_angle_atom_site_label_3
_geom_angle
_geom_angle_site_symmetry_1
_geom_angle_site_symmetry_3
_geom_angle_publ_flag
V1 Ba1 H6B 51.8 . . ?
P2 Ba1 V1 157.85(5) 1_556 . ?
P2 Ba1 H6B 106.0 1_556 . ?
O2 Ba1 V1 91.40(18) . . ?
O2 Ba1 P2 84.71(19) . 1_556 ?
O2 Ba1 O6 91.1(3) . . ?
O2 Ba1 H6B 80.9 . . ?
O2 Ba1 O8 105.9(2) . 1_556 ?
O2 Ba1 O9 55.9(2) . . ?
O2 Ba1 O11 119.9(3) . 2_575 ?
O2 Ba1 O12 113.3(3) . 2_465 ?
O5 Ba1 V1 145.17(15) 1_556 . ?
O5 Ba1 P2 23.96(15) 1_556 1_556 ?
O5 Ba1 O2 60.8(2) 1_556 . ?
O5 Ba1 O6 116.4(3) 1_556 . ?
O5 Ba1 H6B 100.1 1_556 . ?
O5 Ba1 O7 132.1(2) 1_556 . ?
O5 Ba1 O8 47.11(19) 1_556 1_556 ?
O5 Ba1 O9 100.8(2) 1_556 . ?
O5 Ba1 O11 129.4(3) 1_556 2_575 ?
O5 Ba1 O12 73.8(2) 1_556 2_465 ?
O6 Ba1 V1 38.1(2) . . ?
O6 Ba1 P2 120.1(2) . 1_556 ?
O6 Ba1 H6B 16.4 . . ?
O6 Ba1 O8 131.6(3) . 1_556 ?
O6 Ba1 O9 107.4(3) . . ?
O6 Ba1 O11 114.2(3) . 2_575 ?
O6 Ba1 O12 67.7(3) . 2_465 ?
O7 Ba1 V1 29.20(16) . . ?
O7 Ba1 P2 156.07(17) . 1_556 ?
O7 Ba1 O2 71.4(3) . . ?
O7 Ba1 O6 61.8(3) . . ?
O7 Ba1 H6B 70.7 . . ?
O7 Ba1 O8 166.6(2) . 1_556 ?
O7 Ba1 O9 47.42(19) . . ?
O7 Ba1 O11 74.9(2) . 2_575 ?
O7 Ba1 O12 129.5(3) . 2_465 ?
O8 Ba1 V1 161.07(14) 1_556 . ?
O8 Ba1 P2 25.26(13) 1_556 1_556 ?
O8 Ba1 H6B 122.3 1_556 . ?
O8 Ba1 O9 119.85(18) 1_556 . ?
O9 Ba1 V1 76.19(13) . . ?
O9 Ba1 P2 118.29(13) . 1_556 ?
O9 Ba1 H6B 111.1 . . ?
O11 Ba1 V1 81.4(2) 2_575 . ?
O11 Ba1 P2 119.4(2) 2_575 1_556 ?
O11 Ba1 H6B 130.5 2_575 . ?
O11 Ba1 O8 96.2(2) 2_575 1_556 ?
O11 Ba1 O9 64.5(2) 2_575 . ?
O12 Ba1 V1 102.47(19) 2_465 . ?
O12 Ba1 P2 59.88(19) 2_465 1_556 ?
O12 Ba1 H6B 61.3 2_465 . ?
O12 Ba1 O8 63.9(2) 2_465 1_556 ?
O12 Ba1 O9 168.8(2) 2_465 . ?
O12 Ba1 O11 126.6(3) 2_465 2_575 ?
O13 Ba1 V1 137.2(3) . . ?
O13 Ba1 P2 64.4(3) . 1_556 ?
O13 Ba1 O2 85.8(3) . . ?
O13 Ba1 O5 66.0(4) . 1_556 ?
O13 Ba1 O6 174.4(4) . . ?
O13 Ba1 H6B 164.4 . . ?
O13 Ba1 O7 112.6(4) . . ?
O13 Ba1 O8 54.0(3) . 1_556 ?
O13 Ba1 O9 67.0(3) . . ?
O13 Ba1 O11 63.7(4) . 2_575 ?
O13 Ba1 O12 117.8(4) . 2_465 ?
O14 Ba1 V1 94.9(2) . . ?
O14 Ba1 P2 89.7(2) . 1_556 ?
O14 Ba1 O2 173.7(3) . . ?
O14 Ba1 O5 113.6(3) . 1_556 ?
O14 Ba1 O6 94.2(3) . . ?
O14 Ba1 H6B 103.5 . . ?
O14 Ba1 O7 114.2(3) . . ?
O14 Ba1 O8 68.0(2) . 1_556 ?
O14 Ba1 O9 125.2(2) . . ?
O14 Ba1 O11 60.7(3) . 2_575 ?
O14 Ba1 O12 65.9(3) . 2_465 ?
O14 Ba1 O13 89.2(4) . . ?
O4 V1 Ba1 58.7(2) 2_475 . ?
O4 V1 O6 75.6(3) 2_475 . ?
O4 V1 O7 86.6(3) 2_475 . ?
O4 V1 O9 88.2(3) 2_475 1_455 ?
O4 V1 O10 158.9(3) 2_475 2_474 ?
O6 V1 Ba1 45.7(3) . . ?
O7 V1 Ba1 42.8(2) . . ?
O7 V1 O6 80.5(4) . . ?
O7 V1 O9 158.6(3) . 1_455 ?
O7 V1 O10 87.5(3) . 2_474 ?
O9 V1 Ba1 118.0(2) 1_455 . ?
O9 V1 O6 78.1(4) 1_455 . ?
O9 V1 O10 90.0(3) 1_455 2_474 ?
O10 V1 Ba1 104.3(2) 2_474 . ?
O10 V1 O6 83.5(3) 2_474 . ?
O11 V1 Ba1 134.4(4) . . ?
O11 V1 O4 102.1(4) . 2_475 ?
O11 V1 O6 177.2(4) . . ?
O11 V1 O7 101.0(4) . . ?
O11 V1 O9 100.4(4) . 1_455 ?
O11 V1 O10 98.9(4) . 2_474 ?
O1 V2 Ba1 103.24(19) 2_565 . ?
O1 V2 O2 80.9(3) 2_565 . ?
O2 V2 Ba1 45.5(2) . . ?
O3 V2 Ba1 59.1(2) 2_465 . ?
O3 V2 O1 156.8(3) 2_465 2_565 ?
O3 V2 O2 75.9(3) 2_465 . ?
O3 V2 O5 86.3(3) 2_465 1_556 ?
O3 V2 O8 87.6(3) 2_465 . ?
O5 V2 Ba1 42.7(2) 1_556 . ?
O5 V2 O1 89.2(3) 1_556 2_565 ?
O5 V2 O2 80.6(3) 1_556 . ?
O5 V2 O8 161.5(3) 1_556 . ?
O8 V2 Ba1 120.0(2) . . ?
O8 V2 O1 89.6(3) . 2_565 ?
O8 V2 O2 80.9(3) . . ?
O12 V2 Ba1 134.6(3) . . ?
O12 V2 O1 99.7(4) . 2_565 ?
O12 V2 O2 179.3(5) . . ?
O12 V2 O3 103.5(4) . 2_465 ?
O12 V2 O5 99.8(4) . 1_556 ?
O12 V2 O8 98.7(4) . . ?
O4 P1 O7 112.0(4) . . ?
O4 P1 O9 111.7(4) . . ?
O4 P1 O10 105.4(4) . . ?
O9 P1 O7 105.1(4) . . ?
O10 P1 O7 111.4(4) . . ?
O10 P1 O9 111.4(4) . . ?
O1 P2 Ba1 105.1(3) . 1_554 ?
O3 P2 Ba1 148.0(3) . 1_554 ?
O3 P2 O1 105.5(4) . . ?
O3 P2 O5 111.1(4) . . ?
O5 P2 Ba1 47.6(3) . 1_554 ?
O5 P2 O1 111.3(4) . . ?
O8 P2 Ba1 63.8(3) . 1_554 ?
O8 P2 O1 112.0(4) . . ?
O8 P2 O3 112.0(4) . . ?
O8 P2 O5 105.0(4) . . ?
P2 O1 V2 127.5(4) . 2_464 ?
Ba1 O2 H2A 113.7 . . ?
Ba1 O2 H2B 113.7 . . ?
V2 O2 Ba1 97.8(3) . . ?
V2 O2 H2A 113.8 . . ?
V2 O2 H2B 113.7 . . ?
H2A O2 H2B 104.5 . . ?
P2 O3 V2 133.9(4) . 2_564 ?
P1 O4 V1 133.6(4) . 2_574 ?
V2 O5 Ba1 108.1(3) 1_554 1_554 ?
P2 O5 Ba1 108.4(4) . 1_554 ?
P2 O5 V2 134.4(4) . 1_554 ?
Ba1 O6 H6A 111.2 . . ?
Ba1 O6 H6B 91.9 . . ?
V1 O6 Ba1 96.2(4) . . ?
V1 O6 H6A 92.8 . . ?
V1 O6 H6B 141.4 . . ?
H6A O6 H6B 119.1 . . ?
V1 O7 Ba1 108.0(3) . . ?
P1 O7 Ba1 107.9(4) . . ?
P1 O7 V1 133.1(5) . . ?
V2 O8 Ba1 136.0(3) . 1_554 ?
P2 O8 Ba1 91.0(3) . 1_554 ?
P2 O8 V2 131.3(4) . . ?
V1 O9 Ba1 138.0(3) 1_655 . ?
P1 O9 Ba1 90.2(3) . . ?
P1 O9 V1 129.5(4) . 1_655 ?
P1 O10 V1 129.6(4) . 2_575 ?
V1 O11 Ba1 142.9(5) . 2_474 ?
V2 O12 Ba1 143.4(5) . 2_564 ?
Ba1 O13 H13A 106.5 . . ?
Ba1 O13 H13B 98.9 . . ?
H13A O13 H13B 110.2 . . ?
Ba1 O14 H14A 119.1 . . ?
Ba1 O14 H14B 109.4 . . ?
H14A O14 H14B 116.4 . . ?
loop_
_geom_bond_atom_site_label_1
_geom_bond_atom_site_label_2
_geom_bond_distance
_geom_bond_site_symmetry_2
_geom_bond_publ_flag
Ba1 V1 3.9111(17) . ?
Ba1 P2 3.587(2) 1_556 ?
Ba1 O2 2.815(9) . ?
Ba1 O5 2.793(7) 1_556 ?
Ba1 O6 2.816(14) . ?
Ba1 H6B 2.9643 . ?
Ba1 O7 2.794(8) . ?
Ba1 O8 3.218(7) 1_556 ?
Ba1 O9 3.229(7) . ?
Ba1 O11 2.825(9) 2_575 ?
Ba1 O12 2.822(9) 2_465 ?
Ba1 O13 2.765(14) . ?
Ba1 O14 2.720(10) . ?
V1 O4 1.996(7) 2_475 ?
V1 O6 2.426(10) . ?
V1 O7 2.006(8) . ?
V1 O9 2.011(7) 1_455 ?
V1 O10 2.035(7) 2_474 ?
V1 O11 1.595(8) . ?
V2 O1 2.035(7) 2_565 ?
V2 O2 2.359(10) . ?
V2 O3 2.001(7) 2_465 ?
V2 O5 2.005(7) 1_556 ?
V2 O8 2.015(7) . ?
V2 O12 1.598(9) . ?
P1 O4 1.529(7) . ?
P1 O7 1.546(8) . ?
P1 O9 1.544(7) . ?
P1 O10 1.541(7) . ?
P2 O1 1.543(7) . ?
P2 O3 1.532(7) . ?
P2 O5 1.535(7) . ?
P2 O8 1.531(7) . ?
O2 H2A 0.8500 . ?
O2 H2B 0.8500 . ?
O6 H6A 0.8854 . ?
O6 H6B 0.8372 . ?
O13 H13A 0.8687 . ?
O13 H13B 0.8499 . ?
O14 H14A 0.8558 . ?
O14 H14B 0.8528 . ?
loop_
_geom_torsion_atom_site_label_1
_geom_torsion_atom_site_label_2
_geom_torsion_atom_site_label_3
_geom_torsion_atom_site_label_4
_geom_torsion
_geom_torsion_site_symmetry_1
_geom_torsion_site_symmetry_2
_geom_torsion_site_symmetry_3
_geom_torsion_site_symmetry_4
_geom_torsion_publ_flag
Ba1 V1 O11 Ba1 139.7(6) . . . 2_474 ?
Ba1 V2 O12 Ba1 -137.8(5) . . . 2_564 ?
Ba1 P2 O1 V2 -17.7(5) 1_554 . . 2_464 ?
Ba1 P2 O3 V2 6.9(11) 1_554 . . 2_564 ?
Ba1 P2 O5 V2 -141.7(9) 1_554 . . 1_554 ?
Ba1 P2 O8 V2 166.4(7) 1_554 . . . ?
O1 V2 O12 Ba1 -18.2(8) 2_565 . . 2_564 ?
O1 P2 O3 V2 169.4(6) . . . 2_564 ?
O1 P2 O5 Ba1 91.3(4) . . . 1_554 ?
O1 P2 O5 V2 -50.4(8) . . . 1_554 ?
O1 P2 O8 Ba1 -96.5(3) . . . 1_554 ?
O1 P2 O8 V2 69.8(7) . . . . ?
O3 V2 O12 Ba1 162.5(7) 2_465 . . 2_564 ?
O3 P2 O1 V2 171.8(5) . . . 2_464 ?
O3 P2 O5 Ba1 -151.5(3) . . . 1_554 ?
O3 P2 O5 V2 66.9(8) . . . 1_554 ?
O3 P2 O8 Ba1 145.1(3) . . . 1_554 ?
O3 P2 O8 V2 -48.5(7) . . . . ?
O4 V1 O11 Ba1 -162.6(7) 2_475 . . 2_474 ?
O4 P1 O7 Ba1 153.1(3) . . . . ?
O4 P1 O7 V1 -68.5(7) . . . . ?
O4 P1 O9 Ba1 -147.2(3) . . . . ?
O4 P1 O9 V1 47.5(6) . . . 1_655 ?
O4 P1 O10 V1 -171.2(5) . . . 2_575 ?
O5 V2 O12 Ba1 -109.0(7) 1_556 . . 2_564 ?
O5 P2 O1 V2 -67.6(6) . . . 2_464 ?
O5 P2 O3 V2 48.6(7) . . . 2_564 ?
O5 P2 O8 Ba1 24.4(4) . . . 1_554 ?
O5 P2 O8 V2 -169.2(6) . . . . ?
O7 V1 O11 Ba1 108.6(8) . . . 2_474 ?
O7 P1 O4 V1 -46.7(7) . . . 2_574 ?
O7 P1 O9 Ba1 -25.6(4) . . . . ?
O7 P1 O9 V1 169.2(5) . . . 1_655 ?
O7 P1 O10 V1 67.2(7) . . . 2_575 ?
O8 V2 O12 Ba1 72.9(9) . . . 2_564 ?
O8 P2 O1 V2 49.7(6) . . . 2_464 ?
O8 P2 O3 V2 -68.5(7) . . . 2_564 ?
O8 P2 O5 Ba1 -30.1(5) . . . 1_554 ?
O8 P2 O5 V2 -171.8(6) . . . 1_554 ?
O9 V1 O11 Ba1 -72.3(8) 1_455 . . 2_474 ?
O9 P1 O4 V1 71.0(7) . . . 2_574 ?
O9 P1 O7 Ba1 31.6(5) . . . . ?
O9 P1 O7 V1 170.0(6) . . . . ?
O9 P1 O10 V1 -49.9(6) . . . 2_575 ?
O10 V1 O11 Ba1 19.4(8) 2_474 . . 2_474 ?
O10 P1 O4 V1 -167.9(6) . . . 2_574 ?
O10 P1 O7 Ba1 -89.2(4) . . . . ?
O10 P1 O7 V1 49.2(8) . . . . ?
O10 P1 O9 Ba1 95.2(3) . . . . ?
O10 P1 O9 V1 -70.0(6) . . . 1_655 ?
loop_
_twin_individual_id
_twin_individual_mass_fraction_refined
1 0.77(4)
2 0.23(4)
