#------------------------------------------------------------------------------
#$Date: 2022-09-08 01:46:06 +0300 (Thu, 08 Sep 2022) $
#$Revision: 277721 $
#$URL: file:///home/coder/svn-repositories/cod/cif/7/24/54/7245454.cif $
#------------------------------------------------------------------------------
#
# This file is available in the Crystallography Open Database (COD),
# http://www.crystallography.net/
#
# All data on this site have been placed in the public domain by the
# contributors.
#
data_7245454
loop_
_publ_author_name
'Hughes, David S.'
'Bingham, Ann L.'
'Hursthouse, Michael B.'
'Threlfall, Terry L.'
'Bond, Andrew D.'
_publ_section_title
;
 The extensive solid-form landscape of sulfathiazole: hydrogen-bond
 topology and node shape
;
_journal_name_full               CrystEngComm
_journal_paper_doi               10.1039/D2CE00964A
_journal_year                    2022
_chemical_formula_moiety         'C9 H8 N3 O2 S2 -, C H6 N3 +, H2 O'
_chemical_formula_sum            'C10 H16 N6 O3 S2'
_chemical_formula_weight         332.41
_chemical_name_common            'Sulfathiazole guanidinium hydrate'
_chemical_name_systematic        'Sulfathiazole guanidinium hydrate (1:1:1)'
_space_group_crystal_system      triclinic
_space_group_IT_number           2
_space_group_name_Hall           '-P 1'
_space_group_name_H-M_alt        'P -1'
_atom_sites_solution_hydrogens   mixed
_atom_sites_solution_primary     dual
_atom_sites_solution_secondary   difmap
_audit_creation_method           SHELXL-2019/1
_audit_update_record
;
2022-07-11 deposited with the CCDC.	2022-08-30 downloaded from the CCDC.
;
_cell_angle_alpha                101.353(2)
_cell_angle_beta                 92.999(3)
_cell_angle_gamma                97.446(3)
_cell_formula_units_Z            2
_cell_length_a                   7.6295(2)
_cell_length_b                   8.7769(5)
_cell_length_c                   11.3046(6)
_cell_measurement_reflns_used    9430
_cell_measurement_temperature    150(2)
_cell_measurement_theta_max      23.27
_cell_measurement_theta_min      3.15
_cell_volume                     733.56(6)
_computing_cell_refinement       'HKL Scalepack (Otwinowski & Minor, 1997)'
_computing_data_collection       'COLLECT (Nonius, 1999)'
_computing_data_reduction
'HKL Denzo and Scalepack (Otwinowski & Minor, 1997)'
_computing_molecular_graphics    'Mercury (Macrae et al., 2008)'
_computing_publication_material  SHELXL
_computing_structure_refinement  'SHELXL (Sheldrick, 2015)'
_computing_structure_solution    'SHELXT (Sheldrick, 2015)'
_diffrn_ambient_temperature      150(2)
_diffrn_measured_fraction_theta_full 0.992
_diffrn_measured_fraction_theta_max 0.992
_diffrn_measurement_device_type  'Nonius KappaCCD'
_diffrn_measurement_method       '\w and \f-scans'
_diffrn_radiation_type           MoK\a
_diffrn_radiation_wavelength     0.71073
_diffrn_reflns_av_R_equivalents  0.0468
_diffrn_reflns_av_unetI/netI     0.0309
_diffrn_reflns_Laue_measured_fraction_full 0.992
_diffrn_reflns_Laue_measured_fraction_max 0.992
_diffrn_reflns_limit_h_max       8
_diffrn_reflns_limit_h_min       -8
_diffrn_reflns_limit_k_max       9
_diffrn_reflns_limit_k_min       -9
_diffrn_reflns_limit_l_max       12
_diffrn_reflns_limit_l_min       -12
_diffrn_reflns_number            9430
_diffrn_reflns_point_group_measured_fraction_full 0.992
_diffrn_reflns_point_group_measured_fraction_max 0.992
_diffrn_reflns_theta_full        23.274
_diffrn_reflns_theta_max         23.274
_diffrn_reflns_theta_min         3.146
_diffrn_source                   'Enraf Nonius FR591 rotating anode'
_exptl_absorpt_coefficient_mu    0.383
_exptl_absorpt_correction_T_max  0.897
_exptl_absorpt_correction_T_min  0.843
_exptl_absorpt_correction_type   multi-scan
_exptl_absorpt_process_details   'SORTAV (Blessing, 1995)'
_exptl_crystal_colour            colourless
_exptl_crystal_density_diffrn    1.505
_exptl_crystal_description       block
_exptl_crystal_F_000             348
_exptl_crystal_size_max          0.350
_exptl_crystal_size_mid          0.300
_exptl_crystal_size_min          0.200
_refine_diff_density_max         0.252
_refine_diff_density_min         -0.338
_refine_diff_density_rms         0.045
_refine_ls_extinction_method     none
_refine_ls_goodness_of_fit_ref   1.064
_refine_ls_hydrogen_treatment    mixed
_refine_ls_matrix_type           full
_refine_ls_number_parameters     230
_refine_ls_number_reflns         2107
_refine_ls_number_restraints     0
_refine_ls_restrained_S_all      1.064
_refine_ls_R_factor_all          0.0283
_refine_ls_R_factor_gt           0.0270
_refine_ls_shift/su_max          0.001
_refine_ls_shift/su_mean         0.000
_refine_ls_structure_factor_coef Fsqd
_refine_ls_weighting_details
'w=1/[\s^2^(Fo^2^)+(0.0308P)^2^+0.4060P] where P=(Fo^2^+2Fc^2^)/3'
_refine_ls_weighting_scheme      calc
_refine_ls_wR_factor_gt          0.0698
_refine_ls_wR_factor_ref         0.0706
_reflns_Friedel_coverage         0.000
_reflns_number_gt                2007
_reflns_number_total             2107
_reflns_threshold_expression     'I > 2\s(I)'
_cod_data_source_file            d2ce00964a7.cif
_cod_data_source_block           96
_cod_database_code               7245454
_shelx_shelxl_version_number     2019/1
_shelx_space_group_comment
;
The symmetry employed for this shelxl refinement is uniquely defined
by the following loop, which should always be used as a source of
symmetry information in preference to the above space-group names.
They are only intended as comments.
;
_shelx_estimated_absorpt_t_min   0.878
_shelx_estimated_absorpt_t_max   0.927
_shelx_res_file
;
TITL scw009 in P-1
    scw009.res
    created by SHELXL-2019/1 at 14:00:09 on 04-May-2022
CELL  0.71073   7.6295   8.7769  11.3046  101.353   92.999   97.446
ZERR    2.000   0.0002   0.0005   0.0006    0.002    0.003    0.003
LATT  1
SFAC C H N O S
UNIT 20 32 12 6 4
SIZE 0.35 0.30 0.20
TEMP -123
L.S. 30
ACTA
EQIV $1 -x+2, -y+1, -z+2
EQIV $2 -x+2, -y+2, -z+2
EQIV $3 -x+1, -y, -z+1
EQIV $4 -x+2, -y+1, -z+1
EQIV $5 x, y-1, z-1
EQIV $6 -x+1, -y+1, -z+1
HTAB N11 O11_$1
HTAB N11 N13_$2
HTAB N21 O1W_$3
HTAB N21 O1W
HTAB N22 O11
HTAB N22 O11_$4
HTAB N23 N12_$4
HTAB N23 N11_$5
HTAB O1W N12_$6
HTAB O1W S11
HTAB O1W O12
BOND $H
CONF
LIST 4
FMAP 2
PLAN -5
WGHT    0.030800    0.406000
FVAR       0.38240
S11   5    0.696225    0.602682    0.739419    11.00000    0.01803    0.01300 =
         0.01716    0.00218    0.00335    0.00224
S12   5    0.399163    0.820304    0.835810    11.00000    0.02178    0.02199 =
         0.02804    0.00657    0.00903    0.00605
O11   4    0.815888    0.524099    0.659021    11.00000    0.02614    0.01659 =
         0.02087    0.00200    0.00679    0.00667
O12   4    0.525556    0.508829    0.741588    11.00000    0.02228    0.01745 =
         0.02326    0.00269    0.00204   -0.00222
N11   3    1.045022    0.747279    1.239253    11.00000    0.02700    0.01683 =
         0.02056    0.00620    0.00054    0.00255
H10   2    1.036320    0.668042    1.273947    11.00000    0.03103
H11   2    1.146745    0.809644    1.250179    11.00000    0.03113
N12   3    0.686675    0.763715    0.698858    11.00000    0.01895    0.01526 =
         0.01801    0.00436    0.00344    0.00416
N13   3    0.614776    1.018102    0.753395    11.00000    0.02130    0.01591 =
         0.02367    0.00275   -0.00050    0.00278
C11   1    0.965973    0.709582    1.121573    11.00000    0.02019    0.01321 =
         0.01912    0.00228    0.00393    0.00886
C12   1    1.024123    0.796105    1.035630    11.00000    0.01750    0.01383 =
         0.02464    0.00356    0.00211    0.00154
AFIX  43
H12   2    1.121778    0.877838    1.057008    11.00000   -1.20000
AFIX   0
C13   1    0.941062    0.763785    0.920487    11.00000    0.01961    0.01593 =
         0.02148    0.00683    0.00565    0.00395
AFIX  43
H13   2    0.981716    0.823046    0.862938    11.00000   -1.20000
AFIX   0
C14   1    0.797795    0.644548    0.888363    11.00000    0.01787    0.01357 =
         0.02029    0.00387    0.00481    0.00617
C15   1    0.738872    0.557541    0.972526    11.00000    0.02027    0.01317 =
         0.02384    0.00255    0.00478    0.00114
AFIX  43
H15   2    0.641355    0.475750    0.950625    11.00000   -1.20000
AFIX   0
C16   1    0.822096    0.589983    1.088029    11.00000    0.02583    0.01574 =
         0.02097    0.00839    0.00705    0.00436
AFIX  43
H16   2    0.781045    0.530328    1.145239    11.00000   -1.20000
AFIX   0
C17   1    0.583484    0.868804    0.757309    11.00000    0.01654    0.01882 =
         0.01408    0.00271   -0.00255    0.00233
C18   1    0.490565    1.098626    0.813510    11.00000    0.02710    0.01671 =
         0.02521   -0.00142   -0.00229    0.00622
AFIX  43
H18   2    0.492241    1.208158    0.818645    11.00000   -1.20000
AFIX   0
C19   1    0.367699    1.014487    0.864171    11.00000    0.02608    0.02453 =
         0.02401    0.00113    0.00272    0.01247
AFIX  43
H19   2    0.276639    1.055881    0.909117    11.00000   -1.20000
AFIX   0
N21   3    0.723008    0.081963    0.465999    11.00000    0.02145    0.01670 =
         0.02779    0.00506    0.00581    0.00258
H21   2    0.699367   -0.013311    0.451630    11.00000    0.02869
H22   2    0.648561    0.136148    0.495901    11.00000    0.02633
N22   3    0.902936    0.306668    0.451299    11.00000    0.02938    0.01752 =
         0.02935   -0.00019    0.01302    0.00121
H23   2    0.834572    0.357530    0.494083    11.00000    0.03491
H24   2    0.988308    0.350961    0.416228    11.00000    0.02876
N23   3    0.976225    0.067791    0.364159    11.00000    0.02115    0.01565 =
         0.02694    0.00309    0.00525    0.00163
H25   2    1.077906    0.114104    0.346697    11.00000    0.02976
H26   2    0.952511   -0.031899    0.341323    11.00000    0.02796
C21   1    0.865731    0.150687    0.426613    11.00000    0.01999    0.01836 =
         0.01470    0.00391   -0.00054    0.00241
O1W   4    0.423448    0.243379    0.550340    11.00000    0.03777    0.01849 =
         0.02067    0.00289   -0.00205    0.00441
H1W   2    0.387012    0.265906    0.486988    11.00000    0.04816
H2W   2    0.437867    0.328376    0.603942    11.00000    0.04129

HKLF 4




REM  scw009 in P-1
REM wR2 = 0.0706, GooF = S = 1.064, Restrained GooF = 1.064 for all data
REM R1 = 0.0270 for 2007 Fo > 4sig(Fo) and 0.0283 for all 2107 data
REM 230 parameters refined using 0 restraints

END

WGHT      0.0309      0.4071

REM Highest difference peak  0.252,  deepest hole -0.338,  1-sigma level  0.045
Q1    1   0.7516  0.6266  0.8246  11.00000  0.05    0.25
Q2    1   0.8554  0.7063  0.8974  11.00000  0.05    0.17
Q3    1   0.9571  0.7840  1.0931  11.00000  0.05    0.16
Q4    1   0.7640  0.6270  0.9211  11.00000  0.05    0.16
Q5    1   0.7963  0.6013  0.9019  11.00000  0.05    0.15
;
_shelx_res_checksum              22481
_shelx_hkl_file
;
  -8  -1  -1   17.38    1.28
  -8  -1   1    1.40    0.29
  -8  -1   2    9.35    0.83
  -8  -1   3    1.48    0.30
  -8  -1   4   22.94    1.50
  -8   0  -2   22.53    2.04
  -8   0  -1    3.88    0.49
  -8   0   0    8.46    0.77
  -8   1  -3   21.54    1.97
  -8   1  -2   23.54    1.74
  -8   1  -1   12.25    1.08
  -8   1   0   19.89    1.40
  -8   1   1    0.36    0.26
  -8   2  -3    0.23    0.35
  -8   2  -2   17.74    1.46
  -8   2  -1    6.06    0.63
  -8   2   0   17.28    1.33
  -8   2   1    1.52    0.35
  -8   2   2   24.25    1.95
  -8   2   3   17.23    1.15
  -8   2   4   -0.04    0.12
  -8   3  -3   82.96    5.20
  -8   3  -3   79.32    9.51
  -8   3  -2   13.93    1.61
  -8   3  -2   13.44    1.19
  -8   3  -1   25.69    2.22
  -8   3   0    1.43    0.16
  -8   3   0    1.31    0.16
  -8   3   0    0.96    0.38
  -8   3   1   80.73    7.40
  -8   3   1   72.10    5.07
  -8   3   1   73.69    5.69
  -8   3   2    5.82    0.45
  -8   3   2    6.15    0.55
  -8   3   3   10.64    0.85
  -8   4  -2   47.95    4.35
  -8   4  -1   29.69    4.15
  -8   4  -1   32.26    2.92
  -8   4   0    5.40    0.45
  -8   4   0    4.63    0.63
  -8   4   1    9.54    0.63
  -8   4   1    9.05    0.87
  -7  -4   1    0.64    0.57
  -7  -4   2    7.89    0.58
  -7  -4   3   -0.16    0.37
  -7  -4   4   11.59    0.96
  -7  -3  -3    3.61    0.45
  -7  -3  -1    0.18    0.24
  -7  -3   0   14.73    1.20
  -7  -3   1    1.53    0.28
  -7  -3   2    2.76    0.43
  -7  -3   3    4.06    0.40
  -7  -3   4    4.82    0.48
  -7  -3   5   65.07    4.89
  -7  -3   5   73.43    4.94
  -7  -3   5   72.84    7.87
  -7  -3   6    4.06    0.33
  -7  -3   6    3.70    0.43
  -7  -2  -4   20.00    1.15
  -7  -2  -4   24.26    1.79
  -7  -2  -3    4.72    0.50
  -7  -2  -2   -0.22    0.35
  -7  -2  -2    0.07    0.27
  -7  -2  -1    0.80    0.27
  -7  -2  -1    0.81    0.23
  -7  -2   0    0.94    0.30
  -7  -2   1    7.21    0.56
  -7  -2   2    3.07    0.42
  -7  -2   3   42.79    2.51
  -7  -2   4    0.45    0.29
  -7  -2   5   61.30    3.52
  -7  -2   5   61.83    3.98
  -7  -2   6   93.93    6.00
  -7  -2   6   85.88    6.42
  -7  -2   6   93.00    5.90
  -7  -2   7   24.96    1.67
  -7  -2   7   23.03    1.98
  -7  -1  -5   19.95    1.40
  -7  -1  -5   18.12    2.06
  -7  -1  -4   14.00    1.14
  -7  -1  -3    4.20    0.43
  -7  -1  -2    2.61    0.38
  -7  -1  -1    5.22    0.52
  -7  -1   0   48.66    2.65
  -7  -1   2   94.19    5.93
  -7  -1   3   28.16    1.54
  -7  -1   5    0.09    0.19
  -7  -1   5    0.14    0.09
  -7  -1   6    0.00    0.22
  -7  -1   6   -0.12    0.11
  -7  -1   6    0.07    0.17
  -7  -1   7    1.84    0.27
  -7  -1   7    2.13    0.32
  -7  -1   7    1.30    0.25
  -7   0  -5    0.16    0.13
  -7   0  -5    0.57    0.23
  -7   0  -5    0.28    0.14
  -7   0  -4   29.53    1.97
  -7   0  -4   31.80    2.87
  -7   0  -4   28.68    2.59
  -7   0  -3   15.71    1.20
  -7   0  -2    1.11    0.30
  -7   0  -1  134.18    7.60
  -7   0   0   22.23    1.96
  -7   0   1   22.55    1.34
  -7   0   3    4.67    0.50
  -7   0   4    5.14    0.45
  -7   0   4    5.16    0.40
  -7   0   4    5.40    0.38
  -7   0   5    6.01    0.55
  -7   0   5    5.14    0.51
  -7   0   5    6.20    0.40
  -7   0   6   27.38    1.77
  -7   0   6   28.17    2.04
  -7   0   6   29.14    2.13
  -7   0   7   31.27    2.87
  -7   0   7   29.36    2.72
  -7   1  -6    2.53    0.31
  -7   1  -6    2.69    0.33
  -7   1  -5    0.62    0.13
  -7   1  -5    0.75    0.18
  -7   1  -5    0.66    0.27
  -7   1  -4   16.43    1.36
  -7   1  -4   16.83    1.18
  -7   1  -4   16.64    1.24
  -7   1  -3  218.62   12.06
  -7   1  -2   30.04    2.87
  -7   1  -1   55.62    3.96
  -7   1   0   60.82    4.32
  -7   1   1   91.48    6.41
  -7   1   2   31.44    1.91
  -7   1   3   29.58    1.61
  -7   1   3   30.34    1.96
  -7   1   4   25.49    1.51
  -7   1   4   25.63    1.34
  -7   1   5   37.85    2.62
  -7   1   5   35.40    2.34
  -7   1   6    3.05    0.33
  -7   1   6    2.40    0.25
  -7   1   7   66.58    5.92
  -7   1   7   67.75    5.02
  -7   2  -6   24.02    1.75
  -7   2  -6   21.14    1.49
  -7   2  -6   25.40    1.95
  -7   2  -5    1.82    0.21
  -7   2  -5    1.94    0.43
  -7   2  -5    1.87    0.26
  -7   2  -4   34.29    3.16
  -7   2  -4   36.83    2.29
  -7   2  -4   39.76    2.77
  -7   2  -3    4.12    0.32
  -7   2  -3    4.58    0.41
  -7   2  -3    4.27    0.29
  -7   2  -2   25.75    1.53
  -7   2  -2   25.12    1.98
  -7   2  -2   24.68    1.86
  -7   2  -1   27.29    2.00
  -7   2   0   15.35    1.01
  -7   2   0   14.62    0.99
  -7   2   0   13.72    1.05
  -7   2   1    7.27    0.80
  -7   2   1    8.13    0.64
  -7   2   2    0.11    0.25
  -7   2   2    0.34    0.13
  -7   2   2    0.14    0.08
  -7   2   3   58.79    3.51
  -7   2   3   57.62    3.15
  -7   2   4   17.29    1.21
  -7   2   4   15.59    1.60
  -7   2   5   18.24    1.37
  -7   2   5   17.31    1.27
  -7   2   6   12.91    0.85
  -7   2   6   13.03    0.89
  -7   2   7   40.46    2.45
  -7   2   7   41.24    3.46
  -7   3  -6   18.95    1.33
  -7   3  -6   17.98    1.38
  -7   3  -6   20.34    1.36
  -7   3  -5    0.00    0.21
  -7   3  -5    0.16    0.23
  -7   3  -5    0.55    0.16
  -7   3  -5    0.33    0.19
  -7   3  -4   13.80    0.90
  -7   3  -4   12.91    0.93
  -7   3  -4   10.96    1.00
  -7   3  -3    6.57    0.54
  -7   3  -3    5.25    0.54
  -7   3  -3    5.18    0.62
  -7   3  -3    4.67    0.47
  -7   3  -2    7.89    0.81
  -7   3  -2    5.69    0.83
  -7   3  -2    6.51    0.47
  -7   3  -2    6.93    0.56
  -7   3  -1   64.13    3.79
  -7   3  -1   60.01    5.36
  -7   3  -1   56.46    3.56
  -7   3   0    1.35    0.17
  -7   3   0    1.43    0.17
  -7   3   0    1.31    0.29
  -7   3   1  120.70    6.30
  -7   3   1  135.22    8.79
  -7   3   1  137.68    7.15
  -7   3   2   32.35    2.51
  -7   3   2   30.80    2.54
  -7   3   2   28.30    2.11
  -7   3   3    4.21    0.40
  -7   3   3    5.38    0.45
  -7   3   3    5.34    0.35
  -7   3   4   74.33    8.25
  -7   3   4   76.63    6.41
  -7   3   5    4.28    0.38
  -7   3   5    3.89    0.42
  -7   3   6   20.18    1.88
  -7   3   6   21.79    1.80
  -7   4  -6    5.15    0.67
  -7   4  -6    5.72    0.65
  -7   4  -6    6.45    0.59
  -7   4  -5    0.15    0.38
  -7   4  -5    0.15    0.16
  -7   4  -4    3.62    0.36
  -7   4  -4    4.51    0.46
  -7   4  -4    4.61    0.46
  -7   4  -3    1.93    0.39
  -7   4  -3    1.48    0.21
  -7   4  -3    1.73    0.30
  -7   4  -3    2.27    0.52
  -7   4  -2   79.78    5.59
  -7   4  -2   90.16    5.62
  -7   4  -2   96.75    5.89
  -7   4  -2   85.59    5.55
  -7   4  -1    4.05    0.36
  -7   4  -1    4.80    0.36
  -7   4  -1    3.88    0.42
  -7   4  -1    3.38    0.34
  -7   4   0   88.80    7.77
  -7   4   0   80.02    4.09
  -7   4   0   82.52    7.84
  -7   4   1    3.84    0.29
  -7   4   1    3.24    0.36
  -7   4   1    3.53    0.39
  -7   4   1    2.89    0.38
  -7   4   2   81.51    5.78
  -7   4   2   83.66    6.52
  -7   4   2   84.86    6.49
  -7   4   3    0.54    0.17
  -7   4   3    1.07    0.22
  -7   4   3    1.17    0.30
  -7   4   4    2.04    0.30
  -7   4   4    2.33    0.34
  -7   4   5    0.11    0.22
  -7   4   5    0.05    0.22
  -7   5  -5    4.56    0.47
  -7   5  -5    3.75    0.40
  -7   5  -5    5.22    1.20
  -7   5  -4   42.80    3.46
  -7   5  -4   44.41    3.18
  -7   5  -4   39.62    3.32
  -7   5  -3   14.93    0.84
  -7   5  -3   14.27    1.18
  -7   5  -3   14.77    1.03
  -7   5  -2   59.30    3.12
  -7   5  -2   51.28    3.53
  -7   5  -2   39.69    3.31
  -7   5  -2   57.26    4.24
  -7   5  -1   38.42    2.90
  -7   5  -1   39.84    3.07
  -7   5  -1   40.52    2.57
  -7   5  -1   35.07    2.89
  -7   5   0    1.37    0.38
  -7   5   0    1.99    0.45
  -7   5   0    1.38    0.17
  -7   5   0    1.60    0.28
  -7   5   1   15.18    1.27
  -7   5   1   12.23    0.85
  -7   5   1   11.73    1.05
  -7   5   1   13.71    1.01
  -7   5   2   -0.20    0.25
  -7   5   2    0.10    0.26
  -7   5   2    0.26    0.26
  -7   5   2   -0.02    0.19
  -7   5   3    4.36    0.39
  -7   5   3    3.88    0.54
  -7   5   3    3.17    0.45
  -7   5   4    1.35    0.28
  -7   5   4    1.34    0.23
  -7   6  -3   65.21    4.57
  -7   6  -3   80.54    5.08
  -7   6  -3   72.45    5.77
  -7   6  -2   54.88    4.02
  -7   6  -2   49.73    3.24
  -7   6  -2   47.83    3.41
  -7   6  -1   13.94    0.93
  -7   6  -1   11.49    1.29
  -7   6  -1   12.42    0.91
  -7   6   0    1.97    0.37
  -7   6   0    1.35    0.29
  -7   6   0    2.28    0.40
  -7   6   1    8.10    0.84
  -7   6   1   12.04    0.84
  -7   6   1   10.01    0.82
  -7   6   1   10.39    0.95
  -7   6   2    1.75    0.25
  -7   6   2    1.44    0.33
  -7   6   2    1.90    0.39
  -7   6   2    2.03    0.31
  -6  -5  -2    3.34    0.43
  -6  -5  -2    4.04    0.31
  -6  -5  -1    3.25    0.41
  -6  -5  -1    3.50    0.30
  -6  -5   0    1.61    0.20
  -6  -5   0    1.71    0.31
  -6  -5   1    9.78    0.73
  -6  -5   1    9.07    0.79
  -6  -5   1   10.10    0.75
  -6  -5   2    0.01    0.12
  -6  -5   2    0.28    0.30
  -6  -5   2    0.00    0.20
  -6  -5   3   15.43    1.14
  -6  -5   3   15.90    1.56
  -6  -5   3   14.10    1.09
  -6  -5   4   26.78    1.98
  -6  -5   4   23.81    1.52
  -6  -5   4   24.18    1.89
  -6  -5   5   16.54    1.22
  -6  -5   5   16.79    1.46
  -6  -5   5   13.90    1.12
  -6  -5   6   26.79    1.74
  -6  -5   6   27.31    1.87
  -6  -5   6   27.81    1.73
  -6  -4  -4   14.09    1.02
  -6  -4  -4   15.14    1.28
  -6  -4  -3   33.74    2.60
  -6  -4  -3   38.92    2.90
  -6  -4  -3   39.46    2.57
  -6  -4  -2   16.22    1.03
  -6  -4  -2   15.44    1.21
  -6  -4  -1   32.92    2.04
  -6  -4  -1   29.49    2.29
  -6  -4  -1   29.82    2.19
  -6  -4   0   33.38    1.43
  -6  -4   0   32.86    2.29
  -6  -4   0   32.69    1.86
  -6  -4   1    3.44    0.24
  -6  -4   1    3.28    0.33
  -6  -4   2    7.66    0.52
  -6  -4   2    7.45    0.56
  -6  -4   2    6.68    0.53
  -6  -4   3    6.78    0.51
  -6  -4   3    5.97    0.56
  -6  -4   4    0.68    0.14
  -6  -4   4    0.79    0.16
  -6  -4   4    0.57    0.23
  -6  -4   5    3.95    0.33
  -6  -4   5    3.78    0.44
  -6  -4   5    4.59    0.42
  -6  -4   6   52.90    4.80
  -6  -4   6   53.05    3.30
  -6  -4   6   56.12    4.30
  -6  -4   7   17.90    1.33
  -6  -4   7   17.68    1.14
  -6  -4   7   17.35    1.49
  -6  -3  -5    2.29    0.27
  -6  -3  -5    2.68    0.40
  -6  -3  -5    2.44    0.25
  -6  -3  -4    0.60    0.23
  -6  -3  -4    0.68    0.16
  -6  -3  -4    0.54    0.15
  -6  -3  -3    2.03    0.32
  -6  -3  -3    2.15    0.31
  -6  -3  -3    1.87    0.17
  -6  -3  -3    1.54    0.19
  -6  -3  -2   40.22    2.31
  -6  -3  -2   44.33    2.94
  -6  -3  -1    2.74    0.31
  -6  -3   0   10.18    0.73
  -6  -3   1   39.42    2.37
  -6  -3   2    5.62    0.48
  -6  -3   3   25.60    2.38
  -6  -3   4    2.85    0.19
  -6  -3   4    2.34    0.28
  -6  -3   4    3.35    0.33
  -6  -3   5    1.59    0.27
  -6  -3   5    1.48    0.20
  -6  -3   5    1.57    0.17
  -6  -3   6    2.86    0.30
  -6  -3   6    2.51    0.25
  -6  -3   6    3.12    0.32
  -6  -3   7    0.26    0.23
  -6  -3   7    0.23    0.21
  -6  -3   7    0.19    0.20
  -6  -3   8   38.92    2.89
  -6  -3   8   44.44    2.72
  -6  -3   8   44.35    3.20
  -6  -2  -6   27.10    2.17
  -6  -2  -6   25.57    1.91
  -6  -2  -6   22.18    1.84
  -6  -2  -5   24.46    1.72
  -6  -2  -5   22.61    2.08
  -6  -2  -4   74.84    5.92
  -6  -2  -4   79.30    5.12
  -6  -2  -3   71.98    4.86
  -6  -2  -3   67.03    4.34
  -6  -2  -3   76.53    4.64
  -6  -2  -3   69.51    3.48
  -6  -2  -2    8.17    0.52
  -6  -2  -2    7.14    0.60
  -6  -2  -1   70.65    4.17
  -6  -2  -1   65.77    4.55
  -6  -2   0   22.80    1.39
  -6  -2   1   22.40    1.28
  -6  -2   2    5.28    0.45
  -6  -2   4   63.34    4.99
  -6  -2   4   67.98    3.38
  -6  -2   4   66.01    5.20
  -6  -2   5   11.75    0.65
  -6  -2   5   11.99    0.94
  -6  -2   5   12.97    0.68
  -6  -2   6   25.42    1.65
  -6  -2   6   26.05    1.47
  -6  -2   6   24.64    1.26
  -6  -2   7    1.25    0.34
  -6  -2   7    1.05    0.23
  -6  -2   8   29.76    2.11
  -6  -2   8   29.51    1.95
  -6  -2   8   27.90    2.02
  -6  -2   9   12.56    1.04
  -6  -2   9   13.24    0.90
  -6  -2   9   10.63    1.23
  -6  -1  -7   33.53    2.60
  -6  -1  -7   36.35    2.65
  -6  -1  -7   40.09    2.75
  -6  -1  -6   46.41    2.67
  -6  -1  -6   48.17    3.74
  -6  -1  -6   42.84    3.99
  -6  -1  -5   28.03    2.10
  -6  -1  -5   31.10    1.79
  -6  -1  -5   32.61    1.62
  -6  -1  -4    0.24    0.09
  -6  -1  -4    0.14    0.25
  -6  -1  -4    0.12    0.11
  -6  -1  -3   77.84    4.66
  -6  -1  -3   83.49    5.14
  -6  -1  -3   74.76    5.16
  -6  -1  -2   23.12    1.45
  -6  -1  -1    0.32    0.19
  -6  -1  -1    0.77    0.22
  -6  -1   0    0.33    0.19
  -6  -1   0    1.04    0.31
  -6  -1   1    5.79    0.41
  -6  -1   3   28.69    1.65
  -6  -1   4   42.60    2.24
  -6  -1   4   37.86    1.77
  -6  -1   4   40.21    2.37
  -6  -1   5  310.70   26.41
  -6  -1   5  336.21   24.59
  -6  -1   6    0.87    0.17
  -6  -1   6    1.46    0.28
  -6  -1   6    0.88    0.20
  -6  -1   7   29.95    1.85
  -6  -1   7   30.23    1.87
  -6  -1   7   28.96    2.26
  -6  -1   8    0.51    0.20
  -6  -1   8    0.56    0.25
  -6  -1   8    0.20    0.21
  -6  -1   9    5.96    0.57
  -6  -1   9    5.62    0.67
  -6  -1   9    6.18    0.51
  -6   0  -7   10.95    0.69
  -6   0  -7   12.16    1.12
  -6   0  -7   13.49    0.97
  -6   0  -6   15.35    1.12
  -6   0  -6   14.52    1.41
  -6   0  -6   16.40    1.39
  -6   0  -5   36.59    2.81
  -6   0  -5   42.09    3.16
  -6   0  -5   34.93    2.38
  -6   0  -4    0.72    0.11
  -6   0  -4    0.52    0.20
  -6   0  -4    0.97    0.13
  -6   0  -3    0.34    0.09
  -6   0  -3    0.23    0.06
  -6   0  -3    0.36    0.26
  -6   0  -2    1.84    0.31
  -6   0  -1   29.28    2.40
  -6   0   0    0.17    0.23
  -6   0   1   33.91    1.99
  -6   0   1   32.75    1.64
  -6   0   2   53.12    2.94
  -6   0   3  172.33    9.09
  -6   0   3  172.33   10.72
  -6   0   3  159.35   13.27
  -6   0   4    4.63    0.44
  -6   0   4    4.57    0.30
  -6   0   4    3.86    0.38
  -6   0   5    0.28    0.21
  -6   0   5    0.24    0.14
  -6   0   6   -0.15    0.17
  -6   0   6    0.38    0.20
  -6   0   6    0.41    0.16
  -6   0   7    0.49    0.16
  -6   0   7    0.61    0.25
  -6   0   7    1.10    0.27
  -6   0   8   17.81    1.45
  -6   0   8   17.51    1.31
  -6   0   8   17.54    1.25
  -6   0   9    6.30    0.62
  -6   0   9    6.75    0.69
  -6   0   9    6.14    0.66
  -6   1  -8   28.44    1.51
  -6   1  -8   25.57    1.91
  -6   1  -8   30.06    2.65
  -6   1  -7   -0.15    0.20
  -6   1  -7   -0.08    0.20
  -6   1  -7    0.12    0.20
  -6   1  -6    0.47    0.13
  -6   1  -6   -0.03    0.15
  -6   1  -6    0.53    0.22
  -6   1  -5   50.32    2.45
  -6   1  -5   50.09    2.69
  -6   1  -5   47.02    3.90
  -6   1  -4   20.43    1.03
  -6   1  -4   23.10    1.49
  -6   1  -4   24.99    1.72
  -6   1  -3    8.63    0.51
  -6   1  -3    8.46    0.60
  -6   1  -3    8.45    0.65
  -6   1  -2   36.84    2.95
  -6   1  -2   41.06    2.35
  -6   1  -2   39.59    2.88
  -6   1  -1   36.43    2.19
  -6   1   0   93.36    5.80
  -6   1   1   28.01    1.50
  -6   1   2  356.91   16.64
  -6   1   2  302.01   20.20
  -6   1   3   12.31    0.92
  -6   1   3   13.49    0.88
  -6   1   4   85.38    5.25
  -6   1   4   92.24    4.93
  -6   1   5   72.65    3.42
  -6   1   5   67.90    5.19
  -6   1   6    1.70    0.25
  -6   1   6    0.62    0.18
  -6   1   7    5.45    0.40
  -6   1   7    4.29    0.47
  -6   1   8    0.36    0.24
  -6   1   8    0.38    0.22
  -6   1   9   67.02    4.55
  -6   1   9   62.73    6.26
  -6   2  -8    0.66    0.50
  -6   2  -8    0.64    0.24
  -6   2  -8    0.68    0.40
  -6   2  -8    0.36    0.35
  -6   2  -7    1.52    0.29
  -6   2  -7    2.06    0.34
  -6   2  -7    2.38    0.24
  -6   2  -6   14.98    1.21
  -6   2  -6   12.84    1.07
  -6   2  -6   14.48    1.08
  -6   2  -6   14.81    1.20
  -6   2  -5   18.41    1.28
  -6   2  -5   21.50    1.23
  -6   2  -5   20.95    1.08
  -6   2  -5   19.37    1.28
  -6   2  -4   72.27    5.17
  -6   2  -4   81.85    6.20
  -6   2  -4   71.67    4.31
  -6   2  -4   73.55    3.36
  -6   2  -3   17.59    1.10
  -6   2  -3   17.45    0.98
  -6   2  -3   17.37    1.14
  -6   2  -3   17.49    0.99
  -6   2  -2   38.57    2.07
  -6   2  -2   40.51    2.74
  -6   2  -2   36.20    2.80
  -6   2  -2   35.81    2.43
  -6   2  -1  102.61   10.27
  -6   2  -1  109.28    6.71
  -6   2  -1  109.73    8.83
  -6   2   0   35.03    2.35
  -6   2   0   36.39    1.95
  -6   2   0   37.62    3.25
  -6   2   1    0.78    0.12
  -6   2   1    0.68    0.09
  -6   2   1    0.87    0.24
  -6   2   2    0.38    0.13
  -6   2   2    0.31    0.12
  -6   2   2    0.51    0.25
  -6   2   3   41.23    3.15
  -6   2   3   42.88    3.17
  -6   2   4    0.57    0.15
  -6   2   4    0.51    0.15
  -6   2   5   42.39    2.52
  -6   2   5   40.66    3.05
  -6   2   6   42.20    4.20
  -6   2   6   45.66    2.54
  -6   2   7   25.11    1.94
  -6   2   7   24.86    2.17
  -6   2   8   13.46    1.43
  -6   2   8   15.38    1.32
  -6   3  -8    2.19    0.43
  -6   3  -8    2.01    0.40
  -6   3  -8    2.61    0.37
  -6   3  -8    2.10    0.32
  -6   3  -7    3.40    0.41
  -6   3  -7    2.82    0.43
  -6   3  -7    3.28    0.42
  -6   3  -7    3.63    0.36
  -6   3  -6   33.18    3.13
  -6   3  -6   32.77    2.75
  -6   3  -6   31.47    2.08
  -6   3  -5   -0.23    0.14
  -6   3  -5   -0.18    0.21
  -6   3  -5    2.97    1.03
  -6   3  -4    0.09    0.19
  -6   3  -4   -0.15    0.16
  -6   3  -4    0.68    0.15
  -6   3  -4    0.17    0.23
  -6   3  -3   16.79    0.92
  -6   3  -3   15.85    1.02
  -6   3  -3   17.62    1.22
  -6   3  -3   17.06    1.02
  -6   3  -2    0.74    0.33
  -6   3  -2    1.04    0.34
  -6   3  -2    1.22    0.16
  -6   3  -2    1.12    0.14
  -6   3  -1    5.85    0.57
  -6   3  -1    6.12    0.41
  -6   3  -1    6.46    0.35
  -6   3  -1    5.88    0.49
  -6   3   0    0.25    0.10
  -6   3   0    0.55    0.32
  -6   3   0    0.32    0.13
  -6   3   0    0.21    0.26
  -6   3   1   11.13    0.90
  -6   3   1   10.08    0.51
  -6   3   1   11.17    0.63
  -6   3   1    9.95    0.66
  -6   3   2   23.82    1.41
  -6   3   2   21.54    1.17
  -6   3   2   23.72    1.37
  -6   3   3   58.37    4.77
  -6   3   3   54.39    3.92
  -6   3   3   52.61    3.02
  -6   3   4   62.67    4.47
  -6   3   4   59.46    3.58
  -6   3   5    6.99    0.52
  -6   3   5    5.84    0.40
  -6   3   6   20.24    2.00
  -6   3   6   20.36    1.46
  -6   3   7   25.05    2.07
  -6   3   7   24.26    1.56
  -6   3   8    8.13    0.80
  -6   4  -8   22.52    1.51
  -6   4  -8   23.90    1.74
  -6   4  -8   21.97    2.08
  -6   4  -7   51.03    3.58
  -6   4  -7   47.26    3.57
  -6   4  -7   51.14    4.41
  -6   4  -7   50.71    3.85
  -6   4  -6   19.10    1.76
  -6   4  -6   18.78    1.31
  -6   4  -6   16.64    1.49
  -6   4  -6   20.85    1.41
  -6   4  -5   73.38    5.34
  -6   4  -5   74.03    5.17
  -6   4  -5   80.81    5.48
  -6   4  -5   86.43    5.13
  -6   4  -4   -0.01    0.15
  -6   4  -4    0.31    0.23
  -6   4  -4    0.33    0.22
  -6   4  -4   -0.05    0.30
  -6   4  -3   23.69    1.64
  -6   4  -3   24.08    1.62
  -6   4  -3   24.41    1.27
  -6   4  -3   19.84    1.25
  -6   4  -2    7.14    0.47
  -6   4  -2    6.17    0.69
  -6   4  -2    8.01    0.50
  -6   4  -2    7.37    0.58
  -6   4  -1    1.09    0.16
  -6   4  -1    0.89    0.36
  -6   4  -1    1.60    0.29
  -6   4  -1    1.56    0.23
  -6   4   0   27.45    1.67
  -6   4   0   26.60    1.68
  -6   4   0   27.34    1.98
  -6   4   0   30.29    1.61
  -6   4   1   22.91    1.59
  -6   4   1   23.31    2.05
  -6   4   1   21.81    1.37
  -6   4   1   21.59    1.27
  -6   4   2   92.18    6.97
  -6   4   2   80.16    4.64
  -6   4   2   92.48    8.49
  -6   4   2   84.46    4.42
  -6   4   3   70.10    4.03
  -6   4   3   68.22    4.11
  -6   4   3   76.38    4.62
  -6   4   3   74.54    3.73
  -6   4   4    4.45    0.44
  -6   4   4    4.95    0.47
  -6   4   5   42.87    3.78
  -6   4   5   43.40    3.11
  -6   4   6   15.41    1.21
  -6   4   6   13.47    1.54
  -6   4   7    1.34    0.33
  -6   5  -7    3.77    0.36
  -6   5  -7    4.19    0.53
  -6   5  -7    3.10    0.50
  -6   5  -6   24.76    1.77
  -6   5  -6   23.54    1.76
  -6   5  -6   24.28    1.92
  -6   5  -5   25.02    1.84
  -6   5  -5   22.90    1.40
  -6   5  -5   19.52    1.65
  -6   5  -5   22.54    1.85
  -6   5  -4    5.52    0.60
  -6   5  -4    5.49    0.43
  -6   5  -4    6.42    0.45
  -6   5  -4    4.67    0.50
  -6   5  -3   24.72    1.73
  -6   5  -3   20.74    1.65
  -6   5  -3   23.42    1.53
  -6   5  -3   24.93    1.41
  -6   5  -2    0.84    0.19
  -6   5  -2    0.20    0.30
  -6   5  -2    0.44    0.21
  -6   5  -2    1.14    1.88
  -6   5  -1   80.52    4.37
  -6   5  -1   80.14    7.12
  -6   5  -1   91.18    6.13
  -6   5  -1   72.41    4.73
  -6   5   0    5.38    0.46
  -6   5   0    4.07    0.43
  -6   5   0    5.37    0.54
  -6   5   0    6.45    0.46
  -6   5   1   89.27    5.07
  -6   5   1   82.28    4.89
  -6   5   1   83.56    6.59
  -6   5   1   73.33    4.15
  -6   5   2   17.88    1.42
  -6   5   2   16.61    1.49
  -6   5   2   14.98    0.96
  -6   5   2   15.51    1.02
  -6   5   3   16.96    1.12
  -6   5   3   20.45    1.46
  -6   5   3   21.67    1.64
  -6   5   3   17.88    1.52
  -6   5   4   32.84    2.35
  -6   5   4   35.44    3.73
  -6   5   4   37.88    3.28
  -6   5   5    3.04    0.35
  -6   5   5    1.76    0.33
  -6   5   6    1.32    0.35
  -6   6  -6    1.00    0.32
  -6   6  -6    0.91    0.41
  -6   6  -6    2.66    0.65
  -6   6  -5    0.40    0.27
  -6   6  -5   -0.62    0.28
  -6   6  -5   -0.02    0.23
  -6   6  -4   18.60    1.54
  -6   6  -4   20.91    1.39
  -6   6  -4   21.75    2.36
  -6   6  -4   20.80    1.42
  -6   6  -3    0.56    0.81
  -6   6  -3   -0.09    0.37
  -6   6  -3    0.14    0.26
  -6   6  -3    0.69    0.36
  -6   6  -2  125.46    8.29
  -6   6  -2  110.18    7.33
  -6   6  -2  105.24    6.09
  -6   6  -2  108.70    6.71
  -6   6  -1    0.05    0.23
  -6   6  -1    0.38    0.25
  -6   6  -1    0.37    0.28
  -6   6  -1    0.12    0.28
  -6   6   0   70.20    4.88
  -6   6   0   69.76    3.66
  -6   6   0   75.12    5.05
  -6   6   0   76.01    4.67
  -6   6   1    1.87    0.38
  -6   6   1    1.75    0.35
  -6   6   1    1.44    0.28
  -6   6   1    0.97    0.35
  -6   6   2   20.61    1.85
  -6   6   2   23.54    2.12
  -6   6   2   18.89    1.53
  -6   6   2   23.33    1.75
  -6   6   3    3.89    0.41
  -6   6   3    3.49    0.45
  -6   6   3    3.56    0.40
  -6   6   4   11.97    0.84
  -6   6   4    9.41    0.88
  -6   7  -5   18.33    1.66
  -6   7  -5   19.82    1.49
  -6   7  -4   25.66    1.98
  -6   7  -4   26.73    2.03
  -6   7  -3   10.37    1.00
  -6   7  -3   10.77    0.73
  -6   7  -3    7.64    0.96
  -6   7  -2    0.76    0.19
  -6   7  -2    0.90    0.34
  -6   7  -2    1.31    0.37
  -6   7  -1   20.75    1.25
  -6   7  -1   16.39    1.32
  -6   7  -1   19.43    1.50
  -6   7  -1   19.44    1.79
  -6   7   0   -0.08    0.31
  -6   7   0   -1.20    0.47
  -6   7   0    0.15    0.17
  -6   7   0   -0.15    0.21
  -6   7   1    0.55    0.59
  -6   7   1    0.10    0.19
  -6   7   1    0.66    0.29
  -6   7   2   24.09    1.94
  -6   7   2   26.76    1.92
  -5  -7   2    2.96    0.34
  -5  -7   2    3.40    0.42
  -5  -7   2    3.14    0.41
  -5  -7   3    4.97    0.45
  -5  -7   3    5.81    0.59
  -5  -7   3    4.78    0.46
  -5  -6  -2   19.86    1.76
  -5  -6  -2   17.79    1.16
  -5  -6  -2   19.66    1.35
  -5  -6  -1   28.74    2.09
  -5  -6  -1   30.44    2.20
  -5  -6  -1   29.34    2.27
  -5  -6   0   99.12    6.36
  -5  -6   0   93.55    5.36
  -5  -6   1    6.13    0.56
  -5  -6   1    5.87    0.60
  -5  -6   1    7.10    0.45
  -5  -6   2   34.91    2.83
  -5  -6   2   34.76    2.58
  -5  -6   2   33.04    1.93
  -5  -6   3   12.82    1.14
  -5  -6   3   12.74    0.83
  -5  -6   3   12.75    0.83
  -5  -6   4   18.42    1.73
  -5  -6   4   16.42    1.05
  -5  -6   4   17.51    1.79
  -5  -6   5   22.58    1.95
  -5  -6   5   21.09    1.42
  -5  -6   5   19.38    1.37
  -5  -6   6    1.49    0.31
  -5  -6   6    1.24    0.25
  -5  -6   6    1.80    0.44
  -5  -6   7   64.49    4.75
  -5  -6   7   61.97    4.39
  -5  -6   7   64.07    4.63
  -5  -5  -4   21.94    1.27
  -5  -5  -4   21.01    1.46
  -5  -5  -4   18.64    1.38
  -5  -5  -3  120.60    8.41
  -5  -5  -2   14.66    1.07
  -5  -5  -2   14.28    0.99
  -5  -5  -2   14.61    1.10
  -5  -5  -1   12.79    0.84
  -5  -5  -1   12.84    0.68
  -5  -5  -1   11.23    0.77
  -5  -5   0   14.02    0.82
  -5  -5   0   15.78    0.79
  -5  -5   0   14.38    0.86
  -5  -5   1   16.61    1.11
  -5  -5   1   18.67    0.86
  -5  -5   1   17.76    1.20
  -5  -5   2    0.48    0.12
  -5  -5   2    0.80    0.17
  -5  -5   2    0.53    0.30
  -5  -5   3    2.36    0.21
  -5  -5   3    2.85    0.28
  -5  -5   3    2.79    0.46
  -5  -5   4    1.83    0.21
  -5  -5   4    1.99    0.30
  -5  -5   4    0.97    0.25
  -5  -5   5    0.12    0.13
  -5  -5   5   -0.10    0.17
  -5  -5   5    0.09    0.30
  -5  -5   6   59.82    3.62
  -5  -5   6   58.20    3.29
  -5  -5   6   62.64    4.13
  -5  -5   7    2.55    0.36
  -5  -5   7    2.12    0.40
  -5  -5   7    2.52    0.27
  -5  -5   8   39.99    2.88
  -5  -5   8   43.85    3.87
  -5  -5   8   44.97    2.65
  -5  -4  -6   13.48    1.11
  -5  -4  -6   12.14    0.93
  -5  -4  -6   13.59    1.11
  -5  -4  -5    8.85    3.21
  -5  -4  -5    6.15    0.56
  -5  -4  -5    6.69    0.48
  -5  -4  -5    7.75    0.53
  -5  -4  -4    5.48    0.50
  -5  -4  -4    4.48    0.35
  -5  -4  -4    4.64    0.45
  -5  -4  -3   10.18    0.80
  -5  -4  -3   10.00    0.79
  -5  -4  -2    0.25    0.25
  -5  -4  -2    0.23    0.13
  -5  -4  -1   22.17    1.36
  -5  -4  -1   21.86    1.44
  -5  -4   0   29.79    1.70
  -5  -4   0   31.53    1.73
  -5  -4   1   15.44    1.00
  -5  -4   1   17.28    0.95
  -5  -4   1   16.71    1.04
  -5  -4   2    0.14    0.10
  -5  -4   2    0.08    0.15
  -5  -4   2    0.01    0.09
  -5  -4   3   12.21    0.61
  -5  -4   3   10.26    0.64
  -5  -4   3   10.31    0.66
  -5  -4   4  142.56    6.92
  -5  -4   4  166.53    9.75
  -5  -4   4  146.46    7.88
  -5  -4   5  100.43    5.46
  -5  -4   5   90.59    4.86
  -5  -4   6    5.33    0.39
  -5  -4   6    5.06    0.42
  -5  -4   6    6.92    0.46
  -5  -4   7   46.15    3.02
  -5  -4   7   40.05    2.75
  -5  -4   8    3.85    0.38
  -5  -4   8    3.42    0.40
  -5  -4   8    4.71    0.45
  -5  -4   9    0.97    0.29
  -5  -4   9    0.84    0.24
  -5  -4   9    0.76    0.30
  -5  -3  -7   42.85    2.47
  -5  -3  -7   40.72    3.59
  -5  -3  -6   23.65    1.68
  -5  -3  -6   21.95    1.64
  -5  -3  -6   23.57    1.53
  -5  -3  -5    6.47    0.40
  -5  -3  -5    6.62    0.49
  -5  -3  -5    5.92    0.49
  -5  -3  -5    5.62    0.45
  -5  -3  -4   13.55    0.68
  -5  -3  -4   14.17    0.93
  -5  -3  -4   13.96    1.04
  -5  -3  -4   12.81    0.74
  -5  -3  -3   14.81    0.87
  -5  -3  -3   16.12    1.16
  -5  -3  -3   16.79    0.92
  -5  -3  -3   16.08    1.00
  -5  -3  -2   22.15    1.41
  -5  -3  -2   25.22    1.64
  -5  -3  -2   23.51    1.12
  -5  -3  -2   22.96    1.44
  -5  -3  -1    4.69    0.36
  -5  -3  -1    4.14    0.40
  -5  -3   0    8.40    0.58
  -5  -3   0    7.33    0.35
  -5  -3   1   29.91    1.94
  -5  -3   1   30.50    1.63
  -5  -3   1   31.10    2.24
  -5  -3   2    4.34    0.34
  -5  -3   2    4.24    0.34
  -5  -3   3   32.98    1.84
  -5  -3   3   36.04    1.87
  -5  -3   4   18.01    0.82
  -5  -3   4   15.98    1.35
  -5  -3   4   16.36    0.93
  -5  -3   5  181.54   11.31
  -5  -3   5  208.26   16.89
  -5  -3   5  187.24    9.59
  -5  -3   6   22.47    1.31
  -5  -3   6   27.25    1.86
  -5  -3   6   25.42    1.20
  -5  -3   7    8.06    0.65
  -5  -3   7    7.50    0.55
  -5  -3   7    8.64    0.60
  -5  -3   8    4.05    0.38
  -5  -3   8    4.02    0.38
  -5  -3   8    3.86    0.35
  -5  -3   9    0.03    0.26
  -5  -3   9    0.06    0.24
  -5  -3   9    0.17    0.19
  -5  -3  10   51.83    3.79
  -5  -3  10   47.63    5.17
  -5  -3  10   57.83    3.58
  -5  -2  -8   17.18    1.47
  -5  -2  -8   22.34    1.69
  -5  -2  -8   20.58    1.21
  -5  -2  -7    1.62    0.47
  -5  -2  -7    1.21    0.23
  -5  -2  -7    1.53    0.26
  -5  -2  -6   29.03    2.24
  -5  -2  -6   32.81    1.60
  -5  -2  -6   35.54    2.18
  -5  -2  -5    6.35    0.44
  -5  -2  -5    6.59    0.41
  -5  -2  -5    5.60    0.43
  -5  -2  -4    0.10    0.11
  -5  -2  -4    0.10    0.20
  -5  -2  -4    0.25    0.16
  -5  -2  -4    0.18    0.14
  -5  -2  -3  126.62    7.09
  -5  -2  -3  131.59   11.22
  -5  -2  -3  124.55    9.41
  -5  -2  -2    4.92    0.29
  -5  -2  -2    5.25    0.40
  -5  -2  -2    5.32    0.37
  -5  -2  -2    5.49    0.50
  -5  -2  -1  133.13    7.88
  -5  -2  -1  124.53    6.78
  -5  -2  -1  109.50    5.97
  -5  -2   0   11.38    0.79
  -5  -2   0   11.33    0.59
  -5  -2   1   42.59    2.14
  -5  -2   2   54.75    3.52
  -5  -2   3    1.44    0.27
  -5  -2   3    0.94    0.09
  -5  -2   3    1.01    0.10
  -5  -2   4   41.61    2.65
  -5  -2   4   41.60    2.07
  -5  -2   5    2.45    0.20
  -5  -2   5    2.67    0.20
  -5  -2   5    2.20    0.30
  -5  -2   6    2.82    0.56
  -5  -2   6    1.68    0.20
  -5  -2   6    1.65    0.19
  -5  -2   7   22.97    1.86
  -5  -2   7   23.69    1.41
  -5  -2   7   25.55    1.50
  -5  -2   8   50.03    2.95
  -5  -2   8   56.33    3.16
  -5  -2   8   54.87    3.83
  -5  -2   9   56.12    3.91
  -5  -2   9   53.35    3.37
  -5  -2  10    3.73    0.72
  -5  -2  10    6.02    0.50
  -5  -2  10    4.94    0.44
  -5  -1  -8   27.56    1.89
  -5  -1  -8   26.70    2.29
  -5  -1  -8   21.02    1.53
  -5  -1  -7    0.61    0.13
  -5  -1  -7    0.15    0.28
  -5  -1  -7    0.53    0.24
  -5  -1  -6   31.43    1.43
  -5  -1  -6   31.04    1.79
  -5  -1  -6   26.70    1.82
  -5  -1  -5  189.88   14.98
  -5  -1  -5  177.17   14.38
  -5  -1  -5  167.45   12.69
  -5  -1  -4  194.07   10.55
  -5  -1  -4  184.30   14.63
  -5  -1  -4  179.89   13.10
  -5  -1  -3    2.98    0.22
  -5  -1  -3    2.31    0.27
  -5  -1  -3    2.54    0.18
  -5  -1  -2  310.45   19.02
  -5  -1  -2  320.60   20.97
  -5  -1  -2  335.39   21.47
  -5  -1  -2  355.29   23.93
  -5  -1  -1   48.26   54.64
  -5  -1  -1    6.67    0.48
  -5  -1   0   27.31    1.54
  -5  -1   0   26.64    1.46
  -5  -1   1    1.68    0.31
  -5  -1   1    1.11    0.20
  -5  -1   2   17.71    0.86
  -5  -1   3   43.48   22.67
  -5  -1   3    9.84    0.57
  -5  -1   3    9.44    0.63
  -5  -1   4   22.28    1.20
  -5  -1   4   20.09    1.47
  -5  -1   5  169.17    7.04
  -5  -1   5  189.46   12.53
  -5  -1   6    0.10    0.16
  -5  -1   6    0.44    0.16
  -5  -1   6    0.51    0.20
  -5  -1   7   24.58    1.24
  -5  -1   7   27.20    1.38
  -5  -1   7   24.54    1.37
  -5  -1   8  106.45    5.16
  -5  -1   8   95.48    8.26
  -5  -1   9   71.03    4.30
  -5  -1   9   72.29    4.30
  -5  -1   9   66.55    5.27
  -5  -1  10   32.79    2.45
  -5  -1  10   30.93    2.92
  -5  -1  10   34.93    2.41
  -5   0  -9    4.95    0.47
  -5   0  -9    4.43    0.53
  -5   0  -9    5.46    0.50
  -5   0  -8    4.05    0.40
  -5   0  -8    3.10    0.43
  -5   0  -8    4.07    0.45
  -5   0  -7    0.17    0.22
  -5   0  -7    0.02    0.16
  -5   0  -7    0.10    0.18
  -5   0  -6   12.62    1.06
  -5   0  -6   13.26    1.10
  -5   0  -6   14.22    1.10
  -5   0  -5    3.01    0.28
  -5   0  -5    3.03    0.31
  -5   0  -5    3.57    0.41
  -5   0  -4  165.63   14.02
  -5   0  -4  174.74    9.96
  -5   0  -4  150.51   10.65
  -5   0  -3   15.46    0.83
  -5   0  -3   13.16    0.72
  -5   0  -2   10.73    0.69
  -5   0  -2   11.04    0.64
  -5   0  -2   12.71    0.82
  -5   0  -1   31.44    1.85
  -5   0   0   14.63    0.86
  -5   0   0   15.39    1.03
  -5   0   1   69.52    4.41
  -5   0   1   67.32    3.50
  -5   0   2   52.65    3.27
  -5   0   2   57.31    3.34
  -5   0   2   58.50    2.89
  -5   0   3   23.57    1.99
  -5   0   3   26.80    1.72
  -5   0   3   24.77    1.29
  -5   0   4  124.28    7.82
  -5   0   4  126.89    8.92
  -5   0   5   60.86    3.70
  -5   0   5   55.09    3.30
  -5   0   5   55.89    2.32
  -5   0   6  115.38    7.75
  -5   0   6  117.55    5.87
  -5   0   6  130.71    7.66
  -5   0   7   23.81    1.43
  -5   0   7   24.51    1.39
  -5   0   7   26.82    1.50
  -5   0   8    8.60    0.56
  -5   0   8    8.57    0.70
  -5   0   8    8.27    0.66
  -5   0   9    0.67    0.44
  -5   0   9    0.69    0.15
  -5   0   9    1.17    0.30
  -5   0  10    0.04    0.20
  -5   0  10    0.09    0.15
  -5   1  -9   10.79    0.89
  -5   1  -9    7.60    0.69
  -5   1  -9    9.76    0.82
  -5   1  -8   22.22    1.59
  -5   1  -8   19.47    1.55
  -5   1  -8   20.69    1.48
  -5   1  -7   37.79    2.20
  -5   1  -7   43.00    3.04
  -5   1  -7   42.36    3.39
  -5   1  -6    0.31    0.20
  -5   1  -6   -0.04    0.15
  -5   1  -6    0.18    0.24
  -5   1  -6    0.20    0.17
  -5   1  -5   44.56    2.45
  -5   1  -5   42.65    2.97
  -5   1  -5   40.85    2.95
  -5   1  -4    1.33    0.15
  -5   1  -4    1.64    0.28
  -5   1  -4    1.26    0.17
  -5   1  -4    0.86    0.20
  -5   1  -3   15.47    0.95
  -5   1  -3   16.56    1.14
  -5   1  -3   15.08    0.74
  -5   1  -2    0.83    0.09
  -5   1  -2    1.14    0.28
  -5   1  -2    0.91    0.09
  -5   1  -1    5.13    0.50
  -5   1  -1    5.35    0.40
  -5   1  -1    6.13    0.40
  -5   1   0   65.24    4.60
  -5   1   0   75.07    5.64
  -5   1   0   70.26    3.86
  -5   1   1    1.75    0.13
  -5   1   1    2.12    0.20
  -5   1   1    1.85    0.20
  -5   1   2  160.29   10.15
  -5   1   2  176.79   11.30
  -5   1   3    3.26    0.24
  -5   1   3    3.32    0.28
  -5   1   4   69.12    5.00
  -5   1   4   71.92    5.34
  -5   1   5  107.69    6.42
  -5   1   5  118.63    7.66
  -5   1   6  145.85    7.28
  -5   1   6  135.39    7.81
  -5   1   7    9.58    0.57
  -5   1   7    8.37    0.58
  -5   1   8   13.38    0.98
  -5   1   8   12.99    0.87
  -5   1   9   12.71    0.93
  -5   1   9   13.30    1.09
  -5   1  10    4.07    0.46
  -5   2  -9   27.77    2.23
  -5   2  -9   25.40    2.43
  -5   2  -9   32.17    2.67
  -5   2  -9   32.55    1.92
  -5   2  -8   -0.14    0.17
  -5   2  -8   -0.04    0.17
  -5   2  -8   -0.01    0.17
  -5   2  -8   -0.01    0.19
  -5   2  -7   25.03    1.84
  -5   2  -7   24.02    1.96
  -5   2  -7   24.56    1.88
  -5   2  -6    2.23    0.37
  -5   2  -6    0.91    0.33
  -5   2  -6    1.73    0.17
  -5   2  -6    1.46    0.24
  -5   2  -5    0.27    0.46
  -5   2  -5    0.15    0.16
  -5   2  -5   -0.22    0.25
  -5   2  -5    0.26    0.14
  -5   2  -4   14.66    1.20
  -5   2  -4   12.52    0.80
  -5   2  -4   13.73    0.64
  -5   2  -4   13.34    0.78
  -5   2  -3    4.01    0.22
  -5   2  -3    4.98    0.37
  -5   2  -3    4.01    0.38
  -5   2  -3    4.45    0.28
  -5   2  -2    0.46    0.21
  -5   2  -2    0.57    0.09
  -5   2  -2    0.73    0.26
  -5   2  -2    0.42    0.10
  -5   2  -1   49.78    2.91
  -5   2  -1   53.95    2.71
  -5   2  -1   53.06    3.10
  -5   2   0    4.77    0.39
  -5   2   0    4.41    0.29
  -5   2   0    4.65    0.30
  -5   2   0    4.39    0.23
  -5   2   1  249.29   16.34
  -5   2   1  281.00   19.18
  -5   2   1  270.99   12.99
  -5   2   2   31.39    2.68
  -5   2   2   32.32    2.27
  -5   2   2   29.16    2.21
  -5   2   3  175.40   14.46
  -5   2   3  154.19   13.71
  -5   2   4    0.02    0.15
  -5   2   4    0.08    0.16
  -5   2   5   21.62    1.51
  -5   2   5   23.69    1.60
  -5   2   6   61.16    4.00
  -5   2   6   66.75    3.26
  -5   2   7    2.52    0.34
  -5   2   7    2.25    0.23
  -5   2   8   16.17    1.15
  -5   2   8   17.00    1.05
  -5   2   9    0.40    0.30
  -5   3  -9    0.27    0.24
  -5   3  -9    0.23    0.31
  -5   3  -9    0.07    0.23
  -5   3  -9    0.27    0.17
  -5   3  -8    0.80    0.24
  -5   3  -8    0.72    0.46
  -5   3  -8    1.08    0.32
  -5   3  -8    0.73    0.19
  -5   3  -7    5.13    0.55
  -5   3  -7    5.02    0.39
  -5   3  -7    5.10    0.33
  -5   3  -7    4.45    0.41
  -5   3  -6    4.06    0.37
  -5   3  -6    4.55    1.13
  -5   3  -6    4.23    0.38
  -5   3  -6    4.00    1.58
  -5   3  -5    1.73    0.29
  -5   3  -5    1.97    0.22
  -5   3  -5    1.57    0.20
  -5   3  -5    2.25    0.26
  -5   3  -4   21.89    1.07
  -5   3  -4   20.79    1.23
  -5   3  -4   21.73    1.44
  -5   3  -4   21.67    1.55
  -5   3  -3   82.65    4.12
  -5   3  -3   81.46    5.96
  -5   3  -3   84.25    4.26
  -5   3  -3   85.88    4.38
  -5   3  -2   20.07    1.46
  -5   3  -2   22.86    1.56
  -5   3  -2   21.07    1.29
  -5   3  -2   21.46    1.29
  -5   3  -1   16.16    1.06
  -5   3  -1   16.23    0.89
  -5   3  -1   16.34    0.81
  -5   3  -1   15.02    1.06
  -5   3   0   37.22    2.36
  -5   3   0   39.68    2.07
  -5   3   0   36.05    1.63
  -5   3   1    0.75    0.16
  -5   3   1    0.39    0.20
  -5   3   1    0.57    0.14
  -5   3   1    0.71    0.23
  -5   3   2    1.61    0.21
  -5   3   2    1.25    0.24
  -5   3   2    0.87    0.16
  -5   3   2    1.00    0.17
  -5   3   3   -0.06    0.09
  -5   3   3   -0.11    0.17
  -5   3   3   -0.13    0.16
  -5   3   4   27.75    1.45
  -5   3   4   28.26    1.93
  -5   3   5    0.40    0.22
  -5   3   5    0.56    0.25
  -5   3   6   45.49    3.83
  -5   3   6   50.53    3.34
  -5   3   7    8.25    0.64
  -5   3   7    7.18    0.56
  -5   3   8   22.47    1.47
  -5   3   8   20.15    1.95
  -5   3   9   19.99    1.61
  -5   4  -9    4.04    0.43
  -5   4  -9    5.21    0.47
  -5   4  -9    3.87    0.44
  -5   4  -8    0.76    0.24
  -5   4  -8    0.56    0.27
  -5   4  -8    0.77    0.20
  -5   4  -8    0.27    0.28
  -5   4  -7    7.15    0.75
  -5   4  -7    8.18    0.61
  -5   4  -7    6.02    0.51
  -5   4  -7    5.64    0.56
  -5   4  -6    1.60    0.27
  -5   4  -6    1.01    0.31
  -5   4  -6    1.30    0.23
  -5   4  -5   16.76    0.98
  -5   4  -5   15.76    1.03
  -5   4  -5   14.70    0.76
  -5   4  -5   15.75    1.10
  -5   4  -4   69.07    5.24
  -5   4  -4   78.49    3.66
  -5   4  -4   75.93    4.95
  -5   4  -4   73.66    4.30
  -5   4  -3    0.55    0.50
  -5   4  -3    0.12    0.28
  -5   4  -3    0.07    0.15
  -5   4  -3    0.53    0.19
  -5   4  -2   93.93    6.54
  -5   4  -2  105.99    5.12
  -5   4  -2  102.09    5.38
  -5   4  -2  107.87    4.21
  -5   4  -1    5.35    0.49
  -5   4  -1    5.33    0.29
  -5   4  -1    6.82    0.54
  -5   4  -1    6.19    0.32
  -5   4   0    8.58    0.56
  -5   4   0    8.89    0.57
  -5   4   0    8.86    0.43
  -5   4   0    9.24    0.44
  -5   4   1    0.81    0.21
  -5   4   1    1.11    0.23
  -5   4   1    1.31    0.21
  -5   4   1    1.64    0.19
  -5   4   2    3.11    0.26
  -5   4   2    3.31    0.29
  -5   4   2    3.71    0.29
  -5   4   2    3.21    0.29
  -5   4   3    0.92    0.30
  -5   4   3    0.40    0.22
  -5   4   3    0.03    0.13
  -5   4   3    0.15    0.17
  -5   4   4   10.83    0.64
  -5   4   4   11.30    0.84
  -5   4   4   10.74    0.73
  -5   4   5   22.11    1.76
  -5   4   5   21.98    2.01
  -5   4   6    8.13    0.68
  -5   4   6    7.20    0.64
  -5   4   7   20.58    1.44
  -5   4   7   18.62    1.90
  -5   4   8   12.06    0.81
  -5   5  -9    4.84    0.41
  -5   5  -9    4.84    0.52
  -5   5  -8   31.61    2.71
  -5   5  -8   26.83    2.71
  -5   5  -8   31.12    2.61
  -5   5  -8   34.03    2.54
  -5   5  -7    3.38    0.41
  -5   5  -7    2.04    0.38
  -5   5  -7    3.23    0.32
  -5   5  -7    2.63    0.39
  -5   5  -6   67.24    4.59
  -5   5  -6   70.37    4.50
  -5   5  -6   62.19    4.69
  -5   5  -6   65.57    3.38
  -5   5  -5   13.18    0.94
  -5   5  -5   15.47    1.30
  -5   5  -5   16.09    0.84
  -5   5  -5   13.97    0.86
  -5   5  -4    2.49    0.35
  -5   5  -4    2.05    0.21
  -5   5  -4    2.77    0.33
  -5   5  -4    3.04    0.29
  -5   5  -3  194.48    9.21
  -5   5  -3  202.48   14.51
  -5   5  -3  208.43    9.81
  -5   5  -3  201.38   10.31
  -5   5  -2    1.92    0.38
  -5   5  -2    1.57    0.22
  -5   5  -2    1.26    0.25
  -5   5  -2    1.47    0.19
  -5   5  -1   -0.20    0.25
  -5   5  -1    0.32    0.17
  -5   5  -1    0.10    0.19
  -5   5  -1   -0.04    0.16
  -5   5   0    1.58    0.22
  -5   5   0    1.26    0.22
  -5   5   0    1.54    0.24
  -5   5   0    1.94    0.25
  -5   5   1  130.72    8.06
  -5   5   1  151.27   11.21
  -5   5   1  151.41    9.28
  -5   5   1  152.61   11.86
  -5   5   2  232.02   10.14
  -5   5   2  272.16   16.18
  -5   5   2  255.47   17.64
  -5   5   3    2.83    0.34
  -5   5   3    2.58    0.23
  -5   5   3    2.87    0.30
  -5   5   3    3.54    1.18
  -5   5   4   14.37    1.04
  -5   5   4   15.03    1.22
  -5   5   4   16.40    1.04
  -5   5   5    0.43    0.18
  -5   5   5    0.38    0.37
  -5   5   5    0.43    0.15
  -5   5   6    1.78    0.61
  -5   5   7   15.72    1.05
  -5   6  -8    2.35    0.39
  -5   6  -7    3.25    0.38
  -5   6  -7    1.73    0.47
  -5   6  -7    1.87    0.28
  -5   6  -6   25.41    1.48
  -5   6  -6   26.05    1.62
  -5   6  -6   21.20    1.71
  -5   6  -6   25.01    1.74
  -5   6  -5   36.02    1.98
  -5   6  -5   36.59    2.25
  -5   6  -5   34.51    1.76
  -5   6  -5   31.35    2.04
  -5   6  -4    0.23    0.29
  -5   6  -4   -0.27    0.23
  -5   6  -4   -0.19    0.20
  -5   6  -4    0.09    0.54
  -5   6  -3    3.01    0.37
  -5   6  -3    4.41    0.78
  -5   6  -3    3.75    0.31
  -5   6  -3    4.00    0.45
  -5   6  -2    7.18    0.47
  -5   6  -2    8.80    0.66
  -5   6  -2    8.67    0.64
  -5   6  -1    7.18    0.58
  -5   6  -1    7.90    0.64
  -5   6  -1    5.88    0.43
  -5   6   0   29.82    1.84
  -5   6   0   27.67    2.01
  -5   6   0   31.28    1.66
  -5   6   0   30.34    1.87
  -5   6   1   38.65    2.65
  -5   6   1   34.89    1.88
  -5   6   1   33.23    2.28
  -5   6   1   33.99    1.78
  -5   6   2  150.73    8.09
  -5   6   2  162.51   10.63
  -5   6   2  160.80   15.09
  -5   6   2  151.60    9.88
  -5   6   3   72.90    5.24
  -5   6   3   68.05    5.53
  -5   6   3   64.42    4.00
  -5   6   3   70.87    3.97
  -5   6   4    2.32    0.57
  -5   6   4    2.03    0.33
  -5   6   4    0.67    0.47
  -5   6   5    8.24    0.81
  -5   6   5   10.68    0.82
  -5   6   6    1.90    0.43
  -5   7  -7    0.38    0.31
  -5   7  -7    0.20    0.19
  -5   7  -6   37.81    2.69
  -5   7  -6   37.47    2.52
  -5   7  -5    0.36    0.41
  -5   7  -5    2.77    0.35
  -5   7  -5    2.50    0.34
  -5   7  -4   39.10    3.41
  -5   7  -4   43.06    2.62
  -5   7  -4   38.80    2.59
  -5   7  -4   40.66    2.91
  -5   7  -3   26.55    1.54
  -5   7  -3   26.07    1.72
  -5   7  -3   25.92    2.34
  -5   7  -3   22.92    1.50
  -5   7  -2    2.14    0.37
  -5   7  -2    2.47    0.25
  -5   7  -2    3.25    0.40
  -5   7  -2    2.48    0.39
  -5   7  -1   59.06    4.50
  -5   7  -1   56.70    3.84
  -5   7  -1   52.38    3.56
  -5   7  -1   54.39    2.89
  -5   7   0   -0.07    0.27
  -5   7   0    0.42    0.21
  -5   7   0    0.87    0.29
  -5   7   0    0.80    0.31
  -5   7   1   25.60    2.75
  -5   7   1   25.98    2.04
  -5   7   1   29.39    2.06
  -5   7   1   30.05    1.91
  -5   7   2   50.14    3.71
  -5   7   2   52.56    3.90
  -5   7   2   49.92    3.93
  -5   7   3    3.69    0.44
  -5   7   3    4.54    0.55
  -5   7   3    4.67    0.57
  -5   7   4    5.39    0.47
  -5   8  -5    3.09    0.46
  -5   8  -5    2.53    0.36
  -5   8  -4    0.38    0.30
  -5   8  -4   -0.14    0.31
  -5   8  -3   13.37    0.96
  -5   8  -3   11.56    0.93
  -5   8  -2   14.75    1.07
  -5   8  -2   11.93    0.81
  -5   8  -2   17.14    1.15
  -5   8  -1  141.49   11.48
  -5   8  -1  127.47    9.68
  -5   8  -1  139.87    9.66
  -5   8   0    6.26    0.56
  -5   8   0    7.87    0.66
  -5   8   0    5.82    0.54
  -5   8   1    4.52    0.43
  -5   8   1    3.37    0.51
  -5   8   1    4.86    0.44
  -5   8   2   25.86    2.46
  -5   8   2   25.33    1.56
  -5   8   2   26.65    2.29
  -4  -7  -2    0.55    0.28
  -4  -7  -2    0.98    0.25
  -4  -7  -2    0.79    0.24
  -4  -7  -1    0.15    0.14
  -4  -7  -1    0.89    0.49
  -4  -7  -1    1.15    0.20
  -4  -7   0   10.02    0.85
  -4  -7   0   10.05    0.67
  -4  -7   0    9.44    0.62
  -4  -7   0    8.95    0.72
  -4  -7   1    0.10    0.21
  -4  -7   1    0.23    0.21
  -4  -7   1   -0.17    0.28
  -4  -7   2   17.27    1.12
  -4  -7   2   20.51    1.34
  -4  -7   2   19.61    1.10
  -4  -7   3   17.79    1.48
  -4  -7   3   16.24    1.50
  -4  -7   3   16.29    1.15
  -4  -7   4   29.24    2.24
  -4  -7   4   27.79    1.82
  -4  -7   4   30.33    1.70
  -4  -7   5    7.32    0.56
  -4  -7   5    7.34    0.68
  -4  -7   5    6.89    0.57
  -4  -7   6    2.30    0.35
  -4  -7   6    1.72    0.40
  -4  -7   6    1.45    0.28
  -4  -7   7   17.59    1.44
  -4  -7   7   15.86    1.18
  -4  -7   7   16.61    1.36
  -4  -6  -4    3.40    0.31
  -4  -6  -4    3.55    0.42
  -4  -6  -4    2.86    0.44
  -4  -6  -3    0.04    0.19
  -4  -6  -3   -0.12    0.24
  -4  -6  -3    0.27    0.21
  -4  -6  -2   56.06    3.77
  -4  -6  -2   52.93    3.19
  -4  -6  -2   56.58    3.70
  -4  -6  -1   30.67    1.97
  -4  -6  -1   29.80    1.59
  -4  -6  -1   29.49    1.74
  -4  -6   0  166.97   12.95
  -4  -6   0  172.76   11.67
  -4  -6   0  161.16    8.14
  -4  -6   1    7.04    0.62
  -4  -6   1    8.10    0.46
  -4  -6   1    8.22    0.54
  -4  -6   2   47.99    3.33
  -4  -6   2   42.14    2.48
  -4  -6   2   46.60    2.23
  -4  -6   3   47.52    2.85
  -4  -6   3   47.61    2.44
  -4  -6   3   39.45    2.14
  -4  -6   4  102.27    5.47
  -4  -6   4   91.66    4.88
  -4  -6   4   89.12    5.68
  -4  -6   5   70.20    3.44
  -4  -6   5   69.74    3.53
  -4  -6   5   78.68    4.22
  -4  -6   6    0.42    0.26
  -4  -6   6    0.25    0.19
  -4  -6   6    0.70    0.62
  -4  -6   7    0.31    0.20
  -4  -6   7    0.93    0.37
  -4  -6   8    0.99    0.42
  -4  -6   8    1.85    0.26
  -4  -6   8    2.28    0.42
  -4  -5  -6    4.35    0.45
  -4  -5  -6    4.49    0.43
  -4  -5  -6    4.50    0.52
  -4  -5  -5   10.41    0.61
  -4  -5  -5    8.94    0.69
  -4  -5  -5   10.37    0.72
  -4  -5  -4   13.74    0.64
  -4  -5  -4   13.00    0.76
  -4  -5  -4   12.25    0.75
  -4  -5  -3   13.53    0.80
  -4  -5  -3   12.64    0.82
  -4  -5  -3   12.54    0.78
  -4  -5  -2   14.13    1.03
  -4  -5  -2   14.88    0.83
  -4  -5  -2   14.41    0.90
  -4  -5  -1  349.52   21.68
  -4  -5  -1  333.45   15.96
  -4  -5  -1  324.68   15.89
  -4  -5   0    8.79    0.57
  -4  -5   0    8.26    0.51
  -4  -5   0    8.33    0.59
  -4  -5   1  103.35    5.79
  -4  -5   1  101.81    4.83
  -4  -5   1   97.30    4.36
  -4  -5   2   15.22    0.86
  -4  -5   2   17.20    0.94
  -4  -5   2   16.77    1.21
  -4  -5   3   16.87    0.89
  -4  -5   3   14.14    0.86
  -4  -5   3   14.67    0.96
  -4  -5   4    3.00    0.37
  -4  -5   4    4.08    0.30
  -4  -5   4    3.14    0.28
  -4  -5   5   67.56    3.98
  -4  -5   5   76.14    4.13
  -4  -5   5   65.51    3.65
  -4  -5   6   14.00    0.75
  -4  -5   6   13.23    0.72
  -4  -5   6   16.03    0.94
  -4  -5   7    0.87    0.30
  -4  -5   7    0.50    0.21
  -4  -5   7    0.61    0.16
  -4  -5   8    5.62    0.45
  -4  -5   8    7.23    0.67
  -4  -5   8    5.54    0.45
  -4  -5   9   67.22    4.59
  -4  -5   9   67.32    4.82
  -4  -5   9   66.50    5.07
  -4  -4  -7    2.47    0.30
  -4  -4  -7    2.87    0.33
  -4  -4  -6    2.43    0.28
  -4  -4  -6    2.33    0.34
  -4  -4  -6    1.96    0.27
  -4  -4  -5   14.71    0.90
  -4  -4  -5   15.63    0.96
  -4  -4  -5   15.41    0.93
  -4  -4  -5   15.31    0.86
  -4  -4  -4   32.25    2.01
  -4  -4  -4   32.64    2.41
  -4  -4  -4   33.02    1.92
  -4  -4  -4   32.68    1.60
  -4  -4  -3   42.95    2.13
  -4  -4  -3   42.94    2.40
  -4  -4  -3   40.63    2.22
  -4  -4  -2   15.15    0.75
  -4  -4  -2   16.01    0.98
  -4  -4  -2   15.72    0.78
  -4  -4  -1    0.44    0.27
  -4  -4  -1    0.32    0.12
  -4  -4   0   32.97    1.96
  -4  -4   0   30.01    2.00
  -4  -4   0   31.68    2.00
  -4  -4   1    0.30    0.12
  -4  -4   1    0.52    0.12
  -4  -4   1    0.57    0.21
  -4  -4   2    0.70    0.12
  -4  -4   2    0.48    0.23
  -4  -4   2    1.07    0.26
  -4  -4   3   17.97    0.88
  -4  -4   3   19.99    1.09
  -4  -4   3   16.85    0.87
  -4  -4   4    5.70    0.35
  -4  -4   4    4.65    0.39
  -4  -4   5    2.64    0.27
  -4  -4   5    4.45    0.32
  -4  -4   5    3.25    0.23
  -4  -4   6   -0.04    0.17
  -4  -4   6    0.06    0.13
  -4  -4   6    0.33    0.22
  -4  -4   7   78.29    4.93
  -4  -4   7   74.89    4.36
  -4  -4   7   91.86    5.15
  -4  -4   8    0.62    0.16
  -4  -4   8   -0.09    0.22
  -4  -4   8    0.01    0.17
  -4  -4   9   39.96    2.46
  -4  -4   9   36.41    2.05
  -4  -4   9   38.64    2.39
  -4  -4  10    4.75    0.44
  -4  -4  10    5.02    0.46
  -4  -3  -8   15.98    1.77
  -4  -3  -8   17.70    1.26
  -4  -3  -8   17.29    1.10
  -4  -3  -7    3.03    0.52
  -4  -3  -7    2.06    0.32
  -4  -3  -7    2.46    0.26
  -4  -3  -6   27.16    1.70
  -4  -3  -6   25.22    1.62
  -4  -3  -6   27.98    1.35
  -4  -3  -5   39.11    2.90
  -4  -3  -5   39.16    2.14
  -4  -3  -5   38.32    2.01
  -4  -3  -5   39.13    2.13
  -4  -3  -4  330.56   20.97
  -4  -3  -4  310.75   16.48
  -4  -3  -4  340.67   21.17
  -4  -3  -4  341.34   24.47
  -4  -3  -3    6.52    0.33
  -4  -3  -3    6.11    0.37
  -4  -3  -3    6.68    0.38
  -4  -3  -3    6.35    0.48
  -4  -3  -2   51.11    2.37
  -4  -3  -2   51.85    3.03
  -4  -3  -2   53.85    3.24
  -4  -3  -2   51.58    3.17
  -4  -3  -1    3.36    0.28
  -4  -3  -1    3.56    0.24
  -4  -3  -1    3.50    0.30
  -4  -3   0    1.77    0.14
  -4  -3   0    1.69    0.12
  -4  -3   0    1.46    0.20
  -4  -3   1   56.82    2.56
  -4  -3   1   60.76    3.70
  -4  -3   1   54.98    2.34
  -4  -3   2    9.33    0.56
  -4  -3   2   10.30    0.48
  -4  -3   2   10.60    0.50
  -4  -3   3   80.78    4.49
  -4  -3   3   87.65    4.82
  -4  -3   3   84.52    3.29
  -4  -3   4  101.18    4.00
  -4  -3   4  113.21    6.25
  -4  -3   4  101.12    4.39
  -4  -3   5   13.49    0.80
  -4  -3   5   17.11    0.84
  -4  -3   5   13.38    0.62
  -4  -3   6  112.99    8.15
  -4  -3   6   97.65    4.33
  -4  -3   6   95.33    4.26
  -4  -3   7   48.90    2.49
  -4  -3   7   43.80    2.29
  -4  -3   7   42.79    2.18
  -4  -3   8   54.25    2.87
  -4  -3   8   55.90    3.17
  -4  -3   9   32.40    2.00
  -4  -3   9   33.35    1.97
  -4  -3   9   33.68    2.27
  -4  -3  10   22.29    2.10
  -4  -3  10   22.86    1.47
  -4  -3  10   22.79    1.31
  -4  -3  11    1.91    0.26
  -4  -3  11    1.65    0.35
  -4  -2  -9   16.33    1.13
  -4  -2  -9   13.72    1.30
  -4  -2  -9   15.99    1.25
  -4  -2  -8   34.86    2.32
  -4  -2  -8   35.28    2.26
  -4  -2  -7   42.03    2.55
  -4  -2  -7   35.28    1.95
  -4  -2  -7   40.71    2.03
  -4  -2  -6    0.16    0.15
  -4  -2  -6    0.42    0.21
  -4  -2  -6    0.14    0.15
  -4  -2  -5    6.75    0.52
  -4  -2  -5    9.49    0.85
  -4  -2  -5    6.42    0.43
  -4  -2  -4   56.75    2.95
  -4  -2  -4   60.92    3.90
  -4  -2  -4   62.94    2.94
  -4  -2  -4   64.00    3.89
  -4  -2  -3    0.24    0.13
  -4  -2  -3    0.19    0.11
  -4  -2  -3    0.29    0.08
  -4  -2  -3    0.47    0.16
  -4  -2  -2    2.75    0.29
  -4  -2  -2    2.84    0.21
  -4  -2  -2    2.52    0.23
  -4  -2  -2    3.05    0.27
  -4  -2  -1   40.39    2.74
  -4  -2  -1   42.91    2.63
  -4  -2  -1   41.47    2.25
  -4  -2   0   43.78    2.55
  -4  -2   0   39.98    2.49
  -4  -2   0   44.75    2.16
  -4  -2   0   48.17    2.83
  -4  -2   1  533.32   25.34
  -4  -2   2   33.36    1.42
  -4  -2   2   33.78    1.78
  -4  -2   2   31.65    1.46
  -4  -2   3   10.45    0.59
  -4  -2   3    9.53    0.49
  -4  -2   3   10.46    0.53
  -4  -2   4  152.47    6.81
  -4  -2   4  139.51    6.25
  -4  -2   4  169.56   12.35
  -4  -2   5    7.72    0.42
  -4  -2   5    7.91    0.55
  -4  -2   6   19.68    1.21
  -4  -2   6   18.95    1.32
  -4  -2   7    9.54    0.68
  -4  -2   7    9.00    0.51
  -4  -2   7    9.10    0.74
  -4  -2   8    2.94    0.33
  -4  -2   8    2.23    0.25
  -4  -2   8    2.63    0.26
  -4  -2   9   13.33    1.13
  -4  -2   9   14.23    1.12
  -4  -2   9   14.81    1.09
  -4  -2  10   15.58    1.01
  -4  -2  10   18.86    1.43
  -4  -2  10   17.33    1.85
  -4  -2  11  106.52    7.05
  -4  -2  11  115.25    9.36
  -4  -1  -9   57.89    4.47
  -4  -1  -9   70.79    3.96
  -4  -1  -9   69.79    5.61
  -4  -1  -8    0.17    0.28
  -4  -1  -8    0.00    0.15
  -4  -1  -8   -0.09    0.18
  -4  -1  -7   88.44    5.48
  -4  -1  -7   77.01    4.96
  -4  -1  -7   86.34    3.87
  -4  -1  -6    3.20    0.31
  -4  -1  -6    2.43    0.28
  -4  -1  -5   57.04    3.71
  -4  -1  -5   52.46    3.05
  -4  -1  -5   56.29    3.09
  -4  -1  -4   36.68    2.15
  -4  -1  -4   34.51    2.27
  -4  -1  -4   34.47    2.64
  -4  -1  -3    7.20    0.52
  -4  -1  -3    7.68    0.66
  -4  -1  -3    8.36    0.53
  -4  -1  -2  300.25   15.90
  -4  -1  -2  285.45   15.29
  -4  -1  -2  279.47   17.11
  -4  -1  -1    5.03    0.36
  -4  -1  -1    5.09    0.53
  -4  -1  -1    4.74    0.27
  -4  -1  -1    4.44    0.23
  -4  -1   0   65.78    3.42
  -4  -1   0   68.85    4.52
  -4  -1   1  339.04   17.79
  -4  -1   1  335.14   17.24
  -4  -1   2   88.22    3.89
  -4  -1   2   83.63    4.38
  -4  -1   2   81.11    4.43
  -4  -1   3    9.01    0.44
  -4  -1   3   10.26    0.54
  -4  -1   3    9.57    0.48
  -4  -1   4   14.52    0.89
  -4  -1   4   11.52    0.57
  -4  -1   4   12.18    0.66
  -4  -1   5    7.54    0.42
  -4  -1   5    8.66    0.58
  -4  -1   5    8.33    0.41
  -4  -1   6    3.96    0.30
  -4  -1   6    4.01    0.43
  -4  -1   6    3.21    0.26
  -4  -1   7   62.81    3.16
  -4  -1   7   64.72    3.48
  -4  -1   7   59.20    3.58
  -4  -1   8   66.55    4.07
  -4  -1   8   71.89    4.48
  -4  -1   8   67.75    3.64
  -4  -1   9   30.21    1.55
  -4  -1   9   27.12    1.40
  -4  -1   9   24.73    1.41
  -4  -1  10   24.23    1.88
  -4  -1  10   25.15    1.43
  -4  -1  10   23.63    1.72
  -4  -1  11   19.47    1.78
  -4  -1  11   19.40    1.46
  -4   0 -10   34.77    2.89
  -4   0 -10   35.61    2.96
  -4   0  -9    2.16    0.32
  -4   0  -9    0.99    0.39
  -4   0  -9    1.90    0.28
  -4   0  -8    7.80    0.59
  -4   0  -8    8.05    0.66
  -4   0  -7   14.78    0.86
  -4   0  -7   16.51    0.97
  -4   0  -7   16.23    1.12
  -4   0  -6   -0.31    0.15
  -4   0  -6    0.28    0.20
  -4   0  -5   64.90    4.24
  -4   0  -5   65.43    3.50
  -4   0  -5   55.40    2.69
  -4   0  -4   11.52    0.94
  -4   0  -4   10.04    0.56
  -4   0  -4    9.41    0.53
  -4   0  -3  147.99    7.88
  -4   0  -3  129.33    9.78
  -4   0  -3  139.15    9.25
  -4   0  -2   22.93    1.44
  -4   0  -2   19.33    1.21
  -4   0  -2   21.98    1.42
  -4   0  -1   16.35    0.97
  -4   0  -1   17.49    1.31
  -4   0   0    0.47    0.15
  -4   0   0    0.42    0.15
  -4   0   1  100.39    5.30
  -4   0   1   93.28    4.76
  -4   0   2   44.29    2.15
  -4   0   2   37.95    2.60
  -4   0   2   43.93    3.26
  -4   0   3   17.31    1.11
  -4   0   3   17.76    1.31
  -4   0   3   17.87    0.89
  -4   0   4   24.58    1.32
  -4   0   4   27.32    2.27
  -4   0   5   35.94    2.12
  -4   0   5   42.76    2.95
  -4   0   5   40.16    1.74
  -4   0   6    7.51    0.41
  -4   0   6    8.64    0.71
  -4   0   6    7.77    0.40
  -4   0   7   14.87    0.62
  -4   0   7   14.50    0.91
  -4   0   7   17.63    1.12
  -4   0   8  139.25    8.09
  -4   0   8  150.71    7.93
  -4   0   8  136.93    6.57
  -4   0   9    1.44    0.21
  -4   0   9    2.21    0.20
  -4   0   9    2.45    0.42
  -4   0  10    7.58    1.07
  -4   0  10    7.30    0.90
  -4   0  11    8.80    0.67
  -4   0  11    8.25    0.59
  -4   1 -10    1.25    0.36
  -4   1 -10    1.20    0.24
  -4   1  -9    1.80    0.34
  -4   1  -9    1.68    0.28
  -4   1  -9    1.40    0.24
  -4   1  -9    1.14    0.27
  -4   1  -8   37.94    2.77
  -4   1  -8   36.45    2.42
  -4   1  -8   40.11    3.05
  -4   1  -8   34.35    2.03
  -4   1  -7   83.91    5.25
  -4   1  -7   80.46    3.74
  -4   1  -7   88.34    5.70
  -4   1  -6   18.56    1.40
  -4   1  -6   18.97    1.09
  -4   1  -6   19.53    1.67
  -4   1  -6   19.26    1.08
  -4   1  -5   46.06    2.70
  -4   1  -5   44.44    2.41
  -4   1  -5   43.13    2.64
  -4   1  -5   43.12    2.15
  -4   1  -4    0.62    0.12
  -4   1  -4    0.29    0.15
  -4   1  -4    0.72    0.10
  -4   1  -4    0.75    0.18
  -4   1  -3    2.33    0.16
  -4   1  -3    2.32    0.19
  -4   1  -3    2.28    0.24
  -4   1  -2   36.88    2.36
  -4   1  -2   36.74    1.87
  -4   1  -2   33.16    2.07
  -4   1  -2   36.93    2.07
  -4   1  -1   15.40    0.91
  -4   1  -1   15.32    1.11
  -4   1  -1   17.81    1.18
  -4   1  -1   15.32    0.81
  -4   1   0   46.39    2.77
  -4   1   0   52.28    2.88
  -4   1   0   53.37    2.72
  -4   1   1   16.42    0.86
  -4   1   1   15.36    0.77
  -4   1   1   16.32    0.81
  -4   1   2   22.56    1.31
  -4   1   2   23.61    1.83
  -4   1   2   23.55    1.18
  -4   1   3   51.68    4.24
  -4   1   3   58.02    3.43
  -4   1   3   56.78    2.84
  -4   1   4  147.96   10.64
  -4   1   4  168.52   10.58
  -4   1   4  158.60    9.94
  -4   1   5  197.00   13.62
  -4   1   5  176.97   11.46
  -4   1   5  180.36    9.81
  -4   1   6   32.99    1.62
  -4   1   6   37.67    2.54
  -4   1   6   36.65    2.64
  -4   1   7   64.39    3.72
  -4   1   7   57.45    3.00
  -4   1   7   58.44    3.23
  -4   1   8    0.56    0.17
  -4   1   8    0.47    0.31
  -4   1   9   69.42    5.83
  -4   1   9   70.56    4.21
  -4   1  10   42.33    2.82
  -4   1  11    0.43    0.38
  -4   2 -10    3.14    0.40
  -4   2 -10    3.73    0.36
  -4   2  -9    1.40    0.36
  -4   2  -9    2.20    0.35
  -4   2  -9    2.42    0.36
  -4   2  -8  194.87    9.99
  -4   2  -8  196.01   14.12
  -4   2  -8  194.72   11.74
  -4   2  -8  199.21   12.93
  -4   2  -7   10.49    0.67
  -4   2  -7   10.01    0.90
  -4   2  -7   10.68    0.56
  -4   2  -7   11.43    0.70
  -4   2  -6   25.91    1.50
  -4   2  -6   30.95    1.79
  -4   2  -6   28.30    1.76
  -4   2  -6   26.88    1.83
  -4   2  -5    7.34    0.40
  -4   2  -5    7.09    0.36
  -4   2  -5    7.28    0.49
  -4   2  -5    8.81    0.60
  -4   2  -4   36.20    1.82
  -4   2  -4   36.28    1.95
  -4   2  -4   35.47    2.22
  -4   2  -4   37.19    2.20
  -4   2  -3   13.15    0.62
  -4   2  -3   13.92    0.69
  -4   2  -3   13.34    0.77
  -4   2  -3   12.69    0.58
  -4   2  -2   15.32    1.00
  -4   2  -2   15.34    0.92
  -4   2  -2   14.21    0.79
  -4   2  -2   15.80    0.71
  -4   2  -1    3.94    0.24
  -4   2  -1    4.63    0.34
  -4   2  -1    4.13    0.24
  -4   2  -1    4.27    0.30
  -4   2   0   10.06    0.55
  -4   2   0   10.03    0.45
  -4   2   0    9.96    0.58
  -4   2   0   10.89    0.74
  -4   2   1   35.48    1.68
  -4   2   1   35.21    1.66
  -4   2   1   39.81    2.71
  -4   2   1   35.09    2.16
  -4   2   2  297.57   14.90
  -4   2   2  316.67   13.78
  -4   2   2  298.93   22.39
  -4   2   2  307.45   22.04
  -4   2   3   44.22    2.55
  -4   2   3   49.03    3.98
  -4   2   4  164.64   13.37
  -4   2   4  185.59   10.71
  -4   2   5    2.10    0.23
  -4   2   5    2.38    0.31
  -4   2   6   86.00    6.53
  -4   2   6   96.04    5.98
  -4   2   7    1.45    0.60
  -4   2   7    1.55    0.28
  -4   2   8    6.46    0.51
  -4   2   8    5.00    0.37
  -4   2   9    5.16    0.88
  -4   2   9    4.27    0.50
  -4   2  10    4.93    0.44
  -4   3 -10   20.33    1.15
  -4   3 -10   18.62    1.31
  -4   3  -9    0.93    0.30
  -4   3  -9    0.32    0.30
  -4   3  -9    0.65    0.24
  -4   3  -8   12.03    0.69
  -4   3  -8   10.98    0.63
  -4   3  -8   11.26    0.85
  -4   3  -7   67.73    3.35
  -4   3  -7   69.57    4.67
  -4   3  -7   68.27    3.21
  -4   3  -6   19.84    1.27
  -4   3  -6   19.99    1.05
  -4   3  -5   13.52    0.72
  -4   3  -5   13.28    0.61
  -4   3  -5   13.71    0.79
  -4   3  -5   12.94    0.61
  -4   3  -4    3.39    0.29
  -4   3  -4    4.48    0.27
  -4   3  -4    3.49    0.28
  -4   3  -4    4.33    0.38
  -4   3  -3   34.41    1.80
  -4   3  -3   35.35    1.56
  -4   3  -3   31.86    1.62
  -4   3  -3   36.48    1.78
  -4   3  -2   23.83    1.05
  -4   3  -2   23.47    1.33
  -4   3  -2   24.63    1.76
  -4   3  -2   23.41    1.17
  -4   3  -1    1.75    0.23
  -4   3  -1    1.67    0.17
  -4   3  -1    2.19    0.17
  -4   3  -1    2.16    0.28
  -4   3   0    0.41    0.12
  -4   3   0    0.14    0.09
  -4   3   0    0.21    0.12
  -4   3   0    0.55    0.14
  -4   3   1   90.60    5.28
  -4   3   1   93.83    6.58
  -4   3   1   91.08    5.77
  -4   3   2  107.12    4.80
  -4   3   2  112.42    7.45
  -4   3   2  126.07    6.70
  -4   3   2  121.91    5.76
  -4   3   3  220.64   12.39
  -4   3   3  180.48   10.48
  -4   3   3  221.64    9.23
  -4   3   3  198.22   15.15
  -4   3   4   45.68    2.72
  -4   3   4   44.78    3.32
  -4   3   5   47.48    2.41
  -4   3   5   41.51    2.32
  -4   3   6    1.73    0.43
  -4   3   6    1.18    0.91
  -4   3   7    1.51    0.23
  -4   3   7    1.30    0.23
  -4   3   8    1.55    0.22
  -4   3   8    1.63    0.34
  -4   3   9   38.58    2.70
  -4   3  10   21.78    1.61
  -4   4 -10    4.71    0.42
  -4   4 -10    3.67    0.51
  -4   4  -9   42.04    3.14
  -4   4  -9   39.52    3.28
  -4   4  -9   46.97    3.13
  -4   4  -8   18.76    1.07
  -4   4  -8   19.29    1.37
  -4   4  -7   12.30    0.76
  -4   4  -7   11.72    0.88
  -4   4  -6    0.93    0.23
  -4   4  -6    0.68    0.20
  -4   4  -6    0.83    0.22
  -4   4  -5   34.38    1.67
  -4   4  -5   34.03    1.82
  -4   4  -5   36.26    2.24
  -4   4  -4   12.60    0.60
  -4   4  -4   12.86    0.81
  -4   4  -4   11.89    0.67
  -4   4  -4   12.87    0.77
  -4   4  -3    4.74    0.33
  -4   4  -3    4.74    0.42
  -4   4  -3    4.19    0.27
  -4   4  -3    5.24    0.32
  -4   4  -2   10.07    0.64
  -4   4  -2   11.05    0.68
  -4   4  -2   10.41    0.49
  -4   4  -2   10.93    0.49
  -4   4  -1  116.11    3.98
  -4   4  -1  106.56    4.57
  -4   4  -1  105.13    5.04
  -4   4  -1   97.74    5.48
  -4   4   0   61.97    3.25
  -4   4   0   61.74    2.31
  -4   4   0   57.19    2.66
  -4   4   0   61.01    4.43
  -4   4   1   23.52    1.16
  -4   4   1   20.51    1.25
  -4   4   1   24.27    1.11
  -4   4   1   22.50    1.26
  -4   4   2   10.77    0.57
  -4   4   2   10.22    0.54
  -4   4   2   10.31    0.56
  -4   4   2   11.18    0.81
  -4   4   3   80.33    5.57
  -4   4   3   82.97    6.59
  -4   4   3   82.79    4.95
  -4   4   3   77.50    4.73
  -4   4   4    0.15    0.18
  -4   4   4   -0.01    0.14
  -4   4   4    0.34    0.15
  -4   4   5   29.19    1.70
  -4   4   5   27.82    1.54
  -4   4   6    3.97    0.45
  -4   4   6    4.72    0.46
  -4   4   7    4.73    0.47
  -4   4   7    5.36    0.54
  -4   4   8   29.27    1.92
  -4   4   9    1.25    0.32
  -4   5 -10   51.63    4.66
  -4   5 -10   53.56    4.24
  -4   5  -9    0.58    0.21
  -4   5  -8    0.09    0.30
  -4   5  -8   -0.10    0.23
  -4   5  -8    0.22    0.15
  -4   5  -7    9.23    0.60
  -4   5  -7    9.66    0.74
  -4   5  -7    7.63    0.62
  -4   5  -6    2.07    0.59
  -4   5  -6    1.57    0.28
  -4   5  -6    1.43    0.30
  -4   5  -5   59.06    3.54
  -4   5  -5   58.79    2.79
  -4   5  -4    5.45    0.32
  -4   5  -4    5.63    0.37
  -4   5  -4    6.09    0.39
  -4   5  -3  168.14    9.12
  -4   5  -3  176.85    9.89
  -4   5  -3  156.25    8.21
  -4   5  -2   18.14    0.97
  -4   5  -2   17.84    1.01
  -4   5  -2   18.83    1.00
  -4   5  -2   20.70    1.01
  -4   5  -1   26.93    1.69
  -4   5  -1   25.34    1.32
  -4   5  -1   27.09    1.09
  -4   5   0  103.48    4.38
  -4   5   0  111.67    7.92
  -4   5   0  113.87    5.93
  -4   5   1  107.01    4.57
  -4   5   1   96.95    4.77
  -4   5   1   97.91    5.06
  -4   5   1  101.97    4.80
  -4   5   2   38.65    2.19
  -4   5   2   41.20    1.95
  -4   5   2   41.71    2.98
  -4   5   2   40.53    2.25
  -4   5   3   17.42    1.08
  -4   5   3   18.13    1.13
  -4   5   3   17.97    0.92
  -4   5   3   18.76    1.04
  -4   5   4   68.97    4.56
  -4   5   4   61.35    4.64
  -4   5   4   61.24    3.31
  -4   5   5    0.28    0.17
  -4   5   5   -0.09    0.28
  -4   5   5    0.01    0.16
  -4   5   6   70.35    5.45
  -4   5   6   66.68    6.77
  -4   5   7   22.11    1.44
  -4   5   8    1.85    0.32
  -4   6  -9    1.08    0.31
  -4   6  -9    0.38    0.22
  -4   6  -8   19.32    1.41
  -4   6  -7  116.17    6.41
  -4   6  -7  115.61   10.13
  -4   6  -6  117.04    7.86
  -4   6  -6  110.33    6.89
  -4   6  -5   27.48    1.63
  -4   6  -5   27.09    1.39
  -4   6  -4   80.06    4.32
  -4   6  -4   77.11    3.43
  -4   6  -3    2.91    0.30
  -4   6  -3    3.04    0.30
  -4   6  -3    2.48    0.25
  -4   6  -2   70.01    3.54
  -4   6  -2   73.09    4.71
  -4   6  -2   75.73    3.45
  -4   6  -1   69.26    2.73
  -4   6  -1   72.47    3.28
  -4   6  -1   72.25    4.34
  -4   6   0   11.44    0.69
  -4   6   0   11.31    0.59
  -4   6   0   12.78    0.80
  -4   6   0   12.30    0.87
  -4   6   1  189.91   10.62
  -4   6   1  190.74    8.89
  -4   6   1  179.25   10.25
  -4   6   2    2.81    0.34
  -4   6   2    3.52    0.32
  -4   6   2    3.25    0.28
  -4   6   2    4.22    0.44
  -4   6   3   69.65    3.99
  -4   6   3   64.91    3.65
  -4   6   3   74.23    5.11
  -4   6   3   70.91    4.05
  -4   6   4    5.40    0.55
  -4   6   4    5.11    0.51
  -4   6   4    5.02    0.40
  -4   6   5  142.71   10.23
  -4   6   6    1.44    0.24
  -4   6   6    1.83    0.45
  -4   6   7   51.33    4.33
  -4   7  -8   10.24    0.75
  -4   7  -7    3.98    0.45
  -4   7  -6   57.44    3.54
  -4   7  -5   29.22    1.96
  -4   7  -5   28.69    1.97
  -4   7  -4    5.06    0.42
  -4   7  -4    5.07    1.05
  -4   7  -3   86.44    5.49
  -4   7  -3   85.99    5.10
  -4   7  -3   82.86    5.07
  -4   7  -2   23.70    1.06
  -4   7  -2   24.34    1.51
  -4   7  -2   22.74    1.42
  -4   7  -1    2.31    0.27
  -4   7  -1    2.63    0.31
  -4   7  -1    2.34    0.34
  -4   7   0   60.19    3.00
  -4   7   0   60.54    4.18
  -4   7   0   61.82    4.21
  -4   7   1   42.69    2.55
  -4   7   1   41.44    2.69
  -4   7   1   37.65    2.76
  -4   7   2   12.32    0.76
  -4   7   2   12.88    0.97
  -4   7   2   12.57    0.89
  -4   7   2   10.12    0.84
  -4   7   3    6.73    0.59
  -4   7   3    8.48    0.81
  -4   7   3    7.32    0.52
  -4   7   4   29.93    2.57
  -4   7   4   26.39    2.07
  -4   7   5    3.10    0.39
  -4   8  -7   17.01    1.29
  -4   8  -6   20.41    1.67
  -4   8  -5   11.91    1.15
  -4   8  -4    5.19    0.64
  -4   8  -3   56.81    4.28
  -4   8  -3   55.15    3.44
  -4   8  -2    7.53    0.58
  -4   8  -2    6.46    0.55
  -4   8  -1    0.29    0.34
  -4   8  -1    1.05    0.19
  -4   8   0   52.57    2.95
  -4   8   0   53.21    4.91
  -4   8   1    0.09    0.17
  -4   8   1   -0.01    0.30
  -4   8   2  114.25    9.52
  -4   8   2  133.21    8.14
  -4   8   2  124.27   10.78
  -4   8   3    1.19    0.35
  -4   8   3    1.31    0.29
  -4   9  -3   10.08    0.89
  -4   9  -3   10.85    1.02
  -4   9  -2  144.44   11.14
  -4   9  -2  154.04   12.58
  -4   9  -1   53.22    3.74
  -4   9  -1   47.18    3.95
  -3  -8  -1   54.35    3.91
  -3  -8  -1   55.43    4.05
  -3  -8   0    7.36    0.54
  -3  -8   0    4.68    0.92
  -3  -8   0    6.85    0.56
  -3  -8   1   17.00    1.13
  -3  -8   1   16.15    1.14
  -3  -8   1   15.02    1.38
  -3  -8   2    0.56    0.24
  -3  -8   2    0.87    0.33
  -3  -8   2   -0.41    0.33
  -3  -8   3   27.36    1.71
  -3  -8   3   28.51    1.63
  -3  -8   3   26.24    1.80
  -3  -8   4   53.94    4.07
  -3  -8   4   54.20    3.28
  -3  -8   4   59.05    4.21
  -3  -8   5    0.02    0.26
  -3  -8   5    0.20    0.32
  -3  -8   6    9.43    0.64
  -3  -8   6    8.10    0.69
  -3  -7  -4    1.08    0.32
  -3  -7  -4    0.64    0.26
  -3  -7  -3   28.20    1.96
  -3  -7  -3   24.81    1.75
  -3  -7  -3   28.34    1.87
  -3  -7  -2    0.55    0.31
  -3  -7  -2    1.34    0.30
  -3  -7  -2    0.70    0.22
  -3  -7  -1   61.60    3.40
  -3  -7  -1   54.23    3.27
  -3  -7  -1   61.67    4.11
  -3  -7   0   38.80    1.81
  -3  -7   0   36.48    2.61
  -3  -7   0   35.67    1.95
  -3  -7   1   16.87    1.02
  -3  -7   1   15.99    1.07
  -3  -7   1   15.79    0.97
  -3  -7   2    0.17    0.22
  -3  -7   2    0.72    0.23
  -3  -7   2   -0.02    0.19
  -3  -7   3   53.76    2.43
  -3  -7   3   51.69    2.86
  -3  -7   3   58.26    2.97
  -3  -7   4   28.58    1.66
  -3  -7   4   25.91    1.28
  -3  -7   4   26.20    1.70
  -3  -7   5   34.76    1.83
  -3  -7   5   36.95    2.14
  -3  -7   5   34.11    2.01
  -3  -7   6   62.65    3.50
  -3  -7   6   64.19    3.71
  -3  -7   6   66.65    4.87
  -3  -7   7    7.04    0.62
  -3  -7   7    6.57    0.66
  -3  -7   7    5.38    0.79
  -3  -7   8    3.11    0.39
  -3  -7   8    3.71    0.44
  -3  -6  -6   14.41    1.18
  -3  -6  -6   16.05    1.11
  -3  -6  -5    7.34    0.65
  -3  -6  -5   10.03    0.77
  -3  -6  -5   10.66    0.68
  -3  -6  -4   43.08    3.33
  -3  -6  -4   45.23    2.73
  -3  -6  -4   45.03    2.53
  -3  -6  -3    0.52    0.22
  -3  -6  -3    0.17    0.23
  -3  -6  -3    0.17    0.21
  -3  -6  -2   21.52    1.22
  -3  -6  -2   21.76    1.23
  -3  -6  -2   22.22    1.46
  -3  -6  -1    4.73    0.31
  -3  -6  -1    5.20    0.36
  -3  -6  -1    4.08    0.35
  -3  -6   0    4.72    0.36
  -3  -6   0    5.53    0.38
  -3  -6   0    4.78    0.36
  -3  -6   1  135.45    6.75
  -3  -6   1  129.80    7.57
  -3  -6   1  125.61    5.03
  -3  -6   2  117.99    4.93
  -3  -6   2  125.28    8.68
  -3  -6   2  114.03    5.69
  -3  -6   3  197.69    7.46
  -3  -6   3  208.68   11.72
  -3  -6   3  188.95    8.71
  -3  -6   4    1.62    0.25
  -3  -6   4    2.15    0.27
  -3  -6   4    1.58    0.30
  -3  -6   5   69.33    3.34
  -3  -6   5   66.58    3.01
  -3  -6   5   70.36    3.41
  -3  -6   6    2.41    0.23
  -3  -6   6    2.88    0.84
  -3  -6   6    2.38    0.25
  -3  -6   7   34.51    1.89
  -3  -6   7   38.97    2.89
  -3  -6   7   35.41    1.80
  -3  -6   8    0.31    0.28
  -3  -6   8    0.19    0.25
  -3  -6   8    0.59    0.26
  -3  -6   9    0.18    0.20
  -3  -6   9    0.04    0.18
  -3  -6  10    0.16    0.33
  -3  -5  -7    0.27    0.22
  -3  -5  -6    9.28    0.69
  -3  -5  -6    8.36    0.94
  -3  -5  -6    7.04    0.57
  -3  -5  -5    2.39    0.29
  -3  -5  -5    1.91    0.33
  -3  -5  -5    2.01    0.21
  -3  -5  -4   40.52    1.95
  -3  -5  -4   43.50    2.71
  -3  -5  -4   42.90    2.43
  -3  -5  -3    0.29    0.16
  -3  -5  -3    2.76    1.09
  -3  -5  -3    0.26    0.19
  -3  -5  -2   62.87    3.63
  -3  -5  -2   59.88    2.81
  -3  -5  -2   57.30    2.61
  -3  -5  -1   67.80    2.81
  -3  -5  -1   69.13    4.17
  -3  -5   0   47.68    2.16
  -3  -5   0   42.64    2.20
  -3  -5   0   43.93    1.85
  -3  -5   1   22.74    1.09
  -3  -5   1   23.03    1.18
  -3  -5   1   20.77    1.15
  -3  -5   2  303.57   13.19
  -3  -5   2  326.18   11.80
  -3  -5   2  306.94   12.88
  -3  -5   3  369.09   18.40
  -3  -5   3  321.15   19.93
  -3  -5   3  322.42   13.52
  -3  -5   4  235.29   10.93
  -3  -5   4  247.15   10.77
  -3  -5   4  231.24   10.67
  -3  -5   5   12.04    0.56
  -3  -5   5   10.85    0.57
  -3  -5   5    9.27    0.55
  -3  -5   6    4.22    0.33
  -3  -5   6    3.85    0.33
  -3  -5   6    4.14    0.32
  -3  -5   7    0.11    0.20
  -3  -5   7    0.10    0.23
  -3  -5   7    0.23    0.17
  -3  -5   8    0.44    0.19
  -3  -5   8    1.08    0.61
  -3  -5   8    0.34    0.21
  -3  -5   9   79.95    5.71
  -3  -5   9   77.75    5.12
  -3  -5   9   79.11    5.96
  -3  -5  10    1.95    0.25
  -3  -4  -8   11.41    0.86
  -3  -4  -8   10.30    1.02
  -3  -4  -7    5.49    0.57
  -3  -4  -7    5.91    0.43
  -3  -4  -7    6.53    0.55
  -3  -4  -6   75.25    4.74
  -3  -4  -6   77.58    5.53
  -3  -4  -6   79.98    7.13
  -3  -4  -6   82.74    4.06
  -3  -4  -5    5.59    0.42
  -3  -4  -5    5.99    0.36
  -3  -4  -5    5.45    0.39
  -3  -4  -5    5.88    0.38
  -3  -4  -4   25.04    1.59
  -3  -4  -4   25.01    1.30
  -3  -4  -4   25.11    1.62
  -3  -4  -4   25.54    1.37
  -3  -4  -3    2.89    0.31
  -3  -4  -3    3.19    0.27
  -3  -4  -3    3.34    0.29
  -3  -4  -2   71.08    3.94
  -3  -4  -2   69.80    4.01
  -3  -4  -2   71.17    4.78
  -3  -4  -1    0.76    0.13
  -3  -4  -1    0.87    0.15
  -3  -4  -1    0.93    0.19
  -3  -4   0   38.46    1.83
  -3  -4   0   37.63    1.83
  -3  -4   0   38.47    2.12
  -3  -4   1    1.94    0.20
  -3  -4   1    1.64    0.15
  -3  -4   1    1.69    0.32
  -3  -4   2    8.87    0.40
  -3  -4   2    8.51    0.48
  -3  -4   2    9.69    0.45
  -3  -4   3    6.26    0.33
  -3  -4   3    6.36    0.36
  -3  -4   3    5.99    0.38
  -3  -4   4    8.09    0.42
  -3  -4   4    7.96    0.42
  -3  -4   4    7.13    0.54
  -3  -4   5    0.04    0.15
  -3  -4   5    0.16    0.14
  -3  -4   5   13.99   43.07
  -3  -4   6    4.48    0.33
  -3  -4   6    4.63    0.34
  -3  -4   6    3.82    0.32
  -3  -4   7   36.59    1.77
  -3  -4   7   42.28    2.63
  -3  -4   7   39.43    1.55
  -3  -4   8    7.43    0.70
  -3  -4   8    6.89    0.44
  -3  -4   8    6.00    0.36
  -3  -4   9   56.92    2.87
  -3  -4   9   63.30    2.66
  -3  -4   9   66.35    4.78
  -3  -4  10   39.42    2.23
  -3  -4  10   42.07    2.90
  -3  -4  11   22.49    1.59
  -3  -4  11   25.80    2.06
  -3  -3  -9    2.40    0.33
  -3  -3  -9    0.93    0.23
  -3  -3  -8    1.46    0.28
  -3  -3  -8    1.02    0.41
  -3  -3  -8    0.66    0.27
  -3  -3  -7    0.21    0.63
  -3  -3  -7    0.20    0.14
  -3  -3  -7   -0.30    0.20
  -3  -3  -6  102.64    5.45
  -3  -3  -6  100.46    4.53
  -3  -3  -6  108.47    6.29
  -3  -3  -5    4.27    0.32
  -3  -3  -5    4.00    0.27
  -3  -3  -5    4.10    0.33
  -3  -3  -5    4.81    0.36
  -3  -3  -4   28.62    1.44
  -3  -3  -4   30.35    1.83
  -3  -3  -4   31.27    1.72
  -3  -3  -4   28.11    1.44
  -3  -3  -3   60.94    4.38
  -3  -3  -3   56.91    2.58
  -3  -3  -3   55.44    3.28
  -3  -3  -3   59.30    3.27
  -3  -3  -2   60.94    2.91
  -3  -3  -2   63.60    4.22
  -3  -3  -2   62.82    3.60
  -3  -3  -2   64.88    4.41
  -3  -3  -1   79.26    3.65
  -3  -3  -1   81.96    5.13
  -3  -3  -1   77.21    4.38
  -3  -3   0  133.69    6.64
  -3  -3   0  129.73    5.92
  -3  -3   0  134.15   10.01
  -3  -3   1   20.25    1.05
  -3  -3   1   20.44    1.00
  -3  -3   1   19.52    0.88
  -3  -3   2    1.79    0.15
  -3  -3   2    1.67    0.26
  -3  -3   2    1.24    0.22
  -3  -3   3   17.90    0.82
  -3  -3   3   15.32    0.66
  -3  -3   3   16.32    0.74
  -3  -3   4   23.33    1.49
  -3  -3   4   21.48    1.00
  -3  -3   4   24.18    1.23
  -3  -3   5    6.74    0.52
  -3  -3   5    6.25    0.31
  -3  -3   5    6.22    0.35
  -3  -3   6   16.47    0.71
  -3  -3   6   17.40    0.99
  -3  -3   6   15.69    0.80
  -3  -3   7    6.75    0.39
  -3  -3   7    5.86    0.35
  -3  -3   7    6.68    0.48
  -3  -3   8   99.73    6.52
  -3  -3   8   85.84    4.75
  -3  -3   8   93.44    5.02
  -3  -3   9   23.74    1.30
  -3  -3   9   27.21    1.83
  -3  -3   9   24.37    1.01
  -3  -3  10   71.16    4.50
  -3  -3  10   68.81    6.75
  -3  -3  10   69.26    3.25
  -3  -3  11    1.14    0.28
  -3  -3  11    1.14    0.21
  -3  -2 -10    3.56    0.38
  -3  -2 -10    2.74    0.24
  -3  -2  -9   -0.08    0.25
  -3  -2  -9    0.79    0.27
  -3  -2  -9    1.20    0.22
  -3  -2  -8    0.94    0.15
  -3  -2  -8    0.80    0.22
  -3  -2  -8    1.08    0.29
  -3  -2  -7   31.53    1.69
  -3  -2  -7   35.06    1.83
  -3  -2  -7   32.73    1.96
  -3  -2  -6   90.83    4.76
  -3  -2  -6   84.53    5.41
  -3  -2  -6   91.59    6.34
  -3  -2  -5  188.05   11.35
  -3  -2  -5  184.94    9.40
  -3  -2  -5  173.32    9.89
  -3  -2  -4   13.59    0.84
  -3  -2  -4   13.06    0.89
  -3  -2  -4   13.82    0.75
  -3  -2  -4   13.46    0.69
  -3  -2  -3  114.38    5.91
  -3  -2  -3  113.88    6.64
  -3  -2  -3  112.41    5.49
  -3  -2  -3  119.57    8.67
  -3  -2  -2    9.37    0.73
  -3  -2  -2    9.09    0.44
  -3  -2  -2    9.81    0.61
  -3  -2  -2    9.65    0.63
  -3  -2  -1   38.81    2.07
  -3  -2  -1   36.56    2.38
  -3  -2  -1   35.25    1.91
  -3  -2   0  164.88    6.70
  -3  -2   0  147.65    7.41
  -3  -2   0  157.72    6.79
  -3  -2   1   13.98    0.71
  -3  -2   1   13.29    0.73
  -3  -2   1   13.35    0.81
  -3  -2   2   28.30    1.68
  -3  -2   2   31.14    1.47
  -3  -2   2   28.13    1.51
  -3  -2   3    0.53    0.15
  -3  -2   3    0.38    0.09
  -3  -2   3    0.31    0.08
  -3  -2   4  539.84   24.77
  -3  -2   4  591.79   35.55
  -3  -2   4  547.66   37.70
  -3  -2   5    0.85    0.14
  -3  -2   5    0.94    0.12
  -3  -2   5    1.13    0.15
  -3  -2   6    5.17    0.30
  -3  -2   6    4.78    0.33
  -3  -2   6    6.32    0.45
  -3  -2   7  147.62   10.51
  -3  -2   7  124.18    6.00
  -3  -2   7  133.04    5.03
  -3  -2   8   15.73    0.91
  -3  -2   8   17.05    1.27
  -3  -2   8   20.30    2.31
  -3  -2   9   19.59    1.24
  -3  -2   9   21.22    1.71
  -3  -2   9   19.25    0.94
  -3  -2  10    3.63    0.75
  -3  -2  10    3.62    0.43
  -3  -2  10    3.65    0.34
  -3  -2  11    1.09    0.22
  -3  -2  11    0.63    0.21
  -3  -1 -10    3.20    0.33
  -3  -1 -10    1.99    0.28
  -3  -1  -9   15.70    0.77
  -3  -1  -9   14.42    1.10
  -3  -1  -9   13.16    1.07
  -3  -1  -8    4.09    0.34
  -3  -1  -8    3.66    0.32
  -3  -1  -8    4.46    0.33
  -3  -1  -7    2.20    0.25
  -3  -1  -7    3.18    0.46
  -3  -1  -7    1.77    0.22
  -3  -1  -6   49.59    2.43
  -3  -1  -6   52.84    3.26
  -3  -1  -6   56.33    4.33
  -3  -1  -5   65.44    3.89
  -3  -1  -5   71.34    3.92
  -3  -1  -5   68.45    3.37
  -3  -1  -4   89.62    7.39
  -3  -1  -4   88.00    5.53
  -3  -1  -4   82.81    4.56
  -3  -1  -3   61.71    4.14
  -3  -1  -3   57.98    3.56
  -3  -1  -3   59.89    4.08
  -3  -1  -3   57.04    4.68
  -3  -1  -2    4.64    0.28
  -3  -1  -2    5.01    0.31
  -3  -1  -2    5.16    0.35
  -3  -1  -2    5.35    0.34
  -3  -1  -1   36.84    2.33
  -3  -1  -1   39.47    2.63
  -3  -1  -1   39.04    2.02
  -3  -1  -1   43.18    2.14
  -3  -1   0  433.17   20.45
  -3  -1   0  464.97   22.66
  -3  -1   1  131.44    7.72
  -3  -1   1  133.54    7.09
  -3  -1   1  140.40    5.93
  -3  -1   2  117.00    7.68
  -3  -1   2  105.93    4.65
  -3  -1   2  107.99    5.30
  -3  -1   3   52.73    2.42
  -3  -1   3   56.45    3.80
  -3  -1   3   50.09    2.66
  -3  -1   4    4.10    0.26
  -3  -1   4    3.62    0.23
  -3  -1   4    4.46    0.30
  -3  -1   5   90.72    6.91
  -3  -1   5   85.09    6.44
  -3  -1   6   30.77    2.00
  -3  -1   6   28.13    1.56
  -3  -1   7    0.44    0.20
  -3  -1   7    0.03    0.12
  -3  -1   7    0.18    0.14
  -3  -1   8    0.24    0.21
  -3  -1   8    0.34    0.20
  -3  -1   9    0.88    0.31
  -3  -1   9    1.62    0.35
  -3  -1   9    1.27    0.20
  -3  -1  10   84.92    4.76
  -3  -1  10   92.31    5.92
  -3  -1  10   91.54    8.03
  -3  -1  11    0.59    0.16
  -3  -1  11    0.47    0.36
  -3   0 -11    2.30    0.30
  -3   0 -11    1.30    0.31
  -3   0 -10   22.81    1.83
  -3   0 -10   23.92    1.67
  -3   0  -9   14.63    0.91
  -3   0  -9   14.28    1.04
  -3   0  -8  120.22    6.51
  -3   0  -8  135.13    8.15
  -3   0  -8  138.52    7.12
  -3   0  -7  108.86    6.34
  -3   0  -7  108.96    5.88
  -3   0  -6   48.99    2.32
  -3   0  -6   47.06    2.45
  -3   0  -6   54.70    2.90
  -3   0  -6   51.98    2.75
  -3   0  -5  103.28    4.62
  -3   0  -5  113.71    7.91
  -3   0  -5  104.99    5.27
  -3   0  -4    1.05    0.15
  -3   0  -4    1.01    0.13
  -3   0  -4    1.45    0.13
  -3   0  -4    1.11    0.14
  -3   0  -3  107.68    4.94
  -3   0  -3  132.26    8.72
  -3   0  -3  129.38    6.63
  -3   0  -2   30.47    1.79
  -3   0  -2   34.38    2.32
  -3   0  -2   32.54    1.76
  -3   0  -1  104.96    5.90
  -3   0  -1  116.76    5.87
  -3   0  -1  121.54    6.16
  -3   0   0  144.19    7.99
  -3   0   0  154.01    8.02
  -3   0   1   21.82    1.48
  -3   0   1   25.82    1.92
  -3   0   1   26.00    1.65
  -3   0   1   26.35    1.54
  -3   0   2   35.22    2.44
  -3   0   2   40.19    2.34
  -3   0   2   37.81    2.02
  -3   0   3   74.60    4.61
  -3   0   3   71.13    4.12
  -3   0   3   68.20    3.77
  -3   0   4  237.99   15.01
  -3   0   4  214.05   15.53
  -3   0   4  199.41   11.48
  -3   0   5   54.24    2.89
  -3   0   5   57.78    2.96
  -3   0   5   67.09    3.70
  -3   0   6   28.22    1.49
  -3   0   6   32.55    1.88
  -3   0   6   31.24    1.38
  -3   0   7   10.47    0.61
  -3   0   7   11.44    0.91
  -3   0   7   10.78    0.68
  -3   0   8    0.41    0.17
  -3   0   8    0.34    0.14
  -3   0   8    0.58    0.23
  -3   0   9   45.88    3.81
  -3   0   9   51.41    3.33
  -3   0  10   11.92    1.13
  -3   0  10   12.39    0.95
  -3   0  10   11.90    0.72
  -3   0  11    0.39    0.12
  -3   1 -11    6.07    0.53
  -3   1 -11    4.89    0.48
  -3   1 -10   29.10    2.23
  -3   1 -10   37.07    2.26
  -3   1 -10   34.38    2.15
  -3   1  -9    3.83    0.38
  -3   1  -9    3.11    0.25
  -3   1  -9    2.96    0.31
  -3   1  -8   28.58    1.43
  -3   1  -8   30.02    1.51
  -3   1  -8   27.96    1.48
  -3   1  -7   12.91    0.65
  -3   1  -7   13.56    0.95
  -3   1  -7   12.19    0.72
  -3   1  -6    1.12    0.21
  -3   1  -6    0.95    0.15
  -3   1  -5  309.49   18.01
  -3   1  -5  294.01   16.90
  -3   1  -5  290.93   14.43
  -3   1  -5  296.56   13.99
  -3   1  -4   84.25    4.86
  -3   1  -4   83.00    4.35
  -3   1  -4   88.19    5.72
  -3   1  -4   86.47    6.47
  -3   1  -3    0.17    0.09
  -3   1  -3    0.21    0.08
  -3   1  -3    0.37    0.14
  -3   1  -3    0.74    0.15
  -3   1  -2   97.50    5.22
  -3   1  -2  101.13    7.41
  -3   1  -2   96.98    5.26
  -3   1  -2  104.50    4.49
  -3   1  -1    5.07    0.32
  -3   1  -1    4.91    0.22
  -3   1  -1    5.29    0.28
  -3   1  -1    5.10    0.34
  -3   1   0    2.81    0.16
  -3   1   0    3.93    0.22
  -3   1   0    3.94    0.28
  -3   1   0    3.09    0.24
  -3   1   1   75.75    4.38
  -3   1   1   72.60    3.44
  -3   1   1   82.16    3.74
  -3   1   1   75.50    4.24
  -3   1   2   36.65    2.04
  -3   1   2   35.17    2.26
  -3   1   3   37.13    1.86
  -3   1   3   42.65    2.30
  -3   1   3   45.97    2.91
  -3   1   4   24.22    1.19
  -3   1   4   27.90    1.57
  -3   1   4   30.43    1.56
  -3   1   5    9.95    0.72
  -3   1   5   13.10    1.00
  -3   1   5   10.97    0.60
  -3   1   6    0.84    0.19
  -3   1   6    0.62    0.12
  -3   1   6    1.05    0.23
  -3   1   7  125.28    5.56
  -3   1   7  146.73    9.97
  -3   1   8    9.41    0.60
  -3   1   8   10.23    0.74
  -3   1   9  166.42   12.34
  -3   1   9  150.99    7.37
  -3   1  10   81.60    5.94
  -3   1  11    1.75    0.31
  -3   2 -11   40.59    2.83
  -3   2 -11   39.16    3.23
  -3   2 -10    1.34    0.60
  -3   2 -10   -0.04    0.18
  -3   2 -10    0.23    0.19
  -3   2  -9    3.70    0.48
  -3   2  -9    3.18    0.29
  -3   2  -9    3.95    0.46
  -3   2  -8    2.50    0.27
  -3   2  -8    3.57    0.30
  -3   2  -8    3.11    0.29
  -3   2  -7    2.74    0.22
  -3   2  -7    2.88    0.24
  -3   2  -7    2.54    0.27
  -3   2  -6    0.36    0.16
  -3   2  -6    0.26    0.15
  -3   2  -6    0.68    0.14
  -3   2  -5  154.98    7.30
  -3   2  -5  164.91    6.85
  -3   2  -5  162.75    9.72
  -3   2  -4  203.13    9.06
  -3   2  -4  210.06   10.78
  -3   2  -4  217.79   10.28
  -3   2  -3    0.79    0.12
  -3   2  -3    0.90    0.19
  -3   2  -3    0.89    0.14
  -3   2  -3    0.43    0.10
  -3   2  -2   94.78    6.14
  -3   2  -2   76.52    3.92
  -3   2  -2   87.72    4.28
  -3   2  -2   87.48    4.00
  -3   2  -1  133.63    7.00
  -3   2  -1  132.65    7.03
  -3   2  -1  111.19    5.82
  -3   2  -1  145.22    9.71
  -3   2   0    8.56    0.37
  -3   2   0    6.49    0.33
  -3   2   0    7.36    0.42
  -3   2   0    7.64    0.48
  -3   2   1   11.76    0.64
  -3   2   1   11.87    0.69
  -3   2   1   11.87    0.57
  -3   2   1   12.12    0.62
  -3   2   2   10.84    0.66
  -3   2   2   11.04    0.69
  -3   2   2    9.54    0.49
  -3   2   2   10.79    0.55
  -3   2   3   17.76    1.18
  -3   2   3   15.12    0.83
  -3   2   3   15.60    1.07
  -3   2   4    4.38    0.30
  -3   2   4    5.06    0.36
  -3   2   5  130.16    8.14
  -3   2   5  111.07    7.28
  -3   2   6  333.05   23.28
  -3   2   7    7.03    0.48
  -3   2   7    4.65    0.75
  -3   2   8   94.94    4.70
  -3   2   8  104.04    6.80
  -3   2   9   21.37    1.10
  -3   2   9   18.14    1.90
  -3   2  10   15.85    1.05
  -3   2  11    3.61    0.39
  -3   3 -11    0.64    0.54
  -3   3 -11    0.50    0.21
  -3   3 -10   13.58    0.85
  -3   3 -10   13.47    1.16
  -3   3  -9   59.69    4.34
  -3   3  -9   59.42    3.74
  -3   3  -8    0.24    0.25
  -3   3  -8    0.70    0.26
  -3   3  -8    0.69    0.25
  -3   3  -7   97.94    7.00
  -3   3  -7  103.56    5.60
  -3   3  -7   96.20    4.92
  -3   3  -6   -0.14    0.15
  -3   3  -6    0.22    0.15
  -3   3  -6    0.07    0.22
  -3   3  -5  172.60    9.93
  -3   3  -5  163.39    7.13
  -3   3  -5  159.94    9.29
  -3   3  -4   46.35    2.14
  -3   3  -4   43.98    1.85
  -3   3  -4   48.65    2.63
  -3   3  -3    5.83    0.41
  -3   3  -3    5.53    0.31
  -3   3  -3    5.03    0.36
  -3   3  -2  132.71    7.46
  -3   3  -2  120.24    5.05
  -3   3  -2  126.13    6.95
  -3   3  -2  135.23    8.18
  -3   3  -1    5.96    0.37
  -3   3  -1    5.86    0.30
  -3   3  -1    6.87    0.28
  -3   3  -1    6.33    0.39
  -3   3   0   19.78    0.91
  -3   3   0   18.43    0.77
  -3   3   0   20.09    1.13
  -3   3   0   23.00    1.57
  -3   3   1  188.37   13.18
  -3   3   1  163.26    9.70
  -3   3   1  176.04   10.70
  -3   3   1  172.32    8.67
  -3   3   2  151.65    6.85
  -3   3   2  145.51    7.64
  -3   3   2  157.68    6.35
  -3   3   2  158.57    9.28
  -3   3   3    0.33    0.15
  -3   3   3    0.65    0.15
  -3   3   4    0.20    0.15
  -3   3   4    0.26    0.15
  -3   3   4    0.14    0.10
  -3   3   5   90.39    5.13
  -3   3   5   93.90    5.23
  -3   3   6    1.19    0.28
  -3   3   6    1.39    0.25
  -3   3   7  101.47    5.71
  -3   3   7  116.93    7.21
  -3   3   8   33.88    2.36
  -3   3   8   29.13    1.45
  -3   3  10    2.95    0.37
  -3   4 -11    0.57    0.27
  -3   4 -11    0.10    0.91
  -3   4 -10   33.53    2.76
  -3   4 -10   38.17    2.44
  -3   4  -9    3.62    0.47
  -3   4  -9    4.24    0.39
  -3   4  -9    3.92    0.40
  -3   4  -8   71.21    4.56
  -3   4  -8   67.23    3.56
  -3   4  -7  200.24   11.27
  -3   4  -7  202.51    8.81
  -3   4  -6   95.47    4.43
  -3   4  -6   87.68    3.60
  -3   4  -5    9.91    0.63
  -3   4  -5   10.31    0.66
  -3   4  -4   85.81    3.86
  -3   4  -4   84.93    4.46
  -3   4  -3   -0.15    0.12
  -3   4  -3   -0.18    0.17
  -3   4  -2   86.17    4.40
  -3   4  -2   87.96    3.88
  -3   4  -2   81.38    4.10
  -3   4  -1   10.15    0.51
  -3   4  -1   10.59    0.47
  -3   4  -1   10.03    0.53
  -3   4   0  141.25    5.47
  -3   4   0  161.24    9.81
  -3   4   0  153.47   10.38
  -3   4   1  463.02   25.90
  -3   4   1  420.81   17.37
  -3   4   1  451.64   23.86
  -3   4   2  207.45    9.11
  -3   4   2  238.43   10.52
  -3   4   2  216.23    9.66
  -3   4   2  197.27   10.64
  -3   4   3  264.34   15.36
  -3   4   3  242.35   15.44
  -3   4   3  247.30   13.11
  -3   4   3  243.36   15.54
  -3   4   4   20.71    1.08
  -3   4   4   17.01    1.00
  -3   4   4   16.90    1.01
  -3   4   5   32.29    2.50
  -3   4   5   38.54    2.15
  -3   4   6    9.72    0.67
  -3   4   6    8.28    0.60
  -3   4   7   26.12    1.67
  -3   4   7   28.94    2.47
  -3   4   8    0.08    0.17
  -3   4   9    0.62    0.33
  -3   5 -10   81.83    5.95
  -3   5  -9   23.10    1.45
  -3   5  -8    1.81    0.31
  -3   5  -8    1.55    0.24
  -3   5  -7   73.66    4.52
  -3   5  -7   68.75    2.73
  -3   5  -6   19.71    1.17
  -3   5  -6   20.51    1.18
  -3   5  -6   18.23    1.02
  -3   5  -5    0.25    0.19
  -3   5  -5    0.31    0.22
  -3   5  -4   -0.36    0.17
  -3   5  -4   -0.04    0.19
  -3   5  -3   47.81    1.99
  -3   5  -3   46.41    1.72
  -3   5  -2   14.90    0.66
  -3   5  -2   16.53    0.79
  -3   5  -1   25.18    1.15
  -3   5  -1   25.29    1.01
  -3   5  -1   24.14    1.14
  -3   5   0  257.50   15.87
  -3   5   0  256.77   13.05
  -3   5   0  267.70   11.96
  -3   5   1   34.19    2.66
  -3   5   1   31.85    1.61
  -3   5   1   31.20    1.64
  -3   5   2   39.91    1.76
  -3   5   2   42.93    3.32
  -3   5   2   41.20    2.16
  -3   5   3   33.98    1.94
  -3   5   3   36.97    1.76
  -3   5   3   41.03    1.81
  -3   5   3   35.64    1.92
  -3   5   4   16.85    0.92
  -3   5   4   15.58    0.92
  -3   5   4   17.64    1.63
  -3   5   5    1.56    0.29
  -3   5   5    2.00    0.37
  -3   5   5    1.55    0.17
  -3   5   6    9.51    0.71
  -3   5   6   12.19    0.68
  -3   5   6   10.38    0.85
  -3   5   7   33.42    1.89
  -3   5   8   30.77    1.91
  -3   6 -10    1.35    0.35
  -3   6  -9    0.63    0.20
  -3   6  -8   65.98    4.01
  -3   6  -7    0.63    0.23
  -3   6  -7    0.47    0.22
  -3   6  -6    6.11    0.52
  -3   6  -6    6.52    0.53
  -3   6  -5    5.07    0.38
  -3   6  -5    4.17    0.40
  -3   6  -4   79.88    3.31
  -3   6  -4   87.65    4.66
  -3   6  -3    0.51    0.22
  -3   6  -3    0.15    0.15
  -3   6  -2  213.12    9.03
  -3   6  -2  213.34    8.24
  -3   6  -1  101.26    5.00
  -3   6  -1  104.11    5.59
  -3   6  -1  111.22    7.95
  -3   6   0  134.48    5.02
  -3   6   0  151.10    6.73
  -3   6   0  136.02    5.81
  -3   6   1   22.57    1.28
  -3   6   1   22.92    1.03
  -3   6   1   24.01    1.74
  -3   6   2   88.14    6.06
  -3   6   2   95.06    5.02
  -3   6   2   86.30    3.73
  -3   6   3   42.55    2.52
  -3   6   3   44.55    3.47
  -3   6   4    6.95    0.42
  -3   6   4    5.66    0.76
  -3   6   4    6.33    0.41
  -3   6   5   61.24    4.49
  -3   6   6   69.02    5.20
  -3   6   6   76.60    5.52
  -3   7  -9    0.54    0.20
  -3   7  -8  117.08    7.51
  -3   7  -7   21.36    1.19
  -3   7  -6   17.61    1.04
  -3   7  -6   15.74    1.31
  -3   7  -5   44.03    2.05
  -3   7  -5   44.22    3.01
  -3   7  -4    0.10    0.23
  -3   7  -4    0.60    0.25
  -3   7  -3   67.28    3.88
  -3   7  -3   65.62    3.12
  -3   7  -2   41.00    1.64
  -3   7  -2   45.72    2.64
  -3   7  -1   41.19    2.07
  -3   7  -1   39.58    1.66
  -3   7  -1   41.78    2.51
  -3   7   0   28.79    1.77
  -3   7   0   25.45    1.22
  -3   7   0   26.52    1.89
  -3   7   1   99.33    4.56
  -3   7   1  105.33    6.64
  -3   7   1   94.30    6.86
  -3   7   2  115.45   10.86
  -3   7   2  115.42    5.62
  -3   7   2  110.89    9.51
  -3   7   3    5.44    0.54
  -3   7   4   45.20    3.02
  -3   7   4   48.38    3.53
  -3   7   5    3.42    0.38
  -3   7   5    3.32    0.29
  -3   7   6   34.12    2.79
  -3   7   6   29.71    2.18
  -3   8  -8    0.26    0.20
  -3   8  -6    8.37    0.65
  -3   8  -5    0.78    0.25
  -3   8  -4   29.94    1.55
  -3   8  -3    1.66    0.30
  -3   8  -2   20.76    1.11
  -3   8  -1    0.47    0.27
  -3   8  -1    0.27    0.21
  -3   8   0   31.54    1.53
  -3   8   0   29.67    1.74
  -3   8   1   10.71    0.69
  -3   8   1   10.33    0.81
  -3   8   2   10.89    0.89
  -3   8   2    9.59    0.75
  -3   8   3   16.81    1.20
  -3   8   4   33.91    2.26
  -3   9  -5    0.79    0.32
  -3   9  -4    4.50    0.46
  -3   9  -3    8.07    0.73
  -3   9  -2    0.75    0.29
  -3   9  -2    0.62    0.27
  -3   9  -1   80.68    6.70
  -3   9  -1   90.39    6.10
  -3   9   0    1.43    0.27
  -3   9   0    1.38    0.28
  -3   9   1  116.62    7.50
  -3   9   1  106.36    9.20
  -2  -9   1    0.08    0.17
  -2  -9   1    0.04    0.25
  -2  -9   2    1.18    0.35
  -2  -9   2    2.05    0.34
  -2  -9   3   24.77    1.68
  -2  -9   3   24.14    1.83
  -2  -9   4    9.39    0.87
  -2  -9   4    9.84    0.82
  -2  -8  -3   61.72    4.16
  -2  -8  -3   57.37    4.36
  -2  -8  -2    2.20    0.35
  -2  -8  -2    2.97    0.33
  -2  -8  -1    8.59    1.04
  -2  -8  -1    6.82    0.47
  -2  -8   0    0.78    0.44
  -2  -8   0    0.91    0.58
  -2  -8   0    1.06    1.33
  -2  -8   1   41.62    2.86
  -2  -8   1   40.93    3.14
  -2  -8   1   44.40    2.89
  -2  -8   1   44.22    2.67
  -2  -8   2    0.37    0.21
  -2  -8   2    0.57    0.22
  -2  -8   2    0.51    0.31
  -2  -8   3   97.92    8.12
  -2  -8   3   96.14    5.75
  -2  -8   3  102.47    5.35
  -2  -8   4   28.00    1.72
  -2  -8   4   26.94    2.56
  -2  -8   4   26.49    1.83
  -2  -8   5    2.31    0.33
  -2  -8   6   23.92    1.52
  -2  -8   7   24.19    1.68
  -2  -7  -5    7.73    0.60
  -2  -7  -4    3.69    0.37
  -2  -7  -4    3.69    0.40
  -2  -7  -3   28.54    1.78
  -2  -7  -3   28.52    2.21
  -2  -7  -3   29.63    2.16
  -2  -7  -2   71.17    4.23
  -2  -7  -2   71.13    3.38
  -2  -7  -2   71.18    3.77
  -2  -7  -1   24.79    1.82
  -2  -7  -1   23.08    1.11
  -2  -7  -1   23.36    1.46
  -2  -7   0  105.57    5.74
  -2  -7   0   95.42    4.32
  -2  -7   0  107.18    6.66
  -2  -7   1    1.88    0.22
  -2  -7   1    1.20    0.25
  -2  -7   1    1.34    0.22
  -2  -7   2   60.58    3.48
  -2  -7   2   53.60    2.71
  -2  -7   2   59.03    2.90
  -2  -7   3   92.25    4.19
  -2  -7   3   99.31    4.50
  -2  -7   3   89.57    3.46
  -2  -7   4   62.08    3.13
  -2  -7   4   69.12    3.54
  -2  -7   5   19.65    1.04
  -2  -7   5   22.45    1.35
  -2  -7   6    9.97    0.59
  -2  -7   6   10.45    0.96
  -2  -7   7    5.51    0.83
  -2  -7   7    4.92    0.46
  -2  -7   8    5.77    0.46
  -2  -7   9   70.81    4.37
  -2  -6  -7    0.51    0.27
  -2  -6  -6    5.17    0.41
  -2  -6  -6    5.77    0.56
  -2  -6  -5   52.15    2.67
  -2  -6  -5   55.40    3.45
  -2  -6  -5   48.88    3.45
  -2  -6  -4   16.88    1.23
  -2  -6  -4   19.36    1.01
  -2  -6  -4   18.33    1.08
  -2  -6  -3    2.21    0.36
  -2  -6  -3    2.22    0.28
  -2  -6  -3    2.00    0.20
  -2  -6  -2   89.39    4.20
  -2  -6  -2   86.83    4.74
  -2  -6  -2   80.19    3.89
  -2  -6  -1   11.29    0.58
  -2  -6  -1   10.58    0.53
  -2  -6  -1   10.62    1.52
  -2  -6   0    4.74    0.91
  -2  -6   0    4.97    0.30
  -2  -6   0    4.37    0.30
  -2  -6   1    7.40    0.55
  -2  -6   1    6.49    0.38
  -2  -6   1    6.80    0.38
  -2  -6   2    6.04    0.39
  -2  -6   2    5.33    0.45
  -2  -6   2    5.84    0.41
  -2  -6   3   65.26    2.73
  -2  -6   3   61.77    2.41
  -2  -6   3   69.06    3.82
  -2  -6   4   77.77    3.83
  -2  -6   4   73.20    3.87
  -2  -6   5  406.36   17.94
  -2  -6   5  447.25   22.84
  -2  -6   6    0.11    0.13
  -2  -6   6    0.57    0.19
  -2  -6   7   75.73    5.63
  -2  -6   7   68.42    3.28
  -2  -6   8   47.71    2.61
  -2  -6   8   49.85    3.56
  -2  -6   9   26.33    1.60
  -2  -6  10   12.80    0.93
  -2  -5  -8   31.91    1.84
  -2  -5  -7    0.09    0.26
  -2  -5  -7    0.08    0.13
  -2  -5  -6   95.00    5.61
  -2  -5  -6  110.49    5.59
  -2  -5  -6   98.29    4.59
  -2  -5  -5   68.67    3.92
  -2  -5  -5   70.57    3.50
  -2  -5  -5   73.40    3.29
  -2  -5  -4    1.65    0.20
  -2  -5  -4    1.75    0.42
  -2  -5  -4    1.96    0.24
  -2  -5  -3  120.56    6.04
  -2  -5  -3  127.26    8.33
  -2  -5  -3  114.54    5.05
  -2  -5  -2    0.96    0.16
  -2  -5  -2    1.22    0.23
  -2  -5  -2    0.81    0.13
  -2  -5  -1   14.08    0.80
  -2  -5  -1   14.42    0.64
  -2  -5  -1   14.75    0.95
  -2  -5   0   29.34    1.17
  -2  -5   0   27.75    1.27
  -2  -5   0   27.88    1.61
  -2  -5   1    3.88    0.28
  -2  -5   1    4.37    0.30
  -2  -5   1    4.17    0.28
  -2  -5   2  226.04   11.04
  -2  -5   2  224.10    9.65
  -2  -5   2  233.62    7.97
  -2  -5   3   14.34    0.67
  -2  -5   3   14.40    0.59
  -2  -5   3   14.39    0.85
  -2  -5   4  125.29    5.27
  -2  -5   4  113.50    4.85
  -2  -5   5   31.22    1.26
  -2  -5   5   33.47    1.64
  -2  -5   6  152.04    7.47
  -2  -5   6  168.57    8.59
  -2  -5   7    2.98    0.32
  -2  -5   7    2.95    0.34
  -2  -5   8   18.95    1.53
  -2  -5   8   17.88    1.00
  -2  -5   9    8.66    0.57
  -2  -5   9    7.84    0.66
  -2  -5   9    7.96    0.64
  -2  -5  10    1.77    0.32
  -2  -5  10    1.77    0.24
  -2  -5  11    6.01    0.54
  -2  -5  11    5.47    0.52
  -2  -4  -9   40.82    2.45
  -2  -4  -9   38.78    3.62
  -2  -4  -8    0.24    0.30
  -2  -4  -8    0.51    0.14
  -2  -4  -7    6.46    0.59
  -2  -4  -7    9.10    0.52
  -2  -4  -7    8.31    0.59
  -2  -4  -6   24.65    1.59
  -2  -4  -6   24.05    1.09
  -2  -4  -6   23.27    1.60
  -2  -4  -6   24.95    2.16
  -2  -4  -5   80.68    4.58
  -2  -4  -5   84.03    5.05
  -2  -4  -5   80.14    3.49
  -2  -4  -5   82.41    5.60
  -2  -4  -4   17.93    1.05
  -2  -4  -4   18.48    1.15
  -2  -4  -4   16.70    0.86
  -2  -4  -3   57.18    3.15
  -2  -4  -3   59.86    2.84
  -2  -4  -3   57.71    3.06
  -2  -4  -2   82.43    4.37
  -2  -4  -2   83.30    4.96
  -2  -4  -2   77.28    3.70
  -2  -4  -1    0.79    0.17
  -2  -4  -1    0.53    0.15
  -2  -4  -1    0.71    0.25
  -2  -4   0  205.57    8.79
  -2  -4   0  212.39   10.48
  -2  -4   0  213.91    8.35
  -2  -4   1   73.18    3.45
  -2  -4   1   71.96    3.35
  -2  -4   1   71.29    3.29
  -2  -4   2   98.52    4.40
  -2  -4   2  103.87    6.08
  -2  -4   2  100.78    5.10
  -2  -4   3   59.15    3.67
  -2  -4   3   67.71    2.67
  -2  -4   3   62.59    2.83
  -2  -4   4   20.28    0.93
  -2  -4   4   22.19    0.91
  -2  -4   4   19.86    0.93
  -2  -4   5   32.69    1.35
  -2  -4   5   35.44    1.78
  -2  -4   5   33.69    1.61
  -2  -4   6    2.17    0.24
  -2  -4   7    1.32    0.22
  -2  -4   7    1.06    0.19
  -2  -4   7    1.06    0.20
  -2  -4   8    3.94    0.35
  -2  -4   8    4.58    0.34
  -2  -4   8    4.26    0.47
  -2  -4   9    6.88    0.51
  -2  -4   9    7.00    0.61
  -2  -4   9    6.92    0.39
  -2  -4  10    9.91    0.59
  -2  -4  10   10.72    0.69
  -2  -4  11    0.06    0.25
  -2  -4  11    0.20    0.13
  -2  -3 -10   41.35    2.62
  -2  -3 -10   41.86    4.14
  -2  -3  -9    3.76    0.42
  -2  -3  -9    4.07    1.34
  -2  -3  -8   16.50    1.22
  -2  -3  -8   20.30    1.23
  -2  -3  -8   20.47    1.41
  -2  -3  -7   20.89    1.40
  -2  -3  -7   20.39    1.16
  -2  -3  -7   21.53    1.23
  -2  -3  -6    1.50    0.24
  -2  -3  -6    1.99    0.22
  -2  -3  -6    1.83    0.18
  -2  -3  -5    6.35    0.38
  -2  -3  -5    5.50    0.33
  -2  -3  -5    6.33    0.40
  -2  -3  -5    6.72    0.46
  -2  -3  -4   66.06    3.61
  -2  -3  -4   63.11    3.33
  -2  -3  -4   61.55    3.60
  -2  -3  -4   64.73    4.15
  -2  -3  -3    0.36    0.17
  -2  -3  -3    0.17    0.10
  -2  -3  -3    0.13    0.12
  -2  -3  -3    0.12    0.09
  -2  -3  -2    9.10    0.43
  -2  -3  -2    9.14    0.52
  -2  -3  -2    8.98    0.49
  -2  -3  -2    9.27    0.50
  -2  -3  -1   60.70    3.20
  -2  -3  -1   63.21    2.89
  -2  -3  -1   59.43    4.34
  -2  -3   0   64.83    3.43
  -2  -3   0   67.22    2.52
  -2  -3   0   61.73    3.28
  -2  -3   1   48.91    2.38
  -2  -3   1   55.10    2.38
  -2  -3   1   49.48    3.69
  -2  -3   1   52.09    2.37
  -2  -3   2   24.53    1.27
  -2  -3   2   25.44    1.08
  -2  -3   2   26.55    1.13
  -2  -3   3   72.60    3.34
  -2  -3   3   73.81    3.34
  -2  -3   3   77.55    3.12
  -2  -3   4    1.85    0.17
  -2  -3   4    1.04    0.12
  -2  -3   4    1.14    0.19
  -2  -3   5    6.34    0.42
  -2  -3   5    5.23    0.32
  -2  -3   5    5.94    0.49
  -2  -3   6    8.34    0.41
  -2  -3   6    8.92    0.65
  -2  -3   6    8.03    0.54
  -2  -3   7   60.84    2.76
  -2  -3   7   70.19    4.50
  -2  -3   7   65.21    7.15
  -2  -3   8    0.47    0.41
  -2  -3   8    0.20    0.23
  -2  -3   8    0.24    0.12
  -2  -3   9   28.75    1.43
  -2  -3   9   33.38    2.05
  -2  -3   9   28.54    1.52
  -2  -3  10   63.78    3.34
  -2  -3  10   63.04    3.60
  -2  -3  10   74.43    4.80
  -2  -3  11   21.74    1.45
  -2  -3  11   22.39    1.49
  -2  -3  12    3.09    0.47
  -2  -3  12    4.87    0.38
  -2  -2 -10   11.19    0.72
  -2  -2 -10   11.02    0.87
  -2  -2  -9   -0.10    0.23
  -2  -2  -9   -0.16    0.24
  -2  -2  -8    1.51    0.35
  -2  -2  -8    1.49    0.25
  -2  -2  -8    1.29    0.17
  -2  -2  -7    1.36    0.22
  -2  -2  -7    1.58    0.23
  -2  -2  -7    1.30    0.14
  -2  -2  -6    0.13    0.13
  -2  -2  -6   -0.06    0.11
  -2  -2  -6    0.42    0.13
  -2  -2  -5   34.80    2.17
  -2  -2  -5   32.20    2.03
  -2  -2  -5   35.08    2.21
  -2  -2  -4  166.55    9.45
  -2  -2  -4  168.03   10.00
  -2  -2  -3   85.61    4.99
  -2  -2  -3   79.06    4.19
  -2  -2  -3   87.14    5.33
  -2  -2  -3   78.54    4.34
  -2  -2  -2    4.97    0.34
  -2  -2  -2    4.58    0.33
  -2  -2  -2    4.78    0.27
  -2  -2  -2    4.79    0.27
  -2  -2  -1   30.01    1.43
  -2  -2  -1   30.56    1.46
  -2  -2  -1   30.51    1.44
  -2  -2  -1   30.04    1.57
  -2  -2   0  325.23   20.12
  -2  -2   0  327.99   18.33
  -2  -2   0  315.15   16.08
  -2  -2   1    0.57    0.06
  -2  -2   1    0.79    0.11
  -2  -2   1    0.63    0.08
  -2  -2   2  141.01    7.15
  -2  -2   2  143.00    7.31
  -2  -2   2  139.90    6.52
  -2  -2   3  105.11    5.08
  -2  -2   3  111.52    5.64
  -2  -2   3  110.46    5.02
  -2  -2   4    7.63    0.38
  -2  -2   4    7.90    0.48
  -2  -2   4    7.55    0.42
  -2  -2   5   91.98    5.47
  -2  -2   5  101.46    5.66
  -2  -2   5   85.86    4.30
  -2  -2   6   71.52    3.46
  -2  -2   6   81.11    5.55
  -2  -2   6   70.49    3.54
  -2  -2   7   82.10    5.90
  -2  -2   7   66.39    3.01
  -2  -2   8    0.44    0.17
  -2  -2   8    1.10    0.24
  -2  -2   8    1.09    0.14
  -2  -2   9   46.89    2.64
  -2  -2   9   54.46    3.22
  -2  -2   9   46.62    2.22
  -2  -2  10  135.38    9.22
  -2  -2  10  154.31    8.26
  -2  -2  10  148.20    8.02
  -2  -2  11    2.60    0.34
  -2  -2  11    2.06    0.28
  -2  -2  12    1.16    0.31
  -2  -2  12    1.37    0.22
  -2  -1 -11   15.31    1.06
  -2  -1 -10    3.28    0.35
  -2  -1  -9   16.56    1.10
  -2  -1  -9   15.07    1.10
  -2  -1  -8    0.17    0.18
  -2  -1  -8    0.40    0.16
  -2  -1  -7    0.36    0.23
  -2  -1  -7    1.14    0.61
  -2  -1  -6   30.06    1.85
  -2  -1  -6   31.45    1.64
  -2  -1  -5   66.51    4.07
  -2  -1  -5   73.76    4.03
  -2  -1  -5   73.90    4.91
  -2  -1  -4  169.29    8.86
  -2  -1  -4  160.82    8.49
  -2  -1  -4  151.94   10.76
  -2  -1  -3   33.25    2.32
  -2  -1  -3   36.60    2.25
  -2  -1  -3   34.48    1.98
  -2  -1  -3   37.76    2.66
  -2  -1  -2  231.69   13.18
  -2  -1  -2  240.02   14.24
  -2  -1  -2  236.92   13.50
  -2  -1  -2  256.61   16.93
  -2  -1  -1    3.03    0.22
  -2  -1  -1    3.88    0.25
  -2  -1  -1    3.36    0.24
  -2  -1  -1    4.11    0.25
  -2  -1   0  487.57   24.36
  -2  -1   0  539.92   26.01
  -2  -1   1  281.72   14.49
  -2  -1   1  266.35   11.68
  -2  -1   1  290.53   13.29
  -2  -1   2   44.15    2.07
  -2  -1   2   47.34    2.72
  -2  -1   2   44.99    2.23
  -2  -1   3  422.00   20.97
  -2  -1   3  480.49   27.96
  -2  -1   3  446.29   20.90
  -2  -1   4   42.36    2.51
  -2  -1   4   51.23    3.29
  -2  -1   4   45.00    2.00
  -2  -1   5    5.48    0.36
  -2  -1   5    6.83    0.55
  -2  -1   5    8.00    0.47
  -2  -1   6   59.55    3.21
  -2  -1   6   71.10    4.37
  -2  -1   6   64.71    4.39
  -2  -1   7    2.89    0.28
  -2  -1   7    3.47    0.59
  -2  -1   7    2.98    0.19
  -2  -1   8   31.36    1.56
  -2  -1   8   36.67    2.91
  -2  -1   8   33.98    1.99
  -2  -1   9    1.97    0.23
  -2  -1   9    1.44    0.23
  -2  -1   9    1.95    0.17
  -2  -1  10  127.28    7.14
  -2  -1  10  149.12   10.99
  -2  -1  11    1.72    0.28
  -2  -1  11    1.87    0.19
  -2  -1  12    4.11    0.35
  -2   0 -11    0.68    0.20
  -2   0 -10    1.00    0.21
  -2   0  -9    0.58    0.30
  -2   0  -9    0.31    0.16
  -2   0  -8    0.87    0.21
  -2   0  -8    0.80    0.40
  -2   0  -8    0.65    0.54
  -2   0  -7  156.52    8.22
  -2   0  -7  167.28    7.34
  -2   0  -7  157.61    8.31
  -2   0  -6    2.74    0.31
  -2   0  -6    3.09    0.22
  -2   0  -6    3.25    0.21
  -2   0  -5  566.92   30.04
  -2   0  -5  605.15   32.31
  -2   0  -5  545.86   29.60
  -2   0  -4   10.57    0.55
  -2   0  -4   12.14    0.68
  -2   0  -4   13.12    0.75
  -2   0  -3  331.55   17.14
  -2   0  -3  370.33   19.19
  -2   0  -2  298.93   17.36
  -2   0  -2  269.49   15.01
  -2   0  -2  294.05   13.29
  -2   0  -2  277.40   16.39
  -2   0  -1   26.47    1.52
  -2   0  -1   28.10    1.66
  -2   0  -1   25.77    1.48
  -2   0  -1   28.94    1.91
  -2   0   0   64.35    3.42
  -2   0   0   69.99    4.16
  -2   0   1    1.25    0.09
  -2   0   1    1.28    0.07
  -2   0   1    1.05    0.10
  -2   0   1    1.12    0.10
  -2   0   2   64.23    4.72
  -2   0   2   70.42    4.10
  -2   0   2   66.91    4.49
  -2   0   3   20.50    1.19
  -2   0   3   24.91    1.38
  -2   0   3   22.05    1.76
  -2   0   4   80.71    4.60
  -2   0   4   95.99    5.89
  -2   0   4   86.84    4.73
  -2   0   5   53.18    4.19
  -2   0   5   61.08    3.31
  -2   0   5   56.62    4.38
  -2   0   6    1.07    0.17
  -2   0   6    1.07    0.17
  -2   0   6    0.95    0.12
  -2   0   7   74.78    5.24
  -2   0   7   81.87    5.76
  -2   0   7   75.60    4.21
  -2   0   8    0.37    0.16
  -2   0   8    0.56    0.18
  -2   0   8    0.44    0.10
  -2   0   9    0.73    0.20
  -2   0   9    1.36    0.27
  -2   0   9    1.15    0.14
  -2   0  10    9.67    0.66
  -2   0  10    9.34    1.50
  -2   0  10   10.07    0.77
  -2   0  11    1.29    0.34
  -2   0  12    8.00    0.78
  -2   1 -11    0.25    0.31
  -2   1 -11    0.21    0.15
  -2   1 -10    3.59    0.80
  -2   1 -10    5.76    0.37
  -2   1 -10    4.89    0.39
  -2   1  -9   93.91    6.07
  -2   1  -9   96.77    4.94
  -2   1  -9   92.56    5.58
  -2   1  -8   17.12    0.87
  -2   1  -8   16.73    0.93
  -2   1  -8   16.17    0.92
  -2   1  -7   31.56    1.80
  -2   1  -7   34.91    2.10
  -2   1  -7   33.60    1.42
  -2   1  -6  368.23   16.91
  -2   1  -6  364.26   16.82
  -2   1  -6  360.74   17.49
  -2   1  -5   46.27    2.36
  -2   1  -5   51.51    3.35
  -2   1  -5   49.87    2.70
  -2   1  -4  283.52   21.21
  -2   1  -4  283.98   13.84
  -2   1  -4  282.10   17.02
  -2   1  -3    2.24    0.17
  -2   1  -3    1.88    0.14
  -2   1  -2  291.74   15.40
  -2   1  -2  278.64   15.14
  -2   1  -2  291.74   14.83
  -2   1  -2  304.88   16.45
  -2   1  -1  112.17    6.42
  -2   1  -1  108.49    6.77
  -2   1  -1  114.81    5.53
  -2   1  -1  123.25    6.67
  -2   1   0   58.85    3.42
  -2   1   0   61.36    3.16
  -2   1   0   61.72    3.59
  -2   1   0   66.00    4.09
  -2   1   2   28.13    1.39
  -2   1   3    0.53    0.10
  -2   1   3    0.89    0.10
  -2   1   4  426.00   24.23
  -2   1   4  394.44   23.73
  -2   1   5  109.17    5.26
  -2   1   6    5.75    0.41
  -2   1   6    5.94    0.43
  -2   1   6    5.97    0.35
  -2   1   7   19.85    1.33
  -2   1   7   21.06    1.26
  -2   1   8   49.63    3.27
  -2   1   8   60.40    3.76
  -2   1   9   -0.32    0.17
  -2   1   9    0.12    0.33
  -2   1  10    0.48    0.29
  -2   1  11   17.98    1.21
  -2   2 -12   22.40    1.31
  -2   2 -12   19.41    1.75
  -2   2 -11   13.67    0.99
  -2   2 -11   13.00    0.87
  -2   2 -10   17.33    1.68
  -2   2 -10   19.84    1.15
  -2   2 -10   19.64    1.01
  -2   2  -9    0.49    0.20
  -2   2  -9    0.33    0.26
  -2   2  -8   35.72    2.25
  -2   2  -8   36.95    2.00
  -2   2  -7   44.78    2.22
  -2   2  -7   42.90    1.92
  -2   2  -6   50.34    2.61
  -2   2  -6   50.73    2.54
  -2   2  -5   59.90    2.84
  -2   2  -5   58.50    3.33
  -2   2  -4   55.29    3.38
  -2   2  -4   54.38    3.26
  -2   2  -3  128.71    6.96
  -2   2  -3  133.66    6.99
  -2   2  -2   45.64    1.99
  -2   2  -2   51.03    2.52
  -2   2  -1   92.72    4.28
  -2   2  -1  106.44    4.29
  -2   2  -1  100.67    5.29
  -2   2   0  145.68    8.74
  -2   2   0  139.16    6.21
  -2   2   0  140.00    7.40
  -2   2   0  154.62    8.81
  -2   2   1  650.57   37.34
  -2   2   1  620.62   28.03
  -2   2   2  531.55   27.39
  -2   2   2  606.51   29.63
  -2   2   2  545.61   30.05
  -2   2   2  609.53   32.42
  -2   2   3   60.42    3.61
  -2   2   3   69.01    4.43
  -2   2   3   60.78    3.92
  -2   2   4    9.68    0.72
  -2   2   4   10.63    0.76
  -2   2   5   17.36    0.86
  -2   2   5   18.78    1.10
  -2   2   6    0.65    0.18
  -2   2   6    1.09    0.21
  -2   2   7  174.31    8.07
  -2   2   7  206.91   17.02
  -2   2   8   10.28    0.63
  -2   2   8   12.43    1.00
  -2   2   9  237.16   12.65
  -2   2   9  251.67   17.10
  -2   2  10    8.69    0.61
  -2   2  11   91.23    6.19
  -2   3 -12   43.73    3.68
  -2   3 -11   21.17    1.35
  -2   3 -11   19.91    1.78
  -2   3 -10    6.18    0.67
  -2   3 -10    5.71    0.47
  -2   3 -10    5.26    0.45
  -2   3  -9   87.96    5.24
  -2   3  -9   90.49    4.65
  -2   3  -8   46.92    2.73
  -2   3  -8   46.61    2.27
  -2   3  -7    0.56    0.16
  -2   3  -7    0.73    0.22
  -2   3  -6   63.53    3.66
  -2   3  -6   68.05    3.50
  -2   3  -5   70.78    3.56
  -2   3  -5   68.92    2.92
  -2   3  -4   28.99    1.28
  -2   3  -4   30.56    1.71
  -2   3  -3   40.79    1.83
  -2   3  -3   45.68    2.04
  -2   3  -2  107.47    4.25
  -2   3  -2  117.01    4.54
  -2   3  -1   26.03    1.16
  -2   3  -1   29.82    1.20
  -2   3   0   14.24    0.65
  -2   3   0   15.30    0.94
  -2   3   0   14.44    0.75
  -2   3   1  480.51   22.34
  -2   3   1  494.41   21.69
  -2   3   1  487.47   32.80
  -2   3   2  139.51    7.48
  -2   3   2  161.93    6.64
  -2   3   2  152.69    7.60
  -2   3   3   19.29    1.02
  -2   3   3   19.50    0.87
  -2   3   3   17.43    0.96
  -2   3   4   11.49    0.81
  -2   3   4   12.29    0.68
  -2   3   4   10.64    0.59
  -2   3   5   20.77    1.44
  -2   3   5   21.57    1.16
  -2   3   6   14.08    0.80
  -2   3   6   15.77    0.95
  -2   3   7   44.42    2.14
  -2   3   7   50.53    4.17
  -2   3   8   23.78    1.65
  -2   3   8   26.48    1.89
  -2   3   9   42.35    2.14
  -2   3  10   14.29    0.89
  -2   4 -11   22.74    1.31
  -2   4 -10    2.85    0.35
  -2   4  -9   14.56    1.16
  -2   4  -9   16.55    0.99
  -2   4  -8  196.53   11.65
  -2   4  -8  216.74   11.49
  -2   4  -7   32.48    1.78
  -2   4  -7   32.14    1.54
  -2   4  -6  180.49    8.53
  -2   4  -6  198.96    8.32
  -2   4  -5   64.74    2.96
  -2   4  -5   65.25    3.34
  -2   4  -4  549.80   24.24
  -2   4  -4  581.88   25.87
  -2   4  -4  557.65   27.13
  -2   4  -3    3.03    0.23
  -2   4  -3    3.14    0.22
  -2   4  -2   81.44    3.09
  -2   4  -2   82.57    3.14
  -2   4  -1   24.37    1.00
  -2   4  -1   27.66    1.04
  -2   4   0   35.00    1.68
  -2   4   0   35.95    1.70
  -2   4   0   37.10    2.24
  -2   4   1   14.08    0.72
  -2   4   1   14.21    0.63
  -2   4   1   12.73    0.75
  -2   4   2   20.85    1.01
  -2   4   2   21.15    1.56
  -2   4   2   19.55    1.37
  -2   4   3   43.34    1.85
  -2   4   3   37.15    2.01
  -2   4   4   67.48    5.28
  -2   4   4   62.93    3.56
  -2   4   4   61.06    3.84
  -2   4   5   24.60    1.36
  -2   4   5   20.50    1.44
  -2   4   5   20.43    1.24
  -2   4   6  456.60   24.63
  -2   4   6  488.81   27.88
  -2   4   7    1.24    0.24
  -2   4   7    0.98    0.31
  -2   4   8   27.94    1.59
  -2   4   9    0.17    0.32
  -2   4  10    6.12    0.62
  -2   5 -10    4.92    0.53
  -2   5  -9    0.09    0.19
  -2   5  -9    1.66    0.60
  -2   5  -8   74.23    4.19
  -2   5  -8   78.00    3.57
  -2   5  -7  281.03   18.70
  -2   5  -7  272.82   12.49
  -2   5  -6   20.18    1.12
  -2   5  -6   20.91    0.96
  -2   5  -5   25.87    1.41
  -2   5  -5   26.29    1.33
  -2   5  -4   65.20    3.44
  -2   5  -4   65.38    2.73
  -2   5  -3    0.25    0.17
  -2   5  -3    0.92    0.31
  -2   5  -2   45.24    1.97
  -2   5  -2   43.44    2.04
  -2   5  -1   34.54    1.41
  -2   5  -1   33.32    1.70
  -2   5   0  114.54    6.04
  -2   5   0  102.92    3.97
  -2   5   0  124.45    7.96
  -2   5   1    0.77    0.23
  -2   5   1    1.41    0.20
  -2   5   1    0.99    0.15
  -2   5   2  215.37    8.80
  -2   5   2  237.24   11.34
  -2   5   2  226.87   12.43
  -2   5   3   58.09    2.79
  -2   5   3   58.84    2.80
  -2   5   4  123.45    8.37
  -2   5   4  134.50    7.11
  -2   5   5    1.02    0.46
  -2   5   5    0.97    0.19
  -2   5   6    0.09    0.18
  -2   5   6    0.24    0.23
  -2   5   6    0.08    0.07
  -2   5   7   17.58    1.07
  -2   5   8    0.58    0.38
  -2   5   9   21.48    1.50
  -2   6 -10    2.63    0.36
  -2   6  -9   42.57    2.63
  -2   6  -8   44.19    4.45
  -2   6  -8   41.26    2.11
  -2   6  -7   41.19    1.98
  -2   6  -7   39.17    2.49
  -2   6  -7   39.34    2.25
  -2   6  -6   -0.09    0.15
  -2   6  -6    0.63    0.26
  -2   6  -5    6.59    0.47
  -2   6  -5    5.80    0.44
  -2   6  -4   11.29    0.54
  -2   6  -4   10.23    0.62
  -2   6  -3    5.79    0.47
  -2   6  -3    5.58    0.50
  -2   6  -2   41.60    2.03
  -2   6  -2   43.47    1.83
  -2   6  -1   28.96    1.08
  -2   6  -1   28.92    1.23
  -2   6   0   30.71    1.20
  -2   6   0   33.30    1.88
  -2   6   0   30.12    1.58
  -2   6   1   70.63    3.90
  -2   6   1   76.48    3.52
  -2   6   1   69.46    3.04
  -2   6   2    7.14    0.39
  -2   6   2    5.99    0.49
  -2   6   2    6.39    0.36
  -2   6   3  116.35    6.14
  -2   6   3  115.76    7.88
  -2   6   4   82.21    5.13
  -2   6   4   93.23    6.34
  -2   6   5    2.16    0.63
  -2   6   5    1.48    0.33
  -2   6   6   33.67    1.77
  -2   6   6   32.09    1.64
  -2   6   7    4.10    0.52
  -2   6   8   27.46    1.71
  -2   7  -9   11.63    0.93
  -2   7  -8    3.81    0.45
  -2   7  -7    1.83    0.36
  -2   7  -6    3.51    0.40
  -2   7  -6    1.36    0.52
  -2   7  -5   42.23    1.89
  -2   7  -5   38.94    2.78
  -2   7  -4   28.91    1.08
  -2   7  -4   29.54    1.82
  -2   7  -3  107.66    4.19
  -2   7  -3  112.08    5.96
  -2   7  -2   89.25    4.38
  -2   7  -2   95.65    5.22
  -2   7  -1   82.18    3.67
  -2   7  -1   81.52    6.24
  -2   7   0   52.46    2.87
  -2   7   0   49.12    3.13
  -2   7   0   52.28    2.28
  -2   7   1  152.57    9.86
  -2   7   1  162.09    9.80
  -2   7   1  146.57   10.48
  -2   7   2   69.15    3.42
  -2   7   2   71.23    4.28
  -2   7   2   65.18    4.21
  -2   7   3    1.71    0.24
  -2   7   3    1.39    0.48
  -2   7   4   32.58    1.82
  -2   7   5   77.48    5.31
  -2   7   6   38.76    2.61
  -2   7   6   35.32    2.61
  -2   8  -8    1.12    0.37
  -2   8  -7   21.44    1.39
  -2   8  -6    2.93    0.40
  -2   8  -5    4.27    0.52
  -2   8  -4    0.43    0.36
  -2   8  -3   10.73    0.71
  -2   8  -2   27.40    1.74
  -2   8  -1   28.11    1.28
  -2   8   0    9.14    0.63
  -2   8   0    8.32    0.53
  -2   8   1    0.39    0.21
  -2   8   1    0.27    0.12
  -2   8   2    1.01    0.24
  -2   8   3    1.17    0.26
  -2   8   4   20.23    1.28
  -2   9  -6    8.71    0.75
  -2   9  -5    3.35    0.41
  -2   9  -4    7.32    0.58
  -2   9  -3    2.69    0.31
  -2   9  -2    0.96    0.34
  -2   9  -1    5.30    0.50
  -2   9   0    2.37    0.44
  -2   9   0    2.42    0.27
  -2   9   1    0.31    0.34
  -2   9   1    0.68    0.13
  -2   9   2   15.50    1.36
  -1  -9  -1    4.03    0.52
  -1  -9  -1    4.35    0.50
  -1  -9   0    3.28    0.39
  -1  -9   0    2.95    0.43
  -1  -9   1   11.60    1.04
  -1  -9   1   13.37    0.89
  -1  -9   2    5.32    0.45
  -1  -9   3   81.91    5.09
  -1  -9   4   18.27    1.15
  -1  -9   5    9.34    0.89
  -1  -9   6   31.96    2.62
  -1  -8  -4   41.50    2.78
  -1  -8  -4   41.96    2.55
  -1  -8  -3    1.77    0.34
  -1  -8  -3    1.65    0.52
  -1  -8  -2    9.16    0.78
  -1  -8  -2    9.82    0.75
  -1  -8  -1   -0.25    0.24
  -1  -8  -1   -0.13    0.24
  -1  -8   0   16.06    0.99
  -1  -8   0   14.47    1.16
  -1  -8   1   33.79    1.74
  -1  -8   1   36.66    1.71
  -1  -8   2    0.31    0.24
  -1  -8   3   28.35    1.29
  -1  -8   3   26.07    1.61
  -1  -8   4   64.88    2.98
  -1  -8   4   60.71    4.14
  -1  -8   5   34.35    2.37
  -1  -8   6   28.40    1.71
  -1  -8   7    1.62    0.29
  -1  -8   8   26.63    1.78
  -1  -7  -6   29.82    2.03
  -1  -7  -6   29.74    3.18
  -1  -7  -5   71.74    4.22
  -1  -7  -5   69.23    5.27
  -1  -7  -4    4.70    0.36
  -1  -7  -4    4.70    0.40
  -1  -7  -3    2.15    0.24
  -1  -7  -3    2.19    0.35
  -1  -7  -3    3.05    0.33
  -1  -7  -2    0.05    0.23
  -1  -7  -2   -0.16    0.23
  -1  -7  -2    0.08    0.13
  -1  -7  -1    0.76    0.30
  -1  -7  -1    0.12    0.15
  -1  -7  -1    0.07    0.14
  -1  -7   0   61.97    3.38
  -1  -7   0   61.51    2.88
  -1  -7   1    3.99    0.39
  -1  -7   1    3.67    0.31
  -1  -7   2  147.19    6.94
  -1  -7   2  132.38    6.46
  -1  -7   3  177.12    7.17
  -1  -7   3  194.08    8.91
  -1  -7   4   37.65    1.75
  -1  -7   4   40.06    2.10
  -1  -7   5   30.55    1.92
  -1  -7   5   33.54    2.04
  -1  -7   6   15.45    0.88
  -1  -7   6   15.94    1.31
  -1  -7   7    4.51    0.38
  -1  -7   7    5.30    0.65
  -1  -7   8   13.38    0.91
  -1  -7   9    5.69    0.60
  -1  -7  10    0.48    0.25
  -1  -6  -7   13.90    0.86
  -1  -6  -7   12.96    1.27
  -1  -6  -6   20.66    1.39
  -1  -6  -6   20.18    1.32
  -1  -6  -5   11.06    0.81
  -1  -6  -5   10.87    0.72
  -1  -6  -5   11.25    0.78
  -1  -6  -4    2.90    0.39
  -1  -6  -4    2.73    1.26
  -1  -6  -4    2.90    0.36
  -1  -6  -3    2.99    0.32
  -1  -6  -3    3.92    0.38
  -1  -6  -3    3.94    0.38
  -1  -6  -2   46.61    2.10
  -1  -6  -2   45.62    2.51
  -1  -6  -2   42.54    1.96
  -1  -6  -1    0.06    0.14
  -1  -6  -1    0.30    0.17
  -1  -6   0   39.26    1.96
  -1  -6   0   37.95    1.69
  -1  -6   1   87.80    3.86
  -1  -6   1   84.38    3.34
  -1  -6   2   37.42    1.49
  -1  -6   2   37.46    1.77
  -1  -6   3   48.46    1.98
  -1  -6   3   52.04    1.97
  -1  -6   4    6.99    0.40
  -1  -6   4    6.07    0.37
  -1  -6   5    8.52    0.49
  -1  -6   5    8.70    0.49
  -1  -6   6   41.87    2.01
  -1  -6   6   43.84    2.53
  -1  -6   7   35.20    2.08
  -1  -6   7   36.82    2.40
  -1  -6   8  261.99   12.23
  -1  -6   8  287.30   17.43
  -1  -6   9   18.25    1.00
  -1  -6  10   17.10    1.07
  -1  -6  11    3.12    0.41
  -1  -5  -8    2.69    0.32
  -1  -5  -7   16.15    0.80
  -1  -5  -7   14.33    1.39
  -1  -5  -6   12.78    0.91
  -1  -5  -6   13.31    0.79
  -1  -5  -6   14.34    0.81
  -1  -5  -5   44.65    2.54
  -1  -5  -5   46.12    2.28
  -1  -5  -4   41.34    2.58
  -1  -5  -4   38.74    2.36
  -1  -5  -4   36.40    1.80
  -1  -5  -3   28.71    1.60
  -1  -5  -3   30.16    1.78
  -1  -5  -3   27.91    1.19
  -1  -5  -2   10.40    0.61
  -1  -5  -2   10.98    0.57
  -1  -5  -2    9.23    0.46
  -1  -5  -1   11.47    0.67
  -1  -5  -1   11.35    0.59
  -1  -5   0  163.76    7.66
  -1  -5   0  156.76    6.61
  -1  -5   1   96.58    3.56
  -1  -5   1   91.77    3.59
  -1  -5   2    8.82    0.55
  -1  -5   2   10.17    0.48
  -1  -5   3    2.40    0.22
  -1  -5   3    2.06    0.21
  -1  -5   4   43.99    1.76
  -1  -5   4   41.41    2.20
  -1  -5   5   74.11    3.75
  -1  -5   5   78.54    3.87
  -1  -5   6  103.61    5.05
  -1  -5   6  120.35    5.90
  -1  -5   7   64.41    3.00
  -1  -5   7   77.06    4.05
  -1  -5   8   17.06    0.88
  -1  -5   8   19.27    1.34
  -1  -5   9   45.74    2.40
  -1  -5   9   50.28    3.48
  -1  -5  10    1.23    0.25
  -1  -4  -9    2.82    0.44
  -1  -4  -9    2.65    0.24
  -1  -4  -8    1.74    0.33
  -1  -4  -8    1.32    0.17
  -1  -4  -7  145.70    9.19
  -1  -4  -7  156.82    6.83
  -1  -4  -7  157.47   11.27
  -1  -4  -6   49.61    3.09
  -1  -4  -6   56.31    2.80
  -1  -4  -6   52.58    3.11
  -1  -4  -5    4.21    0.33
  -1  -4  -5    3.81    0.21
  -1  -4  -5    3.27    0.24
  -1  -4  -4   82.30    4.88
  -1  -4  -4   84.43    4.16
  -1  -4  -4   78.86    5.29
  -1  -4  -3   15.79    0.88
  -1  -4  -3   15.69    0.75
  -1  -4  -3   14.26    0.77
  -1  -4  -2    0.95    0.20
  -1  -4  -2    1.51    0.18
  -1  -4  -2    1.32    0.18
  -1  -4  -1   69.63    3.11
  -1  -4  -1   67.34    3.17
  -1  -4  -1   61.62    3.77
  -1  -4   0   74.28    3.87
  -1  -4   0   70.28    2.91
  -1  -4   1  132.88    5.52
  -1  -4   1  125.85    5.18
  -1  -4   2   20.81    0.94
  -1  -4   2   20.76    0.85
  -1  -4   3   63.47    2.94
  -1  -4   3   70.81    3.09
  -1  -4   4   62.04    2.70
  -1  -4   4   70.60    2.78
  -1  -4   5   30.12    1.57
  -1  -4   5   33.56    1.54
  -1  -4   6    8.90    0.49
  -1  -4   6   10.73    0.59
  -1  -4   7    7.55    0.51
  -1  -4   7    7.79    0.63
  -1  -4   8   23.38    1.17
  -1  -4   8   26.11    1.81
  -1  -4   9    0.91    0.20
  -1  -4   9    0.88    0.34
  -1  -4  10   27.77    1.61
  -1  -4  11    0.27    0.23
  -1  -4  12    0.08    0.21
  -1  -4  12    0.70    0.30
  -1  -3 -10    4.17    0.39
  -1  -3 -10    4.83    0.45
  -1  -3  -9   -0.12    0.18
  -1  -3  -9    0.00    0.10
  -1  -3  -8   96.20    6.79
  -1  -3  -8  108.10    5.48
  -1  -3  -8  105.94    6.41
  -1  -3  -7    8.04    0.50
  -1  -3  -7    8.60    0.63
  -1  -3  -6    9.88    0.55
  -1  -3  -6   10.09    0.60
  -1  -3  -6   11.18    0.62
  -1  -3  -5   51.06    2.53
  -1  -3  -5   55.70    2.61
  -1  -3  -5   49.15    3.27
  -1  -3  -5   55.84    3.27
  -1  -3  -4    3.82    0.27
  -1  -3  -4    4.48    0.32
  -1  -3  -4    4.02    0.30
  -1  -3  -4    4.42    0.34
  -1  -3  -3   26.16    1.15
  -1  -3  -3   26.76    1.52
  -1  -3  -3   22.97    1.14
  -1  -3  -3   26.76    1.42
  -1  -3  -2   19.62    0.97
  -1  -3  -2   20.39    0.96
  -1  -3  -2   18.05    1.02
  -1  -3  -1  321.91   22.53
  -1  -3  -1  317.18   16.89
  -1  -3  -1  328.18   17.30
  -1  -3   0    2.46    0.19
  -1  -3   0    2.10    0.14
  -1  -3   1    2.36    0.16
  -1  -3   1    2.12    0.16
  -1  -3   2  108.26    4.90
  -1  -3   2  108.05    4.54
  -1  -3   3  347.60   15.99
  -1  -3   3  386.61   16.54
  -1  -3   4   91.94    5.28
  -1  -3   4   99.34    4.14
  -1  -3   5  107.04    4.87
  -1  -3   5  117.30    6.47
  -1  -3   6  126.83    6.23
  -1  -3   6  152.06    9.45
  -1  -3   7   -0.05    0.19
  -1  -3   7    0.04    0.12
  -1  -3   8    0.19    0.15
  -1  -3   8    0.15    0.22
  -1  -3   9   -0.07    0.16
  -1  -3   9    0.76    0.32
  -1  -3  10    3.63    0.30
  -1  -3  10    3.73    0.41
  -1  -3  11    0.58    0.21
  -1  -3  11    0.62    0.13
  -1  -3  12    5.77    0.63
  -1  -3  12    7.12    0.58
  -1  -2 -11   74.33    5.34
  -1  -2 -10    1.58    0.25
  -1  -2  -9   32.39    2.23
  -1  -2  -9   36.15    1.74
  -1  -2  -8    4.34    0.37
  -1  -2  -8    3.85    0.30
  -1  -2  -7   35.95    1.66
  -1  -2  -6   19.99    1.37
  -1  -2  -6   21.60    1.05
  -1  -2  -5    6.26    0.35
  -1  -2  -5    6.97    0.37
  -1  -2  -5    6.49    0.38
  -1  -2  -4   38.57    2.36
  -1  -2  -4   39.16    2.32
  -1  -2  -4   40.47    2.27
  -1  -2  -4   41.06    3.01
  -1  -2  -3    1.75    0.16
  -1  -2  -3    2.16    0.16
  -1  -2  -3    1.58    0.12
  -1  -2  -3    1.85    0.16
  -1  -2  -2   92.82    4.34
  -1  -2  -2   99.43    5.13
  -1  -2  -2   92.45    6.01
  -1  -2  -2   98.85    5.18
  -1  -2  -1  199.55    9.56
  -1  -2  -1  200.77    9.66
  -1  -2  -1  193.07   11.44
  -1  -2   0  151.67    6.32
  -1  -2   0  157.89    7.65
  -1  -2   0  150.33    9.14
  -1  -2   1    0.36    0.17
  -1  -2   1   -0.06    0.16
  -1  -2   2   34.48    1.87
  -1  -2   2   35.60    1.78
  -1  -2   3   14.63    0.69
  -1  -2   3   15.74    0.73
  -1  -2   4  103.59    4.84
  -1  -2   4  122.61    6.11
  -1  -2   5    4.64    0.34
  -1  -2   5    4.80    0.30
  -1  -2   6  159.90   11.28
  -1  -2   6  192.08   10.67
  -1  -2   7   -0.15    0.12
  -1  -2   7    0.25    0.15
  -1  -2   8    9.46    0.54
  -1  -2   8   11.47    0.73
  -1  -2   9    1.55    0.24
  -1  -2   9    1.80    0.26
  -1  -2  10    4.78    0.41
  -1  -2  10    5.27    0.57
  -1  -2  10    4.36    0.48
  -1  -2  11    6.07    0.56
  -1  -2  11    6.40    0.41
  -1  -2  12   83.68    6.05
  -1  -2  12   87.69    7.00
  -1  -1 -11    8.31    0.66
  -1  -1 -10    6.86    0.50
  -1  -1  -9   41.97    2.64
  -1  -1  -9   48.39    2.33
  -1  -1  -8   53.02    3.33
  -1  -1  -8   55.98    2.84
  -1  -1  -7    0.96    0.20
  -1  -1  -7    0.95    0.17
  -1  -1  -6   -0.12    0.15
  -1  -1  -6   -0.13    0.16
  -1  -1  -5   34.39    2.18
  -1  -1  -5   39.02    2.04
  -1  -1  -4   42.97    3.02
  -1  -1  -4   43.35    2.35
  -1  -1  -3   71.69    4.92
  -1  -1  -3   76.64    4.87
  -1  -1  -2  295.69   17.22
  -1  -1  -2  314.89   17.71
  -1  -1  -2  304.42   17.17
  -1  -1  -2  312.74   15.89
  -1  -1  -1  161.59    7.68
  -1  -1  -1  161.63    8.22
  -1  -1  -1  162.98    9.44
  -1  -1  -1  175.24   10.53
  -1  -1   0  203.99    8.59
  -1  -1   0  202.50   10.98
  -1  -1   0  209.17   10.53
  -1  -1   2    6.42    0.31
  -1  -1   2    7.17    0.33
  -1  -1   2    6.83    0.41
  -1  -1   3  260.68   13.38
  -1  -1   3  311.61   16.24
  -1  -1   4   13.45    0.60
  -1  -1   4   15.72    0.77
  -1  -1   5  139.46    8.48
  -1  -1   5  170.57    9.37
  -1  -1   6    9.60    0.51
  -1  -1   6   11.35    0.69
  -1  -1   7    0.50    0.15
  -1  -1   7    0.33    0.14
  -1  -1   7    0.22    0.08
  -1  -1   8   96.23    6.95
  -1  -1   8  118.14    6.89
  -1  -1   8   80.34    4.17
  -1  -1   9  200.76    9.89
  -1  -1   9  229.76   18.09
  -1  -1   9  200.32   11.45
  -1  -1  10    3.44    0.34
  -1  -1  10    4.67    0.44
  -1  -1  10    3.46    0.24
  -1  -1  11    9.13    0.64
  -1  -1  11    9.90    0.61
  -1  -1  12    1.63    0.46
  -1  -1  12    0.99    0.15
  -1   0 -12   45.64    2.86
  -1   0 -11    2.16    0.34
  -1   0 -10    2.87    0.64
  -1   0 -10    5.59    0.43
  -1   0  -9    3.68    0.34
  -1   0  -9    4.00    0.33
  -1   0  -9    2.76    0.20
  -1   0  -8    3.35    0.30
  -1   0  -8    3.24    0.22
  -1   0  -7    2.01    0.26
  -1   0  -7    3.02    0.31
  -1   0  -7    2.61    0.17
  -1   0  -6   52.86    2.95
  -1   0  -6   57.94    3.40
  -1   0  -6   51.11    2.84
  -1   0  -5  122.67    8.30
  -1   0  -5  138.30    8.37
  -1   0  -5  124.59    7.35
  -1   0  -4 1283.59   76.01
  -1   0  -1  208.59   10.35
  -1   0  -1  199.76   11.70
  -1   0  -1  211.61   10.42
  -1   0   1  265.63   14.30
  -1   0   1  249.36   16.26
  -1   0   2  220.72   11.80
  -1   0   2  262.62   17.61
  -1   0   2  241.73   16.84
  -1   0   3   70.97    3.78
  -1   0   3   69.58    3.66
  -1   0   4   92.74    4.36
  -1   0   4  104.14    6.06
  -1   0   4   95.46    6.71
  -1   0   5   18.74    0.85
  -1   0   5   23.84    1.24
  -1   0   5   19.10    1.31
  -1   0   6    4.37    0.36
  -1   0   6    5.34    0.32
  -1   0   6    4.41    0.27
  -1   0   7  281.84   13.10
  -1   0   7  355.68   21.32
  -1   0   7  287.84   20.41
  -1   0   8    1.80    0.22
  -1   0   8    2.29    0.52
  -1   0   8    1.60    0.13
  -1   0   9  132.23    6.22
  -1   0   9  158.07   12.03
  -1   0   9  132.91    9.61
  -1   0  10   28.48    1.43
  -1   0  10   29.01    2.34
  -1   0  10   27.93    1.96
  -1   0  11    9.06    0.69
  -1   0  12    0.63    0.26
  -1   1 -12   15.68    1.11
  -1   1 -12   15.58    1.20
  -1   1 -11    3.16    0.32
  -1   1 -10   -0.01    0.33
  -1   1 -10   -0.47    0.23
  -1   1 -10    0.16    0.09
  -1   1  -9    0.55    0.19
  -1   1  -9    0.16    0.16
  -1   1  -9    0.09    0.12
  -1   1  -8    5.92    0.50
  -1   1  -8    6.51    0.52
  -1   1  -8    6.24    0.40
  -1   1  -7   21.22    1.09
  -1   1  -7   22.87    1.24
  -1   1  -6  286.64   17.85
  -1   1  -6  286.55   15.67
  -1   1  -5   41.63    2.10
  -1   1  -5   40.51    2.14
  -1   1  -4    1.76    0.16
  -1   1  -4    1.84    0.15
  -1   1  -2  531.82   28.54
  -1   1  -2  517.02   27.94
  -1   1  -1   14.52    0.76
  -1   1  -1   13.31    0.70
  -1   1   0    2.65    0.15
  -1   1   0    2.95    0.16
  -1   1   0    2.80    0.17
  -1   1   1   19.26    1.20
  -1   1   1   20.72    0.97
  -1   1   1   18.57    1.12
  -1   1   1   20.55    1.08
  -1   1   2  124.65    6.44
  -1   1   2  132.15    6.63
  -1   1   3   35.41    1.82
  -1   1   3   39.35    2.00
  -1   1   4  106.81    6.76
  -1   1   4  124.47    7.20
  -1   1   5  126.06    7.93
  -1   1   5  141.64    9.30
  -1   1   6   37.98    2.29
  -1   1   7   20.60    1.26
  -1   1   7   24.69    1.38
  -1   1   8  101.65    6.84
  -1   1   9    3.39    0.32
  -1   1   9    3.73    0.45
  -1   1  11    8.03    0.61
  -1   1  12   38.95    3.13
  -1   2 -12   17.86    1.35
  -1   2 -11   14.44    0.90
  -1   2 -11   13.77    0.86
  -1   2 -10   15.11    1.14
  -1   2 -10   16.84    0.91
  -1   2  -9   12.91    0.88
  -1   2  -9   14.62    0.74
  -1   2  -8  183.96   10.75
  -1   2  -8  175.49    9.17
  -1   2  -7  122.54    6.49
  -1   2  -7  123.41    6.98
  -1   2  -6  197.01   13.18
  -1   2  -5   24.47    1.27
  -1   2  -5   24.54    1.22
  -1   2  -4   38.78    2.08
  -1   2  -4   39.48    1.86
  -1   2  -3   36.50    1.97
  -1   2  -3   36.18    1.85
  -1   2  -2   77.91    3.26
  -1   2  -2   84.54    3.86
  -1   2  -1  333.13   14.38
  -1   2  -1  319.70   13.43
  -1   2   1  186.09   10.40
  -1   2   1  200.30   13.04
  -1   2   1  200.02   12.01
  -1   2   2   35.56    1.89
  -1   2   2   39.32    1.68
  -1   2   3    8.14    0.42
  -1   2   3    9.43    0.68
  -1   2   3    8.06    0.42
  -1   2   4  326.02   17.30
  -1   2   4  369.07   27.12
  -1   2   5   40.53    2.88
  -1   2   5   46.85    2.55
  -1   2   6  268.04   13.79
  -1   2   6  309.12   17.60
  -1   2   7   10.71    0.53
  -1   2   7   11.76    0.84
  -1   2   8   34.97    1.75
  -1   2   8   36.87    2.54
  -1   2   9   32.20    1.52
  -1   2   9   33.71    2.31
  -1   2  10   23.30    1.24
  -1   2  11   39.70    2.46
  -1   3 -12   16.89    1.30
  -1   3 -11   83.26    4.89
  -1   3 -10    0.13    0.28
  -1   3  -9    6.88    0.50
  -1   3  -9    7.02    0.44
  -1   3  -8   20.26    0.96
  -1   3  -8   20.85    0.93
  -1   3  -7   50.97    2.44
  -1   3  -7   44.63    1.74
  -1   3  -6   30.68    1.33
  -1   3  -6   29.82    1.27
  -1   3  -5   91.41    5.32
  -1   3  -5   95.68    4.64
  -1   3  -4   90.20    4.65
  -1   3  -4   84.50    3.88
  -1   3  -3   40.76    1.72
  -1   3  -3   42.07    2.16
  -1   3  -2  416.54   19.43
  -1   3  -2  387.30   16.14
  -1   3  -1  242.64   10.90
  -1   3  -1  260.71   11.92
  -1   3   0  338.99   16.91
  -1   3   0  340.57   15.31
  -1   3   1   43.62    2.38
  -1   3   1   48.12    1.95
  -1   3   1   45.28    2.84
  -1   3   2   89.71    4.31
  -1   3   2   99.35    4.14
  -1   3   3   42.32    2.24
  -1   3   3   45.68    1.95
  -1   3   4   17.13    1.08
  -1   3   4   20.24    0.93
  -1   3   5  113.73    8.33
  -1   3   5  117.77    6.21
  -1   3   6   68.07    3.02
  -1   3   6   79.71    4.12
  -1   3   7    0.39    0.26
  -1   3   8   51.10    2.66
  -1   3   8   58.35    4.31
  -1   3   9   25.71    1.38
  -1   3  10   83.34    5.28
  -1   4 -12   35.61    2.59
  -1   4 -11   31.55    1.99
  -1   4 -10   10.85    0.83
  -1   4  -9   21.65    1.07
  -1   4  -9   20.79    1.25
  -1   4  -8   30.07    1.63
  -1   4  -8   29.65    1.39
  -1   4  -7   30.46    1.26
  -1   4  -7   27.32    1.83
  -1   4  -6   27.86    1.24
  -1   4  -6   28.41    1.35
  -1   4  -5   64.04    2.68
  -1   4  -5   66.96    2.77
  -1   4  -4  243.35   10.46
  -1   4  -4  248.66   10.47
  -1   4  -3  123.79    5.04
  -1   4  -3  127.56    5.01
  -1   4  -2    6.07    0.36
  -1   4  -2    7.00    0.34
  -1   4  -1  507.48   22.31
  -1   4  -1  534.96   22.60
  -1   4   0   70.91    3.37
  -1   4   0   69.71    3.40
  -1   4   1    1.51    0.09
  -1   4   1    1.10    0.19
  -1   4   1    1.70    0.22
  -1   4   2  143.03    8.30
  -1   4   2  130.50    8.42
  -1   4   2  124.77    6.64
  -1   4   3    9.46    0.58
  -1   4   3   11.07    0.53
  -1   4   4    3.87    0.39
  -1   4   4    3.45    0.33
  -1   4   5    7.29    0.51
  -1   4   5    7.44    0.44
  -1   4   6   37.69    2.30
  -1   4   6   34.35    1.75
  -1   4   7    0.33    0.18
  -1   4   7    0.34    0.28
  -1   4   8   44.47    3.05
  -1   4   9   89.94    5.63
  -1   4  10   30.62    2.06
  -1   5 -11   16.60    1.16
  -1   5 -10    0.60    0.31
  -1   5  -9   11.21    0.73
  -1   5  -9   12.83    0.81
  -1   5  -8   76.40    5.80
  -1   5  -8   70.21    2.91
  -1   5  -7   36.13    1.90
  -1   5  -7   32.80    1.43
  -1   5  -6   30.99    1.57
  -1   5  -6   33.03    1.39
  -1   5  -5  176.09    7.12
  -1   5  -5  176.02   10.86
  -1   5  -4    0.47    0.22
  -1   5  -4    0.08    0.18
  -1   5  -3  246.93    9.15
  -1   5  -3  254.31    9.93
  -1   5  -2  140.56    5.80
  -1   5  -2  131.86    5.80
  -1   5  -1    8.47    0.43
  -1   5  -1    8.48    0.45
  -1   5   0    1.50    0.21
  -1   5   0    2.14    0.23
  -1   5   1    4.01    0.35
  -1   5   1    4.69    0.25
  -1   5   2    0.72    0.17
  -1   5   2    0.44    0.13
  -1   5   2    0.43    0.05
  -1   5   3    4.37    0.33
  -1   5   3    5.08    0.36
  -1   5   4   21.19    1.25
  -1   5   4   20.55    1.13
  -1   5   5  176.57    9.52
  -1   5   5  205.22   11.24
  -1   5   6    7.50    0.58
  -1   5   6    8.25    0.67
  -1   5   7   49.45    2.65
  -1   5   8   17.52    1.00
  -1   5   9    1.63    0.39
  -1   6 -11    0.98    0.38
  -1   6 -10   11.45    0.91
  -1   6  -9   29.07    1.56
  -1   6  -8    0.20    0.27
  -1   6  -8    1.50    0.25
  -1   6  -7    1.73    0.34
  -1   6  -7    1.57    0.34
  -1   6  -6   54.69    2.41
  -1   6  -6   59.69    3.89
  -1   6  -5   17.16    0.83
  -1   6  -5   16.07    1.01
  -1   6  -4   18.85    0.85
  -1   6  -4   20.20    0.94
  -1   6  -3   32.08    1.23
  -1   6  -3   32.48    1.66
  -1   6  -2   79.85    3.27
  -1   6  -2   85.91    3.38
  -1   6  -1    7.45    0.45
  -1   6  -1    8.33    0.52
  -1   6   0    7.06    0.38
  -1   6   0    7.53    0.64
  -1   6   1  167.34    9.18
  -1   6   1  176.79    7.74
  -1   6   2    3.52    0.35
  -1   6   2    4.58    0.44
  -1   6   3   26.83    1.34
  -1   6   3   32.30    1.66
  -1   6   4    8.07    0.51
  -1   6   4    7.61    0.71
  -1   6   5   20.37    1.15
  -1   6   5   20.32    1.79
  -1   6   6   10.80    0.67
  -1   6   7   94.64    5.27
  -1   6   8   44.87    3.05
  -1   7 -10   68.30    4.92
  -1   7  -9   15.45    1.14
  -1   7  -8   40.42    2.75
  -1   7  -7   60.75    2.78
  -1   7  -6    1.68    0.26
  -1   7  -6    1.47    0.27
  -1   7  -5    3.33    0.30
  -1   7  -5    3.04    0.39
  -1   7  -4    1.80    0.23
  -1   7  -4    2.53    0.29
  -1   7  -3    1.87    0.29
  -1   7  -3    1.43    0.22
  -1   7  -2    6.50    0.46
  -1   7  -2    4.97    0.48
  -1   7  -1    0.43    0.17
  -1   7  -1    0.37    0.26
  -1   7   0   73.83    3.00
  -1   7   0   78.71    4.34
  -1   7   1   10.06    0.54
  -1   7   1   10.94    0.77
  -1   7   1   10.94    0.94
  -1   7   2   98.61    5.25
  -1   7   2  102.69    6.17
  -1   7   3    0.20    0.41
  -1   7   3   -0.63    0.41
  -1   7   4   66.94    4.79
  -1   7   5    0.16    0.17
  -1   7   6   39.58    2.47
  -1   8  -9   27.59    1.92
  -1   8  -8    6.32    0.64
  -1   8  -7    2.04    0.27
  -1   8  -6    3.43    0.38
  -1   8  -5    2.88    0.34
  -1   8  -4    4.34    0.58
  -1   8  -3    2.70    0.44
  -1   8  -3    2.79    1.11
  -1   8  -2   35.13    1.75
  -1   8  -2   30.96    2.34
  -1   8  -1   40.70    2.20
  -1   8  -1   40.37    3.69
  -1   8   0    6.95    0.46
  -1   8   1  196.82   10.27
  -1   8   1  197.30   10.26
  -1   8   2    1.52    0.30
  -1   8   3   29.76    1.93
  -1   8   4    0.10    0.20
  -1   9  -6    1.58    0.43
  -1   9  -5    0.47    0.29
  -1   9  -4    0.87    0.32
  -1   9  -3    6.27    0.52
  -1   9  -2    2.44    0.44
  -1   9  -1   10.04    0.72
  -1   9   0   15.93    1.35
  -1   9   1    3.62    0.47
  -1   9   1    2.53    0.22
  -1   9   2    0.32    0.31
   0  -9  -2   16.07    1.28
   0  -9  -1    8.30    0.76
   0  -9   0   18.29    1.37
   0  -9   1    0.39    0.22
   0  -9   2   46.26    2.90
   0  -9   3   21.29    1.42
   0  -9   4   43.58    2.81
   0  -9   6   13.05    1.09
   0  -8  -4   89.35    6.17
   0  -8  -4   86.62    4.95
   0  -8  -3   42.17    2.72
   0  -8  -3   40.17    2.90
   0  -8  -2   26.40    1.94
   0  -8  -1    9.36    0.63
   0  -8   0    5.02    0.78
   0  -8   0    6.27    0.46
   0  -8   1    1.58    1.05
   0  -8   1    2.90    0.29
   0  -8   2   49.05    2.60
   0  -8   2   50.94    3.87
   0  -8   3    7.88    0.52
   0  -8   3    6.82    1.12
   0  -8   4    1.12    0.22
   0  -8   4    1.98    0.40
   0  -8   5    0.48    0.27
   0  -8   6   65.52    3.63
   0  -8   7    0.36    0.30
   0  -8   8   97.68    7.04
   0  -8   9   16.76    1.16
   0  -7  -6   20.91    1.36
   0  -7  -6   21.57    1.76
   0  -7  -5   46.45    2.71
   0  -7  -5   41.39    2.68
   0  -7  -4   70.19    4.17
   0  -7  -4   65.57    3.38
   0  -7  -3   72.10    4.54
   0  -7  -3   65.81    3.60
   0  -7  -2    5.40    0.55
   0  -7  -2    5.29    0.48
   0  -7  -1    2.50    0.46
   0  -7  -1    1.07    0.30
   0  -7   0    2.12    0.26
   0  -7   0    1.83    0.22
   0  -7   1    5.14    0.39
   0  -7   1    5.54    0.36
   0  -7   2    4.22    0.38
   0  -7   2    3.54    0.34
   0  -7   3   16.46    0.73
   0  -7   3   16.22    0.88
   0  -7   4   45.69    2.09
   0  -7   4   51.62    2.73
   0  -7   5   31.58    1.76
   0  -7   5   33.18    2.31
   0  -7   6    2.54    0.36
   0  -7   6    2.33    0.41
   0  -7   7  138.02    7.73
   0  -7   8    0.27    0.22
   0  -7   9    0.30    0.21
   0  -6  -8    3.86    0.48
   0  -6  -7   38.94    1.98
   0  -6  -7   33.15    2.87
   0  -6  -6   51.60    3.30
   0  -6  -6   56.80    2.81
   0  -6  -5   47.76    3.65
   0  -6  -5   49.64    3.01
   0  -6  -5   42.90    2.37
   0  -6  -4   32.37    1.89
   0  -6  -4   35.83    2.22
   0  -6  -4   34.92    2.01
   0  -6  -3    3.16    0.37
   0  -6  -3    3.83    0.33
   0  -6  -2   44.26    2.60
   0  -6  -2   43.70    2.36
   0  -6  -1    0.39    0.21
   0  -6  -1    0.56    0.22
   0  -6   0    8.41    0.53
   0  -6   0    8.75    0.45
   0  -6   1   36.92    1.78
   0  -6   1   37.32    1.54
   0  -6   2   11.96    0.59
   0  -6   2   12.31    0.62
   0  -6   3   55.23    2.15
   0  -6   3   60.73    2.98
   0  -6   4   51.21    2.28
   0  -6   4   55.89    2.48
   0  -6   5    1.98    0.25
   0  -6   5    2.12    0.28
   0  -6   6    8.92    0.54
   0  -6   6    7.61    0.64
   0  -6   7    0.79    0.20
   0  -6   7    0.21    0.29
   0  -6   8    5.49    0.53
   0  -6   8    4.71    0.37
   0  -6   9    7.04    0.49
   0  -6  10   47.04    2.72
   0  -6  11   11.57    1.00
   0  -5  -9   18.40    1.14
   0  -5  -8    7.56    0.59
   0  -5  -7    2.12    0.37
   0  -5  -6   42.05    2.66
   0  -5  -6   44.44    2.25
   0  -5  -6   39.41    2.25
   0  -5  -5    2.19    0.31
   0  -5  -5    1.96    0.25
   0  -5  -5    3.14    0.32
   0  -5  -4   55.21    3.06
   0  -5  -4   54.44    3.60
   0  -5  -4   52.84    4.09
   0  -5  -3    1.01    0.22
   0  -5  -3    0.77    0.19
   0  -5  -2    2.77    0.25
   0  -5  -2    2.62    0.19
   0  -5  -1  258.51   10.91
   0  -5  -1  273.39   11.59
   0  -5   0   39.93    1.84
   0  -5   0   41.29    1.68
   0  -5   1   22.64    0.84
   0  -5   1   22.77    0.97
   0  -5   2  196.93    8.66
   0  -5   2  202.69    8.30
   0  -5   3    2.76    0.27
   0  -5   3    2.19    0.19
   0  -5   4  249.87   11.50
   0  -5   4  263.48    9.88
   0  -5   5   19.83    0.86
   0  -5   5   21.23    0.91
   0  -5   6    2.21    0.25
   0  -5   6    2.03    0.32
   0  -5   7   77.68    3.64
   0  -5   7   88.30    4.45
   0  -5   8    0.08    0.21
   0  -5   8   -0.03    0.18
   0  -5   9   77.16    4.02
   0  -5   9   78.70    5.95
   0  -5  10   20.46    1.12
   0  -5  11   30.02    2.12
   0  -4 -10    2.04    0.34
   0  -4 -10    1.92    0.26
   0  -4  -9   21.39    1.26
   0  -4  -9   19.94    1.69
   0  -4  -8   34.26    1.59
   0  -4  -8   31.28    2.34
   0  -4  -7    2.18    0.31
   0  -4  -7    2.56    0.32
   0  -4  -7    2.47    0.17
   0  -4  -6    1.35    0.32
   0  -4  -6    1.66    0.25
   0  -4  -5   41.19    2.09
   0  -4  -5   43.21    2.28
   0  -4  -5   36.94    2.40
   0  -4  -4    2.20    0.24
   0  -4  -4    3.26    0.32
   0  -4  -4    2.11    0.18
   0  -4  -3   21.95    1.33
   0  -4  -3   23.13    1.14
   0  -4  -2   66.36    3.00
   0  -4  -2   69.00    3.67
   0  -4  -1  154.00    7.42
   0  -4  -1  162.28    8.31
   0  -4   0   42.67    1.82
   0  -4   0   45.32    2.03
   0  -4   1  243.04    9.64
   0  -4   1  230.52   10.10
   0  -4   2   96.11    3.83
   0  -4   2  100.44    3.56
   0  -4   3  248.49   11.66
   0  -4   3  251.06   10.39
   0  -4   4    4.01    0.29
   0  -4   4    4.80    0.25
   0  -4   5    4.58    0.31
   0  -4   5    5.69    0.34
   0  -4   6    6.81    0.46
   0  -4   6    7.83    0.55
   0  -4   7    0.17    0.23
   0  -4   7    0.10    0.14
   0  -4   8  117.16    6.38
   0  -4   8  128.26    8.03
   0  -4   9    9.44    0.60
   0  -4   9    9.50    0.77
   0  -4  10    0.94    0.32
   0  -4  11    5.90    0.56
   0  -4  12   10.91    0.81
   0  -3 -10    0.26    0.33
   0  -3  -9   57.26    2.77
   0  -3  -8   31.76    2.25
   0  -3  -8   35.06    1.50
   0  -3  -7   19.40    1.27
   0  -3  -7   20.14    1.00
   0  -3  -6   41.40    2.06
   0  -3  -6   45.16    2.23
   0  -3  -5  269.60   12.21
   0  -3  -5  287.09   15.19
   0  -3  -5  247.49   15.22
   0  -3  -5  282.81   22.03
   0  -3  -4    1.66    0.22
   0  -3  -4    2.11    0.19
   0  -3  -4    2.10    0.12
   0  -3  -4    1.72    0.13
   0  -3  -3    2.47    0.21
   0  -3  -3    2.66    0.20
   0  -3  -2  230.33   12.20
   0  -3  -2  220.83    9.99
   0  -3  -1  194.79   10.45
   0  -3  -1  208.81    9.42
   0  -3   0   88.64    4.35
   0  -3   0   91.55    3.35
   0  -3   1   49.44    2.25
   0  -3   1   51.26    2.73
   0  -3   2   59.03    2.74
   0  -3   2   65.47    2.38
   0  -3   3   50.14    2.47
   0  -3   3   56.90    2.27
   0  -3   4   18.60    0.88
   0  -3   4   16.69    0.91
   0  -3   5   17.80    0.82
   0  -3   5   21.21    1.11
   0  -3   6   87.50    6.34
   0  -3   6  101.25    6.73
   0  -3   7   37.15    2.12
   0  -3   7   37.99    2.08
   0  -3   8   37.50    1.85
   0  -3   8   43.62    3.12
   0  -3   9  355.26   25.73
   0  -3   9  431.41   30.32
   0  -3  10   23.51    1.54
   0  -3  10   27.71    2.39
   0  -3  11    3.35    0.40
   0  -3  12    1.30    0.29
   0  -2 -11    3.77    0.51
   0  -2 -10    1.81    0.29
   0  -2  -9    8.88    0.66
   0  -2  -9    9.71    0.53
   0  -2  -8   88.36    4.69
   0  -2  -8   91.74    4.36
   0  -2  -7   68.67    3.61
   0  -2  -7   69.75    3.42
   0  -2  -6    0.12    0.15
   0  -2  -6    0.45    0.15
   0  -2  -5   86.32    5.94
   0  -2  -5   88.76    4.88
   0  -2  -4   80.56    4.48
   0  -2  -4   73.02    4.27
   0  -2  -3    5.25    0.28
   0  -2  -3    6.58    0.33
   0  -2  -3    5.18    0.38
   0  -2  -2  103.47    4.92
   0  -2  -2  110.72    5.98
   0  -2  -1    0.44    0.09
   0  -2  -1    0.35    0.10
   0  -2   0   18.07    0.74
   0  -2   0   18.35    0.85
   0  -2   1    5.97    0.38
   0  -2   1    5.99    0.35
   0  -2   2  102.54    6.14
   0  -2   2  101.66    4.35
   0  -2   3  521.18   25.09
   0  -2   3  583.45   34.56
   0  -2   4   25.24    1.83
   0  -2   4   30.59    2.02
   0  -2   5  100.97    7.24
   0  -2   5  115.29    5.68
   0  -2   6    0.17    0.17
   0  -2   6    0.22    0.18
   0  -2   7    2.92    0.27
   0  -2   7    3.02    0.32
   0  -2   8   48.42    1.89
   0  -2   9   13.99    0.70
   0  -2   9   16.45    1.27
   0  -2  10   11.45    0.79
   0  -2  10   10.24    0.62
   0  -2  11    1.12    0.38
   0  -2  12    7.87    0.66
   0  -1 -11    3.86    0.35
   0  -1 -10   33.04    1.85
   0  -1  -9    2.16    0.46
   0  -1  -9    0.79    0.18
   0  -1  -8   75.58    3.77
   0  -1  -8   75.18    4.62
   0  -1  -7    4.54    0.36
   0  -1  -7    5.36    0.39
   0  -1  -6  163.67    9.79
   0  -1  -6  168.96    9.48
   0  -1  -5  111.80    6.58
   0  -1  -5  122.85    6.98
   0  -1  -4   33.20    1.82
   0  -1  -4   37.43    1.95
   0  -1  -3  169.10    8.81
   0  -1  -3  200.49   10.52
   0  -1  -2   38.63    1.81
   0  -1  -2   45.42    2.31
   0  -1  -2   37.37    2.47
   0  -1  -1  441.09   20.11
   0  -1   2    0.85    0.12
   0  -1   2    1.28    0.19
   0  -1   3  247.25   13.38
   0  -1   3  269.58   13.37
   0  -1   4   57.05    2.80
   0  -1   4   59.81    3.37
   0  -1   5   39.40    2.11
   0  -1   6    2.02    0.25
   0  -1   6    2.44    0.29
   0  -1   7    1.04    0.17
   0  -1   7    0.88    0.19
   0  -1   8    0.76    0.15
   0  -1   8    0.37    0.17
   0  -1   9    0.34    0.19
   0  -1  10   26.61    1.34
   0  -1  10   30.72    2.19
   0  -1  11   51.67    3.05
   0  -1  11   50.23    3.35
   0  -1  12    2.12    0.31
   0  -1  12    1.72    0.16
   0   0 -12   28.93    1.62
   0   0 -11   35.03    1.84
   0   0 -10  146.84    9.21
   0   0 -10  173.02    7.25
   0   0 -10  148.80    9.57
   0   0  -9    0.23    0.21
   0   0  -9    0.17    0.06
   0   0  -8   26.41    1.30
   0   0  -8   29.30    1.62
   0   0  -8   27.10    1.52
   0   0  -7   42.92    2.22
   0   0  -7   46.74    2.68
   0   0  -7   42.98    2.38
   0   0  -6   75.87    4.42
   0   0  -6   71.77    4.53
   0   0  -5   43.97    2.80
   0   0  -5   46.31    2.66
   0   0  -4   77.19    4.29
   0   0  -4   84.81    4.58
   0   0  -3  119.73    6.36
   0   0  -3  130.11    6.20
   0   0  -2  218.32   11.64
   0   0  -2  268.14   12.81
   0   0   2  254.99   13.55
   0   0   2  237.62   11.38
   0   0   3  115.13    4.99
   0   0   4   75.59    3.62
   0   0   4   87.34    5.40
   0   0   5   40.21    2.11
   0   0   5   50.51    3.62
   0   0   6   85.68    6.16
   0   0   7   50.07    2.90
   0   0   8   25.30    1.59
   0   0   8   31.24    1.86
   0   0   9    0.06    0.05
   0   0   9    0.17    0.22
   0   0   9    0.34    0.24
   0   0  10  153.72   10.73
   0   0  10  167.71   12.62
   0   0  10  149.23    7.96
   0   0  10  140.54    9.44
   0   0  11   32.52    2.53
   0   0  12   25.12    2.07
   0   1 -12    1.66    0.26
   0   1 -12    1.71    0.21
   0   1 -11   57.83    3.12
   0   1 -10   24.80    1.45
   0   1 -10   26.61    1.16
   0   1  -9    0.12    0.15
   0   1  -8    0.79    0.18
   0   1  -8    1.06    0.23
   0   1  -7    0.50    0.19
   0   1  -7    0.33    0.23
   0   1  -6    2.50    0.30
   0   1  -6    2.34    0.21
   0   1  -5   34.82    1.89
   0   1  -4   58.91    2.89
   0   1  -4   62.13    3.57
   0   1  -3  241.76   13.91
   0   1  -3  271.27   12.67
   0   1  -2    0.92    0.12
   0   1  -2    1.18    0.12
   0   1   1  431.71   26.15
   0   1   1  482.68   25.49
   0   1   2   40.94    2.11
   0   1   2   43.55    2.29
   0   1   3  181.89   10.42
   0   1   3  199.09   11.05
   0   1   4   31.51    1.84
   0   1   4   39.06    1.80
   0   1   5  109.71    4.80
   0   1   5  121.27    7.35
   0   1   6  160.13    7.48
   0   1   6  183.29   10.88
   0   1   7    5.10    0.32
   0   1   7    6.00    0.45
   0   1   8   69.34    3.38
   0   1   8   87.49    6.27
   0   1   9    1.63    0.23
   0   1   9    1.41    0.25
   0   1  10   27.17    1.48
   0   1  11    2.60    0.32
   0   2 -12    9.75    0.75
   0   2 -11    0.54    0.31
   0   2 -10    9.77    0.66
   0   2 -10   11.16    0.61
   0   2  -9   15.02    0.84
   0   2  -9   14.52    0.79
   0   2  -8   54.83    2.62
   0   2  -8   54.03    2.93
   0   2  -7    3.56    0.26
   0   2  -7    3.53    0.25
   0   2  -6    0.25    0.15
   0   2  -6    0.45    0.17
   0   2  -5  106.30    5.26
   0   2  -5  114.35    5.35
   0   2  -4   27.86    1.37
   0   2  -4   27.78    1.31
   0   2  -3  552.97   29.66
   0   2  -3  553.85   26.22
   0   2  -2   98.07    4.33
   0   2  -2  104.41    5.29
   0   2  -1    6.27    0.36
   0   2  -1    6.05    0.34
   0   2   0   18.33    0.84
   0   2   0   18.95    0.85
   0   2   1    0.35    0.11
   0   2   1    0.62    0.11
   0   2   2  102.98    5.52
   0   2   2  115.21    5.32
   0   2   3    5.61    0.36
   0   2   3    5.89    0.31
   0   2   4   75.64    5.10
   0   2   4   90.70    4.84
   0   2   5   80.15    3.83
   0   2   5  100.96    6.23
   0   2   6    0.26    0.14
   0   2   6    0.91    0.50
   0   2   7   65.32    3.10
   0   2   7   76.50    4.21
   0   2   8   86.24    4.14
   0   2   8  101.00    6.46
   0   2   9    8.82    0.60
   0   2   9    8.86    0.70
   0   2  10    1.48    0.29
   0   2  11    4.32    0.53
   0   3 -12    0.80    0.30
   0   3 -11    4.02    0.61
   0   3 -10   25.39    1.80
   0   3 -10   28.61    1.40
   0   3  -9  383.90   25.01
   0   3  -9  401.30   20.38
   0   3  -8   40.51    2.00
   0   3  -8   39.86    2.07
   0   3  -7   38.04    1.74
   0   3  -7   36.24    1.59
   0   3  -6   95.35    4.55
   0   3  -6   97.29    4.41
   0   3  -5   19.66    0.98
   0   3  -5   20.48    1.01
   0   3  -4   17.80    0.85
   0   3  -4   18.67    0.84
   0   3  -3   55.11    2.42
   0   3  -3   51.16    2.50
   0   3  -2   59.99    2.78
   0   3  -2   63.90    2.47
   0   3  -1   50.96    2.25
   0   3  -1   53.41    3.11
   0   3   0   89.11    4.49
   0   3   0   97.31    4.11
   0   3   1  199.81    9.51
   0   3   1  210.08    9.29
   0   3   2  214.72   13.05
   0   3   2  237.49   14.85
   0   3   3    2.77    0.21
   0   3   3    2.45    0.25
   0   3   4    1.87    0.17
   0   3   4    2.12    0.55
   0   3   5  273.28   13.58
   0   3   5  312.79   15.17
   0   3   6   41.19    2.05
   0   3   6   46.64    2.21
   0   3   7   19.91    1.09
   0   3   7   20.16    1.22
   0   3   8   33.14    1.67
   0   3   8   38.72    2.41
   0   3   9   51.02    3.29
   0   3  10    0.30    0.31
   0   4 -12   14.62    1.09
   0   4 -11    6.29    0.59
   0   4 -10    1.37    0.46
   0   4  -9    8.84    0.71
   0   4  -9    9.06    0.58
   0   4  -8  119.35    6.52
   0   4  -8  129.99    5.77
   0   4  -7    0.07    0.18
   0   4  -7    0.32    0.25
   0   4  -6    7.11    0.72
   0   4  -6    7.71    0.40
   0   4  -5    5.22    0.33
   0   4  -5    4.84    0.32
   0   4  -4    4.50    0.27
   0   4  -4    5.05    0.27
   0   4  -3  236.75    9.54
   0   4  -3  245.73   10.32
   0   4  -2   98.28    3.65
   0   4  -2  101.59    3.73
   0   4  -1  231.03   10.16
   0   4  -1  252.43   10.39
   0   4   0   44.91    2.54
   0   4   0   45.19    2.38
   0   4   1  159.91    8.36
   0   4   1  169.11    6.39
   0   4   2   66.83    3.24
   0   4   2   70.14    3.31
   0   4   3   21.67    1.12
   0   4   3   24.58    1.62
   0   4   4    2.91    0.28
   0   4   4    2.60    0.32
   0   4   5   40.01    2.77
   0   4   5   44.27    2.52
   0   4   6    1.70    0.22
   0   4   6    1.41    0.30
   0   4   6    1.61    0.14
   0   4   7    2.91    0.30
   0   4   7    1.90    0.35
   0   4   8   30.28    2.10
   0   4   9   19.75    1.35
   0   4  10    2.02    0.37
   0   5 -11   33.06    2.20
   0   5 -10   21.24    1.52
   0   5  -9   78.06    5.95
   0   5  -9   81.96    3.88
   0   5  -8    0.18    0.20
   0   5  -8    0.51    0.28
   0   5  -7   82.23    4.59
   0   5  -7   83.95    3.62
   0   5  -6    2.07    0.27
   0   5  -6    2.37    0.31
   0   5  -5   20.97    1.05
   0   5  -5   21.01    0.94
   0   5  -5   20.42    1.60
   0   5  -4  256.86    9.81
   0   5  -4  254.20   11.27
   0   5  -3    2.21    0.21
   0   5  -3    2.24    0.20
   0   5  -2  201.30    7.49
   0   5  -2  214.44    8.60
   0   5  -1   23.59    0.97
   0   5  -1   24.55    1.45
   0   5   0   40.91    1.64
   0   5   0   40.72    1.87
   0   5   1  266.53   11.33
   0   5   1  287.52   11.52
   0   5   2    2.66    0.24
   0   5   2    3.79    0.34
   0   5   3    0.52    0.20
   0   5   3    0.81    0.22
   0   5   4   56.20    3.51
   0   5   4   60.61    3.55
   0   5   5    2.39    0.26
   0   5   5    2.79    0.36
   0   5   6   42.18    2.20
   0   5   6   47.18    3.38
   0   5   7    2.79    0.37
   0   5   8    7.39    0.61
   0   5   9   18.90    1.27
   0   6 -11   13.08    1.13
   0   6 -10   50.51    3.16
   0   6  -9    6.87    0.55
   0   6  -8    5.74    0.48
   0   6  -8    5.86    0.46
   0   6  -7    1.00    0.35
   0   6  -7    0.58    0.18
   0   6  -6    7.45    0.48
   0   6  -6    8.93    0.64
   0   6  -5    2.02    1.75
   0   6  -5    1.81    0.23
   0   6  -4   51.42    2.06
   0   6  -4   56.45    2.29
   0   6  -3   60.43    3.66
   0   6  -3   56.50    2.24
   0   6  -2   12.17    0.66
   0   6  -2   13.08    0.63
   0   6  -1   38.89    1.85
   0   6  -1   37.56    1.65
   0   6   0    8.88    0.45
   0   6   0    8.82    0.49
   0   6   1   -0.17    0.40
   0   6   1    0.25    0.16
   0   6   2   43.99    2.22
   0   6   2   48.96    3.26
   0   6   3    3.74    0.32
   0   6   3    3.45    0.52
   0   6   4   34.41    1.72
   0   6   4   37.65    2.42
   0   6   5   51.17    3.66
   0   6   5   49.58    2.67
   0   6   6   52.83    2.74
   0   6   7   38.49    2.47
   0   6   8    3.93    0.48
   0   7 -10    0.38    0.32
   0   7  -9    0.63    0.27
   0   7  -8    0.27    0.19
   0   7  -7  141.23    6.00
   0   7  -7  109.99   12.61
   0   7  -6    1.84    0.34
   0   7  -6    2.06    0.31
   0   7  -5   33.03    1.70
   0   7  -5   35.38    3.62
   0   7  -4   49.64    1.89
   0   7  -4   49.48    2.59
   0   7  -3   18.11    0.76
   0   7  -3   17.55    0.91
   0   7  -2    4.64    0.38
   0   7  -2    4.37    0.61
   0   7  -1    5.73    0.43
   0   7  -1    5.92    0.62
   0   7   0    2.13    0.23
   0   7   0    2.22    0.33
   0   7   1    1.24    0.28
   0   7   1    2.25    0.34
   0   7   2    6.44    0.52
   0   7   2    4.66    0.38
   0   7   3   69.99    4.51
   0   7   3   73.05    4.81
   0   7   4   70.02    3.64
   0   7   5   49.95    3.25
   0   7   6   20.99    1.43
   0   8  -9   18.91    1.47
   0   8  -8  102.11    6.87
   0   8  -7    0.36    0.32
   0   8  -6   67.59    3.47
   0   8  -5    0.60    0.28
   0   8  -4    1.55    0.23
   0   8  -4    2.62    0.70
   0   8  -3    8.52    0.56
   0   8  -3    7.22    0.61
   0   8  -2   48.67    2.20
   0   8  -2   53.79    3.97
   0   8  -1    2.10    0.28
   0   8  -1    0.63    0.50
   0   8   0    5.54    0.51
   0   8   0    5.38    0.83
   0   8   1    9.53    0.53
   0   8   1    9.96    0.90
   0   8   2   28.06    2.00
   0   8   3   43.19    2.62
   0   8   4   93.24    5.23
   0   9  -6   12.30    1.02
   0   9  -5    2.46    0.37
   0   9  -4   45.98    2.88
   0   9  -3   21.54    1.31
   0   9  -2   47.04    3.08
   0   9  -1    0.73    0.25
   0   9   0   16.89    1.12
   0   9   1    7.99    0.62
   0   9   2   16.66    1.20
   1  -9  -2   -0.33    0.32
   1  -9  -1    2.65    0.44
   1  -9   0   15.99    1.16
   1  -9   1    8.81    0.68
   1  -9   2    2.53    0.40
   1  -9   3    5.72    0.54
   1  -9   4    0.71    0.31
   1  -9   5    0.58    0.29
   1  -9   6    2.49    0.60
   1  -8  -4    0.14    0.25
   1  -8  -3   30.94    1.99
   1  -8  -2    1.91    0.35
   1  -8  -1  188.68   11.90
   1  -8   0    5.09    0.43
   1  -8   1   36.76    2.32
   1  -8   1   42.02    2.06
   1  -8   2   31.41    1.80
   1  -8   2   28.83    2.37
   1  -8   3    1.98    0.32
   1  -8   3    1.97    0.63
   1  -8   4    3.82    0.38
   1  -8   5    2.32    0.36
   1  -8   6    2.83    0.40
   1  -8   7    2.05    0.30
   1  -8   8    7.75    0.61
   1  -8   9   25.99    1.63
   1  -7  -6   38.10    2.57
   1  -7  -6   37.22    2.76
   1  -7  -5    0.36    0.20
   1  -7  -4   68.21    4.24
   1  -7  -3    0.20    0.26
   1  -7  -2   89.48    7.06
   1  -7  -2   95.65    5.18
   1  -7  -1   10.97    1.22
   1  -7  -1    9.50    0.60
   1  -7   0   74.32    3.96
   1  -7   0   70.91    3.32
   1  -7   1   -0.40    0.25
   1  -7   1    0.56    0.24
   1  -7   2    6.27    0.43
   1  -7   2    5.68    0.40
   1  -7   2    4.97    0.42
   1  -7   3    1.02    0.27
   1  -7   3    1.46    0.28
   1  -7   4    2.13    0.27
   1  -7   4    3.18    2.73
   1  -7   5    2.21    0.28
   1  -7   5    2.11    0.33
   1  -7   6    1.55    0.29
   1  -7   6    1.45    0.28
   1  -7   7   60.78    3.09
   1  -7   8   39.09    2.42
   1  -7   9   14.73    1.04
   1  -7  10   65.70    4.65
   1  -6  -8   41.25    2.54
   1  -6  -7   85.88    4.67
   1  -6  -7   79.66    5.27
   1  -6  -6   10.92    0.74
   1  -6  -6   10.42    0.80
   1  -6  -5   17.80    1.14
   1  -6  -5   20.24    1.26
   1  -6  -4    8.10    0.96
   1  -6  -4    8.16    0.60
   1  -6  -3   27.95    1.69
   1  -6  -3   27.19    1.51
   1  -6  -2    4.34    0.55
   1  -6  -2    4.21    0.35
   1  -6  -1  156.22    6.94
   1  -6  -1  167.95    6.92
   1  -6   0    7.66    0.45
   1  -6   0    8.25    0.56
   1  -6   1    7.61    0.44
   1  -6   1    8.41    0.69
   1  -6   2   76.79    3.37
   1  -6   2   82.57    3.18
   1  -6   2   77.42    3.00
   1  -6   3   30.89    1.30
   1  -6   3   32.27    1.34
   1  -6   4   18.49    0.85
   1  -6   4   19.68    0.89
   1  -6   5   16.49    0.97
   1  -6   5   16.91    0.96
   1  -6   6   55.48    2.67
   1  -6   6   59.33    3.45
   1  -6   7    1.80    0.27
   1  -6   7    2.31    0.35
   1  -6   8    1.08    0.19
   1  -6   8    0.47    0.27
   1  -6   9   30.52    1.73
   1  -6  10   12.72    0.86
   1  -6  11    0.35    0.38
   1  -5  -9    0.59    0.38
   1  -5  -8   19.07    1.20
   1  -5  -7   51.17    2.22
   1  -5  -6    7.74    0.52
   1  -5  -6    7.20    0.54
   1  -5  -6    6.56    0.40
   1  -5  -5  174.11   11.47
   1  -5  -5  175.47   10.37
   1  -5  -4   19.78    1.42
   1  -5  -4   21.40    1.23
   1  -5  -3    3.99    0.30
   1  -5  -3    4.95    0.50
   1  -5  -2    0.53    0.14
   1  -5  -2    0.65    0.21
   1  -5  -1    3.92    0.29
   1  -5  -1    4.53    0.30
   1  -5   0    1.59    0.20
   1  -5   0    1.67    0.20
   1  -5   1    8.56    0.38
   1  -5   1    8.25    0.43
   1  -5   2  136.09    5.85
   1  -5   2  132.84    5.27
   1  -5   3  242.63    9.09
   1  -5   3  254.24    9.12
   1  -5   4    0.33    0.21
   1  -5   4    0.53    0.17
   1  -5   5  166.80    9.89
   1  -5   5  193.07    6.63
   1  -5   6   31.85    1.34
   1  -5   6   32.90    1.39
   1  -5   7   30.78    1.50
   1  -5   7   35.31    1.85
   1  -5   8   65.74    2.77
   1  -5   8   78.71    4.91
   1  -5   9   12.35    0.86
   1  -5   9   10.97    1.02
   1  -5  10    1.16    0.43
   1  -4 -10   34.88    2.16
   1  -4  -9   89.32    4.83
   1  -4  -9   93.45    7.65
   1  -4  -8   48.25    2.33
   1  -4  -8   46.43    2.92
   1  -4  -7    0.05    0.27
   1  -4  -7    0.48    0.17
   1  -4  -7    0.18    0.06
   1  -4  -6   33.10    1.80
   1  -4  -6   32.81    1.73
   1  -4  -5    6.39    0.49
   1  -4  -5    7.39    0.65
   1  -4  -4    2.79    0.31
   1  -4  -4    3.67    0.32
   1  -4  -3    9.84    0.46
   1  -4  -3   11.22    0.62
   1  -4  -2  133.37    7.32
   1  -4  -2  136.42    6.96
   1  -4  -1    1.36    0.18
   1  -4  -1    1.52    0.19
   1  -4   0   67.56    2.62
   1  -4   0   69.98    3.04
   1  -4   1  514.06   20.52
   1  -4   1  500.66   21.19
   1  -4   2    7.27    0.35
   1  -4   2    6.83    0.36
   1  -4   3  120.22    5.79
   1  -4   3  129.26    5.20
   1  -4   4  229.81   10.88
   1  -4   4  262.91   10.15
   1  -4   5   64.33    3.93
   1  -4   5   68.87    2.98
   1  -4   6   25.42    1.16
   1  -4   6   29.70    1.28
   1  -4   7   28.25    1.82
   1  -4   7   32.31    1.66
   1  -4   8   26.92    1.36
   1  -4   8   33.82    1.73
   1  -4   9   21.26    1.02
   1  -4   9   24.02    1.70
   1  -4  10    9.44    0.58
   1  -4  11   28.29    1.69
   1  -4  12   31.95    2.10
   1  -3 -10   85.01    4.92
   1  -3  -9   26.45    1.28
   1  -3  -8   51.42    3.20
   1  -3  -8   53.53    2.45
   1  -3  -7    0.68    0.25
   1  -3  -7    0.48    0.23
   1  -3  -6   72.26    3.73
   1  -3  -6   73.60    3.97
   1  -3  -5  109.32    7.03
   1  -3  -5  126.94    7.03
   1  -3  -5  118.95    6.73
   1  -3  -4   17.21    0.87
   1  -3  -4   18.57    1.04
   1  -3  -4   18.01    1.00
   1  -3  -3   41.49    1.79
   1  -3  -3   45.72    2.39
   1  -3  -2   94.42    4.42
   1  -3  -2   88.29    3.84
   1  -3  -1   43.81    1.99
   1  -3  -1   44.34    1.93
   1  -3   0  344.67   14.30
   1  -3   0  321.20   12.94
   1  -3   1  255.49   11.34
   1  -3   1  242.16   11.19
   1  -3   2  366.35   16.09
   1  -3   2  422.58   18.72
   1  -3   3   40.43    1.72
   1  -3   3   42.92    1.76
   1  -3   4   80.46    3.97
   1  -3   4   90.09    5.48
   1  -3   5   86.47    4.71
   1  -3   5  100.01    4.36
   1  -3   6   28.76    1.26
   1  -3   6   32.69    1.45
   1  -3   7   44.61    1.93
   1  -3   7   52.10    2.73
   1  -3   8   18.98    0.94
   1  -3   8   22.26    1.28
   1  -3   9    6.36    0.45
   1  -3   9    7.78    0.66
   1  -3  10   -0.22    0.22
   1  -3  10   -0.40    0.34
   1  -3  11   77.38    4.72
   1  -3  12   14.71    1.20
   1  -2 -11   45.03    2.87
   1  -2 -10   25.53    1.30
   1  -2  -9   34.95    1.59
   1  -2  -8   34.65    1.93
   1  -2  -8   36.80    1.72
   1  -2  -7   10.86    0.63
   1  -2  -7   11.63    0.63
   1  -2  -6  264.53   16.64
   1  -2  -6  299.26   17.98
   1  -2  -5   38.69    2.29
   1  -2  -5   46.08    2.32
   1  -2  -4  331.73   17.84
   1  -2  -4  353.10   17.79
   1  -2  -3    9.42    0.52
   1  -2  -3    8.03    0.41
   1  -2  -3    8.90    0.46
   1  -2  -2   34.79    1.53
   1  -2  -2   37.41    1.71
   1  -2  -2   37.90    2.16
   1  -2  -1  185.57    8.47
   1  -2  -1  195.18   10.18
   1  -2   1  320.84   12.64
   1  -2   1  330.35   21.12
   1  -2   2   80.77    5.03
   1  -2   2   79.78    3.73
   1  -2   3   34.58    1.88
   1  -2   3   39.13    2.17
   1  -2   4   34.53    1.69
   1  -2   4   42.39    2.81
   1  -2   5   22.22    1.12
   1  -2   5   25.88    1.21
   1  -2   6  182.61   11.50
   1  -2   6  223.30   13.75
   1  -2   7  112.24    5.00
   1  -2   7  132.14    8.13
   1  -2   8  159.31    7.44
   1  -2   8  204.20   13.64
   1  -2   9   14.07    0.75
   1  -2   9   15.11    1.18
   1  -2  10   16.34    0.98
   1  -2  10   16.52    1.59
   1  -2  11   13.15    1.04
   1  -2  12   16.17    1.23
   1  -1 -11    8.26    0.62
   1  -1 -10    4.44    0.41
   1  -1  -9    2.61    0.39
   1  -1  -9    3.76    0.30
   1  -1  -8   90.71    5.19
   1  -1  -8  105.38    5.83
   1  -1  -7   22.07    1.12
   1  -1  -7   23.34    1.26
   1  -1  -6   35.19    1.81
   1  -1  -6   37.96    2.17
   1  -1  -5  127.89    7.03
   1  -1  -5  142.20    8.91
   1  -1  -4  112.31    5.87
   1  -1  -4  122.57    7.01
   1  -1  -3   34.92    1.50
   1  -1  -3   39.35    2.00
   1  -1  -3   33.76    2.62
   1  -1  -2  118.35    5.57
   1  -1  -2  134.97    6.97
   1  -1  -2  126.63    8.08
   1  -1  -2  128.60    8.12
   1  -1  -1   19.32    0.86
   1  -1  -1   20.75    1.15
   1  -1  -1   21.91    1.22
   1  -1   0    2.92    0.16
   1  -1   0    3.13    0.17
   1  -1   0    3.17    0.16
   1  -1   1   12.93    0.71
   1  -1   1   14.29    0.68
   1  -1   2  489.11   27.84
   1  -1   2  568.33   29.90
   1  -1   4    1.36    0.29
   1  -1   4    2.04    0.15
   1  -1   5   37.76    1.66
   1  -1   5   45.23    2.09
   1  -1   6  254.44   11.98
   1  -1   6  319.72   20.90
   1  -1   7   20.60    0.89
   1  -1   7   24.16    1.28
   1  -1   8    6.40    2.95
   1  -1   8    6.66    0.55
   1  -1   9    0.24    0.17
   1  -1   9    0.34    0.17
   1  -1  10   -0.03    0.34
   1  -1  11    2.90    0.36
   1  -1  12   15.31    1.30
   1   0 -12    0.70    0.27
   1   0 -11   11.07    0.72
   1   0 -10   30.34    1.91
   1   0 -10   34.06    1.77
   1   0  -9  138.59    7.11
   1   0  -9  145.04    6.39
   1   0  -8    1.46    0.23
   1   0  -8    1.76    0.24
   1   0  -7  309.87   20.38
   1   0  -7  323.15   19.20
   1   0  -6    4.40    0.31
   1   0  -6    5.48    0.38
   1   0  -5   19.77    1.06
   1   0  -5   21.84    1.32
   1   0  -4   91.18    4.77
   1   0  -4  106.58    5.81
   1   0  -3   63.20    3.06
   1   0  -3   74.96    4.32
   1   0  -2  234.84   11.60
   1   0  -2  252.92   14.33
   1   0  -2  251.76   18.00
   1   0  -1  233.82   11.14
   1   0  -1  252.92   14.72
   1   0  -1  260.77   12.67
   1   0   1  200.28   10.90
   1   0   1  205.85   11.95
   1   0   1  214.20   14.25
   1   0   1  209.24   11.22
   1   0   4 1115.06   66.98
   1   0   5  119.86    6.49
   1   0   5  139.52    6.60
   1   0   6   49.81    2.65
   1   0   7    2.74    0.27
   1   0   7    3.30    0.32
   1   0   8    3.10    0.31
   1   0   8    3.25    0.33
   1   0   8    3.52    0.21
   1   0   9    2.94    0.33
   1   0   9    3.44    0.37
   1   0   9    3.13    0.22
   1   0  10    4.27    0.44
   1   0  10    4.15    0.79
   1   0  10    4.24    0.31
   1   0  11    1.94    0.31
   1   0  11    1.56    0.15
   1   0  12   36.01    2.92
   1   1 -12    1.36    0.37
   1   1 -11   10.84    0.67
   1   1 -10    2.34    0.36
   1   1 -10    3.44    0.39
   1   1  -9  204.41   11.73
   1   1  -9  222.62    9.77
   1   1  -8  102.34    5.11
   1   1  -8  110.83    5.29
   1   1  -7    0.24    0.12
   1   1  -7    0.34    0.13
   1   1  -6   10.84    0.53
   1   1  -6   11.21    0.63
   1   1  -5  159.29    8.60
   1   1  -4   14.21    2.04
   1   1  -4   16.59    2.14
   1   1  -3  280.84   14.73
   1   1  -3  296.96   15.98
   1   1  -2    6.79    0.33
   1   1  -2    6.95    0.35
   1   1   0  196.54   11.11
   1   1   0  209.83   10.90
   1   1   0  219.35   13.14
   1   1   0  229.83   10.89
   1   1   1  149.86    8.66
   1   1   1  175.84    9.34
   1   1   1  170.96    9.17
   1   1   1  184.51   10.20
   1   1   2  333.14   18.45
   1   1   2  318.58   21.28
   1   1   3   67.21    7.78
   1   1   3   78.81    9.62
   1   1   3   68.89    6.34
   1   1   3   68.02    9.34
   1   1   4   38.57    1.85
   1   1   4   48.66    3.00
   1   1   4   43.78    2.28
   1   1   4   43.29    2.72
   1   1   5   35.01    1.51
   1   1   5   39.23    1.94
   1   1   5   36.39    2.43
   1   1   6   -0.13    0.16
   1   1   6    0.10    0.06
   1   1   7    1.11    0.17
   1   1   7    1.52    0.29
   1   1   7    1.13    0.10
   1   1   8   49.10    2.40
   1   1   8   64.24    4.34
   1   1   8   51.92    3.33
   1   1   9   45.93    2.58
   1   1   9   47.01    3.49
   1   1  10    5.28    0.55
   1   1  11    8.05    0.66
   1   2 -12  101.57    5.46
   1   2 -11    7.00    0.44
   1   2 -10    6.33    0.46
   1   2 -10    5.32    0.45
   1   2  -9    1.46    0.23
   1   2  -9    1.45    0.23
   1   2  -8   10.50    0.58
   1   2  -8   11.27    0.55
   1   2  -7   -0.05    0.22
   1   2  -7   -0.13    0.10
   1   2  -6  175.06    8.69
   1   2  -6  182.14    9.67
   1   2  -5    4.69    0.30
   1   2  -5    5.56    0.34
   1   2  -4  112.70    6.05
   1   2  -4  112.81    5.43
   1   2  -3   14.49    0.78
   1   2  -3   16.21    0.78
   1   2  -2   34.49    1.86
   1   2  -2   35.83    1.91
   1   2  -1    0.28    0.17
   1   2  -1    0.15    0.18
   1   2   0  156.70    8.23
   1   2   0  156.29    7.33
   1   2   1  193.53   11.46
   1   2   1  209.09   10.43
   1   2   1  213.97   13.31
   1   2   2   92.67    5.23
   1   2   2  103.18    4.78
   1   2   2   96.09    4.82
   1   2   3    1.42    0.14
   1   2   3    2.03    0.15
   1   2   4   37.98    2.07
   1   2   4   44.76    2.18
   1   2   4   38.32    1.79
   1   2   5    6.41    0.34
   1   2   5    7.25    0.41
   1   2   5    6.65    0.35
   1   2   6   20.73    0.96
   1   2   6   21.57    1.29
   1   2   7   33.07    1.53
   1   2   7   41.00    2.44
   1   2   8    3.84    0.34
   1   2   8    4.11    0.40
   1   2   9   34.39    1.65
   1   2   9   36.98    3.08
   1   2  10    2.05    0.35
   1   2  11   66.05    4.54
   1   3 -12    7.90    0.74
   1   3 -11    0.55    0.24
   1   3 -10    3.28    0.35
   1   3 -10    3.65    0.32
   1   3  -9    0.99    0.29
   1   3  -9    0.01    0.18
   1   3  -8    0.07    0.15
   1   3  -8    1.30    2.18
   1   3  -7   -0.04    0.17
   1   3  -6  141.19    6.31
   1   3  -6  141.14    6.01
   1   3  -5  110.89    5.33
   1   3  -5  118.36    4.77
   1   3  -4   93.45    4.58
   1   3  -4   97.44    4.92
   1   3  -3  364.52   16.15
   1   3  -3  362.42   16.56
   1   3  -2  108.72    5.16
   1   3  -2  107.23    4.64
   1   3  -1    2.19    0.15
   1   3  -1    2.46    0.18
   1   3   0    1.96    0.14
   1   3   0    1.99    0.15
   1   3   1  317.14   14.83
   1   3   1  339.44   14.01
   1   3   1  365.39   16.51
   1   3   2   19.88    0.98
   1   3   2   20.85    0.93
   1   3   2   20.96    1.00
   1   3   3   26.60    1.38
   1   3   3   28.85    1.35
   1   3   4    4.74    0.29
   1   3   4    4.59    0.32
   1   3   5   53.70    2.71
   1   3   5   55.68    2.69
   1   3   5   50.45    3.10
   1   3   6   11.22    0.59
   1   3   6   12.04    0.78
   1   3   6   10.60    0.70
   1   3   7    8.02    0.59
   1   3   7    9.79    0.59
   1   3   8  101.42    5.56
   1   3   8  118.73    9.12
   1   3   9    0.37    0.18
   1   3  10    4.47    0.46
   1   4 -12    0.00    0.29
   1   4 -11   -0.22    0.16
   1   4 -10   30.41    1.53
   1   4  -9    0.19    0.29
   1   4  -9    1.25    0.27
   1   4  -8   22.58    1.30
   1   4  -8   25.35    1.23
   1   4  -7    7.51    0.55
   1   4  -7    9.45    0.50
   1   4  -6    9.78    0.60
   1   4  -6    9.25    0.46
   1   4  -5   30.41    1.65
   1   4  -5   33.50    1.34
   1   4  -4   67.21    2.98
   1   4  -4   62.71    2.80
   1   4  -3   65.37    2.67
   1   4  -3   70.65    3.60
   1   4  -2   21.07    0.85
   1   4  -2   20.80    1.05
   1   4  -1  127.25    5.22
   1   4  -1  136.51    6.25
   1   4   0   68.54    3.00
   1   4   0   74.79    3.20
   1   4   1   64.75    3.17
   1   4   1   75.03    2.91
   1   4   1   73.71    3.42
   1   4   2    1.19    0.19
   1   4   2    1.41    0.22
   1   4   2    1.57    0.10
   1   4   3   15.78    0.87
   1   4   3   15.97    0.71
   1   4   4   77.80    4.06
   1   4   4   91.16    5.22
   1   4   5    4.23    0.27
   1   4   5    4.02    0.36
   1   4   6   55.67    2.74
   1   4   6   58.02    3.38
   1   4   7  154.61    8.86
   1   4   7  173.70   12.13
   1   4   8    1.33    0.24
   1   4   9    2.19    0.36
   1   5 -11    8.78    0.72
   1   5 -10    1.88    0.31
   1   5  -9   46.59    3.14
   1   5  -9   47.61    2.40
   1   5  -8   18.26    1.19
   1   5  -8   16.85    0.96
   1   5  -7   76.08    3.93
   1   5  -7   75.11    3.28
   1   5  -6  114.91    6.31
   1   5  -6  106.06    4.15
   1   5  -5   76.51    3.74
   1   5  -5   74.42    4.15
   1   5  -4   43.14    2.20
   1   5  -4   42.51    1.77
   1   5  -3    2.16    0.20
   1   5  -3    2.31    0.20
   1   5  -2   10.15    0.57
   1   5  -2    9.61    0.59
   1   5  -1   90.80    3.53
   1   5  -1   99.63    3.99
   1   5   0  163.99    7.13
   1   5   0  173.41    7.40
   1   5   1   11.64    0.63
   1   5   1   12.20    0.64
   1   5   1   11.98    0.84
   1   5   2   10.27    0.58
   1   5   2   10.65    0.63
   1   5   2   11.23    0.74
   1   5   3   29.19    1.41
   1   5   3   32.55    1.99
   1   5   4   40.38    2.09
   1   5   4   43.80    2.34
   1   5   5   43.38    2.89
   1   5   5   49.63    3.27
   1   5   6   14.10    0.77
   1   5   6   14.86    1.17
   1   5   7   14.88    0.84
   1   5   7   14.87    1.50
   1   5   8    2.27    0.33
   1   6 -11    3.40    0.43
   1   6 -10   15.80    1.12
   1   6  -9   20.59    1.22
   1   6  -8  264.44   16.22
   1   6  -8  276.97   12.15
   1   6  -7   35.82    2.37
   1   6  -7   39.68    2.14
   1   6  -7   35.04    2.44
   1   6  -6   42.23    2.63
   1   6  -6   43.75    2.59
   1   6  -5    8.81    0.56
   1   6  -5    8.70    0.57
   1   6  -4    5.93    0.35
   1   6  -4    5.46    0.39
   1   6  -3   48.11    1.82
   1   6  -3   52.90    2.75
   1   6  -2   38.88    1.44
   1   6  -2   40.54    1.96
   1   6  -1   84.53    3.69
   1   6  -1   91.62    3.61
   1   6   0   38.00    1.72
   1   6   0   42.13    2.20
   1   6   1    0.43    0.16
   1   6   1    0.44    0.17
   1   6   1    0.30    0.09
   1   6   2   44.55    2.41
   1   6   2   49.80    2.94
   1   6   2   50.61    2.79
   1   6   3    3.36    0.39
   1   6   3    3.11    0.34
   1   6   4    3.00    0.35
   1   6   4    3.47    0.59
   1   6   5   11.08    0.69
   1   6   5   10.32    0.80
   1   6   6   21.29    1.29
   1   6   7   14.64    0.95
   1   6   7   13.06    1.26
   1   7 -10   -0.20    0.22
   1   7  -9    6.60    0.63
   1   7  -8   15.28    1.04
   1   7  -7    4.16    0.38
   1   7  -7    3.16    0.62
   1   7  -6   15.69    0.76
   1   7  -6   14.56    1.28
   1   7  -5   30.65    1.49
   1   7  -5   32.04    1.69
   1   7  -4   37.83    1.70
   1   7  -4   40.07    2.56
   1   7  -3  184.31    7.65
   1   7  -3  197.40   10.07
   1   7  -2  138.76    5.50
   1   7  -2  156.89    6.58
   1   7  -1    3.80    0.34
   1   7  -1    3.41    0.37
   1   7   0   65.47    2.83
   1   7   0   69.66    4.15
   1   7   1    0.10    0.16
   1   7   1    1.18    0.52
   1   7   1    0.58    0.20
   1   7   2    0.21    0.22
   1   7   2   -0.13    0.17
   1   7   2   -0.06    0.09
   1   7   3    2.50    0.30
   1   7   3    2.26    0.36
   1   7   4    4.53    0.43
   1   7   5   67.15    5.43
   1   7   6   32.62    2.04
   1   8  -8   26.96    2.32
   1   8  -7    1.41    0.28
   1   8  -6   26.70    1.70
   1   8  -5   37.53    2.33
   1   8  -4   65.71    3.59
   1   8  -4   61.44    5.38
   1   8  -3   28.93    1.48
   1   8  -3   28.14    2.39
   1   8  -2    0.49    0.23
   1   8  -2    0.33    0.28
   1   8  -1   37.88    2.08
   1   8  -1   34.73    2.27
   1   8   0   15.53    0.84
   1   8   0   14.37    1.40
   1   8   0   16.21    1.17
   1   8   1    0.16    0.28
   1   8   1    0.08    0.10
   1   8   2    9.73    1.40
   1   8   3    0.56    0.30
   1   8   4   43.94    2.75
   1   9  -6   31.86    2.34
   1   9  -5   11.45    0.83
   1   9  -4   19.39    1.35
   1   9  -3   83.47    5.09
   1   9  -2    4.80    0.47
   1   9  -1   13.69    1.00
   1   9   0    3.50    0.44
   1   9   1    3.35    0.47
   2  -9  -2   15.81    1.34
   2  -9  -1    0.31    0.34
   2  -9   0    2.49    0.44
   2  -9   1    5.97    0.50
   2  -9   2    1.94    0.38
   2  -9   3    2.59    0.42
   2  -9   4    7.18    0.71
   2  -9   5    2.49    0.35
   2  -9   6    7.62    0.80
   2  -8  -4   19.25    1.34
   2  -8  -3    1.31    0.31
   2  -8  -2    1.64    0.43
   2  -8  -1    0.02    0.17
   2  -8   0    9.26    0.65
   2  -8   1   25.81    1.43
   2  -8   2   25.71    1.59
   2  -8   3   11.11    0.75
   2  -8   4    0.66    0.30
   2  -8   5    3.26    0.39
   2  -8   6    2.79    0.40
   2  -8   7   20.69    1.39
   2  -8   8    1.09    0.30
   2  -7  -6   35.96    2.36
   2  -7  -5   76.26    4.91
   2  -7  -4   30.51    2.11
   2  -7  -3    0.98    0.47
   2  -7  -3    1.49    0.35
   2  -7  -2   66.13    5.28
   2  -7  -2   67.70    3.81
   2  -7  -1  146.15    9.13
   2  -7  -1  156.64    7.51
   2  -7   0   47.53    2.54
   2  -7   0   49.95    2.24
   2  -7   1   76.46    4.36
   2  -7   1   77.77    3.41
   2  -7   2   86.44    3.73
   2  -7   2   86.87    5.05
   2  -7   3  101.02    4.39
   2  -7   3  106.93    5.66
   2  -7   4   29.00    1.23
   2  -7   4   31.25    1.89
   2  -7   5   37.25    2.13
   2  -7   5   40.51    2.66
   2  -7   6    3.17    0.37
   2  -7   6    2.79    0.42
   2  -7   7    0.91    0.29
   2  -7   8    3.74    0.40
   2  -7   9   11.06    0.77
   2  -7  10   29.53    2.16
   2  -6  -8   25.85    1.58
   2  -6  -7    4.12    0.40
   2  -6  -7    3.54    0.31
   2  -6  -6   31.09    1.60
   2  -6  -5    1.24    0.43
   2  -6  -5    2.21    0.43
   2  -6  -4   79.27    5.09
   2  -6  -4   87.69    5.54
   2  -6  -3  109.34    5.90
   2  -6  -3  113.17    6.19
   2  -6  -2    6.78    0.69
   2  -6  -2    6.28    0.40
   2  -6  -1   68.36    3.30
   2  -6  -1   69.43    3.21
   2  -6   0   32.12    1.48
   2  -6   0   31.30    1.48
   2  -6   1   28.26    1.19
   2  -6   1   27.21    1.11
   2  -6   2   41.24    1.81
   2  -6   2   40.36    1.72
   2  -6   3    4.34    0.35
   2  -6   3    5.31    0.40
   2  -6   4   11.02    0.58
   2  -6   4   11.23    0.67
   2  -6   5    6.26    0.42
   2  -6   5    5.26    0.45
   2  -6   6   -0.15    0.15
   2  -6   6   -0.02    0.21
   2  -6   7   38.28    2.40
   2  -6   7   42.98    3.20
   2  -6   8   40.59    1.98
   2  -6   8   34.09    2.64
   2  -6   9   38.36    2.58
   2  -6  10    2.82    0.36
   2  -5  -9   22.31    1.47
   2  -5  -8    1.20    0.33
   2  -5  -7   17.08    0.97
   2  -5  -6   -0.06    0.21
   2  -5  -6   -0.08    0.25
   2  -5  -6    0.05    0.10
   2  -5  -5    0.61    0.23
   2  -5  -5    1.08    0.29
   2  -5  -4  119.13    6.86
   2  -5  -4  132.32    7.18
   2  -5  -3   56.05    2.94
   2  -5  -3   59.75    2.95
   2  -5  -2  216.07    9.22
   2  -5  -2  219.38    9.59
   2  -5  -1    0.60    0.15
   2  -5  -1    0.43    0.21
   2  -5   0  112.05    5.02
   2  -5   0  114.34    4.57
   2  -5   1   33.70    1.38
   2  -5   1   32.97    1.59
   2  -5   2   44.74    1.77
   2  -5   2   42.14    1.59
   2  -5   3    0.01    0.21
   2  -5   3    0.31    0.22
   2  -5   4   65.69    2.77
   2  -5   4   66.08    2.65
   2  -5   5   24.95    1.11
   2  -5   5   28.86    1.31
   2  -5   6   21.49    3.92
   2  -5   6   19.24    1.21
   2  -5   7  257.75   12.10
   2  -5   7  295.71   16.69
   2  -5   8   71.72    4.57
   2  -5   8   82.23    4.99
   2  -5   9    0.38    0.20
   2  -5   9    1.08    0.59
   2  -5  10    4.34    0.46
   2  -5  11   10.03    0.79
   2  -4 -10    7.36    0.69
   2  -4  -9    0.91    0.16
   2  -4  -8   27.85    1.32
   2  -4  -8   29.45    1.94
   2  -4  -7    0.44    0.21
   2  -4  -7    0.73    0.25
   2  -4  -7    0.93    0.12
   2  -4  -6  425.03   23.13
   2  -4  -6  475.76   27.52
   2  -4  -5   19.37    1.05
   2  -4  -5   22.27    1.31
   2  -4  -5   20.51    1.02
   2  -4  -4   60.86    3.18
   2  -4  -4   65.32    3.70
   2  -4  -3   37.47    1.65
   2  -4  -3   40.32    2.12
   2  -4  -2   18.32    0.96
   2  -4  -2   20.27    1.04
   2  -4  -1   11.89    0.54
   2  -4  -1   13.63    0.64
   2  -4   0   33.55    1.60
   2  -4   0   36.03    1.66
   2  -4   1   24.13    0.90
   2  -4   1   23.72    1.05
   2  -4   2   80.15    3.55
   2  -4   2   73.77    2.89
   2  -4   3    3.10    0.24
   2  -4   3    3.22    0.19
   2  -4   4  563.93   32.48
   2  -4   4  580.14   22.71
   2  -4   5   65.11    3.09
   2  -4   5   65.33    2.57
   2  -4   6  180.85   12.25
   2  -4   6  205.98    9.11
   2  -4   7   35.39    2.10
   2  -4   8  195.52   10.01
   2  -4   8  217.96   14.51
   2  -4   9   16.09    0.84
   2  -4   9   17.49    1.31
   2  -4  10    2.01    0.33
   2  -4  11   20.30    1.55
   2  -3 -10   14.71    0.98
   2  -3  -9   43.28    2.26
   2  -3  -8   21.70    1.47
   2  -3  -8   27.68    1.56
   2  -3  -8   27.93    1.44
   2  -3  -7   42.99    2.55
   2  -3  -7   46.02    2.22
   2  -3  -7   48.95    3.01
   2  -3  -6   13.93    0.83
   2  -3  -6   13.60    0.72
   2  -3  -6   12.51    0.81
   2  -3  -6   15.08    0.83
   2  -3  -5   20.47    1.15
   2  -3  -5   21.91    1.21
   2  -3  -5   20.52    1.31
   2  -3  -5   22.54    1.02
   2  -3  -4   10.43    0.49
   2  -3  -4   11.53    0.66
   2  -3  -4   11.23    0.64
   2  -3  -3   16.70    0.87
   2  -3  -3   19.70    1.18
   2  -3  -3   19.87    1.10
   2  -3  -2  148.70    6.54
   2  -3  -2  153.96    7.81
   2  -3  -2  158.34    9.69
   2  -3  -1  445.75   24.56
   2  -3  -1  482.87   24.30
   2  -3   0   15.78    0.81
   2  -3   0   13.90    0.65
   2  -3   1   27.83    1.16
   2  -3   1   27.07    1.31
   2  -3   2  106.90    4.62
   2  -3   2  109.66    4.61
   2  -3   3   43.33    2.29
   2  -3   3   46.28    2.08
   2  -3   4   31.65    1.51
   2  -3   4   31.36    1.24
   2  -3   5   62.14    2.88
   2  -3   5   75.13    3.33
   2  -3   6   62.75    2.78
   2  -3   6   69.94    3.05
   2  -3   7    0.58    0.20
   2  -3   7    0.71    0.53
   2  -3   8   42.13    1.67
   2  -3   8   51.65    3.43
   2  -3   9   83.21    4.45
   2  -3   9   94.00    6.97
   2  -3  11   18.79    1.29
   2  -2 -11   96.33    6.57
   2  -2 -10   12.14    0.85
   2  -2  -9  232.33   14.71
   2  -2  -9  252.48   12.13
   2  -2  -8   10.15    0.73
   2  -2  -8   10.62    0.63
   2  -2  -7  189.03   10.89
   2  -2  -7  190.38   12.12
   2  -2  -6    0.81    0.20
   2  -2  -6    0.51    0.06
   2  -2  -5   15.82    0.88
   2  -2  -5   18.01    0.93
   2  -2  -5   16.15    1.07
   2  -2  -5   19.16    0.77
   2  -2  -4    9.63    0.55
   2  -2  -4   10.73    0.60
   2  -2  -4    9.52    0.61
   2  -2  -4   10.61    0.54
   2  -2  -3   61.07    2.66
   2  -2  -3   67.09    3.57
   2  -2  -3   65.00    4.06
   2  -2  -3   68.39    3.41
   2  -2  -2  534.46   32.03
   2  -2  -2  566.47   27.58
   2  -2  -2  644.10   37.32
   2  -2  -1  565.21   31.29
   2  -2  -1  678.07   36.55
   2  -2  -1  706.29   44.37
   2  -2   0  133.72    5.90
   2  -2   0  148.56    8.59
   2  -2   1  100.80    4.59
   2  -2   1  103.00    4.51
   2  -2   2   49.91    2.51
   2  -2   2   45.82    2.50
   2  -2   3  126.13    6.44
   2  -2   3  133.46    7.33
   2  -2   4   61.64    2.94
   2  -2   5   58.01    2.59
   2  -2   5   67.14    3.43
   2  -2   6   45.12    2.04
   2  -2   6   53.09    2.62
   2  -2   7   41.21    2.27
   2  -2   7   48.66    2.69
   2  -2   8   31.40    1.89
   2  -2   8   38.89    2.19
   2  -2   9    0.52    0.23
   2  -2   9    0.99    0.22
   2  -2  10   18.53    0.95
   2  -2  10   17.21    1.75
   2  -2  11   12.29    1.12
   2  -2  12   18.31    1.36
   2  -1 -11   20.78    1.45
   2  -1 -10    1.50    0.32
   2  -1  -9   -0.04    0.16
   2  -1  -8   53.64    3.04
   2  -1  -8   58.38    2.96
   2  -1  -7   18.74    1.24
   2  -1  -7   22.95    1.16
   2  -1  -6    6.15    0.38
   2  -1  -6    5.96    0.34
   2  -1  -5  122.99    6.92
   2  -1  -5  111.47    7.31
   2  -1  -5  111.14    7.60
   2  -1  -4  379.51   19.55
   2  -1  -4  423.51   23.37
   2  -1  -4  382.04   22.06
   2  -1  -4  412.44   25.73
   2  -1  -3    0.44    0.08
   2  -1  -3    0.45    0.11
   2  -1  -3    0.68    0.09
   2  -1  -3    0.40    0.06
   2  -1  -3    0.47    0.09
   2  -1  -2   30.17    1.56
   2  -1  -2   29.01    1.91
   2  -1  -2   32.58    2.04
   2  -1  -2   35.50    1.55
   2  -1   0   59.34    2.82
   2  -1   0   59.23    3.58
   2  -1   0   60.61    3.82
   2  -1   0   70.32    3.25
   2  -1   1  112.09    5.59
   2  -1   1  111.04    6.09
   2  -1   1  116.62    6.68
   2  -1   2  284.80   15.80
   2  -1   2  314.42   16.08
   2  -1   3    1.67    0.12
   2  -1   3    1.83    0.15
   2  -1   4  259.43   12.79
   2  -1   4  315.20   18.35
   2  -1   5   47.40    2.25
   2  -1   5   51.96    2.53
   2  -1   6  345.89   16.07
   2  -1   6  384.24   18.24
   2  -1   7   30.83    1.70
   2  -1   7   37.60    2.16
   2  -1   8   16.00    0.98
   2  -1   8   18.58    1.39
   2  -1   9  100.26    7.12
   2  -1  10    4.63    0.39
   2  -1  10    3.85    0.52
   2  -1  10    4.91    0.41
   2  -1  11    0.07    0.27
   2   0 -12   10.16    0.79
   2   0 -11    1.56    0.36
   2   0 -11    1.05    0.13
   2   0 -10    8.29    0.68
   2   0 -10   10.67    0.71
   2   0  -9    1.33    0.24
   2   0  -9    0.64    0.21
   2   0  -8    0.87    0.34
   2   0  -8   -0.01    0.13
   2   0  -7   75.00    4.18
   2   0  -7   85.30    4.33
   2   0  -6    0.85    0.13
   2   0  -6    1.14    0.15
   2   0  -5   54.38    2.97
   2   0  -5   60.47    3.55
   2   0  -4   83.03    4.54
   2   0  -4   94.51    5.50
   2   0  -4   83.80    3.82
   2   0  -3   21.61    1.01
   2   0  -3   24.17    1.27
   2   0  -3   21.57    1.21
   2   0  -2   63.52    3.06
   2   0  -2   74.54    4.22
   2   0  -2   70.60    3.89
   2   0  -2   77.08    3.43
   2   0  -1    1.61    0.09
   2   0  -1    1.35    0.07
   2   0  -1    1.13    0.12
   2   0  -1    1.36    0.11
   2   0   0   62.78    3.27
   2   0   0   65.40    3.46
   2   0   0   69.65    3.82
   2   0   1   24.71    1.36
   2   0   1   25.89    1.50
   2   0   1   27.68    1.27
   2   0   1   28.91    1.61
   2   0   1   27.08    1.21
   2   0   2  262.30   17.54
   2   0   2  267.91   14.21
   2   0   2  275.45   16.16
   2   0   2  292.56   17.05
   2   0   3  327.54   18.61
   2   0   3  404.30   19.10
   2   0   3  369.23   20.72
   2   0   4   10.97    0.58
   2   0   4   13.12    0.58
   2   0   4   13.88    0.74
   2   0   5  531.23   25.23
   2   0   5  619.38   27.60
   2   0   6    2.98    0.34
   2   0   6    2.86    0.31
   2   0   6    2.98    0.26
   2   0   7  149.31    7.12
   2   0   7  174.84   11.28
   2   0   7  169.19   10.22
   2   0   8    0.72    0.27
   2   0   8    0.50    0.20
   2   0   8    0.51    0.13
   2   0   9    0.30    0.17
   2   0   9    0.94    0.50
   2   0   9    0.21    0.12
   2   0  10    0.98    0.21
   2   0  10    0.86    0.17
   2   0  11    0.12    0.23
   2   1 -12    4.25    0.55
   2   1 -11    1.68    0.29
   2   1 -10  130.85    7.62
   2   1 -10  145.99    7.20
   2   1  -9    1.74    0.30
   2   1  -9    2.36    0.29
   2   1  -8   36.37    2.66
   2   1  -8   37.88    1.79
   2   1  -7    3.70    0.31
   2   1  -7    3.90    0.42
   2   1  -6   63.85    3.64
   2   1  -6   68.73    3.36
   2   1  -5    6.04    0.40
   2   1  -5    7.73    0.59
   2   1  -4   45.58    2.48
   2   1  -4   50.98    2.70
   2   1  -3  444.59   24.21
   2   1  -3  482.45   27.52
   2   1  -3  486.46   23.29
   2   1  -2   44.83    2.58
   2   1  -2   50.35    2.39
   2   1  -2   48.49    2.57
   2   1  -1  257.38   13.96
   2   1  -1  304.72   16.57
   2   1  -1  313.78   16.18
   2   1  -1  342.92   16.69
   2   1   0  492.60   26.73
   2   1   0  542.78   27.12
   2   1   0  564.60   32.38
   2   1   1    3.90    0.19
   2   1   1    4.16    0.23
   2   1   1    3.46    0.26
   2   1   1    3.90    0.26
   2   1   2  217.05   11.53
   2   1   2  257.11   12.29
   2   1   2  228.68   12.89
   2   1   2  257.88   13.43
   2   1   2  275.78   12.03
   2   1   3   34.11    1.84
   2   1   3   36.74    1.75
   2   1   3   33.82    1.60
   2   1   3   37.15    1.85
   2   1   4  150.81    7.11
   2   1   4  162.83    8.06
   2   1   4  167.24    9.18
   2   1   5   68.53    4.46
   2   1   5   76.03    3.51
   2   1   5   71.21    3.45
   2   1   5   69.48    3.61
   2   1   6   29.13    1.32
   2   1   6   35.35    1.87
   2   1   6   31.49    2.40
   2   1   7    0.98    0.22
   2   1   7    1.39    0.23
   2   1   7    1.06    0.14
   2   1   8    0.29    0.16
   2   1   8    0.45    0.18
   2   1   8    0.34    0.09
   2   1   9   15.40    0.89
   2   1   9   16.81    1.38
   2   1   9   14.44    1.17
   2   1  10    2.70    0.34
   2   1  10    2.76    0.29
   2   1  11   13.99    1.08
   2   2 -12    1.51    0.37
   2   2 -11    2.34    0.31
   2   2 -10  140.06    7.87
   2   2 -10  157.52    8.13
   2   2  -9   48.76    3.02
   2   2  -9   52.59    2.56
   2   2  -8    1.65    0.31
   2   2  -8    0.80    0.19
   2   2  -7   70.27    3.81
   2   2  -7   75.67    3.47
   2   2  -6   75.28    3.78
   2   2  -6   81.15    4.24
   2   2  -5   94.63    5.02
   2   2  -5  104.22    5.05
   2   2  -4    8.01    0.48
   2   2  -4    7.60    0.38
   2   2  -3  102.91    5.40
   2   2  -3  114.51    7.70
   2   2  -2  142.04    7.63
   2   2  -2  150.53    8.53
   2   2  -1    0.59    0.08
   2   2  -1    0.44    0.07
   2   2  -1    0.67    0.12
   2   2  -1    0.61    0.11
   2   2   0  320.84   15.95
   2   2   0  342.04   17.00
   2   2   0  346.61   18.49
   2   2   0  366.27   17.57
   2   2   1   30.10    1.55
   2   2   1   32.57    1.79
   2   2   1   33.41    1.55
   2   2   1   36.57    1.81
   2   2   2    4.80    0.28
   2   2   2    5.64    0.25
   2   2   2    4.78    0.24
   2   2   2    5.57    0.29
   2   2   3   81.02    3.99
   2   2   3   88.93    4.03
   2   2   3   86.36    3.82
   2   2   4  155.50    8.14
   2   2   4  176.88    8.10
   2   2   4  152.07    7.07
   2   2   4  168.80    8.86
   2   2   5   32.24    1.51
   2   2   5   37.34    1.89
   2   2   5   33.10    1.68
   2   2   5   31.84    1.57
   2   2   6    0.07    0.14
   2   2   6   -0.17    0.12
   2   2   6    0.09    0.10
   2   2   7    1.63    0.24
   2   2   7    2.10    0.23
   2   2   7    1.25    0.14
   2   2   8    1.24    0.24
   2   2   8    0.94    0.14
   2   2   9    0.34    0.25
   2   2   9   -0.24    0.22
   2   2  10   10.30    0.79
   2   3 -12    5.17    0.50
   2   3 -11   22.94    1.59
   2   3 -10   72.37    4.03
   2   3 -10   70.05    3.87
   2   3  -9   31.02    1.90
   2   3  -9   30.31    1.46
   2   3  -8    0.12    0.24
   2   3  -8    1.00    0.28
   2   3  -7   67.39    3.31
   2   3  -7   69.78    3.11
   2   3  -6    8.32    0.51
   2   3  -6    8.56    0.62
   2   3  -5    5.98    0.41
   2   3  -5    5.94    0.39
   2   3  -4    1.58    0.17
   2   3  -4    1.98    0.19
   2   3  -3   75.62    3.49
   2   3  -3   77.37    4.11
   2   3  -2   26.05    1.16
   2   3  -2   25.05    1.13
   2   3  -1   50.78    2.35
   2   3  -1   56.26    2.56
   2   3   0   63.14    3.15
   2   3   0   68.92    3.33
   2   3   0   74.01    3.70
   2   3   1   61.64    2.94
   2   3   1   62.70    2.89
   2   3   1   69.24    3.28
   2   3   2    8.77    0.47
   2   3   2    9.27    0.41
   2   3   2   10.63    0.47
   2   3   3    0.02    0.09
   2   3   3   -0.02    0.13
   2   3   3    0.28    0.07
   2   3   4   61.70    3.12
   2   3   4   71.89    3.26
   2   3   5    6.25    0.46
   2   3   5    7.05    0.37
   2   3   5    5.96    0.35
   2   3   6    2.11    0.20
   2   3   6    2.63    0.28
   2   3   6    1.93    0.17
   2   3   7   20.72    1.11
   2   3   7   23.47    1.84
   2   3   7   19.94    1.23
   2   3   8   18.17    0.91
   2   3   8   18.52    1.62
   2   3   9    3.37    0.43
   2   3  10   41.11    2.85
   2   4 -11    0.47    0.22
   2   4 -10   11.68    0.77
   2   4  -9    6.52    0.78
   2   4  -9    7.79    0.49
   2   4  -8    4.36    0.35
   2   4  -8    4.42    0.40
   2   4  -7    1.20    0.41
   2   4  -7    1.37    0.19
   2   4  -6    1.28    0.20
   2   4  -6    1.65    0.21
   2   4  -5   33.40    1.99
   2   4  -5   35.93    1.62
   2   4  -4   19.86    0.86
   2   4  -4   20.32    1.33
   2   4  -3   64.94    3.09
   2   4  -3   64.84    2.59
   2   4  -2  101.66    4.74
   2   4  -2  109.20    5.63
   2   4  -1   71.22    3.21
   2   4  -1   77.10    3.47
   2   4   0  213.73    9.01
   2   4   0  225.65    9.84
   2   4   0  246.40   12.78
   2   4   1    1.00    0.16
   2   4   1    0.78    0.17
   2   4   1    1.39    0.14
   2   4   2   81.42    3.87
   2   4   2   85.91    4.46
   2   4   2   88.87    3.72
   2   4   3   60.44    3.05
   2   4   3   66.60    3.12
   2   4   3   64.73    2.52
   2   4   4   18.97    0.98
   2   4   4   20.11    1.33
   2   4   5   78.13    3.83
   2   4   5   89.04    5.85
   2   4   6   23.52    1.27
   2   4   6   27.23    1.75
   2   4   6   24.53    1.15
   2   4   7    9.20    0.55
   2   4   7    9.02    0.69
   2   4   8    0.90    0.52
   2   4   9   37.56    2.75
   2   5 -11    6.70    0.60
   2   5 -10    1.73    0.29
   2   5  -9    8.50    0.72
   2   5  -9    8.88    0.65
   2   5  -8   22.42    1.51
   2   5  -8   19.58    1.06
   2   5  -7    3.23    0.36
   2   5  -7    3.28    0.32
   2   5  -6  159.84   10.30
   2   5  -6  160.39    8.00
   2   5  -5   33.60    1.26
   2   5  -5   32.63    1.93
   2   5  -4  118.31    4.60
   2   5  -4  125.62    5.71
   2   5  -3   15.73    0.71
   2   5  -3   15.38    0.67
   2   5  -2  227.51    9.02
   2   5  -2  241.67   10.42
   2   5  -1    4.14    0.29
   2   5  -1    5.41    0.31
   2   5   0   29.51    1.19
   2   5   0   30.77    1.57
   2   5   0   34.16    1.49
   2   5   1   14.52    0.69
   2   5   1   15.85    0.77
   2   5   1   15.48    0.77
   2   5   2    1.06    0.16
   2   5   2    1.13    0.22
   2   5   2    1.21    0.16
   2   5   3  126.60    6.39
   2   5   3  140.73    5.76
   2   5   3  135.99    7.44
   2   5   4    2.23    0.26
   2   5   4    2.10    0.27
   2   5   5   71.54    3.91
   2   5   5   79.77    4.77
   2   5   6  106.52    5.27
   2   5   6  113.86    8.60
   2   5   6   98.45    7.05
   2   5   7   -0.02    0.20
   2   5   7   -0.14    0.10
   2   5   8   32.78    2.14
   2   5   8   30.01    1.75
   2   6 -10   13.14    1.06
   2   6  -9   30.24    1.79
   2   6  -8   46.87    3.46
   2   6  -8   49.99    2.73
   2   6  -7   69.62    3.42
   2   6  -7   70.04    6.14
   2   6  -6    0.48    0.17
   2   6  -6    0.11    0.43
   2   6  -5  411.23   15.96
   2   6  -5  434.40   22.61
   2   6  -4   76.25    3.41
   2   6  -4   80.13    3.83
   2   6  -3   66.07    3.51
   2   6  -3   72.67    4.52
   2   6  -2    5.18    0.38
   2   6  -2    6.12    0.41
   2   6  -1    6.63    0.42
   2   6  -1    7.84    0.66
   2   6   0    4.51    0.34
   2   6   0    5.17    0.48
   2   6   0    5.53    0.52
   2   6   1   11.04    0.85
   2   6   1   12.72    1.50
   2   6   1   12.46    0.68
   2   6   2   85.50    4.15
   2   6   2   96.76    4.74
   2   6   2   97.89    4.39
   2   6   3    2.45    0.28
   2   6   4   18.95    1.09
   2   6   4   17.07    1.28
   2   6   5   58.77    4.14
   2   6   5   56.46    5.09
   2   6   6    6.47    0.58
   2   6   7    0.17    0.24
   2   6   7    0.52    0.16
   2   7  -9   73.59    4.87
   2   7  -8    5.76    0.45
   2   7  -7    6.06    0.52
   2   7  -7    3.35    0.62
   2   7  -6   11.44    0.71
   2   7  -6    9.50    0.86
   2   7  -5   19.19    1.21
   2   7  -5   22.48    1.26
   2   7  -4   64.56    3.05
   2   7  -4   65.80    3.80
   2   7  -3   96.09    3.75
   2   7  -3  103.41    4.75
   2   7  -2   61.77    2.88
   2   7  -2   62.72    2.92
   2   7  -1    1.70    0.24
   2   7  -1    0.98    0.25
   2   7  -1    2.03    0.31
   2   7   0  108.05    4.97
   2   7   0  113.61    7.24
   2   7   0  120.77    8.40
   2   7   1   22.59    1.21
   2   7   1   25.16    1.89
   2   7   1   28.99    3.22
   2   7   2   75.44    4.17
   2   7   2   82.65    3.70
   2   7   2   81.74    4.41
   2   7   3   31.13    1.88
   2   7   3   30.42    2.76
   2   7   4    3.54    0.36
   2   7   5    7.78    0.66
   2   8  -7   24.11    1.94
   2   8  -6   25.27    1.57
   2   8  -5    1.76    0.35
   2   8  -4   29.51    1.60
   2   8  -4   24.89    2.47
   2   8  -3  100.01    6.04
   2   8  -3  103.16    8.54
   2   8  -2    0.86    0.23
   2   8  -2    0.22    0.28
   2   8  -1   44.38    2.57
   2   8  -1   43.47    4.57
   2   8  -1   46.59    3.56
   2   8   0    0.48    0.28
   2   8   0    0.53    0.39
   2   8   0    0.85    0.20
   2   8   1    7.76    0.64
   2   8   2    1.84    0.32
   2   8   3   65.25    5.33
   2   9  -4   10.48    0.98
   2   9  -3   25.31    1.60
   2   9  -2    2.12    0.37
   3  -9  -1  110.55    8.27
   3  -9   0    1.52    0.30
   3  -9   1   84.83    5.41
   3  -9   2    0.29    0.23
   3  -9   3    7.04    0.64
   3  -9   4    3.41    0.39
   3  -9   5    0.64    0.38
   3  -8  -4   31.89    2.14
   3  -8  -3   14.99    1.06
   3  -8  -2   10.82    0.82
   3  -8  -1   11.19    0.81
   3  -8   0   29.33    1.60
   3  -8   1    0.45    0.29
   3  -8   2   18.25    0.97
   3  -8   3    1.37    0.28
   3  -8   4   28.62    1.67
   3  -8   5    0.53    0.23
   3  -8   6    8.54    0.71
   3  -8   7   10.71    0.85
   3  -8   8    0.54    0.25
   3  -7  -6   34.62    2.30
   3  -7  -5    3.27    0.36
   3  -7  -4   48.92    2.84
   3  -7  -3    6.00    0.48
   3  -7  -2  109.01    7.06
   3  -7  -2  110.67    5.42
   3  -7  -1   92.19    6.32
   3  -7  -1   96.74    5.19
   3  -7   0   24.96    1.44
   3  -7   0   27.14    1.37
   3  -7   1   39.49    2.87
   3  -7   1   38.48    1.49
   3  -7   2   40.53    1.90
   3  -7   2   44.00    2.54
   3  -7   3   62.37    2.81
   3  -7   3   65.22    4.08
   3  -7   4    0.35    0.28
   3  -7   4    0.09    0.19
   3  -7   5   42.60    2.45
   3  -7   5   47.70    3.35
   3  -7   6   15.96    0.79
   3  -7   6   13.89    1.09
   3  -7   7   21.56    1.24
   3  -7   8  114.67    6.88
   3  -7   9    0.52    0.22
   3  -6  -7    4.72    0.41
   3  -6  -6   73.26    5.41
   3  -6  -6   67.67    5.83
   3  -6  -5   41.74    3.49
   3  -6  -5   62.84    3.97
   3  -6  -4    4.55    0.52
   3  -6  -4    6.58    0.51
   3  -6  -3   40.53    2.21
   3  -6  -3   44.44    2.57
   3  -6  -2   85.23    5.32
   3  -6  -2   86.28    4.22
   3  -6  -1   22.02    1.20
   3  -6  -1   22.82    1.05
   3  -6   0  129.75    5.87
   3  -6   0  128.25    5.24
   3  -6   1  105.06    4.43
   3  -6   1  101.27    5.46
   3  -6   2  199.74    9.27
   3  -6   2  199.97    9.06
   3  -6   3   -0.01    0.17
   3  -6   3    0.16    0.30
   3  -6   4   77.14    3.53
   3  -6   4   88.13    3.81
   3  -6   5    5.05    0.88
   3  -6   5    5.02    0.42
   3  -6   6    6.64    0.48
   3  -6   6    6.96    0.63
   3  -6   7    0.71    0.41
   3  -6   7    0.59    0.25
   3  -6   8   66.51    3.35
   3  -6   9    1.04    0.27
   3  -6  10    0.99    0.28
   3  -5  -8   29.12    1.80
   3  -5  -7   34.72    2.14
   3  -5  -7   28.25    2.09
   3  -5  -7   31.18    3.42
   3  -5  -6    9.75    0.79
   3  -5  -6   10.39    0.68
   3  -5  -6   10.91    0.91
   3  -5  -5    1.75    0.30
   3  -5  -5    1.50    0.28
   3  -5  -4   16.42    1.02
   3  -5  -4   16.11    0.89
   3  -5  -3   39.27    3.40
   3  -5  -3   36.66    1.85
   3  -5  -2   43.48    2.05
   3  -5  -2   40.40    1.83
   3  -5  -1   30.85    1.40
   3  -5  -1   33.61    1.44
   3  -5   0  248.64   14.40
   3  -5   0  253.59   11.43
   3  -5   1   23.95    0.97
   3  -5   1   24.48    1.24
   3  -5   2   14.83    0.80
   3  -5   2   15.26    0.70
   3  -5   3   48.12    1.95
   3  -5   3   44.13    1.83
   3  -5   4   -0.24    0.19
   3  -5   4    0.08    0.18
   3  -5   5   -0.08    0.20
   3  -5   5    0.14    0.19
   3  -5   6   19.61    1.10
   3  -5   6   19.88    1.17
   3  -5   7   62.75    2.64
   3  -5   7   77.81    4.26
   3  -5   8    2.40    0.27
   3  -5   8    1.80    0.26
   3  -5   9   23.92    1.24
   3  -5  10   82.44    5.23
   3  -4  -9    1.02    0.33
   3  -4  -8    0.33    0.23
   3  -4  -8    0.24    0.12
   3  -4  -7   24.95    1.69
   3  -4  -7   27.90    1.55
   3  -4  -7   25.20    1.55
   3  -4  -7   29.58    1.83
   3  -4  -6    9.37    0.61
   3  -4  -6    9.35    0.57
   3  -4  -6    8.86    0.68
   3  -4  -6    9.62    0.67
   3  -4  -5   33.02    1.69
   3  -4  -5   34.65    2.03
   3  -4  -5   32.18    1.67
   3  -4  -5   33.67    1.50
   3  -4  -4   18.69    1.10
   3  -4  -4   18.22    1.00
   3  -4  -4   18.84    1.21
   3  -4  -3  233.53   15.44
   3  -4  -3  253.92   14.61
   3  -4  -3  257.74   16.82
   3  -4  -2  219.85    8.75
   3  -4  -1  430.21   17.76
   3  -4  -1  413.37   16.82
   3  -4   0  150.38    6.28
   3  -4   0  142.35    5.57
   3  -4   1    9.66    0.53
   3  -4   1    9.79    0.49
   3  -4   2   84.86    4.13
   3  -4   2   82.73    4.22
   3  -4   3    0.27    0.09
   3  -4   3    0.19    0.15
   3  -4   4   82.28    3.77
   3  -4   4   88.72    4.68
   3  -4   5    9.76    0.53
   3  -4   5   10.23    0.55
   3  -4   6   87.47    4.55
   3  -4   6   93.74    4.50
   3  -4   7  189.24   11.84
   3  -4   7  203.64   10.74
   3  -4   8   63.19    3.20
   3  -4   8   78.97    4.88
   3  -4   9    3.84    0.37
   3  -4   9    3.94    0.49
   3  -4  10   34.70    3.18
   3  -4  11    0.53    0.23
   3  -3 -10    2.58    0.32
   3  -3  -9   28.35    1.49
   3  -3  -9   28.96    2.32
   3  -3  -8   28.53    1.99
   3  -3  -8   34.32    1.64
   3  -3  -8   34.05    2.57
   3  -3  -7   99.82    5.91
   3  -3  -7  111.44    6.47
   3  -3  -7   93.91    6.03
   3  -3  -7  110.24    5.81
   3  -3  -6    0.99    0.29
   3  -3  -6    1.01    0.27
   3  -3  -6    0.65    0.12
   3  -3  -6    0.64    0.12
   3  -3  -5   82.75    4.92
   3  -3  -5   99.74    6.35
   3  -3  -5   92.28    5.07
   3  -3  -5   99.60    6.34
   3  -3  -4    0.21    0.17
   3  -3  -4   -0.07    0.11
   3  -3  -4    0.15    0.12
   3  -3  -4    0.11    0.10
   3  -3  -3    0.48    0.16
   3  -3  -3    0.37    0.12
   3  -3  -3    0.51    0.13
   3  -3  -3    0.18    0.08
   3  -3  -2  143.48    6.42
   3  -3  -2  159.68    7.77
   3  -3  -2  163.12   10.38
   3  -3  -1  174.01    7.80
   3  -3  -1  181.47    9.95
   3  -3  -1  190.08   10.27
   3  -3   0   18.91    0.89
   3  -3   0   19.44    0.93
   3  -3   1    5.56    0.27
   3  -3   1    6.48    0.33
   3  -3   1    5.08    0.32
   3  -3   2  129.03    6.86
   3  -3   2  116.65    5.60
   3  -3   3    4.42    0.27
   3  -3   3    5.14    0.31
   3  -3   4   42.53    2.38
   3  -3   4   45.22    2.09
   3  -3   5  149.61    6.87
   3  -3   5  183.29    8.24
   3  -3   6   -0.01    0.18
   3  -3   7   93.81    5.42
   3  -3   7  113.18    7.18
   3  -3   8    0.11    0.20
   3  -3   8    0.50    0.27
   3  -3   9   52.89    2.42
   3  -3   9   69.28    6.60
   3  -3  10   12.27    0.84
   3  -3  11    0.73    0.21
   3  -2 -11    3.71    0.43
   3  -2 -10   17.30    1.17
   3  -2  -9   19.31    1.51
   3  -2  -9   25.11    1.23
   3  -2  -8   91.61    5.64
   3  -2  -8  100.89    5.00
   3  -2  -8  108.88    7.86
   3  -2  -7    4.99    0.43
   3  -2  -7    6.24    0.51
   3  -2  -7    4.84    0.37
   3  -2  -7    6.70    0.40
   3  -2  -6  286.69   16.47
   3  -2  -6  319.49   17.27
   3  -2  -6  281.19   15.44
   3  -2  -6  336.14   16.95
   3  -2  -5  110.88    6.95
   3  -2  -5  122.85    6.70
   3  -2  -5  108.59    7.63
   3  -2  -5  105.41    5.55
   3  -2  -5  133.36    7.03
   3  -2  -4    4.18    0.30
   3  -2  -4    4.41    0.30
   3  -2  -4    4.69    0.25
   3  -2  -4    3.82    0.29
   3  -2  -4    5.13    0.34
   3  -2  -3   16.27    0.80
   3  -2  -3   16.94    0.83
   3  -2  -3   15.98    1.10
   3  -2  -3   17.41    1.07
   3  -2  -3   18.11    1.14
   3  -2  -2   10.03    0.49
   3  -2  -2    9.79    0.59
   3  -2  -2   10.77    0.69
   3  -2  -2   11.89    0.72
   3  -2  -2   12.13    0.69
   3  -2  -1   11.50    0.57
   3  -2  -1   10.15    0.67
   3  -2  -1   12.82    0.72
   3  -2  -1   13.41    0.74
   3  -2   0    7.21    0.41
   3  -2   0    8.47    0.44
   3  -2   0    7.37    0.36
   3  -2   1  121.34    5.96
   3  -2   1  127.72    6.37
   3  -2   2   91.10    4.88
   3  -2   2   89.45    4.20
   3  -2   3    0.81    0.13
   3  -2   3    0.60    0.13
   3  -2   4  194.27   10.56
   3  -2   4  212.56    9.63
   3  -2   5  156.77    6.65
   3  -2   5  162.80    7.28
   3  -2   6    0.12    0.15
   3  -2   6    0.44    0.16
   3  -2   7    2.38    0.22
   3  -2   7    3.44    0.28
   3  -2   8    2.92    0.31
   3  -2   8    2.85    0.32
   3  -2   9    3.14    0.31
   3  -2   9    3.76    0.39
   3  -2  10    0.00    0.18
   3  -2  11   33.74    2.52
   3  -1 -11    2.64    0.36
   3  -1 -10   93.95    4.57
   3  -1  -9  145.39    9.70
   3  -1  -9  159.89    7.31
   3  -1  -8   10.59    0.69
   3  -1  -8   11.16    0.58
   3  -1  -7  127.19    7.28
   3  -1  -7  137.68    6.51
   3  -1  -7  128.26    6.49
   3  -1  -6    0.64    0.30
   3  -1  -6    0.60    0.19
   3  -1  -6    0.56    0.12
   3  -1  -6    0.72    0.12
   3  -1  -5   10.64    0.62
   3  -1  -5   11.36    0.66
   3  -1  -5   10.61    0.56
   3  -1  -5   10.48    0.50
   3  -1  -5   11.67    0.61
   3  -1  -4   27.39    1.29
   3  -1  -4   26.85    1.56
   3  -1  -4   26.50    1.52
   3  -1  -4   27.74    1.73
   3  -1  -4   30.32    1.41
   3  -1  -3   41.28    2.37
   3  -1  -3   41.34    2.21
   3  -1  -3   45.01    2.08
   3  -1  -2   38.03    1.93
   3  -1  -2   35.75    2.38
   3  -1  -2   40.03    2.01
   3  -1  -1   69.60    4.31
   3  -1  -1   78.52    4.03
   3  -1  -1   78.02    4.61
   3  -1  -1   83.47    5.25
   3  -1  -1   86.15    3.66
   3  -1   0    3.36    0.22
   3  -1   0    3.09    0.22
   3  -1   0    3.53    0.21
   3  -1   0    3.51    0.20
   3  -1   1    4.96    0.25
   3  -1   1    5.79    0.33
   3  -1   1    6.81    0.33
   3  -1   2   86.18    5.21
   3  -1   2  101.47    4.67
   3  -1   2  102.96    5.23
   3  -1   2  107.94    5.67
   3  -1   3    0.13    0.09
   3  -1   3    0.22    0.08
   3  -1   4   77.40    4.36
   3  -1   4   88.93    4.16
   3  -1   4   88.20    4.07
   3  -1   5  271.97   12.54
   3  -1   5  331.99   16.24
   3  -1   5  316.48   14.73
   3  -1   6    0.70    0.13
   3  -1   6    1.28    0.21
   3  -1   6    0.57    0.15
   3  -1   7   11.79    0.69
   3  -1   7   12.76    0.90
   3  -1   8   27.11    1.29
   3  -1   8   32.46    2.67
   3  -1   8   29.96    1.54
   3  -1   9    3.21    0.32
   3  -1   9    3.65    0.39
   3  -1   9    2.87    0.30
   3  -1  10   35.83    2.18
   3  -1  10   27.03    3.58
   3  -1  10   31.89    2.44
   3  -1  11    5.05    0.43
   3   0 -10    9.49    0.92
   3   0 -10   12.48    0.80
   3   0 -10   12.01    0.73
   3   0  -9   46.55    2.44
   3   0  -9   48.62    2.39
   3   0  -8    0.20    0.38
   3   0  -8    0.38    0.15
   3   0  -7   11.03    0.50
   3   0  -7   12.04    0.72
   3   0  -6   28.77    1.67
   3   0  -6   31.74    1.53
   3   0  -5   61.85    3.45
   3   0  -5   60.15    4.07
   3   0  -5   62.00    3.67
   3   0  -4  211.57   11.39
   3   0  -4  227.38   13.31
   3   0  -4  230.41   14.53
   3   0  -4  257.83   12.91
   3   0  -3   66.48    3.46
   3   0  -3   78.35    5.20
   3   0  -3   75.28    3.69
   3   0  -3   85.76    4.12
   3   0  -2   35.30    1.77
   3   0  -2   39.54    2.11
   3   0  -2   42.54    1.82
   3   0  -1   23.06    1.35
   3   0  -1   23.01    1.47
   3   0  -1   24.72    1.32
   3   0  -1   26.95    1.18
   3   0  -1   29.49    1.28
   3   0   0  140.68    7.58
   3   0   0  155.98    7.88
   3   0   0  170.65    7.66
   3   0   1  109.72    5.43
   3   0   1  101.80    5.15
   3   0   1  114.46    5.45
   3   0   1  123.37    5.42
   3   0   1  118.38    5.43
   3   0   2   30.39    1.49
   3   0   2   31.45    1.52
   3   0   2   32.63    1.71
   3   0   2   33.41    1.65
   3   0   2   33.12    1.55
   3   0   3  112.75    5.93
   3   0   3  115.40    5.47
   3   0   3  123.42    5.80
   3   0   3  129.72    6.31
   3   0   4    1.38    0.12
   3   0   4    1.08    0.13
   3   0   4    1.57    0.20
   3   0   4    0.81    0.12
   3   0   5  100.50    5.84
   3   0   5  110.52    5.07
   3   0   5  115.28    5.14
   3   0   6   48.53    2.60
   3   0   6   54.82    3.03
   3   0   6   52.25    2.47
   3   0   7   95.86    4.56
   3   0   7  115.71    7.45
   3   0   7  107.24    5.48
   3   0   8  125.91    6.79
   3   0   8  143.71   10.13
   3   0   8  134.40    7.11
   3   0   9   13.54    0.79
   3   0   9   14.63    1.04
   3   0   9   12.52    1.09
   3   0  10   21.76    1.39
   3   0  11    2.18    0.34
   3   1 -11    2.90    0.90
   3   1 -10   85.44    5.04
   3   1 -10   98.36    4.89
   3   1  -9    1.26    0.29
   3   1  -9    1.80    0.27
   3   1  -8    0.36    0.17
   3   1  -8    0.41    0.20
   3   1  -7    0.11    0.12
   3   1  -7   -0.13    0.22
   3   1  -6   28.88    1.53
   3   1  -6   31.37    1.70
   3   1  -5   79.72    4.53
   3   1  -5   90.93    4.55
   3   1  -4    3.92    0.31
   3   1  -4    4.12    0.28
   3   1  -4    4.15    0.29
   3   1  -3   53.11    3.12
   3   1  -3   57.38    3.36
   3   1  -3   54.83    2.82
   3   1  -3   62.88    2.81
   3   1  -2  108.95    7.34
   3   1  -2  122.49    8.00
   3   1  -2  120.94    5.25
   3   1  -2  128.13    6.03
   3   1  -1  152.79    9.78
   3   1  -1  126.22    7.84
   3   1  -1  151.63    5.91
   3   1  -1  165.78    9.12
   3   1   0  470.04   26.01
   3   1   0  496.96   26.70
   3   1   1   38.49    2.30
   3   1   1   41.82    2.30
   3   1   1   43.33    2.07
   3   1   1   46.87    2.11
   3   1   2    4.80    0.27
   3   1   2    5.84    0.35
   3   1   2    5.73    0.34
   3   1   2    5.25    0.27
   3   1   2    5.71    0.31
   3   1   3   58.73    2.95
   3   1   3   66.02    3.52
   3   1   3   60.79    2.60
   3   1   3   65.49    2.81
   3   1   4   80.10    4.42
   3   1   4   93.32    4.20
   3   1   4   84.27    4.12
   3   1   4   91.35    4.72
   3   1   5   68.39    3.33
   3   1   5   76.90    4.07
   3   1   5   70.72    3.41
   3   1   5   72.01    4.59
   3   1   6   52.43    2.58
   3   1   6   59.38    3.22
   3   1   6   53.61    2.70
   3   1   6   53.62    3.55
   3   1   7    1.51    0.30
   3   1   7    1.86    0.33
   3   1   7    1.83    0.22
   3   1   8    3.94    0.30
   3   1   8    4.71    0.52
   3   1   8    3.66    0.36
   3   1   9   14.04    0.72
   3   1   9   15.12    1.34
   3   1   9   12.44    1.07
   3   1  10    2.14    0.34
   3   2 -11    0.84    0.24
   3   2 -10    3.15    0.36
   3   2 -10    3.70    0.28
   3   2  -9   19.58    1.25
   3   2  -9   21.50    1.08
   3   2  -8   17.19    1.00
   3   2  -8   17.34    0.86
   3   2  -7  134.32    7.87
   3   2  -7  145.06    7.32
   3   2  -6    5.52    0.57
   3   2  -6    6.17    0.35
   3   2  -5    1.19    0.13
   3   2  -5    1.39    0.17
   3   2  -4  558.89   33.25
   3   2  -4  607.07   36.64
   3   2  -3    0.19    0.08
   3   2  -3    0.30    0.09
   3   2  -2   31.46    1.74
   3   2  -2   29.64    1.76
   3   2  -2   34.01    1.85
   3   2  -2   35.47    1.52
   3   2  -1   14.13    0.70
   3   2  -1   13.41    0.75
   3   2  -1   14.56    0.84
   3   2  -1   15.60    0.76
   3   2   0  145.51    7.70
   3   2   0  173.71    7.35
   3   2   0  179.68    7.38
   3   2   0  180.32    7.48
   3   2   1   35.80    1.60
   3   2   1   39.21    1.92
   3   2   1   38.45    1.55
   3   2   1   40.63    1.85
   3   2   2    9.43    0.57
   3   2   2   10.13    0.52
   3   2   2   10.32    0.48
   3   2   2   11.86    0.57
   3   2   3  110.78    6.27
   3   2   3  128.38    5.62
   3   2   3  109.88    5.03
   3   2   3  122.34    6.77
   3   2   3  130.40    6.63
   3   2   4   12.37    0.61
   3   2   4   15.27    0.91
   3   2   4   13.25    0.59
   3   2   4   14.19    0.76
   3   2   5  173.81    8.32
   3   2   5  174.83    8.49
   3   2   5  187.99   12.12
   3   2   6   84.99    3.82
   3   2   6   98.93    5.98
   3   2   6   87.88    4.62
   3   2   6   85.86    4.59
   3   2   7   34.49    2.06
   3   2   7   33.44    2.10
   3   2   7   33.78    1.92
   3   2   8    0.81    0.37
   3   2   8    0.89    0.19
   3   2   9    0.27    0.27
   3   2   9    0.23    0.33
   3   2   9    0.42    0.15
   3   2  10    2.74    0.34
   3   3 -11    1.95    0.30
   3   3 -10   71.95    5.43
   3   3 -10   80.15    4.02
   3   3  -9   27.60    1.65
   3   3  -9   25.56    1.18
   3   3  -8   90.20    5.08
   3   3  -8   97.37    4.73
   3   3  -7    7.31    0.55
   3   3  -7    6.44    0.36
   3   3  -6   16.78    0.91
   3   3  -6   17.52    0.75
   3   3  -5    5.95    1.23
   3   3  -5    6.80    0.35
   3   3  -4   24.08    1.20
   3   3  -4   24.55    1.12
   3   3  -3   17.48    0.69
   3   3  -3   16.54    0.99
   3   3  -2    1.94    0.15
   3   3  -2    2.03    0.23
   3   3  -2    2.00    0.16
   3   3  -1   21.16    0.93
   3   3  -1   21.22    1.12
   3   3  -1   23.70    1.20
   3   3   0  132.79    6.10
   3   3   0  143.03    5.59
   3   3   0  154.08    6.61
   3   3   1   81.05    4.06
   3   3   1   83.64    3.93
   3   3   1   88.67    5.66
   3   3   1   92.40    4.61
   3   3   2   64.06    2.85
   3   3   2   71.58    3.60
   3   3   2   67.07    2.76
   3   3   2   71.55    3.13
   3   3   3   56.15    2.82
   3   3   3   60.03    2.77
   3   3   3   62.18    2.54
   3   3   4   29.49    1.33
   3   3   4   34.50    1.53
   3   3   4   28.18    1.35
   3   3   4   31.58    1.62
   3   3   5    3.98    0.29
   3   3   5    4.51    0.52
   3   3   5    4.39    0.30
   3   3   5    6.13    0.50
   3   3   6  103.24    5.51
   3   3   6  114.17    7.14
   3   3   6  103.68    5.75
   3   3   6  103.89   12.30
   3   3   7   -0.27    0.22
   3   3   7    0.37    0.27
   3   3   7    0.19    0.13
   3   3   8    1.07    0.24
   3   3   8    0.61    0.28
   3   3   9    0.96    0.32
   3   4 -11   25.96    1.90
   3   4 -10   43.01    2.73
   3   4  -9   59.62    4.09
   3   4  -9   67.36    3.20
   3   4  -8    6.93    0.50
   3   4  -8    6.72    0.39
   3   4  -7   38.38    2.51
   3   4  -7   42.20    1.90
   3   4  -6    3.84    0.37
   3   4  -6    4.70    0.31
   3   4  -5    0.60    0.24
   3   4  -5    0.23    0.14
   3   4  -4    7.91    0.44
   3   4  -4    8.32    0.64
   3   4  -3    5.55    0.32
   3   4  -3    6.59    0.37
   3   4  -2    8.65    0.51
   3   4  -2   10.69    0.62
   3   4  -2    9.41    0.53
   3   4  -1    1.83    0.19
   3   4  -1    1.82    0.19
   3   4  -1    1.87    0.17
   3   4   0   38.33    1.75
   3   4   0   42.54    1.72
   3   4   0   45.17    2.01
   3   4   1    0.75    0.14
   3   4   1    0.89    0.20
   3   4   1    0.81    0.16
   3   4   2   69.42    3.75
   3   4   2   80.33    3.28
   3   4   2   77.94    4.09
   3   4   3    3.11    0.25
   3   4   3    3.50    0.35
   3   4   3    3.40    0.25
   3   4   4   26.31    1.26
   3   4   4   28.88    1.51
   3   4   5    5.99    0.40
   3   4   5    6.38    0.49
   3   4   5    5.57    0.37
   3   4   6   80.52    4.57
   3   4   6   90.59    5.47
   3   4   6   80.35    5.51
   3   4   7    6.10    0.50
   3   4   7    5.66    0.39
   3   4   8   11.34    0.75
   3   4   8    9.82    0.82
   3   5 -10    2.23    0.37
   3   5  -9   77.88    6.40
   3   5  -9   87.14    4.76
   3   5  -8    1.08    0.28
   3   5  -8    0.07    0.25
   3   5  -7    0.09    0.23
   3   5  -7    0.23    0.20
   3   5  -6    4.01    0.33
   3   5  -6    4.61    0.37
   3   5  -6    3.74    0.37
   3   5  -5   10.68    0.52
   3   5  -5   10.54    0.66
   3   5  -4  249.15   11.73
   3   5  -4  237.48    9.99
   3   5  -3  332.99   14.19
   3   5  -3  370.06   16.32
   3   5  -2  313.43   14.78
   3   5  -2  335.85   14.88
   3   5  -2  357.63   16.59
   3   5  -1   22.36    1.00
   3   5  -1   25.43    1.36
   3   5  -1   23.99    1.20
   3   5   0   44.53    1.82
   3   5   0   48.76    2.40
   3   5   0   51.47    2.36
   3   5   1   72.37    3.60
   3   5   1   75.41    3.26
   3   5   1   75.99    4.05
   3   5   2   60.79    2.93
   3   5   2   65.78    3.13
   3   5   2   68.97    4.03
   3   5   3    0.41    0.18
   3   5   3    0.36    0.17
   3   5   3    0.33    0.16
   3   5   4   43.24    2.57
   3   5   4   47.56    2.87
   3   5   5    2.50    0.26
   3   5   5    2.21    0.33
   3   5   6    8.69    0.59
   3   5   6    8.51    1.61
   3   5   6    8.88    0.81
   3   5   7    0.14    0.19
   3   5   7    0.53    0.19
   3   6  -9   -0.32    0.21
   3   6  -8    0.09    0.19
   3   6  -8    0.28    0.26
   3   6  -8    0.16    0.20
   3   6  -7   38.50    2.10
   3   6  -7   35.92    2.75
   3   6  -6    2.98    0.28
   3   6  -6    2.63    0.34
   3   6  -5   72.16    2.90
   3   6  -5   70.77    3.66
   3   6  -4    2.20    0.29
   3   6  -4    1.29    0.28
   3   6  -3  197.25    9.86
   3   6  -3  207.51   11.95
   3   6  -2  120.63    5.35
   3   6  -2  129.93    5.47
   3   6  -2  128.20    7.23
   3   6  -1  131.18    5.93
   3   6  -1  132.97    8.80
   3   6  -1  142.74    8.25
   3   6   0    5.69    0.34
   3   6   0    5.26    0.37
   3   6   0    5.00    0.55
   3   6   1    4.64    0.38
   3   6   1    4.12    0.36
   3   6   1    4.76    0.50
   3   6   2   21.39    1.48
   3   6   2   24.61    1.41
   3   6   2   24.29    1.44
   3   6   3    0.69    0.20
   3   6   3    0.10    0.23
   3   6   3    0.42    0.17
   3   6   4   44.39    2.89
   3   6   4   49.67    4.17
   3   6   5   10.27    0.78
   3   6   5    9.27    0.80
   3   6   6   15.21    1.12
   3   6   6   15.44    1.01
   3   7  -8    2.87    0.40
   3   7  -7    6.52    0.49
   3   7  -7    4.10    0.71
   3   7  -6   65.71    3.67
   3   7  -6   64.07    5.32
   3   7  -5   33.76    1.68
   3   7  -5   35.12    2.52
   3   7  -4   26.79    1.72
   3   7  -4   27.58    1.85
   3   7  -3   54.98    2.73
   3   7  -3   60.18    3.39
   3   7  -2    0.34    0.21
   3   7  -2    0.50    0.24
   3   7  -1   17.24    0.82
   3   7  -1   18.00    1.21
   3   7  -1   18.50    1.88
   3   7   0   38.22    1.98
   3   7   0   39.76    2.46
   3   7   0   39.59    3.23
   3   7   1   61.00    3.14
   3   7   1   64.27    3.93
   3   7   1   63.68    4.64
   3   7   2    1.48    0.23
   3   7   2    2.76    1.47
   3   7   3   27.04    2.15
   3   7   3   27.75    2.66
   3   7   4    0.84    0.28
   3   8  -6    8.85    0.74
   3   8  -5    0.35    0.27
   3   8  -4   54.99    4.11
   3   8  -4   53.17    4.96
   3   8  -3   29.24    1.83
   3   8  -3   28.77    1.79
   3   8  -2    0.29    0.25
   3   8  -2    0.47    1.11
   3   8  -1   16.24    1.09
   3   8  -1   15.79    1.77
   3   8   0    7.49    0.52
   3   8   0    6.08    0.93
   3   8   1   58.86    4.01
   4  -9   1   46.20    3.55
   4  -9   1   42.58    3.84
   4  -9   2  147.53    9.97
   4  -9   3    9.71    0.81
   4  -8  -3    2.28    0.51
   4  -8  -2  130.47    9.91
   4  -8  -1   -0.13    0.27
   4  -8   0   49.13    2.99
   4  -8   1    0.81    0.34
   4  -8   2    6.79    0.64
   4  -8   3   53.11    3.47
   4  -8   4    4.96    0.47
   4  -8   5   11.25    0.99
   4  -8   6   22.09    1.47
   4  -7  -5    2.93    0.40
   4  -7  -4   28.91    1.99
   4  -7  -3    8.39    0.66
   4  -7  -2   10.50    1.00
   4  -7  -2   12.59    0.91
   4  -7  -1   36.00    2.68
   4  -7  -1   41.90    2.29
   4  -7   0   57.34    3.84
   4  -7   0   61.19    2.76
   4  -7   1    2.18    0.29
   4  -7   1    2.59    0.29
   4  -7   2   22.09    1.17
   4  -7   2   22.16    1.39
   4  -7   3   84.69    4.40
   4  -7   3   83.55    5.54
   4  -7   4    3.79    0.34
   4  -7   4    3.87    0.44
   4  -7   5   26.35    1.62
   4  -7   5   28.02    2.11
   4  -7   6   56.92    3.31
   4  -7   7    2.85    0.43
   4  -7   8   10.94    0.79
   4  -6  -7   51.24    3.85
   4  -6  -6    1.96    0.31
   4  -6  -5  140.53    9.11
   4  -6  -4    4.52    0.53
   4  -6  -4    5.44    0.42
   4  -6  -3   65.94    4.77
   4  -6  -3   68.33    3.51
   4  -6  -2    3.00    0.38
   4  -6  -2    3.20    0.35
   4  -6  -1  172.80    8.81
   4  -6  -1  192.83   10.22
   4  -6   0   11.95    0.83
   4  -6   0   11.84    0.65
   4  -6   1   67.09    3.51
   4  -6   1   66.43    2.44
   4  -6   2   65.14    2.73
   4  -6   2   69.06    4.03
   4  -6   3    2.84    0.31
   4  -6   3    2.74    0.28
   4  -6   4   74.98    3.39
   4  -6   4   79.65    5.36
   4  -6   5   25.80    1.31
   4  -6   5   27.82    1.65
   4  -6   6  100.27    4.97
   4  -6   6  123.53    8.28
   4  -6   7  112.26    6.00
   4  -6   7  126.98   10.21
   4  -6   8   17.87    1.15
   4  -6   9    0.67    0.20
   4  -5  -8    0.70    0.31
   4  -5  -7   24.01    2.55
   4  -5  -7   19.22    1.92
   4  -5  -7   21.47    2.27
   4  -5  -6   65.69    4.51
   4  -5  -6   73.87    3.88
   4  -5  -5   -0.33    0.16
   4  -5  -5   -0.02    0.19
   4  -5  -5    0.06    0.12
   4  -5  -4   60.90    4.72
   4  -5  -4   66.90    4.01
   4  -5  -3   15.86    0.98
   4  -5  -3   17.58    0.89
   4  -5  -2   41.21    1.84
   4  -5  -2   40.37    2.17
   4  -5  -1   93.50    4.12
   4  -5  -1  103.75    4.93
   4  -5   0   99.96    4.24
   4  -5   0  109.05    4.72
   4  -5   1   27.39    1.27
   4  -5   1   26.03    1.37
   4  -5   2   16.51    0.73
   4  -5   2   18.93    0.89
   4  -5   3  150.62    7.19
   4  -5   3  168.78    7.03
   4  -5   4    5.48    0.34
   4  -5   4    5.92    0.43
   4  -5   5   60.41    2.68
   4  -5   5   60.06    3.94
   4  -5   6    2.12    0.31
   4  -5   6    1.27    0.30
   4  -5   7    7.07    0.53
   4  -5   7    9.19    0.75
   4  -5   8    0.25    0.18
   4  -5   8    0.42    0.31
   4  -5   9    0.71    0.22
   4  -5  10   54.78    3.84
   4  -4  -9    2.43    0.34
   4  -4  -8   31.21    1.76
   4  -4  -8   23.93    2.05
   4  -4  -8   28.01    2.84
   4  -4  -7    4.93    0.48
   4  -4  -7    5.04    0.51
   4  -4  -7    4.85    0.41
   4  -4  -7    4.91    0.52
   4  -4  -6    4.19    0.53
   4  -4  -6    4.74    0.40
   4  -4  -6    4.47    0.36
   4  -4  -6    4.61    0.42
   4  -4  -5   28.02    1.75
   4  -4  -5   29.64    1.82
   4  -4  -5   28.98    3.80
   4  -4  -5   27.64    1.85
   4  -4  -4    0.37    0.17
   4  -4  -4    0.41    0.19
   4  -4  -4    0.38    0.23
   4  -4  -4    0.71    0.29
   4  -4  -3   76.10    3.48
   4  -4  -3   83.47    4.29
   4  -4  -3   80.20    4.67
   4  -4  -3   83.64    5.83
   4  -4  -2    9.91    0.50
   4  -4  -2   10.40    0.55
   4  -4  -2   11.32    0.60
   4  -4  -1   20.77    1.45
   4  -4  -1   23.91    1.13
   4  -4   0   57.12    3.29
   4  -4   0   60.00    2.59
   4  -4   1  104.01    4.47
   4  -4   1  103.95    5.25
   4  -4   2   10.82    0.56
   4  -4   2   11.46    0.66
   4  -4   3    5.19    0.32
   4  -4   3    4.76    0.37
   4  -4   4   12.90    0.66
   4  -4   4   13.58    0.69
   4  -4   5   31.56    1.90
   4  -4   5   37.42    1.77
   4  -4   6    0.69    0.23
   4  -4   7   12.70    0.66
   4  -4   7   12.57    0.96
   4  -4   8   18.55    1.34
   4  -4   8   19.31    1.58
   4  -4   9   46.70    2.80
   4  -4   9   45.11    4.22
   4  -4  10    4.22    0.37
   4  -3 -10   24.76    1.58
   4  -3  -9   46.29    2.91
   4  -3  -8    1.63    0.29
   4  -3  -8    1.46    0.38
   4  -3  -8    1.88    0.31
   4  -3  -7    1.89    0.28
   4  -3  -7    1.06    0.19
   4  -3  -7    1.51    0.20
   4  -3  -7    2.08    0.49
   4  -3  -6    1.18    0.25
   4  -3  -6    1.27    0.25
   4  -3  -6    0.89    0.15
   4  -3  -6    0.94    0.17
   4  -3  -5   41.66    2.23
   4  -3  -5   45.91    3.17
   4  -3  -5   43.02    3.15
   4  -3  -5   44.55    2.95
   4  -3  -4   39.25    2.48
   4  -3  -4   46.98    2.71
   4  -3  -4   43.70    2.40
   4  -3  -4   49.16    3.15
   4  -3  -3  201.85    8.97
   4  -3  -3  193.31    8.27
   4  -3  -3  216.79   13.40
   4  -3  -3  236.93   21.44
   4  -3  -2  115.34    5.19
   4  -3  -2  122.57    6.06
   4  -3  -2  119.84    7.89
   4  -3  -2  133.11   10.38
   4  -3  -1   84.12    3.60
   4  -3  -1   89.90    4.52
   4  -3  -1   86.36    5.10
   4  -3  -1   99.90    6.87
   4  -3   0    0.24    0.10
   4  -3   0    0.36    0.09
   4  -3   1    1.29    0.14
   4  -3   1    1.45    0.15
   4  -3   2   22.07    1.14
   4  -3   2   21.88    1.01
   4  -3   3   33.65    1.62
   4  -3   3   35.37    1.56
   4  -3   4    3.47    0.21
   4  -3   4    3.91    0.70
   4  -3   5   13.07    0.60
   4  -3   5   16.08    0.84
   4  -3   6   18.48    0.88
   4  -3   6   21.90    1.39
   4  -3   7   67.07    3.56
   4  -3   7   78.41    4.28
   4  -3   8   11.08    0.63
   4  -3   8   13.34    0.86
   4  -3   9    0.74    0.24
   4  -3   9   -0.02    0.31
   4  -3  10   17.47    1.38
   4  -2 -10    5.89    0.54
   4  -2  -9    2.43    0.57
   4  -2  -9    4.95    0.54
   4  -2  -8    6.05    0.49
   4  -2  -8    5.68    0.45
   4  -2  -8    5.57    0.44
   4  -2  -8    5.63    0.52
   4  -2  -7    1.84    0.27
   4  -2  -7    1.68    0.28
   4  -2  -7    1.33    0.17
   4  -2  -7    1.23    0.16
   4  -2  -7    1.61    0.26
   4  -2  -6   84.62    4.83
   4  -2  -6   95.06    5.15
   4  -2  -6   85.84    5.78
   4  -2  -6   85.95    4.96
   4  -2  -6  104.93    6.50
   4  -2  -5    2.56    0.25
   4  -2  -5    2.31    0.18
   4  -2  -5    1.99    0.22
   4  -2  -5    1.99    0.26
   4  -2  -4  162.90    9.83
   4  -2  -4  182.46   12.30
   4  -2  -4  172.05   12.28
   4  -2  -4  184.15    8.18
   4  -2  -3   43.46    2.31
   4  -2  -3   47.31    2.74
   4  -2  -3   45.05    2.84
   4  -2  -3   45.99    2.66
   4  -2  -3   50.98    3.27
   4  -2  -2  289.46   14.24
   4  -2  -2  320.33   18.90
   4  -2  -2  317.23   18.53
   4  -2  -2  331.47   20.54
   4  -2  -2  331.81   15.33
   4  -2  -1   31.86    1.65
   4  -2  -1   35.49    2.28
   4  -2  -1   38.13    2.08
   4  -2  -1   40.67    2.57
   4  -2  -1   41.58    2.16
   4  -2   0    9.85    0.55
   4  -2   0   10.77    0.62
   4  -2   0   11.18    0.64
   4  -2   0   10.39    0.67
   4  -2   0   11.97    0.70
   4  -2   1    4.14    0.28
   4  -2   1    4.17    0.24
   4  -2   1    4.88    0.33
   4  -2   1    4.82    0.32
   4  -2   2   14.61    0.82
   4  -2   2   15.08    0.67
   4  -2   2   15.33    0.93
   4  -2   3   12.52    0.67
   4  -2   3   14.31    0.63
   4  -2   4   34.73    1.67
   4  -2   4   38.80    1.99
   4  -2   5    7.29    0.38
   4  -2   5    8.63    0.47
   4  -2   6   27.05    1.50
   4  -2   6   29.57    1.58
   4  -2   7    9.96    0.65
   4  -2   7   12.52    0.77
   4  -2   8  190.76    9.85
   4  -2   8  223.91   14.49
   4  -2   9    3.96    0.50
   4  -2   9    1.75    0.34
   4  -2  10    2.91    0.34
   4  -1 -11    0.51    0.32
   4  -1 -10   47.98    2.96
   4  -1 -10   42.50    3.68
   4  -1  -9   67.70    5.10
   4  -1  -9   74.70    3.82
   4  -1  -9   69.56    3.46
   4  -1  -8    0.18    0.25
   4  -1  -8    0.61    0.21
   4  -1  -8    0.79    0.26
   4  -1  -7   56.33    3.25
   4  -1  -7   63.34    3.30
   4  -1  -7   56.39    4.51
   4  -1  -7   61.42    4.86
   4  -1  -7   65.87    5.12
   4  -1  -6   32.57    1.84
   4  -1  -6   35.80    1.74
   4  -1  -6   34.97    1.61
   4  -1  -6   35.03    1.94
   4  -1  -6   39.68    2.16
   4  -1  -5  171.90   10.81
   4  -1  -5  198.07   11.78
   4  -1  -5  182.81   11.35
   4  -1  -5  188.78   10.33
   4  -1  -5  218.21   12.04
   4  -1  -4  152.21    8.77
   4  -1  -4  166.66   10.03
   4  -1  -4  157.83    8.45
   4  -1  -4  160.67    9.33
   4  -1  -4  172.35    7.83
   4  -1  -3   54.04    2.71
   4  -1  -3   58.52    3.35
   4  -1  -3   55.81    2.79
   4  -1  -3   59.77    3.62
   4  -1  -3   66.09    3.60
   4  -1  -2   21.96    1.16
   4  -1  -2   22.86    1.11
   4  -1  -2   23.82    1.34
   4  -1  -2   24.63    1.28
   4  -1  -2   27.00    1.11
   4  -1  -1   15.25    0.87
   4  -1  -1   14.73    0.78
   4  -1  -1   15.87    0.88
   4  -1  -1   16.75    0.89
   4  -1   0   45.40    2.69
   4  -1   0   54.75    3.44
   4  -1   0   60.33    3.15
   4  -1   1   15.33    0.73
   4  -1   1   16.48    0.81
   4  -1   1   16.87    0.90
   4  -1   1   16.64    0.83
   4  -1   2   35.19    1.62
   4  -1   2   33.74    1.71
   4  -1   2   36.12    1.76
   4  -1   2   39.41    1.99
   4  -1   3    2.36    0.20
   4  -1   3    2.22    0.16
   4  -1   3    1.90    0.20
   4  -1   4    0.50    0.09
   4  -1   4    0.92    0.13
   4  -1   4    0.69    0.15
   4  -1   5   40.95    1.89
   4  -1   5   51.05    2.46
   4  -1   5   47.77    2.46
   4  -1   6   18.06    0.92
   4  -1   6   21.82    1.48
   4  -1   6   20.42    1.16
   4  -1   7   75.52    3.13
   4  -1   7   91.84    6.15
   4  -1   7   85.23    5.22
   4  -1   8   35.44    1.64
   4  -1   8   42.91    3.13
   4  -1   8   33.62    2.40
   4  -1   9    1.45    0.23
   4  -1   9    0.75    0.34
   4  -1  10    1.28    0.25
   4   0 -11    8.07    0.64
   4   0 -11    6.72    0.71
   4   0 -10    8.06    0.89
   4   0 -10    8.48    0.68
   4   0 -10    7.25    0.58
   4   0  -9    2.21    0.35
   4   0  -9    1.86    0.25
   4   0  -8  154.95    8.95
   4   0  -8  135.91    6.27
   4   0  -7   14.70    0.80
   4   0  -7   17.23    0.76
   4   0  -7   13.96    0.63
   4   0  -6    8.36    0.43
   4   0  -6    8.35    0.51
   4   0  -6    7.06    0.42
   4   0  -6    7.58    0.50
   4   0  -5   37.39    2.09
   4   0  -5   41.99    2.02
   4   0  -5   36.22    1.70
   4   0  -5   39.47    1.82
   4   0  -5   42.01    1.94
   4   0  -4   24.59    1.38
   4   0  -4   27.99    1.85
   4   0  -4   24.41    1.21
   4   0  -4   25.95    1.22
   4   0  -4   30.93    1.44
   4   0  -3   16.54    1.04
   4   0  -3   17.25    1.01
   4   0  -3   18.70    1.02
   4   0  -3   23.72    1.31
   4   0  -2   40.18    2.11
   4   0  -2   44.40    2.75
   4   0  -2   41.56    1.97
   4   0  -2   43.75    2.10
   4   0  -2   50.32    2.63
   4   0  -1   88.79    4.37
   4   0  -1   99.41    4.88
   4   0  -1  109.42    5.43
   4   0   0    0.51    0.16
   4   0   0    0.33    0.13
   4   0   0    0.42    0.15
   4   0   1   12.49    0.72
   4   0   1   18.76    0.89
   4   0   1   18.27    0.91
   4   0   2   20.27    1.09
   4   0   2   21.28    0.93
   4   0   2   22.03    1.06
   4   0   2   20.72    1.10
   4   0   2   24.14    1.24
   4   0   3  128.64    6.57
   4   0   3  142.04    6.93
   4   0   3  139.18    6.77
   4   0   3  144.00    7.56
   4   0   4   11.42    0.59
   4   0   4   10.55    0.52
   4   0   4   10.83    0.73
   4   0   5   58.02    3.20
   4   0   5   61.52    2.97
   4   0   5   64.33    3.32
   4   0   5   67.96    3.53
   4   0   6   -0.16    0.14
   4   0   6   -0.14    0.15
   4   0   6    0.00    0.20
   4   0   7   15.54    0.83
   4   0   7   17.20    1.31
   4   0   7   16.13    1.49
   4   0   8    7.73    0.45
   4   0   8    8.99    0.64
   4   0   8    6.37    0.54
   4   0   9    2.52    0.35
   4   0   9    1.97    0.57
   4   0   9    1.76    0.25
   4   0  10   34.14    2.46
   4   1 -11   21.80    1.44
   4   1 -10   24.01    1.76
   4   1 -10   24.95    1.50
   4   1  -9   27.59    1.62
   4   1  -9   29.80    1.71
   4   1  -8   71.11    3.98
   4   1  -8   73.11    3.32
   4   1  -7   61.89    3.42
   4   1  -7   67.74    3.53
   4   1  -6    3.70    0.28
   4   1  -6    4.45    0.31
   4   1  -5    7.82    0.57
   4   1  -5    8.22    0.47
   4   1  -5    8.26    0.57
   4   1  -5    8.66    0.49
   4   1  -4   12.74    0.88
   4   1  -4   14.04    0.79
   4   1  -4   12.49    0.75
   4   1  -4   14.92    0.75
   4   1  -3    9.02    0.53
   4   1  -3   10.46    0.56
   4   1  -3   12.48    1.35
   4   1  -2   81.55    4.03
   4   1  -2   97.79    5.41
   4   1  -2   95.03    4.37
   4   1  -2  102.08    5.44
   4   1  -1  370.20   18.33
   4   1  -1  403.74   19.58
   4   1   0   62.71    3.02
   4   1   0   72.80    3.41
   4   1   0   78.71    3.67
   4   1   1    4.47    0.37
   4   1   1    5.30    0.28
   4   1   1    5.11    0.33
   4   1   1    5.36    0.39
   4   1   2  279.41   17.11
   4   1   2  283.05   13.71
   4   1   2  310.57   15.11
   4   1   2  341.87   20.49
   4   1   3    7.47    0.40
   4   1   3    7.78    0.39
   4   1   3    7.79    0.42
   4   1   3    6.59    0.54
   4   1   3    7.69    0.53
   4   1   4   33.23    1.59
   4   1   4   38.70    2.31
   4   1   4   36.18    1.79
   4   1   4   34.62    2.05
   4   1   5   51.27    2.64
   4   1   5   57.82    3.72
   4   1   5   56.93    2.75
   4   1   5   56.75    4.28
   4   1   6    2.73    0.23
   4   1   6    2.87    0.62
   4   1   6    2.93    0.27
   4   1   6    2.40    0.31
   4   1   7   81.90    4.52
   4   1   7   88.89    6.48
   4   1   7   81.25    7.58
   4   1   8    0.32    0.23
   4   1   8   -0.41    0.28
   4   1   8   -0.18    0.21
   4   1   9   65.60    4.39
   4   1   9   73.56    5.11
   4   2 -11  123.17    8.56
   4   2 -10   18.80    1.71
   4   2 -10   20.55    1.25
   4   2  -9   14.41    1.08
   4   2  -9   15.35    0.85
   4   2  -8    3.61    0.34
   4   2  -8    2.82    0.44
   4   2  -7   10.35    0.65
   4   2  -7   10.12    0.50
   4   2  -6   18.04    0.98
   4   2  -5    7.19    0.44
   4   2  -5    7.99    0.43
   4   2  -4  161.81   10.39
   4   2  -4  165.08    8.57
   4   2  -4  170.75    9.79
   4   2  -4  182.06   12.05
   4   2  -3   10.09    0.57
   4   2  -3   11.70    0.57
   4   2  -3   11.90    0.77
   4   2  -3   11.35    0.66
   4   2  -2   34.47    1.90
   4   2  -2   31.43    1.67
   4   2  -2   36.56    1.90
   4   2  -2   39.17    3.26
   4   2  -1  605.82   33.07
   4   2  -1  635.99   25.99
   4   2   0   42.10    2.12
   4   2   0   49.83    2.63
   4   2   0   48.35    2.49
   4   2   0   54.91    3.10
   4   2   1   39.38    1.93
   4   2   1   45.60    2.11
   4   2   1   46.78    2.35
   4   2   1   49.13    2.46
   4   2   2    2.62    0.20
   4   2   2    3.39    0.22
   4   2   2    2.75    0.27
   4   2   2    2.77    0.23
   4   2   2    2.73    0.25
   4   2   3    0.39    0.09
   4   2   3   -0.10    0.13
   4   2   3    0.29    0.21
   4   2   3    0.41    0.19
   4   2   4   59.46    3.33
   4   2   4   66.36    3.29
   4   2   4   62.23    2.77
   4   2   4   64.47    4.34
   4   2   5    6.71    0.42
   4   2   5    8.19    0.45
   4   2   5    7.38    0.44
   4   2   5    7.12    0.55
   4   2   6    0.19    0.22
   4   2   6    0.02    0.13
   4   2   7   38.56    2.77
   4   2   7   41.35    2.74
   4   2   7   38.04    2.65
   4   2   7   34.41    2.63
   4   2   8   31.87    1.91
   4   2   8   35.71    2.72
   4   2   8   26.95    2.32
   4   2   9   15.52    1.10
   4   3 -11    1.95    0.31
   4   3 -10   21.58    1.72
   4   3 -10   25.64    1.42
   4   3  -9   30.36    2.22
   4   3  -9   34.16    1.84
   4   3  -8   55.72    3.88
   4   3  -8   56.57    2.66
   4   3  -7   48.92    2.77
   4   3  -7   47.90    2.17
   4   3  -6  105.63    6.63
   4   3  -6  109.82    4.72
   4   3  -5   13.95    1.03
   4   3  -5   14.90    0.64
   4   3  -4  108.66    6.72
   4   3  -4  109.76    4.15
   4   3  -3   91.29    3.63
   4   3  -3   82.06    3.83
   4   3  -3   99.75    4.52
   4   3  -2    9.96    0.46
   4   3  -2   10.91    0.61
   4   3  -2   10.82    0.60
   4   3  -1   57.73    2.65
   4   3  -1   59.13    3.14
   4   3  -1   65.84    3.22
   4   3  -1   68.76    3.57
   4   3   0    1.55    0.13
   4   3   0    2.45    0.18
   4   3   0    1.94    0.34
   4   3   0    1.93    0.25
   4   3   1    3.80    0.28
   4   3   1    3.88    0.21
   4   3   1    3.74    0.36
   4   3   1    4.44    0.39
   4   3   2   52.03    2.92
   4   3   2   57.39    2.20
   4   3   2   56.21    3.55
   4   3   2   55.75    2.76
   4   3   3    6.57    0.42
   4   3   3    8.04    0.74
   4   3   3    6.77    0.49
   4   3   3    7.45    0.69
   4   3   4  340.49   18.27
   4   3   4  360.14   20.47
   4   3   4  326.54   16.39
   4   3   4  353.96   20.59
   4   3   5   37.43    2.02
   4   3   5   42.28    2.61
   4   3   5   38.71    1.92
   4   3   5   39.82    2.78
   4   3   6   25.70    1.39
   4   3   6   26.88    1.43
   4   3   6   24.59    1.67
   4   3   7    2.74    0.28
   4   3   7    2.06    0.31
   4   3   7    2.60    0.28
   4   3   7    1.82    0.31
   4   3   8   17.53    1.44
   4   3   8   19.18    5.51
   4   4 -10    6.21    0.50
   4   4  -9   39.64    2.50
   4   4  -9   41.67    2.49
   4   4  -8    0.62    0.23
   4   4  -8   -0.02    0.21
   4   4  -7   85.47    5.54
   4   4  -7   89.42    4.18
   4   4  -6   -0.01    0.16
   4   4  -6   -0.14    0.09
   4   4  -5    3.36    0.26
   4   4  -5    2.74    0.25
   4   4  -4    5.80    0.34
   4   4  -4    6.29    0.38
   4   4  -3   18.88    0.82
   4   4  -3   19.97    1.38
   4   4  -2    0.37    0.12
   4   4  -2    0.66    0.24
   4   4  -2    0.35    0.26
   4   4  -1    0.24    0.15
   4   4  -1    0.30    0.10
   4   4  -1    0.33    0.17
   4   4   0   33.96    1.48
   4   4   0   36.50    1.80
   4   4   0   37.01    2.02
   4   4   1    0.51    0.13
   4   4   1    0.54    0.24
   4   4   1    0.40    0.22
   4   4   2   16.52    0.84
   4   4   2   19.41    1.03
   4   4   2   18.20    1.15
   4   4   3   41.68    2.25
   4   4   3   47.24    2.12
   4   4   3   44.37    2.76
   4   4   4   32.78    2.18
   4   4   4   38.42    1.83
   4   4   4   31.09    1.84
   4   4   5   15.42    0.90
   4   4   5   17.08    1.26
   4   4   5   14.51    1.00
   4   4   6    6.45    0.73
   4   4   6    2.89    0.39
   4   4   6    2.09    0.27
   4   4   7    2.61    0.34
   4   4   7    2.12    0.40
   4   4   7    1.97    0.25
   4   5  -9   68.15    5.67
   4   5  -9   72.71    4.67
   4   5  -8    4.89    0.50
   4   5  -8    5.80    0.48
   4   5  -7    0.91    0.39
   4   5  -7    0.48    0.25
   4   5  -6   15.44    0.66
   4   5  -6   14.68    0.99
   4   5  -5   69.84    3.20
   4   5  -5   70.90    4.07
   4   5  -4    3.47    0.34
   4   5  -4    3.90    0.33
   4   5  -3   14.69    1.04
   4   5  -3   16.51    0.96
   4   5  -2   16.08    0.74
   4   5  -2   18.43    0.88
   4   5  -1   95.84    4.12
   4   5  -1  109.56    6.14
   4   5  -1  102.90    5.39
   4   5   0    9.28    0.48
   4   5   0    9.30    0.59
   4   5   0   10.28    0.63
   4   5   1  355.25   18.00
   4   5   1  374.49   16.98
   4   5   1  396.86   22.42
   4   5   2   16.26    0.97
   4   5   2   16.75    0.88
   4   5   2   16.52    1.51
   4   5   3   14.83    0.88
   4   5   3   15.20    0.83
   4   5   3   14.07    1.00
   4   5   4   14.15    1.33
   4   5   4   13.56    0.89
   4   5   5    9.25    0.77
   4   5   5   10.59    0.87
   4   5   5   10.14    0.76
   4   5   6    3.88    0.46
   4   5   6    4.24    0.50
   4   5   6    4.31    0.47
   4   6  -8    1.93    0.30
   4   6  -8    1.86    0.38
   4   6  -7    0.14    0.23
   4   6  -7    1.25    0.52
   4   6  -6    0.87    0.41
   4   6  -6    1.04    0.37
   4   6  -5   71.68    4.15
   4   6  -5   80.61    4.55
   4   6  -4   91.77    4.78
   4   6  -4  101.73    5.50
   4   6  -3   43.82    2.61
   4   6  -3   49.47    2.20
   4   6  -2   44.88    2.36
   4   6  -2   52.42    4.98
   4   6  -1    8.09    0.51
   4   6  -1    8.89    0.67
   4   6   0  173.24    8.40
   4   6   0  180.96   12.02
   4   6   1   30.54    1.70
   4   6   1   34.30    1.96
   4   6   1   32.70    2.39
   4   6   2   60.74    3.81
   4   6   2   61.77    3.78
   4   6   2   61.16    4.78
   4   6   3    0.05    0.19
   4   6   3   -0.06    0.32
   4   6   4    3.02    0.34
   4   7  -7   16.65    1.26
   4   7  -7   15.34    1.37
   4   7  -6    1.38    0.26
   4   7  -6    1.90    0.33
   4   7  -5    7.32    0.68
   4   7  -5    7.64    0.80
   4   7  -4   28.74    1.82
   4   7  -4   32.03    2.29
   4   7  -3   16.54    1.16
   4   7  -3   17.86    1.27
   4   7  -2   20.53    1.37
   4   7  -2   23.22    1.49
   4   7  -1    0.04    0.19
   4   7  -1    0.22    0.25
   4   7   0   10.02    0.73
   4   7   0   10.48    0.91
   4   7   1    0.76    0.17
   4   7   1    0.85    0.32
   4   7   2    0.90    0.26
   4   7   2    0.89    0.37
   5  -8  -2   28.63    1.94
   5  -8  -1    4.33    0.52
   5  -8   0    5.74    0.53
   5  -8   1  133.59   10.17
   5  -8   2   14.66    0.97
   5  -8   3   12.30    0.85
   5  -8   4   -0.33    0.30
   5  -8   5    2.59    0.51
   5  -7  -4    5.23    0.49
   5  -7  -3    4.64    0.47
   5  -7  -2   55.06    3.85
   5  -7  -1   26.87    2.52
   5  -7  -1   28.66    1.83
   5  -7   0    0.60    0.36
   5  -7   0    0.79    0.22
   5  -7   1   54.11    2.85
   5  -7   1   56.39    2.88
   5  -7   2    2.90    0.29
   5  -7   2    2.48    0.42
   5  -7   3   24.29    1.41
   5  -7   3   26.47    1.80
   5  -7   4   40.48    2.86
   5  -7   4   41.83    3.01
   5  -7   5    2.48    0.34
   5  -7   6   35.81    2.32
   5  -7   7    0.34    0.22
   5  -6  -6    1.58    0.38
   5  -6  -5    9.75    0.82
   5  -6  -4    2.02    0.43
   5  -6  -4    3.33    0.40
   5  -6  -3   63.27    4.33
   5  -6  -3   74.42    4.48
   5  -6  -2  148.50    8.73
   5  -6  -2  157.34   11.07
   5  -6  -1   34.34    2.56
   5  -6  -1   37.65    2.08
   5  -6   0   27.38    1.69
   5  -6   0   31.64    1.48
   5  -6   1    5.77    0.40
   5  -6   1    7.56    0.52
   5  -6   2    7.86    0.50
   5  -6   2    7.48    0.66
   5  -6   3    3.57    0.30
   5  -6   3    3.43    0.33
   5  -6   4   -0.07    0.14
   5  -6   4    0.87    0.37
   5  -6   5   34.55    2.09
   5  -6   5   35.63    2.36
   5  -6   6   25.53    1.67
   5  -6   6   27.94    1.97
   5  -6   7    2.99    0.34
   5  -6   8    2.08    0.32
   5  -5  -7   16.24    1.28
   5  -5  -6    2.96    0.61
   5  -5  -6    1.73    0.30
   5  -5  -6    1.47    0.27
   5  -5  -5    0.26    0.28
   5  -5  -5    0.32    0.24
   5  -5  -5    0.73    0.22
   5  -5  -5    0.64    0.22
   5  -5  -4   12.91    1.06
   5  -5  -4   16.68    1.00
   5  -5  -4   11.49    0.91
   5  -5  -4   15.39    1.30
   5  -5  -3    3.03    0.35
   5  -5  -3    2.93    0.25
   5  -5  -2  234.05   15.62
   5  -5  -2  232.26   10.46
   5  -5  -1  138.24    7.03
   5  -5  -1  149.53    8.57
   5  -5   0    1.12    0.22
   5  -5   0    1.36    0.22
   5  -5   1    0.14    0.17
   5  -5   1    0.16    0.19
   5  -5   2    1.35    0.16
   5  -5   2    1.59    0.25
   5  -5   3  204.04   10.18
   5  -5   3  197.84    9.75
   5  -5   4    2.53    0.29
   5  -5   4    2.35    0.33
   5  -5   5   14.29    0.73
   5  -5   5   15.82    1.03
   5  -5   6   61.74    3.10
   5  -5   6   76.23    4.09
   5  -5   7    3.38    0.29
   5  -5   7    3.27    0.47
   5  -5   8   30.68    2.31
   5  -5   8   33.32    3.18
   5  -5   9    3.35    0.38
   5  -4  -8   13.12    0.94
   5  -4  -7   18.55    1.77
   5  -4  -7   21.82    1.36
   5  -4  -7   16.46    1.56
   5  -4  -6    7.14    0.62
   5  -4  -6    7.36    0.53
   5  -4  -6    6.78    0.69
   5  -4  -6    7.87    0.85
   5  -4  -5   19.88    1.23
   5  -4  -5   23.70    1.25
   5  -4  -5   19.74    2.03
   5  -4  -5   22.04    1.56
   5  -4  -4   10.50    0.78
   5  -4  -4   11.16    0.72
   5  -4  -4   10.85    0.86
   5  -4  -4   12.28    0.88
   5  -4  -3    0.18    0.19
   5  -4  -3    0.00    0.12
   5  -4  -3   -0.21    0.12
   5  -4  -3    0.12    0.33
   5  -4  -2    3.95    0.29
   5  -4  -2    3.27    0.34
   5  -4  -2    3.31    0.37
   5  -4  -1    1.03    0.24
   5  -4  -1    1.01    0.17
   5  -4   0    8.75    0.44
   5  -4   0    8.88    0.45
   5  -4   1    5.77    0.35
   5  -4   1    5.18    0.28
   5  -4   2  101.71    4.43
   5  -4   2   97.67    5.12
   5  -4   3    0.44    0.19
   5  -4   3    0.53    0.15
   5  -4   4   75.21    3.01
   5  -4   4   78.83    4.46
   5  -4   5   16.74    1.00
   5  -4   5   17.24    1.01
   5  -4   6    1.21    0.22
   5  -4   6    1.25    0.24
   5  -4   7    7.22    0.50
   5  -4   7    7.54    0.58
   5  -4   8    0.37    0.16
   5  -4   8    3.27    1.69
   5  -4   9    4.15    0.45
   5  -3  -9   22.01    1.67
   5  -3  -8   20.05    1.70
   5  -3  -8   24.32    1.66
   5  -3  -8   19.01    2.31
   5  -3  -7    7.94    0.59
   5  -3  -7    8.99    0.53
   5  -3  -7    8.12    2.80
   5  -3  -6   46.69    3.17
   5  -3  -6   49.31    2.77
   5  -3  -6   43.30    3.66
   5  -3  -6   40.73    2.89
   5  -3  -5    0.33    0.22
   5  -3  -5    0.41    0.20
   5  -3  -5    0.33    0.15
   5  -3  -5    0.59    0.18
   5  -3  -4   27.34    1.75
   5  -3  -4   25.34    1.83
   5  -3  -4   27.57    2.41
   5  -3  -3    0.10    0.14
   5  -3  -3    0.12    0.14
   5  -3  -3   -0.04    0.53
   5  -3  -3    0.37    0.20
   5  -3  -2    1.40    0.22
   5  -3  -2    1.02    0.22
   5  -3  -2    0.82    0.23
   5  -3  -1    0.50    0.17
   5  -3  -1    0.41    0.14
   5  -3  -1    0.86    0.24
   5  -3  -1    0.34    0.17
   5  -3   0   32.31    1.26
   5  -3   0   35.67    1.83
   5  -3   0   29.35    1.61
   5  -3   0   38.73    2.58
   5  -3   0   36.30    2.61
   5  -3   1   16.39    0.82
   5  -3   1   14.87    0.70
   5  -3   2   18.28    0.82
   5  -3   2   21.74    0.99
   5  -3   3   83.84    4.19
   5  -3   3   75.11    3.75
   5  -3   4   21.03    1.00
   5  -3   4   22.13    1.08
   5  -3   5    1.94    0.27
   5  -3   5    1.95    0.21
   5  -3   6    4.21    0.37
   5  -3   6    5.27    0.39
   5  -3   7    4.71    0.35
   5  -3   7    6.21    0.66
   5  -3   8    1.02    0.20
   5  -3   8    1.65    0.27
   5  -3   9   -0.04    0.16
   5  -3   9    0.39    0.24
   5  -2  -9    1.10    0.29
   5  -2  -8   17.02    1.22
   5  -2  -8   18.75    1.00
   5  -2  -8   14.92    1.17
   5  -2  -7    2.51    0.36
   5  -2  -7    2.37    0.24
   5  -2  -7    2.36    0.30
   5  -2  -6   63.61    3.87
   5  -2  -6   63.86    3.64
   5  -2  -6   62.73    3.94
   5  -2  -5   24.42    1.29
   5  -2  -5   22.19    1.22
   5  -2  -5   22.91    1.24
   5  -2  -5   20.56    1.25
   5  -2  -4    0.26    0.36
   5  -2  -4    0.10    0.16
   5  -2  -4    0.02    0.14
   5  -2  -4   -0.15    0.20
   5  -2  -4    0.09    0.20
   5  -2  -3  160.32   10.19
   5  -2  -3  164.70   10.11
   5  -2  -3  161.24    9.69
   5  -2  -3  193.74   15.64
   5  -2  -2   28.60    1.59
   5  -2  -2   30.12    1.69
   5  -2  -2   31.58    1.92
   5  -2  -2   31.41    1.91
   5  -2  -2   35.24    2.35
   5  -2  -1  254.62   14.27
   5  -2  -1  271.92   15.15
   5  -2  -1  270.92   16.89
   5  -2  -1  274.86   16.41
   5  -2  -1  279.34   15.42
   5  -2   0    4.59    0.23
   5  -2   0    4.53    0.33
   5  -2   0    4.88    0.31
   5  -2   0    4.82    0.48
   5  -2   0    5.13    0.42
   5  -2   1   48.39    2.21
   5  -2   1   49.63    2.70
   5  -2   1   54.86    3.88
   5  -2   1   59.31    5.45
   5  -2   2    0.41    0.10
   5  -2   2    0.42    0.08
   5  -2   2    0.09    0.13
   5  -2   3    3.75    0.22
   5  -2   3    4.39    0.24
   5  -2   4   14.02    0.65
   5  -2   4   12.25    0.93
   5  -2   5    0.19    0.49
   5  -2   5    0.13    0.10
   5  -2   6    1.26    0.17
   5  -2   6    1.75    0.58
   5  -2   7   25.23    1.33
   5  -2   7   28.05    1.46
   5  -2   8   -0.01    0.24
   5  -2   8    0.09    0.26
   5  -2   9   29.55    2.21
   5  -2   9   35.48    2.63
   5  -1 -10    5.10    0.44
   5  -1 -10    4.59    0.99
   5  -1  -9   12.90    1.89
   5  -1  -9   14.21    0.96
   5  -1  -9   13.01    1.06
   5  -1  -8   13.42    1.05
   5  -1  -8   15.39    0.83
   5  -1  -8   13.43    0.90
   5  -1  -8   12.28    0.77
   5  -1  -7    9.54    0.59
   5  -1  -7    9.37    0.53
   5  -1  -7    8.70    0.50
   5  -1  -7   11.16    1.24
   5  -1  -6  149.74    8.41
   5  -1  -6  139.42    7.11
   5  -1  -6  137.41    8.42
   5  -1  -5  103.32    6.29
   5  -1  -5  116.02    6.83
   5  -1  -5  107.24    6.65
   5  -1  -5  109.09    6.88
   5  -1  -4   63.26    3.93
   5  -1  -4   72.07    4.31
   5  -1  -4   69.12    3.61
   5  -1  -4   71.57    3.69
   5  -1  -4   66.58    4.43
   5  -1  -3    3.37    0.20
   5  -1  -3    3.83    0.27
   5  -1  -3    3.26    0.32
   5  -1  -3    3.62    0.41
   5  -1  -2  169.31   10.41
   5  -1  -2  166.30    8.15
   5  -1  -2  172.58   10.41
   5  -1  -2  195.69   13.47
   5  -1  -1    1.55    0.12
   5  -1  -1    2.10    0.12
   5  -1  -1    2.15    0.35
   5  -1  -1    2.03    0.29
   5  -1  -1    2.55    0.26
   5  -1   0   63.20    3.13
   5  -1   0   71.98    3.50
   5  -1   0   74.22    4.94
   5  -1   0   79.45    5.90
   5  -1   1    4.93    0.27
   5  -1   1    4.82    0.28
   5  -1   1    5.62    0.33
   5  -1   1    4.41    0.40
   5  -1   1    5.77    0.42
   5  -1   2    0.67    0.09
   5  -1   2    1.26    0.26
   5  -1   2    0.85    0.21
   5  -1   2    0.91    0.17
   5  -1   3   13.92    0.79
   5  -1   3   14.10    0.68
   5  -1   3   14.83    0.85
   5  -1   4    1.48    0.15
   5  -1   4    1.31    0.22
   5  -1   5   39.65    1.77
   5  -1   5   44.61    2.14
   5  -1   6   -0.06    0.15
   5  -1   6   -0.18    0.17
   5  -1   7   40.22    2.13
   5  -1   7   43.40    3.11
   5  -1   8   23.26    1.67
   5  -1   9    8.45    0.68
   5  -1   9    9.37    1.41
   5   0 -10    0.01    0.20
   5   0  -9    0.92    0.25
   5   0  -9    0.50    0.25
   5   0  -9    0.82    0.16
   5   0  -8    9.03    1.01
   5   0  -8   10.89    0.60
   5   0  -8    8.53    0.58
   5   0  -7   24.71    1.39
   5   0  -7   25.86    1.15
   5   0  -7   23.36    1.27
   5   0  -7   23.09    2.01
   5   0  -6  119.90    6.76
   5   0  -6  132.32    6.71
   5   0  -6  119.38    5.47
   5   0  -6  121.79    7.81
   5   0  -5   56.83    3.27
   5   0  -5   62.31    3.77
   5   0  -5   57.48    2.55
   5   0  -5   56.62    3.50
   5   0  -4  123.78    7.02
   5   0  -4  122.39    6.91
   5   0  -4  129.60    7.43
   5   0  -3   24.94    1.11
   5   0  -3   26.50    1.47
   5   0  -3   23.38    1.28
   5   0  -2   52.24    2.95
   5   0  -2   56.74    2.81
   5   0  -2   55.60    2.51
   5   0  -2   60.72    3.17
   5   0  -2   69.83    4.10
   5   0  -1   65.82    3.42
   5   0  -1   68.33    3.81
   5   0  -1   74.78    4.68
   5   0   0   13.81    0.71
   5   0   0   17.03    2.02
   5   0   0   15.80    1.30
   5   0   1   28.51    1.46
   5   0   1   28.48    1.96
   5   0   1   32.49    2.05
   5   0   2   11.12    0.65
   5   0   2   11.61    0.65
   5   0   2   11.93    0.81
   5   0   2   11.70    0.69
   5   0   3   14.62    0.71
   5   0   3    7.42    0.68
   5   0   4  163.60    7.80
   5   0   4  166.74    9.45
   5   0   5    2.97    0.24
   5   0   5    3.38    0.28
   5   0   5    3.51    0.35
   5   0   6   12.11    0.75
   5   0   6   14.22    0.86
   5   0   7    0.18    0.17
   5   0   7    0.14    0.27
   5   0   8    3.44    0.29
   5   0   8    3.97    0.50
   5   0   9    4.25    0.45
   5   0   9    5.00    0.58
   5   1 -10   28.81    2.56
   5   1 -10   39.03    2.16
   5   1  -9   74.12    4.33
   5   1  -9   74.66    4.42
   5   1  -8  102.20    5.41
   5   1  -8  109.51    6.34
   5   1  -7   25.07    1.60
   5   1  -7   27.83    1.54
   5   1  -6    0.24    0.09
   5   1  -6   -0.25    0.16
   5   1  -5  175.52   10.96
   5   1  -5  181.33   10.81
   5   1  -4   20.98    1.17
   5   1  -4   15.33    1.13
   5   1  -3    9.90    0.42
   5   1  -3   10.94    0.63
   5   1  -3   10.63    0.73
   5   1  -2   16.43    0.87
   5   1  -2   18.33    1.07
   5   1  -1    1.44    0.22
   5   1  -1    1.90    0.28
   5   1   0   25.36    1.28
   5   1   0   26.63    1.57
   5   1   0   30.24    2.22
   5   1   1    6.93    0.44
   5   1   1    5.84    0.42
   5   1   1    7.21    0.53
   5   1   2  306.97   16.04
   5   1   2  310.20   15.24
   5   1   2  329.14   15.92
   5   1   2  257.50   26.72
   5   1   3    2.33    0.17
   5   1   3    2.83    0.17
   5   1   3    2.37    0.25
   5   1   4  176.01    8.34
   5   1   4  195.34   10.67
   5   1   4  184.55    9.88
   5   1   5  168.92    9.35
   5   1   5  187.68   11.29
   5   1   5  181.40   10.92
   5   1   6   30.75    1.75
   5   1   6   33.23    2.03
   5   1   6   29.99    1.81
   5   1   7    0.33    0.14
   5   1   7   -0.18    0.23
   5   2 -10    8.37    3.76
   5   2 -10    5.66    0.57
   5   2  -9   54.81    4.00
   5   2  -9   58.90    3.66
   5   2  -8   54.76    3.33
   5   2  -8   59.17    2.98
   5   2  -7   24.19    1.52
   5   2  -7   27.58    1.38
   5   2  -6    2.23    0.19
   5   2  -6    2.49    0.20
   5   2  -5    5.58    2.34
   5   2  -5    3.21    0.23
   5   2  -4   40.31    1.97
   5   2  -4   47.40    2.43
   5   2  -3    1.55    0.52
   5   2  -3    1.38    0.10
   5   2  -2   52.98    2.50
   5   2   1  115.93    5.78
   5   2   1  121.34    6.73
   5   2   1  122.93    5.99
   5   2   2    5.19    0.35
   5   2   2    6.17    0.31
   5   2   2    5.71    0.39
   5   2   3  130.51    9.04
   5   2   3  136.60    8.66
   5   2   3  123.45    6.29
   5   2   4    0.14    0.34
   5   2   4    0.30    0.15
   5   2   4    0.09    0.13
   5   2   5    6.89    0.44
   5   2   5    7.02    0.51
   5   2   5    7.19    0.52
   5   2   6   32.87    2.12
   5   2   6   34.02    2.44
   5   2   6   33.16    2.37
   5   2   7    0.93    0.21
   5   2   7    1.73    0.32
   5   2   7    1.16    0.20
   5   2   8   19.68    1.33
   5   2   8   21.23    1.54
   5   3 -10   49.51    3.78
   5   3 -10   62.08    4.24
   5   3  -9    0.00    0.17
   5   3  -9    0.13    0.23
   5   3  -8    4.95    0.46
   5   3  -8    6.12    0.89
   5   3  -7    7.53    0.56
   5   3  -7    9.05    0.54
   5   3  -6   26.93    1.73
   5   3  -6   27.78    1.34
   5   3  -5  196.54   12.78
   5   3  -5  205.86    9.92
   5   3  -4   18.71    0.99
   5   3  -4   17.42    0.99
   5   3  -3   34.81    1.60
   5   3  -3   32.80    2.04
   5   3  -2    5.03    0.28
   5   3  -2    4.73    0.25
   5   3  -1   33.31    1.57
   5   3  -1   34.86    1.98
   5   3   0    8.63    0.48
   5   3   0    9.19    0.47
   5   3   1    4.07    0.29
   5   3   2   21.73    1.51
   5   3   2   27.35    1.46
   5   3   2   23.92    1.29
   5   3   3   16.28    0.87
   5   3   3   16.29    0.96
   5   3   3   15.22    0.79
   5   3   4   13.81    1.04
   5   3   4   13.50    0.73
   5   3   5    6.40    0.44
   5   3   5    7.27    0.45
   5   3   5    5.59    0.50
   5   3   6   23.28    1.61
   5   3   6   24.99    1.97
   5   3   6   23.54    1.68
   5   3   7   41.99    3.48
   5   3   7   41.19    2.99
   5   3   7   37.85    3.03
   5   4  -9    0.10    0.29
   5   4  -9    1.09    0.30
   5   4  -8    4.17    0.59
   5   4  -8    3.78    0.35
   5   4  -7   42.76    2.38
   5   4  -6    6.71    0.46
   5   4  -6    6.32    0.50
   5   4  -5  102.17    5.60
   5   4  -5   99.07    6.55
   5   4  -4  161.74    8.96
   5   4  -4  163.07    7.96
   5   4  -3   11.41    0.64
   5   4  -3   11.52    0.66
   5   4  -2    0.10    0.08
   5   4  -2   -0.05    0.09
   5   4  -1   15.62    1.02
   5   4  -1   18.91    1.04
   5   4   0   29.54    1.69
   5   4   0   31.60    1.62
   5   4   1   20.17    1.13
   5   4   1   24.47    1.20
   5   4   2    0.06    0.12
   5   4   2   -0.06    0.12
   5   4   3   10.71    0.79
   5   4   3   11.31    0.85
   5   4   3   10.38    0.73
   5   4   4    4.42    0.41
   5   4   5    6.51    0.66
   5   4   5    7.02    0.61
   5   4   5    6.47    0.62
   5   4   6   15.36    1.35
   5   4   6   14.99    2.07
   5   4   6   13.81    1.19
   5   5  -8   45.47    4.13
   5   5  -8   47.84    3.00
   5   5  -7    2.48    0.38
   5   5  -7    2.72    0.75
   5   5  -6   66.40    3.97
   5   5  -6   65.44    4.42
   5   5  -5    0.09    0.10
   5   5  -5   -0.23    0.16
   5   5  -4    1.98    0.20
   5   5  -4    2.28    0.74
   5   5  -3    2.59    0.45
   5   5  -3    2.57    0.24
   5   5  -2    0.67    0.15
   5   5  -2    0.85    0.31
   5   5  -1   18.70    0.84
   5   5  -1   20.39    1.28
   5   5   0   16.23    1.16
   5   5   0   17.66    0.98
   5   5   1   12.83    0.75
   5   5   1   15.10    1.31
   5   5   2   14.36    1.10
   5   5   2   16.51    1.26
   5   5   3  122.32    9.95
   5   5   3  129.92    7.65
   5   5   4   21.40    1.74
   5   5   4   21.35    1.85
   5   5   4   19.81    1.48
   5   6  -7   69.07    6.21
   5   6  -7   71.65    6.40
   5   6  -6    1.41    0.29
   5   6  -6    1.34    0.29
   5   6  -5   21.82    1.54
   5   6  -5   22.39    1.84
   5   6  -4   19.19    1.69
   5   6  -4   19.19    1.66
   5   6  -3   12.60    0.83
   5   6  -3   13.88    1.26
   5   6  -2   34.69    2.05
   5   6  -2   35.94    3.17
   5   6  -1    6.27    0.50
   5   6  -1    6.40    0.57
   5   6   0   96.33    7.37
   5   6   0  107.72    8.55
   5   6   1   30.00    2.17
   5   6   1   32.66    2.64
   5   6   2   19.97    1.60
   5   6   2   22.11    1.76
   5   7  -3    4.80    0.44
   5   7  -3    5.70    0.58
   5   7  -2    3.18    0.34
   5   7  -2    3.40    0.45
   6  -7  -2   27.44    1.85
   6  -7  -1    0.44    0.21
   6  -7   0    0.12    0.19
   6  -7   0   -1.12    0.38
   6  -7   0   -0.12    0.17
   6  -7   1   19.37    1.46
   6  -7   1   18.74    1.60
   6  -7   2    1.38    0.23
   6  -7   2    1.83    0.38
   6  -7   3   10.12    0.77
   6  -7   3   10.54    0.96
   6  -7   4   24.32    2.05
   6  -6  -4   11.43    0.92
   6  -6  -3    3.51    1.12
   6  -6  -3    3.83    0.40
   6  -6  -2   21.13    1.60
   6  -6  -2   23.51    1.56
   6  -6  -1    1.76    0.46
   6  -6  -1    1.38    0.28
   6  -6   0   67.93    4.46
   6  -6   0   68.02    4.82
   6  -6   0   70.30    3.21
   6  -6   1    0.73    0.38
   6  -6   1    0.37    0.22
   6  -6   2  104.31    5.71
   6  -6   2  114.12    6.56
   6  -6   3   -0.09    0.21
   6  -6   3    0.06    0.27
   6  -6   4   21.62    1.36
   6  -6   4   21.54    1.75
   6  -6   5    0.19    0.34
   6  -6   5   -0.22    0.32
   6  -6   6    0.97    0.28
   6  -6   6    0.56    2.21
   6  -5  -6    2.22    0.36
   6  -5  -5    1.86    0.36
   6  -5  -5    3.38    0.35
   6  -5  -4   37.82    3.45
   6  -5  -4   38.17    2.80
   6  -5  -3   18.45    1.41
   6  -5  -3   21.54    1.58
   6  -5  -2   15.30    1.00
   6  -5  -2   18.25    1.64
   6  -5  -1   75.03    4.81
   6  -5  -1   85.12    5.11
   6  -5   0    6.05    0.37
   6  -5   0    4.71    0.43
   6  -5   1   80.40    4.26
   6  -5   1   82.25    4.34
   6  -5   2    0.62    0.17
   6  -5   2    0.78    0.25
   6  -5   3   21.31    1.10
   6  -5   3   24.35    1.19
   6  -5   4    7.17    0.42
   6  -5   4    6.09    0.51
   6  -5   5   22.93    1.60
   6  -5   5   23.29    1.75
   6  -5   6   24.25    1.60
   6  -5   6   25.38    1.81
   6  -5   7    3.26    0.32
   6  -5   7    3.01    0.46
   6  -4  -7    1.64    0.53
   6  -4  -7    1.52    0.35
   6  -4  -6   13.07    1.33
   6  -4  -6   15.28    1.11
   6  -4  -5   39.23    2.94
   6  -4  -5   44.37    3.68
   6  -4  -4    4.17    0.38
   6  -4  -4    4.72    0.34
   6  -4  -3   71.29    4.70
   6  -4  -3   76.90    5.21
   6  -4  -2   83.45    4.64
   6  -4  -2   82.95    4.47
   6  -4  -1   21.76    1.16
   6  -4  -1   21.91    1.17
   6  -4   0   23.43    1.02
   6  -4   0   27.54    1.61
   6  -4   1    1.62    0.30
   6  -4   1    1.47    0.20
   6  -4   2    7.60    0.46
   6  -4   2    7.13    0.42
   6  -4   3   21.65    1.01
   6  -4   3   22.10    1.32
   6  -4   4    0.12    0.16
   6  -4   4   -0.12    0.17
   6  -4   5   74.39    4.33
   6  -4   5   88.48    4.17
   6  -4   6   19.01    1.26
   6  -4   6   21.29    1.43
   6  -4   7   49.13    3.14
   6  -4   7   54.47    4.11
   6  -4   8   21.23    1.52
   6  -4   8   22.72    2.00
   6  -3  -8    7.72    1.00
   6  -3  -8    8.25    0.76
   6  -3  -7   24.85    1.92
   6  -3  -7   26.29    1.71
   6  -3  -6   19.45    1.56
   6  -3  -6   22.29    1.33
   6  -3  -5    6.38    0.55
   6  -3  -5    7.56    0.43
   6  -3  -4   55.86    3.06
   6  -3  -4   60.28    3.06
   6  -3  -3   51.66    2.88
   6  -3  -3   54.78    2.91
   6  -3  -2   21.26    1.10
   6  -3  -2   21.66    1.01
   6  -3  -1   11.32    0.55
   6  -3  -1    9.97    0.50
   6  -3   0    0.16    0.14
   6  -3   0    0.23    0.11
   6  -3   1    6.37    0.34
   6  -3   1    5.96    0.37
   6  -3   2    1.28    0.51
   6  -3   2    1.37    0.16
   6  -3   3   15.80    1.04
   6  -3   3   15.89    0.86
   6  -3   4    0.23    0.12
   6  -3   4    0.02    0.15
   6  -3   5   -0.08    0.20
   6  -3   5   -0.14    0.15
   6  -3   6   33.23    1.79
   6  -3   6   36.94    2.37
   6  -3   7    2.95    0.30
   6  -3   7    3.30    0.77
   6  -3   8    2.67    0.38
   6  -3   8    2.25    0.45
   6  -2  -8   14.40    2.08
   6  -2  -8   14.49    1.18
   6  -2  -8   16.60    1.19
   6  -2  -7   24.81    1.82
   6  -2  -7   27.24    1.89
   6  -2  -7   25.83    1.68
   6  -2  -6   42.73    2.63
   6  -2  -6   43.86    2.31
   6  -2  -5   38.59    2.26
   6  -2  -5   43.67    2.58
   6  -2  -5   40.53    2.26
   6  -2  -4    0.42    0.49
   6  -2  -4    0.49    0.14
   6  -2  -4    0.14    0.15
   6  -2  -3   37.60    2.17
   6  -2  -3   38.37    2.36
   6  -2  -3   42.48    2.50
   6  -2  -2    0.36    0.09
   6  -2  -2    0.35    0.09
   6  -2  -2   -0.13    0.17
   6  -2  -1    0.60    0.14
   6  -2  -1    0.92    0.18
   6  -2   0   34.61    1.93
   6  -2   0   34.70    1.89
   6  -2   0   38.24    3.00
   6  -2   1   97.72    6.26
   6  -2   1  107.66    6.70
   6  -2   2   34.74    1.98
   6  -2   2   36.95    2.00
   6  -2   2   38.95    2.69
   6  -2   3   16.60    0.99
   6  -2   3   16.32    0.86
   6  -2   4   68.72    3.78
   6  -2   4   71.84    3.45
   6  -2   5   19.78    1.38
   6  -2   5   20.28    1.19
   6  -2   6   14.57    0.81
   6  -2   6   16.14    0.92
   6  -2   7    2.43    0.29
   6  -2   7    1.85    0.32
   6  -2   8    0.29    0.21
   6  -2   8   -0.10    0.35
   6  -1  -9   62.75    6.05
   6  -1  -9   73.27    5.50
   6  -1  -9   68.77    6.37
   6  -1  -8   -0.06    0.17
   6  -1  -8    0.47    0.23
   6  -1  -8    0.40    0.19
   6  -1  -7    5.12    1.25
   6  -1  -7    5.71    0.43
   6  -1  -7    4.99    0.43
   6  -1  -6    0.71    0.18
   6  -1  -6    0.74    0.19
   6  -1  -5   68.17    3.64
   6  -1  -5   73.73    3.90
   6  -1  -5   72.71    3.64
   6  -1  -4   84.99    5.12
   6  -1  -4   91.23    4.44
   6  -1  -3   12.19    0.69
   6  -1  -3   12.24    0.63
   6  -1  -3   12.64    0.69
   6  -1  -2  327.59   18.01
   6  -1  -2  364.14   21.59
   6  -1  -1   27.02    1.77
   6  -1   0   87.63    4.99
   6  -1   2   37.01    2.28
   6  -1   2   35.93    1.91
   6  -1   2   41.69    2.09
   6  -1   3    7.13    0.45
   6  -1   3    7.59    0.55
   6  -1   3    8.16    0.54
   6  -1   4   21.72    1.34
   6  -1   4   20.97    1.36
   6  -1   4   23.14    1.53
   6  -1   5   47.99    2.83
   6  -1   5   49.41    2.59
   6  -1   6    0.59    0.13
   6  -1   6    0.51    0.23
   6  -1   7    0.11    0.32
   6  -1   8   27.08    2.10
   6  -1   8   26.01    2.72
   6   0  -9    6.51    0.61
   6   0  -9    8.55    0.71
   6   0  -9    6.96    0.71
   6   0  -8   18.76    1.91
   6   0  -8   20.19    1.32
   6   0  -8   23.72    3.20
   6   0  -7    0.57    0.16
   6   0  -7    0.81    0.22
   6   0  -7    0.13    0.25
   6   0  -6    1.33    0.41
   6   0  -6    0.23    0.15
   6   0  -6    0.37    0.17
   6   0  -5    0.44    0.12
   6   0  -5    0.54    0.11
   6   0  -5    0.30    0.17
   6   0  -4    4.62    0.31
   6   0  -4    4.66    0.34
   6   0  -4    4.13    0.37
   6   0  -3  160.61    8.65
   6   0  -3  168.93    9.35
   6   0  -3  176.04   10.25
   6   0  -1   34.12    2.56
   6   0   0    0.23    0.25
   6   0   1   26.75    1.43
   6   0   2    2.38    0.29
   6   0   3    0.09    0.06
   6   0   3    0.17    0.06
   6   0   3    0.17    0.23
   6   0   4    0.84    0.11
   6   0   4    0.50    0.25
   6   0   5   39.52    2.36
   6   0   5   40.37    2.33
   6   0   6   14.95    0.93
   6   0   6   16.41    1.05
   6   0   7   12.21    0.84
   6   0   7   11.22    1.04
   6   1  -9    7.06    0.74
   6   1  -9    7.31    0.58
   6   1  -9    5.97    0.54
   6   1  -8   -0.04    0.23
   6   1  -8    1.21    0.27
   6   1  -8    0.36    0.22
   6   1  -7   27.96    1.82
   6   1  -7   34.22    1.79
   6   1  -7   30.90    1.93
   6   1  -6    1.05    0.35
   6   1  -6    0.94    0.36
   6   1  -6    0.42    0.24
   6   1  -5  331.02   22.61
   6   1  -5  352.36   19.50
   6   1  -5  336.21   17.55
   6   1  -4   38.94    1.97
   6   1  -4   43.14    2.31
   6   1  -4   43.00    2.27
   6   1  -3   30.56    1.58
   6   1  -2   96.35    4.62
   6   1  -1    5.39    0.39
   6   1   0    0.65    0.27
   6   1   1    0.36    0.23
   6   1   2   22.08    1.38
   6   1   3   76.13    4.36
   6   1   3   71.43    4.40
   6   1   3   80.56    4.91
   6   1   4    0.39    0.09
   6   1   4    0.69    0.13
   6   1   4    0.52    0.21
   6   1   5   31.90    2.30
   6   1   5   32.77    2.22
   6   1   5   33.45    2.19
   6   1   6   45.11    3.09
   6   1   6   47.66    3.16
   6   1   6   46.84    3.54
   6   1   7   37.57    2.64
   6   1   7   37.00    3.30
   6   2  -9   11.60    1.10
   6   2  -9   14.76    1.09
   6   2  -8   27.99    2.40
   6   2  -8   32.99    2.16
   6   2  -7    1.22    0.22
   6   2  -7    1.31    0.21
   6   2  -6   25.59    1.97
   6   2  -6   28.52    1.55
   6   2  -5   12.60    0.71
   6   2  -5   14.19    0.73
   6   2  -4   73.30    4.70
   6   2  -4   65.54    3.46
   6   2  -1   21.71    1.08
   6   2   1   65.22    3.53
   6   2   2    8.12    0.65
   6   2   3   69.26    4.54
   6   2   3   72.65    4.10
   6   2   3   72.18    4.32
   6   2   4   74.92    5.26
   6   2   5   22.72    1.71
   6   2   5   23.91    2.04
   6   2   5   22.82    1.52
   6   2   6   24.66    1.95
   6   2   6   25.68    2.14
   6   3  -8   44.60    4.21
   6   3  -8   48.55    3.23
   6   3  -7    0.42    0.19
   6   3  -7    0.80    0.37
   6   3  -6    3.02    0.28
   6   3  -6    2.82    0.24
   6   3  -5    1.79    0.17
   6   3  -5    1.49    0.18
   6   3  -4    3.89    0.22
   6   3  -4    3.24    0.24
   6   3  -3   26.08    1.49
   6   3   1    3.16    0.37
   6   3   2   39.31    2.87
   6   3   2   42.53    2.88
   6   3   2   39.76    1.92
   6   3   3    1.59    0.17
   6   3   3    1.74    0.17
   6   3   3    1.94    0.25
   6   3   4    1.10    0.45
   6   3   4    0.54    0.19
   6   3   4    0.72    0.29
   6   3   5    2.06    0.25
   6   3   5    2.01    0.31
   6   3   5    1.78    0.36
   6   4  -7   18.47    1.40
   6   4  -7   17.66    1.91
   6   4  -6   57.16    4.43
   6   4  -6   54.23    4.55
   6   4  -5    4.65    0.41
   6   4  -5    4.48    0.40
   6   4  -4    0.81    0.15
   6   4  -4    0.58    0.20
   6   4  -3    7.37    0.61
   6   4  -3    7.66    0.94
   6   4  -2    8.84    0.52
   6   4  -2    8.55    0.60
   6   4  -1    3.34    0.28
   6   4   0   33.52    2.33
   6   4   0   37.18    2.83
   6   4   1   31.20    2.09
   6   4   1   34.97    2.26
   6   4   2   14.45    1.20
   6   4   2   16.58    1.40
   6   4   2   14.49    0.94
   6   4   3   36.40    2.95
   6   4   3   38.17    2.07
   6   4   4   14.66    1.34
   6   4   4   15.82    0.94
   6   5  -6   29.08    1.89
   6   5  -6   31.44    2.76
   6   5  -5   16.84    1.58
   6   5  -5   17.23    1.49
   6   5  -4   27.44    1.80
   6   5  -4   25.97    2.34
   6   5  -3   15.63    1.36
   6   5  -3   15.10    1.04
   6   5  -2    0.06    0.12
   6   5  -2   -0.20    0.25
   6   5  -1   10.10    0.73
   6   5   0    1.46    0.20
   6   5   1    3.02    0.26
   6   5   2    3.25    0.42
   7  -6  -2    1.16    0.29
   7  -6  -2    1.70    0.32
   7  -6  -1   10.11    1.00
   7  -6  -1   11.56    1.02
   7  -6   0    1.82    0.27
   7  -6   0    2.67    1.35
   7  -6   1   14.18    0.93
   7  -6   1   11.32    0.93
   7  -6   2   48.29    4.14
   7  -6   2   46.74    4.26
   7  -6   3   76.27    4.98
   7  -6   3   66.33    6.02
   7  -5  -4    2.19    0.34
   7  -5  -4    2.10    0.36
   7  -5  -3    3.38    0.54
   7  -5  -3    4.79    0.48
   7  -5  -2    0.31    0.22
   7  -5  -2    0.17    0.21
   7  -5  -1   14.10    0.96
   7  -5  -1   13.67    1.17
   7  -5  -1   11.86    0.77
   7  -5   0    1.60    0.27
   7  -5   0    1.14    0.26
   7  -5   1   37.23    2.22
   7  -5   1   32.43    2.73
   7  -5   2   56.25    3.43
   7  -5   2   46.76    3.60
   7  -5   3   13.77    0.93
   7  -5   3   13.88    1.28
   7  -5   4   40.31    3.23
   7  -5   4   47.16    3.71
   7  -5   5    4.41    0.42
   7  -5   5    3.96    0.44
   7  -4  -5    0.13    0.22
   7  -4  -5    0.41    0.22
   7  -4  -4    1.70    0.25
   7  -4  -4    1.84    0.23
   7  -4  -3    0.85    0.16
   7  -4  -3    0.89    0.23
   7  -4  -2   74.67    6.41
   7  -4  -2   80.87    5.23
   7  -4  -1    3.43    0.25
   7  -4  -1    3.59    0.35
   7  -4   0   78.25    3.76
   7  -4   0   79.55    5.31
   7  -4   1    4.63    0.33
   7  -4   1    3.62    0.80
   7  -4   2   87.15    4.91
   7  -4   2   87.47    5.70
   7  -4   3    1.63    0.22
   7  -4   4    4.96    0.48
   7  -4   4    4.27    0.40
   7  -4   5    0.16    0.35
   7  -4   6    6.15    0.53
   7  -4   6    4.43    0.91
   7  -3  -6   23.64    1.48
   7  -3  -5    4.45    0.46
   7  -3  -5    4.37    0.42
   7  -3  -4   70.18    6.11
   7  -3  -4   76.52    5.78
   7  -3  -3    5.16    0.63
   7  -3  -3    5.21    0.36
   7  -3  -2   27.68    1.93
   7  -3  -2   31.18    1.87
   7  -3  -1  116.57    5.63
   7  -3  -1  119.84    9.50
   7  -3   0    1.33    0.15
   7  -3   0    1.19    0.20
   7  -3   1   63.15    3.76
   7  -3   1   58.24    4.59
   7  -3   2    6.30    0.36
   7  -3   2    6.18    0.36
   7  -3   3    5.47    0.36
   7  -3   3    5.10    0.37
   7  -3   4   12.09    0.76
   7  -3   4   12.16    0.83
   7  -3   5    0.24    0.18
   7  -3   6   19.32    1.38
   7  -3   6   17.96    1.58
   7  -2  -7   37.12    2.91
   7  -2  -7   43.90    3.06
   7  -2  -6   12.20    0.94
   7  -2  -6   13.35    0.94
   7  -2  -6   14.24    0.97
   7  -2  -5   18.79    1.47
   7  -2  -5   19.20    1.17
   7  -2  -5   19.96    1.32
   7  -2  -4   16.56    1.10
   7  -2  -4   17.25    1.12
   7  -2  -4   18.79    2.46
   7  -2  -3   54.67    3.96
   7  -2  -3   59.83    3.67
   7  -2  -3   63.58    3.88
   7  -2  -2    0.21    0.10
   7  -2  -2    0.03    0.09
   7  -2  -2    0.44    0.23
   7  -2  -1    7.38    0.47
   7  -2  -1    7.16    0.54
   7  -2   0   15.00    0.90
   7  -2   1   27.82    2.00
   7  -2   2   22.09    1.43
   7  -2   2   26.02    1.90
   7  -2   3    4.41    0.32
   7  -2   4   34.02    2.47
   7  -2   4   35.48    2.80
   7  -2   5    2.03    0.61
   7  -2   5    2.76    0.69
   7  -2   6   22.51    1.84
   7  -2   6   24.83    2.02
   7  -1  -7   66.03    5.56
   7  -1  -7   74.32    5.26
   7  -1  -6    3.31    0.31
   7  -1  -6    3.21    0.28
   7  -1  -6    3.09    0.42
   7  -1  -5   37.10    2.70
   7  -1  -5   38.33    2.48
   7  -1  -5   38.26    2.39
   7  -1  -4   25.13    1.39
   7  -1  -4   27.78    2.15
   7  -1  -3   27.46    1.87
   7  -1  -3   29.21    1.85
   7  -1  -3   30.60    1.77
   7  -1  -1   84.15    5.11
   7  -1   0   58.14    3.82
   7  -1   1   53.02    3.18
   7  -1   2   29.05    2.15
   7  -1   3  222.76   15.23
   7  -1   4   15.94    1.43
   7  -1   4   16.12    1.15
   7  -1   4   17.23    1.65
   7  -1   5    0.63    0.14
   7  -1   5    1.43    0.48
   7  -1   6    3.01    0.43
   7   0  -7   31.78    3.19
   7   0  -7   33.99    2.36
   7   0  -7   32.22    2.47
   7   0  -6   26.97    2.75
   7   0  -6   30.91    1.96
   7   0  -6   29.70    2.01
   7   0  -5    5.15    0.50
   7   0  -5    6.24    0.36
   7   0  -5    5.06    0.50
   7   0  -4    4.94    0.40
   7   0  -4    5.56    0.40
   7   0  -4    6.72    0.56
   7   0  -3    4.21    0.43
   7   0  -2    0.81    0.34
   7   0  -1   21.60    1.23
   7   0   0   20.63    1.38
   7   0   1  136.46    9.32
   7   0   3   14.99    1.10
   7   0   4   29.15    2.59
   7   0   4   27.55    1.92
   7   0   4   30.72    2.56
   7   0   5    0.33    0.11
   7   0   5    0.27    0.11
   7   0   5    0.68    0.24
   7   1  -7    1.57    0.27
   7   1  -7    1.75    0.24
   7   1  -7    1.38    0.25
   7   1  -6    0.01    0.13
   7   1  -6   -0.23    0.14
   7   1  -6    0.05    0.22
   7   1  -5    0.30    0.15
   7   1  -5    0.03    0.10
   7   1  -5   -0.09    0.21
   7   1  -3   27.80    1.72
   7   1  -2   95.39    6.05
   7   1  -1   17.59    0.99
   7   1   0   45.88    3.24
   7   1   1    4.78    0.45
   7   1   2    1.74    0.30
   7   1   3    4.65    0.44
   7   1   4   13.71    1.12
   7   1   5   17.71    2.10
   7   2  -7   26.64    2.56
   7   2  -7   23.59    1.63
   7   2  -6   89.96    7.25
   7   2  -6   97.80    9.90
   7   2  -6   99.12    6.70
   7   2  -5   59.47    4.27
   7   2  -5   58.64    4.27
   7   2  -4    0.43    0.24
   7   2  -3   44.02    2.80
   7   2  -2    2.63    0.33
   7   2  -1    7.18    0.60
   7   2   0    0.02    0.22
   7   2   1    0.31    0.25
   7   2   2    1.04    0.35
   7   2   3    3.48    0.40
   7   2   4   22.71    1.65
   7   3  -6    4.06    0.45
   7   3  -5   76.50    6.80
   7   3  -2    2.72    0.40
   7   3  -1    0.84    0.22
   7   3   0   15.72    1.08
   7   3   1    0.27    0.21
   7   3   2    9.30    0.81
   7   3   3    4.16    0.43
   7   4   0    0.35    0.28
   8  -4  -1    8.63    0.93
   8  -4   0    5.13    0.44
   8  -4   1   30.91    2.46
   8  -4   2   46.63    3.77
   8  -3  -3   10.04    1.14
   8  -3  -2    6.00    0.47
   8  -3  -1   69.83    5.83
   8  -3   2   14.34    1.06
   8  -3   3   79.20    6.64
   8  -2  -4   -0.04    0.13
   8  -2  -4    0.06    0.31
   8  -2  -3   16.79    1.62
   8  -2  -2   24.06    1.84
   8  -2   0   17.93    1.36
   8  -2   1    5.38    0.62
   8  -1  -4   55.40    4.27
   8  -1  -3    8.84    0.72
   8  -1  -2    1.07    0.28
   8  -1  -1   -0.34    0.43
   8  -1   0   20.54    1.39
   8  -1   1   12.96    1.16
   8  -1   2   25.65    1.82
   8  -1   3   21.07    1.85
   8   0  -4    0.87    0.34
   8   0  -3   57.28    3.65
   8   0  -2    1.55    0.43
   8   0   0    9.63    0.87
   8   0   1    4.18    0.48
   8   0   2   22.74    1.72
   8   1  -4   21.77    1.41
   8   1  -3    1.18    0.82
   8   1  -2    9.04    0.73
   8   1  -1    0.86    0.32
   8   1   0   68.32    5.22
   8   1   0   68.32    5.22
   0   0   0    0.00    0.00
;
_shelx_hkl_checksum              10398
loop_
_space_group_symop_operation_xyz
'x, y, z'
'-x, -y, -z'
loop_
_atom_site_label
_atom_site_type_symbol
_atom_site_fract_x
_atom_site_fract_y
_atom_site_fract_z
_atom_site_U_iso_or_equiv
_atom_site_adp_type
_atom_site_occupancy
_atom_site_site_symmetry_order
_atom_site_calc_flag
_atom_site_refinement_flags_posn
_atom_site_refinement_flags_adp
_atom_site_refinement_flags_occupancy
_atom_site_disorder_assembly
_atom_site_disorder_group
S11 S 0.69622(5) 0.60268(5) 0.73942(4) 0.01612(15) Uani 1 1 d . . . . .
S12 S 0.39916(6) 0.82030(5) 0.83581(4) 0.02322(16) Uani 1 1 d . . . . .
O11 O 0.81589(16) 0.52410(13) 0.65902(10) 0.0210(3) Uani 1 1 d . . . . .
O12 O 0.52556(15) 0.50883(13) 0.74159(11) 0.0217(3) Uani 1 1 d . . . . .
N11 N 1.0450(2) 0.74728(19) 1.23925(14) 0.0212(4) Uani 1 1 d . . . . .
H10 H 1.036(3) 0.668(3) 1.274(2) 0.031(6) Uiso 1 1 d . . . . .
H11 H 1.147(3) 0.810(3) 1.2502(19) 0.031(6) Uiso 1 1 d . . . . .
N12 N 0.68667(18) 0.76371(16) 0.69886(12) 0.0171(3) Uani 1 1 d . . . . .
N13 N 0.61478(19) 1.01810(16) 0.75340(13) 0.0205(3) Uani 1 1 d . . . . .
C11 C 0.9660(2) 0.70958(19) 1.12157(15) 0.0170(4) Uani 1 1 d . . . . .
C12 C 1.0241(2) 0.7961(2) 1.03563(16) 0.0188(4) Uani 1 1 d . . . . .
H12 H 1.121778 0.877838 1.057008 0.023 Uiso 1 1 calc R U . . .
C13 C 0.9411(2) 0.76379(19) 0.92049(16) 0.0183(4) Uani 1 1 d . . . . .
H13 H 0.981716 0.823046 0.862938 0.022 Uiso 1 1 calc R U . . .
C14 C 0.7978(2) 0.64455(19) 0.88836(15) 0.0167(4) Uani 1 1 d . . . . .
C15 C 0.7389(2) 0.5575(2) 0.97253(16) 0.0193(4) Uani 1 1 d . . . . .
H15 H 0.641355 0.475750 0.950625 0.023 Uiso 1 1 calc R U . . .
C16 C 0.8221(2) 0.5900(2) 1.08803(16) 0.0199(4) Uani 1 1 d . . . . .
H16 H 0.781045 0.530328 1.145239 0.024 Uiso 1 1 calc R U . . .
C17 C 0.5835(2) 0.8688(2) 0.75731(15) 0.0167(4) Uani 1 1 d . . . . .
C18 C 0.4906(2) 1.0986(2) 0.81351(16) 0.0237(4) Uani 1 1 d . . . . .
H18 H 0.492241 1.208158 0.818645 0.028 Uiso 1 1 calc R U . . .
C19 C 0.3677(2) 1.0145(2) 0.86417(16) 0.0246(4) Uani 1 1 d . . . . .
H19 H 0.276639 1.055881 0.909117 0.029 Uiso 1 1 calc R U . . .
N21 N 0.7230(2) 0.0820(2) 0.46600(15) 0.0218(4) Uani 1 1 d . . . . .
H21 H 0.699(3) -0.013(3) 0.4516(19) 0.029(6) Uiso 1 1 d . . . . .
H22 H 0.649(3) 0.136(3) 0.4959(19) 0.026(6) Uiso 1 1 d . . . . .
N22 N 0.9029(2) 0.30667(18) 0.45130(16) 0.0259(4) Uani 1 1 d . . . . .
H23 H 0.835(3) 0.358(3) 0.494(2) 0.035(6) Uiso 1 1 d . . . . .
H24 H 0.988(3) 0.351(2) 0.4162(19) 0.029(6) Uiso 1 1 d . . . . .
N23 N 0.9762(2) 0.0678(2) 0.36416(14) 0.0214(4) Uani 1 1 d . . . . .
H25 H 1.078(3) 0.114(3) 0.3467(19) 0.030(6) Uiso 1 1 d . . . . .
H26 H 0.953(3) -0.032(3) 0.3413(19) 0.028(6) Uiso 1 1 d . . . . .
C21 C 0.8657(2) 0.1507(2) 0.42661(15) 0.0177(4) Uani 1 1 d . . . . .
O1W O 0.42345(18) 0.24338(16) 0.55034(14) 0.0259(3) Uani 1 1 d . . . . .
H1W H 0.387(3) 0.266(3) 0.487(3) 0.048(8) Uiso 1 1 d . . . . .
H2W H 0.438(3) 0.328(3) 0.604(2) 0.041(7) Uiso 1 1 d . . . . .
loop_
_atom_site_aniso_label
_atom_site_aniso_U_11
_atom_site_aniso_U_22
_atom_site_aniso_U_33
_atom_site_aniso_U_23
_atom_site_aniso_U_13
_atom_site_aniso_U_12
S11 0.0180(2) 0.0130(2) 0.0172(3) 0.00218(17) 0.00335(17) 0.00224(17)
S12 0.0218(3) 0.0220(3) 0.0280(3) 0.0066(2) 0.00903(19) 0.00605(19)
O11 0.0261(7) 0.0166(6) 0.0209(7) 0.0020(5) 0.0068(5) 0.0067(5)
O12 0.0223(7) 0.0175(6) 0.0233(7) 0.0027(5) 0.0020(5) -0.0022(5)
N11 0.0270(9) 0.0168(8) 0.0206(8) 0.0062(7) 0.0005(7) 0.0025(7)
N12 0.0190(8) 0.0153(8) 0.0180(8) 0.0044(6) 0.0034(6) 0.0042(6)
N13 0.0213(8) 0.0159(8) 0.0237(8) 0.0027(6) -0.0005(6) 0.0028(6)
C11 0.0202(9) 0.0132(8) 0.0191(9) 0.0023(7) 0.0039(7) 0.0089(7)
C12 0.0175(9) 0.0138(9) 0.0246(10) 0.0036(7) 0.0021(7) 0.0015(7)
C13 0.0196(9) 0.0159(9) 0.0215(10) 0.0068(7) 0.0057(7) 0.0039(7)
C14 0.0179(9) 0.0136(8) 0.0203(9) 0.0039(7) 0.0048(7) 0.0062(7)
C15 0.0203(9) 0.0132(9) 0.0238(10) 0.0026(7) 0.0048(7) 0.0011(7)
C16 0.0258(10) 0.0157(9) 0.0210(10) 0.0084(7) 0.0070(7) 0.0044(7)
C17 0.0165(9) 0.0188(9) 0.0141(9) 0.0027(7) -0.0025(7) 0.0023(7)
C18 0.0271(10) 0.0167(9) 0.0252(10) -0.0014(8) -0.0023(8) 0.0062(8)
C19 0.0261(10) 0.0245(10) 0.0240(10) 0.0011(8) 0.0027(8) 0.0125(8)
N21 0.0215(9) 0.0167(9) 0.0278(9) 0.0051(7) 0.0058(7) 0.0026(7)
N22 0.0294(10) 0.0175(9) 0.0294(9) -0.0002(7) 0.0130(8) 0.0012(7)
N23 0.0211(9) 0.0157(9) 0.0269(9) 0.0031(7) 0.0053(7) 0.0016(7)
C21 0.0200(9) 0.0184(10) 0.0147(9) 0.0039(7) -0.0005(7) 0.0024(7)
O1W 0.0378(8) 0.0185(7) 0.0207(7) 0.0029(6) -0.0021(6) 0.0044(6)
loop_
_atom_type_symbol
_atom_type_description
_atom_type_scat_dispersion_real
_atom_type_scat_dispersion_imag
_atom_type_scat_source
C C 0.0033 0.0016 'International Tables Vol C Tables 4.2.6.8 and 6.1.1.4'
H H 0.0000 0.0000 'International Tables Vol C Tables 4.2.6.8 and 6.1.1.4'
N N 0.0061 0.0033 'International Tables Vol C Tables 4.2.6.8 and 6.1.1.4'
O O 0.0106 0.0060 'International Tables Vol C Tables 4.2.6.8 and 6.1.1.4'
S S 0.1246 0.1234 'International Tables Vol C Tables 4.2.6.8 and 6.1.1.4'
loop_
_geom_angle_atom_site_label_1
_geom_angle_atom_site_label_2
_geom_angle_atom_site_label_3
_geom_angle
_geom_angle_site_symmetry_1
_geom_angle_site_symmetry_3
_geom_angle_publ_flag
O12 S11 O11 114.16(7) . . ?
O12 S11 N12 114.83(7) . . ?
O11 S11 N12 104.79(7) . . ?
O12 S11 C14 106.80(8) . . ?
O11 S11 C14 108.04(7) . . ?
N12 S11 C14 107.93(8) . . ?
C19 S12 C17 89.20(9) . . ?
C11 N11 H10 112.5(14) . . ?
C11 N11 H11 115.6(14) . . ?
H10 N11 H11 118(2) . . ?
C17 N12 S11 120.10(12) . . ?
C17 N13 C18 110.31(15) . . ?
N11 C11 C16 120.87(16) . . ?
N11 C11 C12 120.44(16) . . ?
C16 C11 C12 118.63(16) . . ?
C13 C12 C11 120.66(16) . . ?
C13 C12 H12 119.7 . . ?
C11 C12 H12 119.7 . . ?
C12 C13 C14 120.11(16) . . ?
C12 C13 H13 119.9 . . ?
C14 C13 H13 119.9 . . ?
C15 C14 C13 119.88(16) . . ?
C15 C14 S11 120.80(13) . . ?
C13 C14 S11 119.30(13) . . ?
C16 C15 C14 120.02(16) . . ?
C16 C15 H15 120.0 . . ?
C14 C15 H15 120.0 . . ?
C15 C16 C11 120.70(16) . . ?
C15 C16 H16 119.7 . . ?
C11 C16 H16 119.7 . . ?
N13 C17 N12 120.67(15) . . ?
N13 C17 S12 113.82(13) . . ?
N12 C17 S12 125.46(13) . . ?
C19 C18 N13 116.68(16) . . ?
C19 C18 H18 121.7 . . ?
N13 C18 H18 121.7 . . ?
C18 C19 S12 109.99(14) . . ?
C18 C19 H19 125.0 . . ?
S12 C19 H19 125.0 . . ?
C21 N21 H21 120.6(15) . . ?
C21 N21 H22 119.3(14) . . ?
H21 N21 H22 119(2) . . ?
C21 N22 H23 117.7(15) . . ?
C21 N22 H24 118.9(14) . . ?
H23 N22 H24 123(2) . . ?
C21 N23 H25 120.5(14) . . ?
C21 N23 H26 121.4(14) . . ?
H25 N23 H26 118(2) . . ?
N21 C21 N23 121.42(17) . . ?
N21 C21 N22 119.85(17) . . ?
N23 C21 N22 118.71(17) . . ?
H1W O1W H2W 106(2) . . ?
loop_
_geom_bond_atom_site_label_1
_geom_bond_atom_site_label_2
_geom_bond_distance
_geom_bond_site_symmetry_2
_geom_bond_publ_flag
S11 O12 1.4519(12) . ?
S11 O11 1.4624(12) . ?
S11 N12 1.5784(14) . ?
S11 C14 1.7654(17) . ?
S12 C19 1.7217(18) . ?
S12 C17 1.7523(17) . ?
N11 C11 1.391(2) . ?
N11 H10 0.86(2) . ?
N11 H11 0.88(2) . ?
N12 C17 1.382(2) . ?
N13 C17 1.311(2) . ?
N13 C18 1.382(2) . ?
C11 C16 1.397(2) . ?
C11 C12 1.402(3) . ?
C12 C13 1.378(3) . ?
C12 H12 0.9500 . ?
C13 C14 1.391(2) . ?
C13 H13 0.9500 . ?
C14 C15 1.390(3) . ?
C15 C16 1.382(3) . ?
C15 H15 0.9500 . ?
C16 H16 0.9500 . ?
C18 C19 1.340(3) . ?
C18 H18 0.9500 . ?
C19 H19 0.9500 . ?
N21 C21 1.317(2) . ?
N21 H21 0.81(2) . ?
N21 H22 0.83(2) . ?
N22 C21 1.332(2) . ?
N22 H23 0.84(2) . ?
N22 H24 0.87(2) . ?
N23 C21 1.326(2) . ?
N23 H25 0.88(2) . ?
N23 H26 0.85(2) . ?
O1W H1W 0.82(3) . ?
O1W H2W 0.85(3) . ?
loop_
_geom_hbond_atom_site_label_D
_geom_hbond_atom_site_label_H
_geom_hbond_atom_site_label_A
_geom_hbond_distance_DH
_geom_hbond_distance_HA
_geom_hbond_distance_DA
_geom_hbond_angle_DHA
_geom_hbond_site_symmetry_A
_geom_hbond_publ_flag
N11 H10 O11 0.86(2) 2.37(2) 3.1189(19) 146.4(18) 2_767 yes
N11 H11 N13 0.88(2) 2.22(2) 3.084(2) 169.1(19) 2_777 yes
N21 H21 O1W 0.81(2) 2.11(2) 2.895(2) 162(2) 2_656 yes
N21 H22 O1W 0.83(2) 2.13(2) 2.945(2) 169(2) . yes
N22 H23 O11 0.84(2) 2.15(2) 2.885(2) 145(2) . yes
N22 H24 O11 0.87(2) 2.06(2) 2.924(2) 174.6(19) 2_766 yes
N23 H25 N12 0.88(2) 2.11(2) 2.988(2) 176.3(19) 2_766 yes
N23 H26 N11 0.85(2) 2.27(2) 3.013(2) 145.7(18) 1_544 yes
O1W H1W N12 0.82(3) 2.10(3) 2.884(2) 158(2) 2_666 yes
O1W H2W S11 0.85(3) 3.00(3) 3.7449(15) 146.2(19) . yes
O1W H2W O12 0.85(3) 2.01(3) 2.8424(19) 166(2) . yes
loop_
_geom_torsion_atom_site_label_1
_geom_torsion_atom_site_label_2
_geom_torsion_atom_site_label_3
_geom_torsion_atom_site_label_4
_geom_torsion
_geom_torsion_site_symmetry_1
_geom_torsion_site_symmetry_2
_geom_torsion_site_symmetry_3
_geom_torsion_site_symmetry_4
_geom_torsion_publ_flag
O12 S11 N12 C17 54.07(14) . . . . ?
O11 S11 N12 C17 -179.87(12) . . . . ?
C14 S11 N12 C17 -64.90(14) . . . . ?
N11 C11 C12 C13 -177.07(15) . . . . ?
C16 C11 C12 C13 0.0(2) . . . . ?
C11 C12 C13 C14 0.1(2) . . . . ?
C12 C13 C14 C15 -0.2(2) . . . . ?
C12 C13 C14 S11 -178.76(13) . . . . ?
O12 S11 C14 C15 17.50(16) . . . . ?
O11 S11 C14 C15 -105.73(14) . . . . ?
N12 S11 C14 C15 141.46(14) . . . . ?
O12 S11 C14 C13 -164.00(13) . . . . ?
O11 S11 C14 C13 72.77(14) . . . . ?
N12 S11 C14 C13 -40.04(15) . . . . ?
C13 C14 C15 C16 0.3(2) . . . . ?
S11 C14 C15 C16 178.77(12) . . . . ?
C14 C15 C16 C11 -0.2(2) . . . . ?
N11 C11 C16 C15 177.09(15) . . . . ?
C12 C11 C16 C15 0.0(2) . . . . ?
C18 N13 C17 N12 177.38(14) . . . . ?
C18 N13 C17 S12 -0.14(18) . . . . ?
S11 N12 C17 N13 158.25(13) . . . . ?
S11 N12 C17 S12 -24.54(19) . . . . ?
C19 S12 C17 N13 -0.44(13) . . . . ?
C19 S12 C17 N12 -177.81(15) . . . . ?
C17 N13 C18 C19 0.9(2) . . . . ?
N13 C18 C19 S12 -1.2(2) . . . . ?
C17 S12 C19 C18 0.89(14) . . . . ?
