#------------------------------------------------------------------------------
#$Date: 2022-09-04 01:33:56 +0300 (Sun, 04 Sep 2022) $
#$Revision: 277614 $
#$URL: file:///home/coder/svn-repositories/cod/cif/7/24/54/7245431.cif $
#------------------------------------------------------------------------------
#
# This file is available in the Crystallography Open Database (COD),
# http://www.crystallography.net/
#
# All data on this site have been placed in the public domain by the
# contributors.
#
data_7245431
loop_
_publ_author_name
'Croitor, Lilia'
'Coropceanu, Eduard B.'
'Fonari, Marina S.'
_publ_section_title
;
 Anion--pyridine-n-oxime interplay to control metal--metal separations in
 a series of Cu(ii) coordination polymers
;
_journal_name_full               CrystEngComm
_journal_paper_doi               10.1039/D2CE01000C
_journal_year                    2022
_chemical_formula_moiety         'C18 H18 Cu N4 O10'
_chemical_formula_sum            'C18 H18 Cu N4 O10'
_chemical_formula_weight         513.90
_space_group_crystal_system      triclinic
_space_group_IT_number           2
_space_group_name_Hall           '-P 1'
_space_group_name_H-M_alt        'P -1'
_atom_sites_solution_hydrogens   geom
_atom_sites_solution_primary     direct
_atom_sites_solution_secondary   difmap
_audit_creation_method           SHELXL-2014/7
_audit_update_record
;
2022-05-23 deposited with the CCDC.	2022-08-15 downloaded from the CCDC.
;
_cell_angle_alpha                113.875(15)
_cell_angle_beta                 90.888(11)
_cell_angle_gamma                99.321(12)
_cell_formula_units_Z            1
_cell_length_a                   5.1679(7)
_cell_length_b                   10.3878(18)
_cell_length_c                   10.5431(14)
_cell_measurement_reflns_used    993
_cell_measurement_temperature    293(2)
_cell_measurement_theta_max      28.9837
_cell_measurement_theta_min      3.6103
_cell_volume                     508.66(15)
_computing_cell_refinement
;
CrysAlisPro, Agilent Technologies,
Version 1.171.35.21b (release 03-02-2012 CrysAlis171 .NET)
(compiled Feb  3 2012,10:37:01)
;
_computing_data_collection
;
CrysAlisPro, Agilent Technologies,
Version 1.171.35.21b (release 03-02-2012 CrysAlis171 .NET)
(compiled Feb  3 2012,10:37:01)
;
_computing_data_reduction
;
CrysAlisPro, Agilent Technologies,
Version 1.171.35.21b (release 03-02-2012 CrysAlis171 .NET)
(compiled Feb  3 2012,10:37:01)
;
_computing_structure_refinement  'SHELXL-2014/7 (Sheldrick, 2014)'
_computing_structure_solution    'SHELXS-2014/7 (Sheldrick, 2014)'
_diffrn_ambient_temperature      293(2)
_diffrn_detector_area_resol_mean 15.9914
_diffrn_measured_fraction_theta_full 0.995
_diffrn_measured_fraction_theta_max 0.995
_diffrn_measurement_device_type  'Xcalibur, Eos'
_diffrn_radiation_monochromator  graphite
_diffrn_radiation_source         'Enhance (Mo) X-ray Source'
_diffrn_radiation_type           MoK\a
_diffrn_radiation_wavelength     0.71073
_diffrn_reflns_av_R_equivalents  0.0402
_diffrn_reflns_av_unetI/netI     0.0688
_diffrn_reflns_Laue_measured_fraction_full 0.995
_diffrn_reflns_Laue_measured_fraction_max 0.995
_diffrn_reflns_limit_h_max       4
_diffrn_reflns_limit_h_min       -6
_diffrn_reflns_limit_k_max       12
_diffrn_reflns_limit_k_min       -12
_diffrn_reflns_limit_l_max       12
_diffrn_reflns_limit_l_min       -8
_diffrn_reflns_number            2673
_diffrn_reflns_point_group_measured_fraction_full 0.995
_diffrn_reflns_point_group_measured_fraction_max 0.995
_diffrn_reflns_theta_full        24.992
_diffrn_reflns_theta_max         24.992
_diffrn_reflns_theta_min         3.618
_exptl_absorpt_coefficient_mu    1.141
_exptl_absorpt_correction_T_max  1.00000
_exptl_absorpt_correction_T_min  0.59301
_exptl_absorpt_correction_type   multi-scan
_exptl_absorpt_process_details
;
CrysAlisPro, Agilent Technologies,
Version 1.171.35.21b (release 03-02-2012 CrysAlis171 .NET)
(compiled Feb  3 2012,10:37:01)
Empirical absorption correction using spherical harmonics,
 implemented in SCALE3 ABSPACK scaling algorithm.
;
_exptl_crystal_colour            blue
_exptl_crystal_density_diffrn    1.678
_exptl_crystal_description       block
_exptl_crystal_F_000             263
_exptl_crystal_size_max          0.20
_exptl_crystal_size_mid          0.12
_exptl_crystal_size_min          0.02
_refine_diff_density_max         0.332
_refine_diff_density_min         -0.424
_refine_diff_density_rms         0.074
_refine_ls_extinction_method     none
_refine_ls_goodness_of_fit_ref   1.050
_refine_ls_hydrogen_treatment    constr
_refine_ls_matrix_type           full
_refine_ls_number_parameters     151
_refine_ls_number_reflns         1780
_refine_ls_number_restraints     0
_refine_ls_restrained_S_all      1.050
_refine_ls_R_factor_all          0.0693
_refine_ls_R_factor_gt           0.0493
_refine_ls_shift/su_max          0.000
_refine_ls_shift/su_mean         0.000
_refine_ls_structure_factor_coef Fsqd
_refine_ls_weighting_details
'w=1/[\s^2^(Fo^2^)+(0.0409P)^2^+0.1316P] where P=(Fo^2^+2Fc^2^)/3'
_refine_ls_weighting_scheme      calc
_refine_ls_wR_factor_gt          0.1023
_refine_ls_wR_factor_ref         0.1115
_reflns_Friedel_coverage         0.000
_reflns_number_gt                1399
_reflns_number_total             1780
_reflns_threshold_expression     'I > 2\s(I)'
_cod_data_source_file            d2ce01000c2.cif
_cod_data_source_block           Comp_3_CL_2720
_cod_original_cell_volume        508.66(14)
_cod_database_code               7245431
_shelx_shelxl_version_number     2014/7
_shelx_space_group_comment
;
The symmetry employed for this shelxl refinement is uniquely defined
by the following loop, which should always be used as a source of
symmetry information in preference to the above space-group names.
They are only intended as comments.
;
_shelx_res_file
;

    CL_2720.res created by SHELXL-2014/7


TITL CL_2720 in P1               New: P-1
CELL  0.71073    5.1679   10.3878   10.5431   113.875    90.888    99.321
ZERR  1  0.0007    0.0018    0.0014     0.015     0.011     0.012
LATT 1
SFAC C  H  Cu N  O
UNIT 18  18  1  4  10
OMIT 0 50
L.S. 5
ACTA
FMAP 2
PLAN 20
REM Instructions for potential hydrogen bonds
EQIV $1 x+1, y, z
HTAB O5 O2_$1
EQIV $2 -x, -y, -z
HTAB N1 O1_$2
EQIV $3 x-1, y, z-1
HTAB N1 O3_$3
HTAB C2 O5
HTAB C4 O1_$2
HTAB C4 O2_$2
HTAB C8 O4_$3
EQIV $4 -x, -y+1, -z+1
HTAB C8 O4_$4
WGHT    0.041200    0.123700
FVAR       6.01390
CU1   3    0.500000    0.000000    0.500000    10.50000    0.03394    0.03753 =
         0.03228    0.00373   -0.01009    0.01949
O1    5    0.216014    0.031863    0.405949    11.00000    0.03705    0.03878 =
         0.03540    0.00433   -0.00662    0.02375
O2    5   -0.117656    0.129664    0.383002    11.00000    0.04526    0.05057 =
         0.04527    0.00529   -0.02091    0.02837
O3    5    0.517531    0.175843    0.663776    11.00000    0.03943    0.03923 =
         0.03473    0.00434   -0.00871    0.02409
O4    5    0.396001    0.373704    0.805185    11.00000    0.07342    0.04704 =
         0.03441   -0.00006   -0.01368    0.03477
O5    5    0.643690    0.338419    0.399855    11.00000    0.05548    0.05249 =
         0.04224    0.00799   -0.02090    0.02507
AFIX  83
H5    2    0.746122    0.286578    0.401967    11.00000   -1.50000
AFIX   0
N1    4   -0.150104    0.217348   -0.106504    11.00000    0.04197    0.06269 =
         0.03663    0.02267   -0.01192    0.00516
AFIX  43
H1    2   -0.249038    0.189615   -0.182534    11.00000   -1.20000
AFIX   0
N2    4    0.495314    0.276733    0.273157    11.00000    0.04338    0.04525 =
         0.03150    0.01338   -0.00931    0.01537
C1    1    0.088123    0.134231    0.449145    11.00000    0.03527    0.03422 =
         0.03335    0.01269   -0.00167    0.01192
C2    1    0.176066    0.266280    0.582443    11.00000    0.03869    0.03919 =
         0.03621    0.00850   -0.00590    0.02221
AFIX  23
H2A   2    0.243576    0.343410    0.555516    11.00000   -1.20000
H2B   2    0.018457    0.290048    0.628544    11.00000   -1.20000
AFIX   0
C3    1    0.375676    0.272837    0.691685    11.00000    0.03417    0.02991 =
         0.02976    0.00772   -0.00216    0.00966
C4    1    0.022533    0.136846   -0.098123    11.00000    0.06053    0.04521 =
         0.03350    0.00562   -0.00601    0.01064
AFIX  43
H4    2    0.034375    0.052657   -0.174407    11.00000   -1.20000
AFIX   0
C5    1    0.179866    0.177398    0.020816    11.00000    0.05079    0.04137 =
         0.03947    0.01258   -0.00276    0.01870
AFIX  43
H5A   2    0.297225    0.120352    0.026217    11.00000   -1.20000
AFIX   0
C6    1    0.165856    0.304160    0.134658    11.00000    0.03318    0.03901 =
         0.03087    0.01674   -0.00070    0.01120
C7    1   -0.016491    0.383929    0.121278    11.00000    0.04324    0.04487 =
         0.03926    0.01551   -0.00175    0.01754
AFIX  43
H7    2   -0.032828    0.468715    0.195665    11.00000   -1.20000
AFIX   0
C8    1   -0.171848    0.338419   -0.000592    11.00000    0.03914    0.05328 =
         0.04461    0.02429   -0.00409    0.01621
AFIX  43
H8    2   -0.292616    0.392463   -0.009044    11.00000   -1.20000
AFIX   0
C9    1    0.332550    0.353220    0.264103    11.00000    0.04119    0.03397 =
         0.03496    0.00980   -0.00567    0.01473
AFIX  43
H9    2    0.320384    0.438695    0.338665    11.00000   -1.20000
AFIX   0
HKLF 4

REM  CL_2720 in P1               New: P-1
REM R1 =  0.0493 for    1399 Fo > 4sig(Fo)  and  0.0693 for all    1780 data
REM    151 parameters refined using      0 restraints

END

WGHT      0.0413      0.1231

REM Highest difference peak  0.332,  deepest hole -0.424,  1-sigma level  0.074
Q1    1   0.3252  0.0691  0.4757  11.00000  0.05    0.33
Q2    1   0.0030  0.1917  0.3858  11.00000  0.05    0.33
Q3    1  -0.1725  0.1999  0.4529  11.00000  0.05    0.28
Q4    1   0.3491  0.0363  0.5887  11.00000  0.05    0.28
Q5    1  -0.2556  0.1654  0.3583  11.00000  0.05    0.28
Q6    1   0.5469  0.1720  0.2070  11.00000  0.05    0.27
Q7    1  -0.1317  0.1136  0.0791  11.00000  0.05    0.26
Q8    1   0.3659  0.1639  0.6791  11.00000  0.05    0.26
Q9    1   0.5515  0.2544  0.6498  11.00000  0.05    0.26
Q10   1   0.1255  0.2557  0.8126  11.00000  0.05    0.24
Q11   1   0.5253  0.3942  0.7646  11.00000  0.05    0.24
Q12   1   0.4194  0.3370  0.5032  11.00000  0.05    0.24
Q13   1   0.4592  0.4950  0.8425  11.00000  0.05    0.24
Q14   1   0.4997 -0.0004  0.3540  11.00000  0.05    0.23
Q15   1  -0.0803  0.3990  0.6460  11.00000  0.05    0.22
Q16   1   0.8479  0.4585  0.4216  11.00000  0.05    0.22
Q17   1   0.0840  0.5483  0.1932  11.00000  0.05    0.22
Q18   1   0.1225  0.3560  0.6032  11.00000  0.05    0.21
Q19   1  -0.3607  0.0936  0.4269  11.00000  0.05    0.21
Q20   1   0.1117  0.4245  0.4514  11.00000  0.05    0.21
;
_shelx_res_checksum              71429
_shelx_hkl_file
;
  -6  -3   2 243.977 277.204   3
  -6  -3   3 503.184 301.140   3
  -6  -3   4 291.677 231.982   3
  -6  -3   5 348.625 290.686   3
  -6  -3   6 72.5392 267.381   3
  -6  -2   0 202.709 197.607   3
  -6  -2   1 598.663 343.434   3
  -6  -2   2-124.830 219.229   3
  -6  -2   3 996.611 400.231   3
  -6  -2   4 1433.07 448.562   3
  -6  -2   5 496.278 297.122   3
  -6  -2   6 1041.97 399.785   3
  -6  -2   7 31.2471 202.058   3
  -6  -1  -2 1727.50 479.222   3
  -6  -1  -1 777.110 289.610   3
  -6  -1   0 250.974 287.755   3
  -6  -1   1-1.00893 254.027   3
  -6  -1   2 866.403 365.674   3
  -6  -1   3 910.852 345.049   3
  -6  -1   4 887.024 365.641   3
  -6  -1   5-55.7215 232.668   3
  -6  -1   6 405.043 271.411   3
  -6  -1   7 522.027 320.981   3
  -6   0  -3 331.984 303.017   3
  -6   0  -2 1479.10 458.705   3
  -6   0  -1 453.306 316.820   3
  -6   0   0 6069.45 845.112   3
  -6   0   1 691.210 340.843   3
  -6   0   2-276.598 249.882   3
  -6   0   3 18.7083 197.288   3
  -6   0   4-133.966 230.078   3
  -6   0   5 486.541 326.884   3
  -6   0   6 1535.02 478.700   3
  -6   0   7 246.618 253.311   3
  -6   1  -4 1410.79 444.113   3
  -6   1  -3 2639.68 580.240   3
  -6   1  -2 2243.30 521.758   3
  -6   1  -1 1077.37 375.503   3
  -6   1   0 2680.86 580.146   3
  -6   1   1 479.849 320.646   3
  -6   1   2-196.217 249.900   3
  -6   1   3 281.807 184.584   3
  -6   1   4-57.8572 206.082   3
  -6   1   5 281.127 255.070   3
  -6   1   6 920.183 370.184   3
  -6   1   7 576.509 308.731   3
  -6   2  -5 754.858 434.738   3
  -6   2  -4 146.008 179.150   3
  -6   2  -3 3545.97 674.112   3
  -6   2  -2 4504.19 734.263   3
  -6   2  -1 10519.3 1078.88   3
  -6   2   0 502.946 201.634   3
  -6   2   1 213.663 209.714   3
  -6   2   2 775.282 385.211   3
  -6   2   3 146.279 226.064   3
  -6   2   4 269.677 285.998   3
  -6   2   5 1059.04 359.884   3
  -6   2   6-502.058 289.231   3
  -6   3  -6 1476.64 472.341   3
  -6   3  -5 875.513 396.445   3
  -6   3  -4 343.979 225.469   3
  -6   3  -3 2329.12 569.292   3
  -6   3  -2 2805.52 567.670   3
  -6   3  -1 2109.17 515.020   3
  -6   3   0 3051.48 584.852   3
  -6   3   1 1841.04 469.588   3
  -6   3   2 925.501 375.141   3
  -6   3   3 1901.20 490.018   3
  -6   3   4 417.080 285.667   3
  -6   3   5-87.4516 188.423   3
  -6   4  -7 1571.55 462.564   3
  -6   4  -6-618.168 347.037   3
  -6   4  -5 2573.21 555.724   3
  -6   4  -4 4601.16 746.190   3
  -6   4  -3 6364.93 859.329   3
  -6   4  -2 1163.85 376.156   3
  -6   4  -1 2586.67 595.545   3
  -6   4   0 2005.21 484.157   3
  -6   4   1 4858.25 767.234   3
  -6   4   2 1286.34 427.958   3
  -6   4   3 1127.22 409.579   3
  -6   4   4 37.7696 183.408   3
  -6   5  -7 534.924 320.897   3
  -6   5  -6 544.407 347.382   3
  -6   5  -5 4489.01 728.375   3
  -6   5  -4 2623.08 576.281   3
  -6   5  -3 2092.23 512.711   3
  -6   5  -2 2859.25 583.630   3
  -6   5  -1 3081.09 569.907   3
  -6   5   0 1131.58 407.021   3
  -6   5   1 1809.52 488.569   3
  -6   5   2 1963.21 503.727   3
  -6   6  -7 430.490 288.203   3
  -6   6  -6 5067.15 793.455   3
  -6   6  -5 592.993 340.771   3
  -6   6  -4 1270.98 402.856   3
  -6   6  -3 1152.80 422.146   3
  -6   6  -2 1546.57 442.651   3
  -6   6  -1 1012.93 411.508   3
  -6   6   0 1755.41 493.697   3
  -6   7  -5 860.228 389.748   3
  -6   7  -4 820.247 360.691   3
  -6   7  -3 2212.77 562.155   3
  -5  -8   3 389.145 229.845   2
  -5  -8   4 365.165 256.895   2
  -5  -8   5 244.915 251.311   2
  -5  -8   6 223.873 242.261   2
  -5  -7   0 289.977 190.503   2
  -5  -7   1 1682.27 471.675   2
  -5  -7   2 787.083 290.165   2
  -5  -7   3-273.764 228.564   2
  -5  -7   4-68.3789 251.109   2
  -5  -7   5-2.02835 180.038   2
  -5  -7   6 124.417 210.640   2
  -5  -6  -2-124.850 184.788   2
  -5  -6  -1 93.4991 197.726   2
  -5  -6   0 860.864 339.931   2
  -5  -6   1 919.089 365.216   2
  -5  -6   2 441.972 211.095   2
  -5  -6   3 2778.94 562.518   2
  -5  -6   4 532.276 270.325   2
  -5  -6   5 754.453 319.511   2
  -5  -5  -3 112.450 174.716   2
  -5  -5  -2 139.048 170.600   2
  -5  -5  -1 48.0431 164.730   2
  -5  -5   0-555.423 263.729   2
  -5  -5   1-310.622 219.628   2
  -5  -5   2-11.4046 229.263   2
  -5  -5   3 485.052 225.910   2
  -5  -5   4 658.664 276.434   2
  -5  -4  -5 382.702 252.998   2
  -5  -4  -4 745.304 305.704   2
  -5  -4  -3 299.621 229.445   2
  -5  -4  -2 731.439 273.849   2
  -5  -4  -1 129.966 157.957   2
  -5  -4   0-11.3885 126.641   2
  -5  -4   1 241.045 176.706   2
  -5  -4   2 483.415 214.089   2
  -5  -4   3 341.161 192.027   2
  -5  -4   5 284.038 243.878   3
  -5  -4   6 1135.78 324.695   3
  -5  -4   7 136.791 181.784   3
  -5  -3  -6 442.742 268.714   2
  -5  -3  -5 860.417 323.036   2
  -5  -3  -4 1588.54 413.413   2
  -5  -3  -3 417.281 216.835   2
  -5  -3  -2 284.354 172.098   2
  -5  -3  -1 475.302 203.285   2
  -5  -3   0 305.983 185.830   2
  -5  -3   1 1153.31 359.528   3
  -5  -3   1 1278.18 327.064   2
  -5  -3   2 1225.27 386.341   3
  -5  -3   3 781.298 318.168   3
  -5  -3   4 923.671 332.194   3
  -5  -3   5 895.164 306.475   3
  -5  -3   6 278.506 203.114   3
  -5  -3   7-596.994 274.097   3
  -5  -2  -6 1041.50 354.090   2
  -5  -2  -5 2381.65 490.685   2
  -5  -2  -4 880.873 291.426   2
  -5  -2  -3 4857.47 610.072   2
  -5  -2  -2 3064.04 457.986   2
  -5  -2  -1 479.154 196.087   2
  -5  -2  -1 761.272 320.284   3
  -5  -2   0 2968.99 557.094   3
  -5  -2   1 261.458 197.961   3
  -5  -2   2 420.797 281.626   3
  -5  -2   3 806.654 332.745   3
  -5  -2   4 25.9280 180.824   3
  -5  -2   5 1234.60 375.033   3
  -5  -2   6 326.231 213.495   3
  -5  -2   7-58.1128 163.469   3
  -5  -1  -5 1919.37 404.238   2
  -5  -1  -4 973.732 293.581   2
  -5  -1  -3 1108.63 278.313   2
  -5  -1  -3 1828.49 456.710   3
  -5  -1  -2 5590.98 754.348   3
  -5  -1  -1 2025.60 457.008   3
  -5  -1   0 1962.64 446.976   3
  -5  -1   1 611.416 253.291   3
  -5  -1   2 3155.86 570.164   3
  -5  -1   3 2974.30 539.463   3
  -5  -1   4 793.449 346.225   3
  -5  -1   5-180.220 225.102   3
  -5  -1   6 135.972 229.933   3
  -5  -1   7 852.313 326.132   3
  -5   0  -5 2922.07 574.025   3
  -5   0  -4 1805.32 449.881   3
  -5   0  -3-240.779 254.907   3
  -5   0  -2 1933.75 485.179   3
  -5   0  -1 4550.62 659.410   3
  -5   0   0 820.324 316.894   3
  -5   0   1 5379.61 703.853   3
  -5   0   2 6908.32 796.505   3
  -5   0   3 654.881 294.712   3
  -5   0   4 3549.45 577.626   3
  -5   0   5 2023.27 457.735   3
  -5   0   6-21.1170 181.901   3
  -5   0   7 2150.67 466.865   3
  -5   1  -6 4888.32 760.132   3
  -5   1  -5 1598.00 443.039   3
  -5   1  -4 1052.84 360.388   3
  -5   1  -3 3860.39 638.788   3
  -5   1  -2-314.991 268.849   3
  -5   1  -1 567.764 241.231   3
  -5   1   0 4966.44 666.526   3
  -5   1   1 6422.33 760.665   3
  -5   1   2 2297.39 464.042   3
  -5   1   3 1006.27 328.000   3
  -5   1   4 1148.49 370.403   3
  -5   1   5 3565.19 587.597   3
  -5   1   6 4061.22 627.998   3
  -5   1   7 420.517 272.774   3
  -5   2  -7 8053.48 969.237   3
  -5   2  -6 4251.48 694.690   3
  -5   2  -5 506.401 216.585   3
  -5   2  -4 3660.16 625.693   3
  -5   2  -3 632.828 302.813   3
  -5   2  -2 16167.7 1200.15   3
  -5   2  -1 2388.46 474.833   3
  -5   2   0 604.253 262.415   3
  -5   2   1 321.157 192.484   3
  -5   2   2 1290.10 352.022   3
  -5   2   3 4349.98 637.638   3
  -5   2   4 3836.62 609.997   3
  -5   2   5 23.3432 185.192   3
  -5   2   6 4149.57 623.519   3
  -5   2   7 102.967 183.069   3
  -5   3  -8 2666.23 553.196   3
  -5   3  -7 3465.37 638.312   3
  -5   3  -6 5047.91 780.110   3
  -5   3  -5 11062.1 1072.47   3
  -5   3  -4 6831.98 820.962   3
  -5   3  -3 2134.83 470.181   3
  -5   3  -2 2593.79 508.184   3
  -5   3  -1 353.610 250.705   3
  -5   3   0 435.669 288.383   3
  -5   3   1 248.053 194.548   3
  -5   3   2 767.770 323.037   3
  -5   3   3 5034.32 684.269   3
  -5   3   4 7653.72 844.076   3
  -5   3   5 3754.90 612.266   3
  -5   3   6 50.3939 188.235   3
  -5   3   7 1475.65 408.611   3
  -5   4  -8 4994.73 784.462   3
  -5   4  -7 639.505 309.797   3
  -5   4  -6 988.659 350.919   3
  -5   4  -5 8251.86 901.772   3
  -5   4  -4 11589.2 1051.22   3
  -5   4  -3 21880.5 1401.03   3
  -5   4  -2 843.446 315.039   3
  -5   4  -1 1095.44 352.497   3
  -5   4   0 788.778 309.032   3
  -5   4   1 326.885 254.444   3
  -5   4   2 984.902 338.337   3
  -5   4   3 2393.14 501.807   3
  -5   4   4 162.883 182.179   3
  -5   4   5 4195.35 659.735   3
  -5   4   6 2265.95 508.378   3
  -5   4   7 615.654 287.529   3
  -5   5  -8 952.555 356.490   3
  -5   5  -7-391.915 264.006   3
  -5   5  -6 1921.47 458.212   3
  -5   5  -5 5108.72 712.235   3
  -5   5  -4 5163.23 704.368   3
  -5   5  -3 4091.13 611.995   3
  -5   5  -2 8037.95 854.981   3
  -5   5  -1 6590.19 787.766   3
  -5   5   0 1585.94 413.240   3
  -5   5   1 2895.96 569.176   3
  -5   5   2 2556.95 526.624   3
  -5   5   3-208.543 307.644   3
  -5   5   4 120.835 217.542   3
  -5   5   5 151.526 232.994   3
  -5   5   6 1056.89 364.141   3
  -5   5   7 534.659 295.846   3
  -5   6  -8-125.783 248.206   3
  -5   6  -7 3541.93 622.091   3
  -5   6  -6 4884.69 702.458   3
  -5   6  -5 8065.62 886.108   3
  -5   6  -4 1247.23 346.613   3
  -5   6  -3 7553.35 852.789   3
  -5   6  -2 5431.25 722.517   3
  -5   6  -1 11709.7 1060.16   3
  -5   6   0 3012.94 560.191   3
  -5   6   1 1100.94 373.924   3
  -5   6   2 89.3521 219.562   3
  -5   6   3 308.972 260.718   3
  -5   6   4 1375.09 383.708   3
  -5   6   5 848.209 361.854   3
  -5   7  -8 1784.13 454.004   3
  -5   7  -7 6009.40 785.169   3
  -5   7  -6 2295.73 481.562   3
  -5   7  -5 2042.50 458.372   3
  -5   7  -4 5746.67 745.430   3
  -5   7  -3 4839.79 699.771   3
  -5   7  -2 4673.08 707.861   3
  -5   7  -1 4221.40 670.995   3
  -5   7   0 3042.09 587.447   3
  -5   7   1 795.160 339.891   3
  -5   7   2 43.8991 197.108   3
  -5   7   3 781.884 395.305   3
  -5   7   4 589.596 373.880   3
  -5   8  -8 6174.84 814.610   3
  -5   8  -7-55.5665 212.364   3
  -5   8  -6 1137.35 388.746   3
  -5   8  -5 266.528 264.429   3
  -5   8  -4 636.131 296.453   3
  -5   8  -3 767.059 323.594   3
  -5   8  -2 4787.70 711.146   3
  -5   8  -1 1837.70 461.656   3
  -5   8   0 4746.84 750.930   3
  -5   8   1 2209.41 535.991   3
  -5   8   2 3205.81 648.826   3
  -5   9  -7 707.599 308.054   3
  -5   9  -6 834.635 329.469   3
  -5   9  -5 1702.08 428.368   3
  -5   9  -4 1893.67 517.016   3
  -5   9  -3 1465.57 406.979   3
  -5   9  -2 1913.61 509.286   3
  -5   9  -1 832.852 366.826   3
  -5   9   0 1452.16 469.856   3
  -5  10  -7 562.727 309.077   3
  -5  10  -6 1575.36 461.346   3
  -5  10  -5 1484.38 428.786   3
  -5  10  -4 9468.43 1037.29   3
  -5  10  -3 2849.19 598.036   3
  -4  -9   2 222.796 267.563   2
  -4  -9   3 911.885 422.212   2
  -4  -9   4 676.741 356.529   2
  -4  -9   5-18.1104 210.283   2
  -4  -9   6 60.4016 213.727   2
  -4  -9   7 132.663 192.758   2
  -4  -9   8 133.579 205.951   2
  -4  -8   0 806.698 363.207   2
  -4  -8   1-135.517 223.004   2
  -4  -8   2-165.376 221.519   2
  -4  -8   3 645.554 375.416   2
  -4  -8   4 182.376 234.048   2
  -4  -8   5-260.122 251.028   2
  -4  -8   6 61.3177 201.586   2
  -4  -8   7 285.468 217.821   2
  -4  -8   8 1658.57 498.403   2
  -4  -8   9-539.121 312.937   2
  -4  -8  10 115.632 239.186   2
  -4  -7  -2 1341.96 440.133   2
  -4  -7  -1 326.181 283.033   2
  -4  -7   0 921.607 384.144   2
  -4  -7   1 931.264 366.643   2
  -4  -7   2 0.96582 173.194   2
  -4  -7   3 20.8760 176.366   2
  -4  -7   4-195.554 270.370   2
  -4  -7   5-155.323 232.159   2
  -4  -7   6 145.066 190.808   2
  -4  -7   7 494.360 265.825   2
  -4  -7   8 608.438 283.929   2
  -4  -7   9 634.550 303.023   2
  -4  -7   9 592.559 309.920   1
  -4  -7  10 340.507 224.010   2
  -4  -7  10 195.086 216.140   1
  -4  -6  -4 881.008 366.827   2
  -4  -6  -3 1306.38 395.522   2
  -4  -6  -2 284.560 264.000   2
  -4  -6  -1 1120.80 359.729   2
  -4  -6   0 870.191 331.415   2
  -4  -6   1 1603.49 436.302   2
  -4  -6   2 3109.21 555.865   2
  -4  -6   3 39.4054 175.306   2
  -4  -6   4 161.628 263.595   2
  -4  -6   5 325.863 236.060   2
  -4  -6   6 476.940 247.280   2
  -4  -6   7 2258.92 475.660   2
  -4  -6   8 138.035 204.670   2
  -4  -6   8 181.623 214.832   1
  -4  -6   9 92.5690 180.673   2
  -4  -6   9-572.294 308.440   1
  -4  -6  10-6.88086 207.445   1
  -4  -5  -5 234.431 217.911   2
  -4  -5  -4 516.159 273.942   2
  -4  -5  -3 410.781 171.765   2
  -4  -5  -2 2868.34 520.789   2
  -4  -5  -1 8357.21 860.427   2
  -4  -5   0 6236.24 745.655   2
  -4  -5   1 785.693 298.811   2
  -4  -5   2 794.913 320.442   2
  -4  -5   3-3.65029 171.084   2
  -4  -5   4 187.347 178.144   2
  -4  -5   5 861.307 283.629   2
  -4  -5   6 412.459 241.561   2
  -4  -5   7 457.286 217.229   2
  -4  -5   8 639.842 292.401   2
  -4  -5   8 580.614 295.052   1
  -4  -5   9 75.8511 226.327   1
  -4  -5  10 371.974 220.461   1
  -4  -4  -6 130.008 221.080   2
  -4  -4  -5 207.186 250.616   2
  -4  -4  -4 102.199 198.883   2
  -4  -4  -3 2038.33 454.099   2
  -4  -4  -2 3383.80 533.891   2
  -4  -4  -1 7670.30 765.227   2
  -4  -4   0 4442.01 583.229   2
  -4  -4   1 7812.69 751.604   2
  -4  -4   2 178.555 176.800   2
  -4  -4   3 3090.63 478.675   2
  -4  -4   4 866.621 269.521   2
  -4  -4   4 729.000 272.368   3
  -4  -4   5 39.9072 126.317   2
  -4  -4   5 328.689 166.458   3
  -4  -4   6 78.7699 140.017   3
  -4  -4   6 261.736 196.931   2
  -4  -4   7-115.404 176.847   3
  -4  -4   7 148.094 139.408   2
  -4  -4   8 65.1758 214.677   1
  -4  -4   9 1447.32 492.301   1
  -4  -4  10 127.843 168.254   1
  -4  -3  -7 3483.40 643.574   2
  -4  -3  -6 231.716 192.483   2
  -4  -3  -5 746.854 302.048   2
  -4  -3  -4 393.499 206.632   2
  -4  -3  -3 1090.16 308.737   2
  -4  -3  -2 602.153 242.757   2
  -4  -3  -1 835.780 261.338   2
  -4  -3   0 1292.58 291.478   2
  -4  -3   1 3510.86 520.781   3
  -4  -3   1 4756.46 536.646   2
  -4  -3   2 6454.87 636.289   2
  -4  -3   2 7219.99 735.803   3
  -4  -3   3 4810.76 554.834   2
  -4  -3   3 4581.18 582.122   3
  -4  -3   4 1318.65 310.573   3
  -4  -3   4 1358.94 306.473   2
  -4  -3   5 1722.77 330.695   2
  -4  -3   5 1556.14 344.286   3
  -4  -3   6 1056.91 287.274   2
  -4  -3   6 1096.24 303.320   3
  -4  -3   7 743.241 263.376   3
  -4  -3   8 506.986 312.602   1
  -4  -3   9-150.798 243.858   1
  -4  -3  10-21.2927 235.679   1
  -4  -2  -7-81.5050 204.464   2
  -4  -2  -6 1420.90 426.633   2
  -4  -2  -5 441.544 227.149   2
  -4  -2  -4 1782.77 388.584   2
  -4  -2  -3 176.382 185.563   2
  -4  -2  -2 1219.17 348.316   3
  -4  -2  -2 2208.94 377.534   2
  -4  -2  -1 267.359 202.203   3
  -4  -2  -1 405.417 194.780   2
  -4  -2   0 5181.93 511.380   2
  -4  -2   0 3930.49 559.888   3
  -4  -2   1 4614.68 474.969   2
  -4  -2   1 4241.92 571.210   3
  -4  -2   2 10581.8 709.261   2
  -4  -2   2 10554.4 871.452   3
  -4  -2   3 754.858 217.198   2
  -4  -2   3 1238.77 338.687   3
  -4  -2   4 5206.18 515.893   2
  -4  -2   4 5150.82 619.601   3
  -4  -2   5 247.618 158.549   2
  -4  -2   5 408.308 233.132   3
  -4  -2   6 896.507 272.934   3
  -4  -2   7 384.918 209.522   3
  -4  -2   8 1104.83 377.252   1
  -4  -2   9-350.619 349.405   1
  -4  -2  10 1422.57 493.391   1
  -4  -1  -6 6195.95 737.010   2
  -4  -1  -5 582.594 240.235   2
  -4  -1  -4 671.231 248.735   2
  -4  -1  -3 621.952 241.989   3
  -4  -1  -3 658.332 223.087   2
  -4  -1  -2 89.3554 118.530   2
  -4  -1  -2 180.860 183.325   3
  -4  -1  -1 3449.15 528.804   3
  -4  -1  -1 3183.44 379.816   2
  -4  -1   0 7878.25 752.972   3
  -4  -1   0 7840.82 555.086   2
  -4  -1   1 6472.93 485.398   2
  -4  -1   1 6231.47 649.423   3
  -4  -1   2 9417.90 797.159   3
  -4  -1   2 8890.64 568.000   2
  -4  -1   3 6658.10 518.543   2
  -4  -1   3 7955.79 730.033   3
  -4  -1   4 851.018 208.919   2
  -4  -1   4 1357.81 343.422   3
  -4  -1   5-132.870 202.930   3
  -4  -1   6 85.7499 143.569   3
  -4  -1   7 430.023 203.315   3
  -4  -1   8 294.069 298.109   1
  -4  -1   8 644.830 236.108   3
  -4  -1   9 2082.48 519.693   1
  -4  -1  10 781.622 361.395   1
  -4   0  -5 17396.4 1070.66   2
  -4   0  -5 15613.3 1140.99   3
  -4   0  -4 8239.70 834.891   3
  -4   0  -4 10013.3 758.056   2
  -4   0  -3 226.309 236.290   3
  -4   0  -3 31.2135 99.2654   2
  -4   0  -2 4458.58 430.532   2
  -4   0  -2 3714.67 546.753   3
  -4   0  -1 1225.69 224.513   2
  -4   0  -1 988.553 293.296   3
  -4   0   0 971.515 310.450   3
  -4   0   0 734.807 159.122   2
  -4   0   1 6536.28 396.583   2
  -4   0   1 6590.15 668.301   3
  -4   0   2 895.107 269.721   3
  -4   0   2 854.156 160.752   2
  -4   0   3 8628.44 767.194   3
  -4   0   3 8019.43 471.184   2
  -4   0   4 1322.05 214.667   2
  -4   0   4 748.408 256.473   3
  -4   0   5 911.322 290.075   3
  -4   0   6 1224.16 325.466   3
  -4   0   7 1119.33 309.747   3
  -4   0   8 1095.08 300.868   3
  -4   0   8 1368.99 475.387   1
  -4   0   9 610.864 378.658   1
  -4   0  10-6.30992 205.288   1
  -4   1  -6 4185.17 617.752   3
  -4   1  -5 4528.83 621.095   3
  -4   1  -4 13412.1 1047.33   3
  -4   1  -3 6729.32 717.157   3
  -4   1  -2 7680.92 493.895   2
  -4   1  -2 6806.81 701.063   3
  -4   1  -1 1948.38 384.257   3
  -4   1  -1 1675.32 201.198   2
  -4   1   0 7969.07 347.051   2
  -4   1   0 7013.27 681.290   3
  -4   1   1 8719.18 280.884   2
  -4   1   1 8491.91 742.067   3
  -4   1   2 628.649 81.4157   2
  -4   1   2 655.945 231.631   3
  -4   1   3 97.4816 67.2076   2
  -4   1   3 274.931 184.781   3
  -4   1   4 3555.81 506.974   3
  -4   1   5 4350.84 567.808   3
  -4   1   6 2461.12 441.199   3
  -4   1   7 867.653 275.997   3
  -4   1   8-77.5605 185.063   3
  -4   2  -7 7415.42 812.985   3
  -4   2  -6 1995.61 457.726   3
  -4   2  -5 1079.78 336.355   3
  -4   2  -4 3219.86 504.720   3
  -4   2  -3 18603.5 1166.11   3
  -4   2  -2 3101.44 478.256   3
  -4   2  -1 20530.8 1165.74   3
  -4   2   0 18468.6 1092.01   3
  -4   2   1 1109.18 300.082   3
  -4   2   2 13278.2 942.094   3
  -4   2   3 10522.0 844.465   3
  -4   2   4 682.820 260.715   3
  -4   2   5 7497.57 736.014   3
  -4   2   6 356.512 198.024   3
  -4   2   7 471.713 237.950   3
  -4   2   8-41.0674 185.791   3
  -4   3  -8 4869.26 659.512   3
  -4   3  -7 410.065 231.564   3
  -4   3  -6 1124.88 343.721   3
  -4   3  -5 11020.7 942.672   3
  -4   3  -4 348.038 204.250   3
  -4   3  -3 2933.72 459.995   3
  -4   3  -2 17298.1 1080.24   3
  -4   3  -1 18190.7 1103.29   3
  -4   3   0 4768.10 572.002   3
  -4   3   1 3075.80 476.200   3
  -4   3   2 7133.16 722.011   3
  -4   3   3 10745.1 879.595   3
  -4   3   4 13453.1 1008.74   3
  -4   3   5 454.122 221.279   3
  -4   3   6-103.001 169.248   3
  -4   3   7 538.146 260.021   3
  -4   4  -8 4489.80 655.143   3
  -4   4  -7 399.325 262.298   3
  -4   4  -6 3160.56 526.917   3
  -4   4  -5 1487.88 351.262   3
  -4   4  -4 28553.9 1430.96   3
  -4   4  -3 6626.41 680.424   3
  -4   4  -2 1755.71 384.436   3
  -4   4  -1 1564.70 356.465   3
  -4   4   0 6677.36 693.125   3
  -4   4   1 13023.7 982.793   3
  -4   4   2 11139.0 918.606   3
  -4   4   3 466.568 233.680   3
  -4   4   4 10208.7 910.400   3
  -4   4   5-80.0969 192.561   3
  -4   4   6 2205.98 461.833   3
  -4   4   7 1616.13 402.643   3
  -4   5  -8 7989.15 841.827   3
  -4   5  -7 13135.7 1062.80   3
  -4   5  -6 8533.57 829.060   3
  -4   5  -5 1024.54 304.546   3
  -4   5  -4 336.694 164.304   3
  -4   5  -3 608.920 250.355   3
  -4   5  -2 579.495 244.096   3
  -4   5  -1 200.964 196.314   3
  -4   5   0 5434.11 652.219   3
  -4   5   1 16582.4 1149.47   3
  -4   5   2 22054.6 1360.18   3
  -4   5   3 9287.23 898.725   3
  -4   5   4-171.502 266.082   3
  -4   5   5 4016.09 643.179   3
  -4   5   6 4848.96 704.907   3
  -4   5   7 1594.97 441.161   3
  -4   6  -8 1832.59 433.764   3
  -4   6  -7 11899.8 996.615   3
  -4   6  -6 15658.4 1105.48   3
  -4   6  -5 22458.3 1308.15   3
  -4   6  -4 177.163 154.100   3
  -4   6  -3 4095.69 572.313   3
  -4   6  -2 1287.81 352.886   3
  -4   6  -1 344.968 252.667   3
  -4   6   0 2752.95 483.644   3
  -4   6   1 8808.07 885.703   3
  -4   6   2 1038.47 387.355   3
  -4   6   3 10931.5 1042.07   3
  -4   6   4 4300.14 677.693   3
  -4   6   5 1789.32 449.669   3
  -4   6   6 904.963 383.221   3
  -4   6   7 631.521 339.692   3
  -4   7  -8 4031.47 595.334   3
  -4   7  -7 7939.00 809.708   3
  -4   7  -6 5567.93 671.405   3
  -4   7  -5 3416.87 520.218   3
  -4   7  -4 7358.15 770.845   3
  -4   7  -3 6325.87 730.820   3
  -4   7  -2 1313.31 360.787   3
  -4   7  -1 4717.84 654.298   3
  -4   7   0 4637.54 673.373   3
  -4   7   1 198.305 216.863   3
  -4   7   2-110.400 249.911   3
  -4   7   3 1212.35 392.543   3
  -4   7   4 4203.59 701.595   3
  -4   7   5 2261.37 544.863   3
  -4   7   6 125.762 219.415   3
  -4   8  -8 7471.29 786.040   3
  -4   8  -7 9446.08 892.008   3
  -4   8  -6 2993.88 515.563   3
  -4   8  -5 7944.85 819.337   3
  -4   8  -4 4495.14 627.152   3
  -4   8  -3 10139.1 944.469   3
  -4   8  -2 1674.84 399.430   3
  -4   8  -1 704.124 317.122   3
  -4   8   0 49.6923 172.297   3
  -4   8   1 420.334 326.578   3
  -4   8   2 3363.33 624.657   3
  -4   8   3 3417.03 661.372   3
  -4   8   4 623.520 302.632   3
  -4   8   5 3836.15 724.064   3
  -4   9  -8 448.333 257.741   3
  -4   9  -7 632.250 254.340   3
  -4   9  -6 5631.57 711.652   3
  -4   9  -5 8112.44 863.543   3
  -4   9  -4 6511.13 772.671   3
  -4   9  -3 4110.68 636.165   3
  -4   9  -2 2554.78 537.918   3
  -4   9  -1-117.598 251.777   3
  -4   9   0-64.4874 243.220   3
  -4   9   1 368.955 321.343   3
  -4   9   2 459.761 309.687   3
  -4   9   3 2039.64 543.496   3
  -4  10  -7 99.6721 168.814   3
  -4  10  -6 511.222 251.944   3
  -4  10  -5 347.105 250.932   3
  -4  10  -4 5166.68 729.048   3
  -4  10  -3 2059.45 467.752   3
  -4  10  -2 4264.64 688.205   3
  -4  10  -1 3095.52 631.118   3
  -4  10   0 4985.46 808.834   3
  -4  10   1 204.884 260.121   3
  -4  11  -7 733.366 304.939   3
  -4  11  -6 607.345 252.333   3
  -4  11  -5 2463.63 537.034   3
  -4  11  -4 928.693 351.486   3
  -4  11  -3 1376.59 460.905   3
  -4  11  -2 2819.45 627.490   3
  -4  12  -7 580.488 290.475   3
  -4  12  -6 2361.48 557.604   3
  -4  12  -5 1323.62 437.779   3
  -3 -10   2 314.729 337.266   2
  -3 -10   3 3.48218 212.503   2
  -3 -10   4 161.745 232.346   2
  -3 -10   5 1167.40 456.271   2
  -3 -10   6 278.155 198.538   2
  -3 -10   7-5.76443 278.900   2
  -3 -10   8 850.609 359.707   2
  -3  -9  -1 101.144 192.476   2
  -3  -9   0 79.2826 199.139   2
  -3  -9   1-119.289 230.691   2
  -3  -9   2 427.608 274.044   2
  -3  -9   3 630.304 352.800   2
  -3  -9   4 416.912 217.235   2
  -3  -9   5 1531.83 465.028   2
  -3  -9   6 1394.63 462.615   2
  -3  -9   7 282.152 227.308   2
  -3  -9   8 79.0878 176.371   2
  -3  -9   9 78.8145 158.982   2
  -3  -9  10 235.699 262.583   2
  -3  -8  -2 222.509 225.094   2
  -3  -8  -1 8005.44 974.040   2
  -3  -8   0-24.1432 192.102   2
  -3  -8   1-41.8666 265.139   2
  -3  -8   2 664.279 282.174   2
  -3  -8   3 1121.74 402.756   2
  -3  -8   4 1995.22 510.126   2
  -3  -8   5 641.832 315.642   2
  -3  -8   6-75.4213 188.802   2
  -3  -8   7 1300.06 414.587   2
  -3  -8   7 845.463 289.889   1
  -3  -8   8 333.613 280.221   2
  -3  -8   8 318.920 202.614   1
  -3  -8   9-36.1626 238.523   2
  -3  -8   9 768.678 313.711   1
  -3  -8  10-160.967 222.422   1
  -3  -8  11 460.133 327.792   1
  -3  -7  -4 329.440 281.435   2
  -3  -7  -3 860.912 326.966   2
  -3  -7  -2 228.953 198.408   2
  -3  -7  -1 2228.26 526.922   2
  -3  -7   0 705.503 305.534   2
  -3  -7   1 2179.03 508.292   2
  -3  -7   2 1061.48 363.646   2
  -3  -7   3 781.972 324.344   2
  -3  -7   4 657.706 263.517   2
  -3  -7   5 864.080 315.453   2
  -3  -7   6 123.133 225.081   2
  -3  -7   6 132.489 157.363   1
  -3  -7   7 671.756 266.920   1
  -3  -7   7 613.530 297.833   2
  -3  -7   8 1705.82 460.958   2
  -3  -7   8 1383.29 379.064   1
  -3  -7   9 797.447 321.058   1
  -3  -7  10-126.410 231.876   1
  -3  -7  11-453.628 285.948   1
  -3  -6  -5 407.201 282.671   2
  -3  -6  -4 5484.85 785.052   2
  -3  -6  -3 542.872 274.678   2
  -3  -6  -2 1897.97 450.049   2
  -3  -6  -1 884.663 322.654   2
  -3  -6   0 496.731 229.418   2
  -3  -6   1 2638.99 499.871   2
  -3  -6   2 405.569 267.686   2
  -3  -6   3 890.631 308.634   2
  -3  -6   4-91.9750 177.814   2
  -3  -6   5-85.9897 213.491   2
  -3  -6   6 17214.5 1184.53   2
  -3  -6   6 14803.7 1025.92   1
  -3  -6   7 845.429 315.208   1
  -3  -6   7 479.569 244.358   2
  -3  -6   8 1892.18 447.532   1
  -3  -6   9 123.245 187.280   1
  -3  -6  10 658.200 361.501   1
  -3  -6  11 737.480 368.923   1
  -3  -5  -6 2354.06 556.345   2
  -3  -5  -5 2313.33 494.379   2
  -3  -5  -4 1936.80 466.080   2
  -3  -5  -3 340.822 222.642   2
  -3  -5  -2 4869.77 647.172   2
  -3  -5  -1 4839.65 637.249   2
  -3  -5   0 1801.33 396.040   2
  -3  -5   1 1115.61 314.340   2
  -3  -5   2 227.599 203.068   2
  -3  -5   3 440.165 218.566   2
  -3  -5   4 1133.14 324.136   2
  -3  -5   5 1129.71 310.445   2
  -3  -5   5 1367.07 328.765   1
  -3  -5   6 2109.33 417.272   1
  -3  -5   6 1140.19 316.804   2
  -3  -5   7 2586.45 488.102   1
  -3  -5   8 1459.39 407.283   1
  -3  -5   9 62.2987 184.238   1
  -3  -5  10 918.655 385.878   1
  -3  -5  11 506.563 360.831   1
  -3  -4  -7 1274.52 371.652   2
  -3  -4  -6 3250.43 587.574   2
  -3  -4  -5 2739.23 521.607   2
  -3  -4  -4 238.647 185.840   2
  -3  -4  -3 5441.78 649.391   2
  -3  -4  -2 1905.21 382.866   2
  -3  -4  -1 3028.41 482.296   2
  -3  -4   0 14988.4 995.996   2
  -3  -4   1 12.2336 130.135   2
  -3  -4   2 320.635 194.475   2
  -3  -4   3 5648.99 598.429   2
  -3  -4   4 1725.28 341.917   2
  -3  -4   5 10432.2 816.065   2
  -3  -4   5 10236.7 860.695   1
  -3  -4   6 1666.34 396.765   1
  -3  -4   7 214.925 235.240   1
  -3  -4   8 2212.87 500.179   1
  -3  -4   9 317.857 267.974   1
  -3  -4  10 1371.43 435.206   1
  -3  -4  11 492.433 281.590   1
  -3  -3  -8 1833.12 480.510   2
  -3  -3  -7 1784.92 447.278   2
  -3  -3  -6 898.156 354.055   2
  -3  -3  -5 3734.52 568.457   2
  -3  -3  -4 16343.8 1105.99   2
  -3  -3  -3 32639.2 1480.59   2
  -3  -3  -2 13100.3 897.381   2
  -3  -3  -1 1481.80 296.244   2
  -3  -3   0 432.165 172.599   2
  -3  -3   1 390.794 175.626   2
  -3  -3   1 6.62586 154.054   3
  -3  -3   2 3983.40 494.281   3
  -3  -3   2 4371.25 481.648   2
  -3  -3   3 2620.06 383.673   2
  -3  -3   3 3009.62 411.328   3
  -3  -3   4 1069.15 251.214   3
  -3  -3   4 1188.07 254.892   2
  -3  -3   5 1392.65 357.189   1
  -3  -3   5 1530.51 298.611   3
  -3  -3   6 3708.11 430.003   3
  -3  -3   6 2985.47 508.605   1
  -3  -3   7 768.929 331.022   1
  -3  -3   7 753.648 218.756   3
  -3  -3   8 218.596 179.709   1
  -3  -3   8 16.2274 136.967   3
  -3  -3   9 2133.49 507.696   1
  -3  -3  10 378.315 250.215   1
  -3  -3  11 277.781 332.191   1
  -3  -2  -7 456.689 293.759   2
  -3  -2  -6 441.869 228.287   2
  -3  -2  -5 9108.87 842.551   2
  -3  -2  -4 11458.3 882.006   2
  -3  -2  -3 26700.9 1247.68   2
  -3  -2  -2 15497.4 892.458   2
  -3  -2  -1 22803.9 1133.98   3
  -3  -2  -1 23437.2 1042.46   2
  -3  -2   0 150.574 151.221   3
  -3  -2   0 264.992 139.381   2
  -3  -2   1 11025.6 675.134   2
  -3  -2   1 10034.4 742.176   3
  -3  -2   2 5016.79 461.548   2
  -3  -2   2 4549.25 493.129   3
  -3  -2   3 435.466 163.746   2
  -3  -2   3 668.473 228.822   3
  -3  -2   4 685.201 213.620   3
  -3  -2   5 946.221 282.752   1
  -3  -2   5 1269.73 260.361   3
  -3  -2   6 1058.37 375.642   1
  -3  -2   6 1484.54 288.741   3
  -3  -2   7 10700.3 1000.26   1
  -3  -2   7 11458.9 721.185   3
  -3  -2   8 1129.60 247.221   3
  -3  -2   8 1545.72 470.587   1
  -3  -2   9 1220.20 370.335   1
  -3  -2  10 371.773 249.317   1
  -3  -2  11 269.644 187.945   1
  -3  -1  -6 2847.24 471.711   2
  -3  -1  -5 4500.05 566.130   2
  -3  -1  -4 4225.85 502.218   2
  -3  -1  -3 6004.08 586.468   3
  -3  -1  -3 5556.46 536.231   2
  -3  -1  -2 2944.92 370.245   2
  -3  -1  -2 2457.05 382.913   3
  -3  -1  -1 12560.9 679.556   2
  -3  -1  -1 12588.6 835.861   3
  -3  -1   0 29585.8 984.168   2
  -3  -1   0 29249.5 1225.15   3
  -3  -1   1 15494.8 690.203   2
  -3  -1   1 18683.8 956.701   3
  -3  -1   2 2828.00 309.146   2
  -3  -1   2 2709.35 368.320   3
  -3  -1   3 9584.12 681.408   3
  -3  -1   3 8771.82 535.542   2
  -3  -1   4 8698.74 641.819   3
  -3  -1   5 3286.02 534.964   1
  -3  -1   5 2728.29 374.424   3
  -3  -1   6 4023.34 453.718   3
  -3  -1   6 3906.58 604.147   1
  -3  -1   7 1994.64 468.920   1
  -3  -1   7 1872.91 304.218   3
  -3  -1   8 2139.29 316.516   3
  -3  -1   8 1646.11 432.455   1
  -3  -1   9 687.723 342.893   1
  -3  -1  10 664.795 336.951   1
  -3  -1  11 204.754 240.143   1
  -3   0  -5 464.741 170.473   2
  -3   0  -4 8643.91 660.983   2
  -3   0  -4 9796.82 766.965   3
  -3   0  -3 2801.26 348.660   2
  -3   0  -3 2695.58 408.063   3
  -3   0  -2 27147.4 1209.46   3
  -3   0  -2 27333.2 956.258   2
  -3   0  -1 28696.1 1210.02   3
  -3   0  -1 29608.4 899.464   2
  -3   0   0 37339.7 919.798   2
  -3   0   0 38324.5 1359.57   3
  -3   0   1 499.732 210.288   3
  -3   0   1 573.340 115.490   2
  -3   0   2 15027.0 833.076   3
  -3   0   2 14491.6 562.992   2
  -3   0   3 24.6453 104.984   3
  -3   0   4 2342.93 339.798   3
  -3   0   5 3160.92 511.017   1
  -3   0   5 3515.00 425.790   3
  -3   0   6 13160.2 814.812   3
  -3   0   6 12281.8 1020.67   1
  -3   0   7 1031.51 242.938   3
  -3   0   7 1175.50 349.460   1
  -3   0   8 5709.78 548.993   3
  -3   0   8 5929.24 801.989   1
  -3   0   9 787.200 302.148   1
  -3   0  10 382.305 258.251   1
  -3   0  11-61.8697 181.788   1
  -3   1  -6 375.039 187.956   3
  -3   1  -5 335.141 170.146   3
  -3   1  -4 257.476 203.975   3
  -3   1  -3 14547.4 710.636   2
  -3   1  -3 13967.0 880.788   3
  -3   1  -2 37144.8 979.308   2
  -3   1  -2 37674.6 1384.82   3
  -3   1  -1 30965.7 743.333   2
  -3   1  -1 31187.9 1223.80   3
  -3   1   0 39093.4 652.042   2
  -3   1   0 39226.2 1347.33   3
  -3   1   1 27399.3 486.910   2
  -3   1   1 28174.4 1135.33   3
  -3   1   2 642.647 97.5634   2
  -3   1   2 794.200 215.163   3
  -3   1   3 2030.57 214.168   2
  -3   1   3 1487.25 280.397   3
  -3   1   4 4.35797 122.713   3
  -3   1   4-35.7746 87.2462   2
  -3   1   5 1458.17 286.321   3
  -3   1   5 1680.35 383.830   1
  -3   1   6 3238.45 537.869   1
  -3   1   6 3053.25 412.227   3
  -3   1   7 10195.4 747.169   3
  -3   1   7 8646.84 914.421   1
  -3   1   8 3445.62 596.308   1
  -3   1   8 4122.27 487.137   3
  -3   1   9 1908.84 463.610   1
  -3   1  10 1002.30 387.098   1
  -3   2  -7 25838.1 1246.34   3
  -3   2  -6 11885.0 864.309   3
  -3   2  -5 467.946 173.565   3
  -3   2  -4 5435.82 564.013   3
  -3   2  -3 659.726 226.976   3
  -3   2  -2 2130.33 331.717   3
  -3   2  -1 20180.4 981.843   3
  -3   2   0 3853.19 426.442   3
  -3   2   1 26863.2 1130.20   3
  -3   2   2 2418.54 140.049   2
  -3   2   2 3046.18 408.784   3
  -3   2   3 5508.32 543.494   3
  -3   2   3 5890.05 335.158   2
  -3   2   4 3273.99 319.645   2
  -3   2   4 3413.04 433.992   3
  -3   2   5 1830.08 327.663   3
  -3   2   6 3786.67 598.899   1
  -3   2   6 2758.16 416.061   3
  -3   2   7 2902.05 541.710   1
  -3   2   7 2229.35 366.453   3
  -3   2   8-17.3452 138.339   3
  -3   2   8 6.36298 210.676   1
  -3   2   9 3724.90 653.319   1
  -3   2  10 2332.83 548.389   1
  -3   3  -8 3969.79 495.771   3
  -3   3  -7 4082.54 517.121   3
  -3   3  -6 14947.4 967.137   3
  -3   3  -5 11039.8 814.883   3
  -3   3  -4 7987.66 662.891   3
  -3   3  -3 1271.71 281.527   3
  -3   3  -2 18974.9 959.105   3
  -3   3  -1 22311.6 1049.48   3
  -3   3   0 1532.87 288.319   3
  -3   3   1 750.088 225.436   3
  -3   3   2 11849.6 369.796   2
  -3   3   2 12705.6 841.420   3
  -3   3   3 16474.5 975.658   3
  -3   3   3 15950.3 603.181   2
  -3   3   4 6052.80 614.266   3
  -3   3   4 4638.79 395.653   2
  -3   3   5 3442.06 487.269   3
  -3   3   6 206.793 192.791   3
  -3   3   7 97.0553 180.307   3
  -3   3   7 99.2265 150.590   1
  -3   3   8 3015.17 475.178   3
  -3   3   8 3053.49 587.513   1
  -3   3   9 409.825 252.931   1
  -3   3  10 1138.25 446.751   1
  -3   4  -8 2930.91 443.512   3
  -3   4  -7 2732.35 427.455   3
  -3   4  -6 2387.62 402.110   3
  -3   4  -5 29539.5 1299.76   3
  -3   4  -4 5795.83 562.670   3
  -3   4  -3 31221.4 1273.23   3
  -3   4  -2 24490.9 1124.79   3
  -3   4  -1 552.419 230.354   3
  -3   4   0 35446.5 1399.87   3
  -3   4   1 37438.7 1475.93   3
  -3   4   2 2459.94 388.934   3
  -3   4   2 2625.64 223.344   2
  -3   4   3 17586.8 1077.07   3
  -3   4   3 17931.3 729.545   2
  -3   4   4 20.1781 162.544   3
  -3   4   5 102.978 157.117   3
  -3   4   6 803.525 264.698   3
  -3   4   7 147.991 191.127   3
  -3   4   8 3095.68 535.144   3
  -3   5  -8 1746.17 343.183   3
  -3   5  -7 17559.8 1050.76   3
  -3   5  -6 2707.86 400.960   3
  -3   5  -5 8309.55 684.526   3
  -3   5  -4 28692.9 1251.13   3
  -3   5  -3 19778.2 1059.30   3
  -3   5  -2 1853.89 359.848   3
  -3   5  -1 2293.03 395.755   3
  -3   5   0 11994.7 871.947   3
  -3   5   1 19930.3 1152.27   3
  -3   5   2 27553.4 1395.97   3
  -3   5   2 27703.8 876.019   2
  -3   5   3 1996.28 404.474   3
  -3   5   4 414.858 207.064   3
  -3   5   5 582.569 249.004   3
  -3   5   6 2220.61 461.870   3
  -3   5   7 1553.99 424.748   3
  -3   5   8 50.5058 179.969   3
  -3   6  -8 1776.08 346.970   3
  -3   6  -7 2836.05 409.505   3
  -3   6  -6 35674.0 1455.18   3
  -3   6  -5 10162.2 779.399   3
  -3   6  -4 2553.08 400.209   3
  -3   6  -3 2801.94 421.528   3
  -3   6  -2 12249.4 887.530   3
  -3   6  -1 16273.2 1038.14   3
  -3   6   0 14629.1 1005.17   3
  -3   6   1 152.704 241.189   3
  -3   6   2 15649.9 1112.59   3
  -3   6   3-69.0556 214.043   3
  -3   6   4 5587.83 719.699   3
  -3   6   5 8169.59 889.159   3
  -3   6   6 2954.93 561.255   3
  -3   6   7 2651.70 541.626   3
  -3   7  -8 3867.93 498.962   3
  -3   7  -7 658.745 247.662   3
  -3   7  -6-88.5954 137.892   3
  -3   7  -5 808.756 262.528   3
  -3   7  -4 283.862 176.479   3
  -3   7  -3 1495.44 337.719   3
  -3   7  -2 9454.82 820.589   3
  -3   7  -1 22958.5 1302.04   3
  -3   7   0 27823.5 1482.18   3
  -3   7   1 8854.40 865.438   3
  -3   7   2-12.8031 175.908   3
  -3   7   3 7643.07 857.902   3
  -3   7   4 9584.19 988.928   3
  -3   7   5 1317.86 389.204   3
  -3   7   6 535.639 292.503   3
  -3   7   7 598.875 339.547   3
  -3   8  -8 7614.27 697.746   3
  -3   8  -7 9479.71 798.388   3
  -3   8  -6 638.852 259.697   3
  -3   8  -5 2749.68 470.240   3
  -3   8  -4 3273.04 507.858   3
  -3   8  -3 2378.98 450.595   3
  -3   8  -2 3688.38 548.941   3
  -3   8  -1 9217.26 884.899   3
  -3   8   0 214.477 183.303   3
  -3   8   1 13052.0 1131.56   3
  -3   8   2 7747.99 901.741   3
  -3   8   3 2309.72 529.413   3
  -3   8   4 510.425 246.847   3
  -3   8   5 1229.97 401.262   3
  -3   8   6 847.473 352.990   3
  -3   9  -8 1877.73 373.458   3
  -3   9  -7 1138.80 300.827   3
  -3   9  -6 3374.86 519.996   3
  -3   9  -5 3695.35 545.537   3
  -3   9  -4 392.533 210.293   3
  -3   9  -3 3249.51 538.588   3
  -3   9  -2 5566.42 721.088   3
  -3   9  -1 583.607 283.227   3
  -3   9   0 647.513 294.432   3
  -3   9   1 2972.00 598.191   3
  -3   9   2 3448.19 659.388   3
  -3   9   3 2562.47 621.023   3
  -3   9   4 476.507 306.635   3
  -3  10  -8 1594.53 378.592   3
  -3  10  -7 4592.19 625.695   3
  -3  10  -6 1077.56 344.930   3
  -3  10  -5 5601.41 709.724   3
  -3  10  -4 23.8566 187.756   3
  -3  10  -3-150.111 208.170   3
  -3  10  -2 480.432 287.053   3
  -3  10  -1 1616.32 492.418   3
  -3  10   0 6953.18 897.760   3
  -3  10   1 2728.97 624.402   3
  -3  10   2 915.016 386.734   3
  -3  11  -7 3692.04 597.921   3
  -3  11  -6 2689.87 519.087   3
  -3  11  -5 3582.73 622.863   3
  -3  11  -4 1003.84 390.659   3
  -3  11  -3-13.2775 184.061   3
  -3  11  -2 209.738 221.783   3
  -3  11  -1 270.438 235.346   3
  -3  11   0 1546.15 517.125   3
  -3  12  -7 450.348 272.414   3
  -3  12  -6 3276.96 603.999   3
  -3  12  -5 1403.56 412.888   3
  -3  12  -4 2805.47 637.443   3
  -3  12  -3 1462.47 500.014   3
  -3  12  -2 1712.22 502.442   3
  -3  13  -7 1075.83 391.778   3
  -3  13  -6 1221.67 427.116   3
  -3  13  -5 435.724 294.917   3
  -2 -11   2 315.703 239.537   2
  -2 -11   3 458.754 305.530   2
  -2 -11   4 802.704 420.109   2
  -2 -11   5 831.729 413.985   2
  -2 -11   6 429.338 278.133   2
  -2 -11   7 288.895 251.680   2
  -2 -11   8 313.329 237.333   2
  -2 -10   0-191.847 272.678   2
  -2 -10   1-1.05193 194.140   2
  -2 -10   2 1796.29 496.854   2
  -2 -10   3-27.8020 222.320   2
  -2 -10   4 1108.48 421.714   2
  -2 -10   5 163.368 270.948   2
  -2 -10   6 622.035 398.172   2
  -2 -10   7 351.675 269.461   2
  -2 -10   8 523.774 315.651   2
  -2 -10   9 413.405 309.239   2
  -2 -10  10 820.935 383.096   2
  -2 -10  12 515.485 286.991   1
  -2  -9  -2 1006.38 411.665   2
  -2  -9  -1-113.698 198.790   2
  -2  -9   0 425.366 280.670   2
  -2  -9   1 820.184 356.046   2
  -2  -9   2 697.315 314.929   2
  -2  -9   3-177.980 227.969   2
  -2  -9   4 547.327 264.224   2
  -2  -9   5 65.1521 194.900   2
  -2  -9   6 608.684 327.224   2
  -2  -9   7 113.141 226.524   2
  -2  -9   8-107.617 184.346   2
  -2  -9   8 116.035 135.067   1
  -2  -9   9 306.282 259.703   2
  -2  -9   9 450.709 245.578   1
  -2  -9  10 867.420 342.398   1
  -2  -9  11 388.214 271.313   1
  -2  -9  12-189.048 262.176   1
  -2  -8  -4 382.452 275.485   2
  -2  -8  -3-110.659 217.478   2
  -2  -8  -2 663.133 312.687   2
  -2  -8  -1 593.882 307.642   2
  -2  -8   0 288.727 238.388   2
  -2  -8   1 1703.56 457.211   2
  -2  -8   2 558.089 334.599   2
  -2  -8   3 7297.16 828.915   2
  -2  -8   4-83.8679 200.363   2
  -2  -8   5 840.513 315.758   2
  -2  -8   5 490.079 165.425   1
  -2  -8   6 408.557 300.975   2
  -2  -8   6 133.521 104.373   1
  -2  -8   7-163.383 248.139   2
  -2  -8   7 35.9610 135.356   1
  -2  -8   8 173.384 185.382   1
  -2  -8   9 790.501 299.911   1
  -2  -8  10-156.644 209.310   1
  -2  -8  11 876.917 388.705   1
  -2  -8  12-421.781 330.240   1
  -2  -7  -5 2877.74 614.735   2
  -2  -7  -4 2864.09 588.549   2
  -2  -7  -3 87.1421 222.568   2
  -2  -7  -2 705.650 349.356   2
  -2  -7  -1 85.3895 181.473   2
  -2  -7   0 2184.13 464.234   2
  -2  -7   1 6113.10 729.117   2
  -2  -7   2 4489.17 623.665   2
  -2  -7   3 8576.87 853.304   2
  -2  -7   4 8026.94 824.723   2
  -2  -7   4 8673.37 577.115   1
  -2  -7   5 1661.64 400.424   2
  -2  -7   5 1485.69 277.982   1
  -2  -7   6-97.9496 149.073   1
  -2  -7   6-342.953 267.057   2
  -2  -7   7 15.1817 131.298   1
  -2  -7   8 384.794 228.498   1
  -2  -7   9 270.122 219.973   1
  -2  -7  10-116.621 253.690   1
  -2  -7  11 129.686 220.727   1
  -2  -7  12 102.304 205.087   1
  -2  -6  -6 1279.35 401.103   2
  -2  -6  -5 1278.51 373.058   2
  -2  -6  -4 2018.81 464.528   2
  -2  -6  -3 15396.3 1161.81   2
  -2  -6  -2-127.267 235.908   2
  -2  -6  -1 685.663 287.892   2
  -2  -6   0 4826.62 624.939   2
  -2  -6   1 4998.13 617.897   2
  -2  -6   2 12486.2 960.036   2
  -2  -6   3 2775.11 470.203   2
  -2  -6   4 206.003 119.031   1
  -2  -6   4-86.6895 196.076   2
  -2  -6   5 12236.1 784.328   1
  -2  -6   5 11023.9 901.822   2
  -2  -6   6 1819.31 375.571   1
  -2  -6   7 3630.20 534.840   1
  -2  -6   8-82.0440 181.663   1
  -2  -6   9-173.997 213.803   1
  -2  -6  10 537.648 273.027   1
  -2  -6  11 102.883 289.136   1
  -2  -6  12-229.997 334.684   1
  -2  -5  -7 787.369 309.130   2
  -2  -5  -6 1455.44 429.664   2
  -2  -5  -5 8192.09 878.165   2
  -2  -5  -4-64.1357 191.503   2
  -2  -5  -3 3234.08 514.382   2
  -2  -5  -2 2834.45 468.001   2
  -2  -5  -1 10669.3 867.342   2
  -2  -5   0 4553.46 554.322   2
  -2  -5   1 878.702 257.201   2
  -2  -5   2 8999.51 752.368   2
  -2  -5   3 6498.80 635.581   2
  -2  -5   3 6886.07 503.538   1
  -2  -5   4 1806.31 366.326   2
  -2  -5   4 2071.41 314.903   1
  -2  -5   5 8334.00 677.233   1
  -2  -5   6 11512.2 880.926   1
  -2  -5   7 5134.74 633.083   1
  -2  -5   8 555.134 232.436   1
  -2  -5   9 97.1043 206.708   1
  -2  -5  10 73.9825 226.196   1
  -2  -5  11 383.937 327.678   1
  -2  -5  12 108.867 333.308   1
  -2  -4  -8 1980.21 494.480   2
  -2  -4  -7 989.156 373.965   2
  -2  -4  -6 10938.5 1008.66   2
  -2  -4  -5 1661.66 393.300   2
  -2  -4  -4 7919.56 780.908   2
  -2  -4  -3 173.858 152.947   2
  -2  -4  -2 4735.11 558.542   2
  -2  -4  -1 7199.79 661.715   2
  -2  -4   0 6.29718 143.904   2
  -2  -4   1-10.6297 131.644   2
  -2  -4   2 520.133 224.186   2
  -2  -4   3-20.3138 137.440   2
  -2  -4   3 62.0100 130.165   1
  -2  -4   4 142754. 2602.63   1
  -2  -4   5 7556.96 671.897   1
  -2  -4   6 9010.25 800.719   1
  -2  -4   7 2804.75 479.732   1
  -2  -4   8 644.337 288.025   1
  -2  -4   9 1830.63 453.911   1
  -2  -4  10 515.200 277.577   1
  -2  -4  11-475.392 324.770   1
  -2  -4  12 400.285 296.327   1
  -2  -3  -8 3386.28 594.367   2
  -2  -3  -7 3626.82 601.784   2
  -2  -3  -6 1524.96 371.770   2
  -2  -3  -5 2455.01 433.737   2
  -2  -3  -4 17010.5 1057.01   2
  -2  -3  -3 23248.6 1167.88   2
  -2  -3  -2 7727.33 643.292   2
  -2  -3  -1 3482.68 411.163   2
  -2  -3   0 570.578 165.941   2
  -2  -3   1 594.512 207.830   2
  -2  -3   2 1420.79 252.698   2
  -2  -3   3 8023.83 581.719   1
  -2  -3   3 8094.05 531.144   3
  -2  -3   3 8599.14 602.144   2
  -2  -3   4 8313.47 649.069   1
  -2  -3   4 7807.53 505.768   3
  -2  -3   5 14940.3 948.069   1
  -2  -3   5 15290.6 686.814   3
  -2  -3   6 12485.5 942.419   1
  -2  -3   6 12361.8 602.023   3
  -2  -3   7 2495.10 271.313   3
  -2  -3   7 2593.00 490.491   1
  -2  -3   8 2949.76 537.151   1
  -2  -3   9 3834.17 640.655   1
  -2  -3  10 1073.35 413.621   1
  -2  -3  11-239.120 218.915   1
  -2  -3  12 714.546 336.870   1
  -2  -2  -7 3156.98 531.076   2
  -2  -2  -6 285.171 187.841   2
  -2  -2  -5 9456.20 793.437   2
  -2  -2  -4 3802.82 478.787   2
  -2  -2  -3 4750.10 493.043   2
  -2  -2  -2 50120.8 1476.25   2
  -2  -2  -1 227.180 136.881   2
  -2  -2   0 1078.39 228.634   3
  -2  -2   0 1014.51 215.309   2
  -2  -2   1 35350.9 1094.52   2
  -2  -2   1 34143.7 1108.33   3
  -2  -2   2 11026.0 611.167   3
  -2  -2   2 9604.56 563.207   2
  -2  -2   3 42929.9 1368.82   1
  -2  -2   3 41575.1 1157.60   3
  -2  -2   4 18427.5 980.074   1
  -2  -2   4 17448.3 731.152   3
  -2  -2   5 107.978 199.922   1
  -2  -2   5-32.6297 91.3632   3
  -2  -2   6 7431.56 753.165   1
  -2  -2   6 7495.20 459.546   3
  -2  -2   7 4226.64 337.059   3
  -2  -2   7 4422.36 622.132   1
  -2  -2   8 9808.77 961.076   1
  -2  -2   8 9518.44 486.376   3
  -2  -2   9 2770.14 557.992   1
  -2  -2  10-61.8520 267.014   1
  -2  -2  11 6061.50 907.540   1
  -2  -2  12-38.1397 239.697   1
  -2  -1  -6 31229.0 1458.38   2
  -2  -1  -5 54166.3 1767.73   2
  -2  -1  -4 21089.5 1023.15   2
  -2  -1  -3 742.620 197.353   2
  -2  -1  -2 327.681 161.147   2
  -2  -1  -2-64.7690 120.722   3
  -2  -1  -1 141.214 96.7955   2
  -2  -1  -1 362.408 168.265   3
  -2  -1   0 21686.4 739.119   2
  -2  -1   0 22370.2 885.839   3
  -2  -1   1 11446.4 520.817   2
  -2  -1   1 11806.6 621.306   3
  -2  -1   2 1143.78 203.459   3
  -2  -1   3 6162.94 541.190   1
  -2  -1   3 5136.64 406.509   3
  -2  -1   4 16029.0 935.067   1
  -2  -1   4 15538.6 676.650   3
  -2  -1   5 4048.28 351.481   3
  -2  -1   5 4494.02 533.672   1
  -2  -1   6 1615.86 238.353   3
  -2  -1   6 1382.28 340.184   1
  -2  -1   7 12424.1 1002.22   1
  -2  -1   7 13382.9 634.898   3
  -2  -1   8 4381.31 361.820   3
  -2  -1   8 4185.90 628.586   1
  -2  -1   9 684.563 299.813   1
  -2  -1  10 1403.93 431.514   1
  -2  -1  11-3.37315 232.253   1
  -2  -1  12 976.577 423.501   1
  -2   0  -5 42857.9 1478.76   2
  -2   0  -4 17413.3 863.556   2
  -2   0  -4 14808.9 744.133   3
  -2   0  -3 33554.1 1073.81   2
  -2   0  -3 34017.4 1133.68   3
  -2   0  -2 6562.10 426.016   2
  -2   0  -2 8152.58 545.445   3
  -2   0  -1 35625.5 845.470   2
  -2   0  -1 36669.6 1099.93   3
  -2   0   0 21656.9 579.302   2
  -2   0   0 20987.4 817.420   3
  -2   0   1 1260.31 146.385   2
  -2   0   1 1572.69 239.218   3
  -2   0   2 4712.97 387.640   3
  -2   0   3 5806.72 535.582   1
  -2   0   3 4627.37 382.244   3
  -2   0   4 1657.22 235.359   3
  -2   0   4 1136.28 281.205   1
  -2   0   5 40699.3 1581.40   1
  -2   0   5 37905.2 1115.52   3
  -2   0   6 5227.89 426.818   3
  -2   0   6 4905.99 584.879   1
  -2   0   7 4506.27 400.126   3
  -2   0   7 3696.64 548.479   1
  -2   0   8 814.866 184.454   3
  -2   0   8 1012.38 317.241   1
  -2   0   9 2152.72 507.335   1
  -2   0  10 1924.37 510.880   1
  -2   0  11-265.302 224.920   1
  -2   1  -5 8140.73 557.471   3
  -2   1  -4 1084.02 220.687   3
  -2   1  -3 16767.3 772.331   3
  -2   1  -2 59883.0 1114.56   2
  -2   1  -2 63145.1 1446.94   3
  -2   1  -1 36085.4 671.384   2
  -2   1  -1 35411.2 1045.72   3
  -2   1   0 6918.78 465.719   3
  -2   1   1 46802.5 1193.73   3
  -2   1   2 41188.1 760.330   2
  -2   1   2 40269.2 1120.59   3
  -2   1   3 8520.01 444.431   2
  -2   1   3 7242.86 499.011   3
  -2   1   3 8885.99 664.246   1
  -2   1   4 16512.7 952.365   1
  -2   1   4 16656.5 770.218   3
  -2   1   4 15518.8 715.617   2
  -2   1   5 5839.20 615.757   1
  -2   1   5 5683.53 469.982   3
  -2   1   6 5073.43 451.876   3
  -2   1   6 4203.55 549.009   1
  -2   1   7 897.386 213.813   3
  -2   1   7 1126.41 324.925   1
  -2   1   8 929.981 214.404   3
  -2   1   8 667.298 301.690   1
  -2   1   9-488.447 253.166   1
  -2   1  10 198.513 224.446   1
  -2   1  11 1486.03 452.545   1
  -2   2  -6 20550.5 882.956   3
  -2   2  -5 11398.5 658.522   3
  -2   2  -4 72182.8 1620.10   3
  -2   2  -3 65470.0 1496.26   3
  -2   2  -2 47291.9 1232.14   3
  -2   2  -1 2745.33 303.193   3
  -2   2   0 22327.8 861.705   3
  -2   2   1 2034.66 119.900   2
  -2   2   1 2668.50 315.329   3
  -2   2   2 5849.40 466.420   3
  -2   2   2 6049.01 304.458   2
  -2   2   3 18378.0 667.158   2
  -2   2   3 19260.6 872.271   3
  -2   2   3 18717.8 982.866   1
  -2   2   4 52033.5 1729.50   1
  -2   2   4 49284.1 1437.85   3
  -2   2   4 52027.6 1336.21   2
  -2   2   5 4501.30 463.905   3
  -2   2   5 4176.35 512.069   1
  -2   2   6 16591.9 1076.25   1
  -2   2   6 16167.1 881.348   3
  -2   2   7 3428.71 420.935   3
  -2   2   7 2915.82 494.228   1
  -2   2   8 714.154 230.176   3
  -2   2   8 343.780 251.718   1
  -2   2   9-63.4389 197.064   1
  -2   2  10 727.997 342.987   1
  -2   2  11 425.713 293.069   1
  -2   3  -7 92.2230 93.6011   3
  -2   3  -6 310.012 145.307   3
  -2   3  -5 36722.1 1193.16   3
  -2   3  -4 68674.2 1576.57   3
  -2   3  -3 47162.5 1269.52   3
  -2   3  -2 58504.1 1410.80   3
  -2   3  -1 33251.0 1093.59   3
  -2   3   0 2478.68 325.316   3
  -2   3   1 11557.7 412.345   2
  -2   3   1 12616.6 719.556   3
  -2   3   2 461.554 195.455   3
  -2   3   2 212.697 93.1680   2
  -2   3   3 8147.52 624.297   3
  -2   3   3 7355.24 482.970   2
  -2   3   4 11251.4 755.240   3
  -2   3   4 10677.5 796.947   1
  -2   3   5 27736.5 1345.47   1
  -2   3   5 26321.6 1196.25   3
  -2   3   6 11242.4 902.586   1
  -2   3   6 13126.7 881.795   3
  -2   3   7 5556.28 679.026   1
  -2   3   7 5179.03 573.589   3
  -2   3   8 3722.52 510.849   3
  -2   3   8 3201.27 550.883   1
  -2   3   9 3254.30 591.933   1
  -2   3  10 521.760 287.512   1
  -2   3  11 678.851 274.323   1
  -2   4  -8 4983.18 435.473   3
  -2   4  -7 2321.71 311.704   3
  -2   4  -6 8171.14 578.434   3
  -2   4  -5 1686.38 257.705   3
  -2   4  -4 4155.95 395.388   3
  -2   4  -3 39397.3 1215.62   3
  -2   4  -2 2950.63 358.335   3
  -2   4  -1 27460.8 1073.09   3
  -2   4   0 3467.24 397.661   3
  -2   4   1 11203.4 521.287   2
  -2   4   1 12620.7 778.536   3
  -2   4   2 7628.56 492.987   2
  -2   4   2 6560.90 587.979   3
  -2   4   3 4467.90 509.714   3
  -2   4   4 9861.73 775.255   3
  -2   4   5 5675.84 619.628   3
  -2   4   5 6780.19 686.812   1
  -2   4   6 375.236 184.390   3
  -2   4   6 1162.83 336.867   1
  -2   4   7 9337.88 900.455   1
  -2   4   7 9807.59 858.279   3
  -2   4   8 3888.79 630.825   1
  -2   4   8 5159.31 645.278   3
  -2   4   9 2941.60 577.332   1
  -2   4  10 413.948 255.620   1
  -2   5  -8 8704.15 588.371   3
  -2   5  -7 4867.87 454.690   3
  -2   5  -6 3562.17 386.048   3
  -2   5  -5 1236.35 240.874   3
  -2   5  -4 26318.2 1038.31   3
  -2   5  -3 34543.9 1216.66   3
  -2   5  -2 3406.50 408.630   3
  -2   5  -1 2448.50 356.804   3
  -2   5   0 13379.8 837.204   3
  -2   5   1 14805.0 701.298   2
  -2   5   1 15075.0 920.125   3
  -2   5   2 3303.52 463.457   3
  -2   5   3 2820.55 444.168   3
  -2   5   4 9.82689 167.920   3
  -2   5   5 484.059 216.937   3
  -2   5   6 11885.6 973.036   3
  -2   5   7 4276.07 627.864   3
  -2   5   7 3323.40 556.797   1
  -2   5   8 2450.16 496.004   3
  -2   5   8 1924.49 455.153   1
  -2   5   9 2705.98 554.837   1
  -2   6  -8 2053.46 296.716   3
  -2   6  -7 17746.0 873.003   3
  -2   6  -6 2600.23 355.293   3
  -2   6  -5 20012.5 947.794   3
  -2   6  -4 14588.7 824.534   3
  -2   6  -3 698.716 195.673   3
  -2   6  -2 46339.0 1545.40   3
  -2   6  -1 52445.3 1695.06   3
  -2   6   0 2350.85 385.152   3
  -2   6   1 15506.7 1011.02   3
  -2   6   2 32.5907 160.605   3
  -2   6   3 1217.35 357.434   3
  -2   6   4 972.491 323.225   3
  -2   6   5 324.037 219.127   3
  -2   6   6 6903.10 794.286   3
  -2   6   7 4239.34 649.918   3
  -2   6   8 2583.79 546.082   3
  -2   7  -8 3538.37 408.261   3
  -2   7  -7 7637.72 603.586   3
  -2   7  -6 15103.0 861.159   3
  -2   7  -5 8043.63 640.060   3
  -2   7  -4 415.140 182.718   3
  -2   7  -3 1830.90 358.794   3
  -2   7  -2 9990.57 781.053   3
  -2   7  -1 18195.4 1101.70   3
  -2   7   0 31854.2 1500.46   3
  -2   7   1 1261.19 345.169   3
  -2   7   2 228.421 249.666   3
  -2   7   3 457.207 250.987   3
  -2   7   4 4525.30 651.049   3
  -2   7   5 2163.02 452.064   3
  -2   7   6 186.649 203.639   3
  -2   7   7 108.136 188.239   3
  -2   8  -8 20170.1 1009.07   3
  -2   8  -7 6193.72 583.743   3
  -2   8  -6 551.893 208.886   3
  -2   8  -5 2001.47 357.759   3
  -2   8  -4 8487.25 734.280   3
  -2   8  -3 10824.9 858.705   3
  -2   8  -2 10692.8 884.006   3
  -2   8  -1-161.467 224.459   3
  -2   8   0 13972.6 1077.93   3
  -2   8   1 123.170 189.603   3
  -2   8   2 7240.90 820.401   3
  -2   8   3 6853.26 820.376   3
  -2   8   4 1344.93 390.881   3
  -2   8   5 2471.72 610.081   3
  -2   8   6 397.123 319.165   3
  -2   8   7-140.762 235.952   3
  -2   9  -8 257.130 165.091   3
  -2   9  -7 288.273 158.881   3
  -2   9  -6 137.974 160.720   3
  -2   9  -5 2148.93 407.202   3
  -2   9  -4 4693.23 602.107   3
  -2   9  -3 14610.9 1083.79   3
  -2   9  -2 15300.6 1146.79   3
  -2   9  -1 6666.22 799.143   3
  -2   9   0 304.411 298.415   3
  -2   9   1 6062.99 790.449   3
  -2   9   2 8291.45 933.645   3
  -2   9   3 348.479 230.197   3
  -2   9   4 593.081 310.438   3
  -2   9   5 464.529 294.430   3
  -2  10  -8 312.489 194.357   3
  -2  10  -7 1152.61 302.449   3
  -2  10  -6 3292.29 525.415   3
  -2  10  -5 2196.19 451.829   3
  -2  10  -4 3342.19 559.896   3
  -2  10  -3 5074.40 715.310   3
  -2  10  -2 91.3688 232.758   3
  -2  10  -1 7825.89 930.500   3
  -2  10   0 3719.25 668.838   3
  -2  10   1 1883.74 467.843   3
  -2  10   2 339.786 237.703   3
  -2  10   3 361.305 350.473   3
  -2  11  -8 946.019 268.939   3
  -2  11  -7 738.253 290.690   3
  -2  11  -6 303.648 174.312   3
  -2  11  -5 2658.18 528.489   3
  -2  11  -4 2533.65 515.819   3
  -2  11  -3 159.579 195.013   3
  -2  11  -2 174.578 180.862   3
  -2  11  -1 540.973 336.055   3
  -2  11   0 1088.33 411.836   3
  -2  11   1 725.052 285.138   3
  -2  12  -7 794.359 354.825   3
  -2  12  -6 50.7352 232.616   3
  -2  12  -5-80.6988 182.248   3
  -2  12  -4 84.2915 212.604   3
  -2  12  -3 1097.97 447.258   3
  -2  12  -2 3346.13 694.826   3
  -2  12  -1 2027.17 563.422   3
  -2  13  -7 281.055 259.203   3
  -2  13  -6 713.877 352.079   3
  -2  13  -5-483.672 299.673   3
  -2  13  -4 489.492 318.243   3
  -2  14  -7 41.9424 214.054   3
  -1 -12   3 235.613 279.048   2
  -1 -12   4-167.526 238.381   2
  -1 -12   5 258.956 353.740   2
  -1 -12   6-98.8054 229.839   2
  -1 -12   7 810.782 443.551   2
  -1 -12   8 108.075 214.548   2
  -1 -11   0 3647.94 689.190   2
  -1 -11   1-272.926 337.486   2
  -1 -11   2 298.328 308.292   2
  -1 -11   3-107.836 273.201   2
  -1 -11   4-270.978 253.803   2
  -1 -11   5 773.279 375.195   2
  -1 -11   6-63.3930 310.261   2
  -1 -11   7-514.506 364.424   2
  -1 -11   8 77.0058 220.402   2
  -1 -11   9 661.314 341.052   2
  -1 -11  10 1060.56 411.516   2
  -1 -10  -2 544.621 286.761   2
  -1 -10  -1 1924.87 513.654   2
  -1 -10   0 486.009 279.108   2
  -1 -10   1 616.557 265.745   2
  -1 -10   2 2085.64 524.785   2
  -1 -10   3 3167.20 587.922   2
  -1 -10   4 2606.52 570.601   2
  -1 -10   5 671.889 318.047   2
  -1 -10   6-83.3174 244.435   2
  -1 -10   7 1219.56 477.278   2
  -1 -10   8 38.4677 153.605   1
  -1 -10   8-162.494 264.744   2
  -1 -10   9 989.046 324.944   1
  -1 -10  10-60.6002 203.458   1
  -1 -10  11 264.706 283.309   1
  -1 -10  12-130.364 256.588   1
  -1  -9  -4-3.16885 210.194   2
  -1  -9  -3 2583.82 559.850   2
  -1  -9  -2 1005.97 351.025   2
  -1  -9  -1 2015.46 487.336   2
  -1  -9   0 774.908 340.716   2
  -1  -9   1 3993.05 634.714   2
  -1  -9   2 2549.52 521.158   2
  -1  -9   3 3587.63 604.885   2
  -1  -9   4 3029.85 579.158   2
  -1  -9   5 512.909 161.472   1
  -1  -9   5 338.396 253.782   2
  -1  -9   6 214.442 141.981   1
  -1  -9   6 84.9595 205.203   2
  -1  -9   7 1531.40 325.558   1
  -1  -9   7 1693.47 442.601   2
  -1  -9   8 1096.76 319.741   1
  -1  -9   9 80.5351 178.275   1
  -1  -9  10 353.939 226.261   1
  -1  -9  11 715.461 335.657   1
  -1  -9  12-345.389 288.926   1
  -1  -8  -5 256.784 239.800   2
  -1  -8  -4 2043.26 498.278   2
  -1  -8  -3 1613.01 419.176   2
  -1  -8  -2 450.225 235.693   2
  -1  -8  -1 1489.73 404.454   2
  -1  -8   0 6376.70 744.279   2
  -1  -8   1 940.636 303.087   2
  -1  -8   2 7874.81 798.867   2
  -1  -8   3 2390.00 191.410   1
  -1  -8   3 2156.58 454.023   2
  -1  -8   4 2541.01 474.347   2
  -1  -8   4 2280.00 261.107   1
  -1  -8   5 238.053 137.724   1
  -1  -8   5 228.407 182.084   2
  -1  -8   6 2985.42 415.658   1
  -1  -8   6 4474.52 669.789   2
  -1  -8   7 21.1088 131.637   1
  -1  -8   8 1741.09 422.590   1
  -1  -8   9 952.458 357.666   1
  -1  -8  10 2870.88 580.940   1
  -1  -8  11 222.280 224.571   1
  -1  -8  12 182.223 225.466   1
  -1  -7  -6 1653.44 463.054   2
  -1  -7  -5 3650.00 624.447   2
  -1  -7  -4 1558.71 431.062   2
  -1  -7  -3 354.207 212.731   2
  -1  -7  -2 1489.63 373.608   2
  -1  -7  -1 1818.14 397.739   2
  -1  -7   0 1491.57 336.218   2
  -1  -7   1 474.362 239.417   2
  -1  -7   2 3591.79 511.491   2
  -1  -7   3 888.033 298.763   2
  -1  -7   3 1431.23 184.182   1
  -1  -7   4 5062.96 414.120   1
  -1  -7   4 5680.04 648.335   2
  -1  -7   5 6179.24 533.403   1
  -1  -7   5 6554.67 717.667   2
  -1  -7   6 2267.21 377.637   1
  -1  -7   7 3148.75 488.353   1
  -1  -7   8 3997.51 577.138   1
  -1  -7   9 2522.45 526.869   1
  -1  -7  10 500.190 258.198   1
  -1  -7  11 42.4710 196.931   1
  -1  -7  12-6.87994 218.612   1
  -1  -7  13 5.07021 242.517   1
  -1  -6  -7 2189.88 528.310   2
  -1  -6  -6 713.641 309.266   2
  -1  -6  -5-92.3487 167.959   2
  -1  -6  -4 2250.63 487.860   2
  -1  -6  -3 3668.48 557.820   2
  -1  -6  -2 4857.73 600.234   2
  -1  -6  -1 6876.07 699.674   2
  -1  -6   0 6366.85 650.599   2
  -1  -6   1 34298.8 1447.37   2
  -1  -6   2 127.578 47.4635   1
  -1  -6   2 100.140 172.223   2
  -1  -6   3 722.379 148.062   1
  -1  -6   3 898.127 273.061   2
  -1  -6   4 438.169 146.542   1
  -1  -6   4 880.569 276.875   2
  -1  -6   5 117.110 133.012   1
  -1  -6   6 1162.43 287.616   1
  -1  -6   7 9224.13 809.682   1
  -1  -6   8 98.8756 176.651   1
  -1  -6   9 2911.37 555.618   1
  -1  -6  10 413.347 218.235   1
  -1  -6  11 1678.96 509.365   1
  -1  -6  12 173.620 249.152   1
  -1  -6  13 763.671 382.149   1
  -1  -5  -8 1376.03 424.615   2
  -1  -5  -7 6450.90 818.743   2
  -1  -5  -6 2538.46 524.275   2
  -1  -5  -5 627.986 261.938   2
  -1  -5  -4 1261.76 303.469   2
  -1  -5  -3-224.614 193.623   2
  -1  -5  -2 4490.93 551.706   2
  -1  -5  -1 36701.3 1470.60   2
  -1  -5   0 21877.8 1093.72   2
  -1  -5   1 32241.6 1288.44   2
  -1  -5   2 30275.9 1224.36   2
  -1  -5   2 31023.8 723.365   1
  -1  -5   3 4858.66 376.392   1
  -1  -5   3 4694.18 506.846   2
  -1  -5   4 1949.56 294.699   1
  -1  -5   5 52.0288 117.230   1
  -1  -5   6 3580.84 459.033   1
  -1  -5   7 330.171 177.964   1
  -1  -5   8 300.178 251.224   1
  -1  -5   9 586.670 305.147   1
  -1  -5  10 2397.18 524.620   1
  -1  -5  11 3242.56 635.553   1
  -1  -5  12 2080.67 545.271   1
  -1  -5  13 890.473 456.853   1
  -1  -4  -8 1586.16 436.798   2
  -1  -4  -7 2604.65 501.666   2
  -1  -4  -6 2414.36 475.926   2
  -1  -4  -5 28606.2 1432.91   2
  -1  -4  -4 129.320 165.038   2
  -1  -4  -3 1998.96 345.152   2
  -1  -4  -2 23476.5 1113.12   2
  -1  -4  -1 19663.9 982.574   2
  -1  -4   0 44676.6 1416.44   2
  -1  -4   1 10322.8 668.930   2
  -1  -4   2 1148.77 263.912   2
  -1  -4   2 1206.76 167.621   1
  -1  -4   3 49454.4 1220.90   1
  -1  -4   4 4423.04 433.402   1
  -1  -4   5 18977.2 982.820   1
  -1  -4   6-95.7316 187.359   1
  -1  -4   7 915.968 283.059   1
  -1  -4   8 8278.47 835.841   1
  -1  -4   9 266.330 261.501   1
  -1  -4  10 777.170 352.104   1
  -1  -4  11 2879.15 597.500   1
  -1  -4  12 41.0901 253.536   1
  -1  -3  -7 15037.0 1133.47   2
  -1  -3  -6-14.3293 166.477   2
  -1  -3  -5 1849.96 363.152   2
  -1  -3  -4 3684.39 466.355   2
  -1  -3  -3 23734.6 1078.55   2
  -1  -3  -2 6368.50 536.920   2
  -1  -3  -1 1738.20 276.714   2
  -1  -3   0 52567.4 1376.13   2
  -1  -3   1 40143.1 1148.87   2
  -1  -3   2 15872.2 608.552   1
  -1  -3   2 15180.0 704.075   2
  -1  -3   3 46644.8 1226.02   1
  -1  -3   4 40588.5 1308.21   1
  -1  -3   5 6208.43 584.979   1
  -1  -3   6-10.6974 154.231   1
  -1  -3   7 166.027 216.501   1
  -1  -3   8 321.904 237.042   1
  -1  -3   9 5962.97 754.421   1
  -1  -3  10 6256.01 839.286   1
  -1  -3  11 337.935 187.948   1
  -1  -3  12 175.081 270.100   1
  -1  -2  -7 1237.40 318.451   2
  -1  -2  -6 12611.7 921.369   2
  -1  -2  -5 112.663 141.276   2
  -1  -2  -4 3987.42 450.587   2
  -1  -2  -3 1763.21 279.262   2
  -1  -2  -2 2767.63 322.767   2
  -1  -2  -1 488.620 161.120   2
  -1  -2   0 2297.68 256.957   2
  -1  -2   1 5819.94 376.890   2
  -1  -2   1 6257.38 316.589   1
  -1  -2   2 891735. 4689.17   1
  -1  -2   2 900681. 3874.55   3
  -1  -2   3 36766.1 1126.90   1
  -1  -2   3 35042.1 736.717   3
  -1  -2   4 33188.5 1192.97   1
  -1  -2   4 30839.7 649.150   3
  -1  -2   5 3952.78 460.715   1
  -1  -2   5 4456.48 231.425   3
  -1  -2   6-62.7060 176.071   1
  -1  -2   6 224.175 52.8546   3
  -1  -2   7 2615.15 448.177   1
  -1  -2   8 473.820 287.606   1
  -1  -2   9 16.5336 169.012   1
  -1  -2  10 3707.82 657.200   1
  -1  -2  11 125.208 201.409   1
  -1  -2  12 2147.06 554.287   1
  -1  -1  -6 32826.8 1397.01   2
  -1  -1  -5 44332.0 1506.18   2
  -1  -1  -4 9780.81 652.210   2
  -1  -1  -3 2949.73 332.468   2
  -1  -1  -2 92.9374 115.565   2
  -1  -1  -1 240.759 121.204   2
  -1  -1   0 10793.3 428.519   2
  -1  -1   0 9538.92 426.364   3
  -1  -1   1 41768.4 842.749   3
  -1  -1   1 42663.2 799.435   2
  -1  -1   1 41787.6 855.685   1
  -1  -1   2 30366.4 883.872   1
  -1  -1   2 28269.3 651.080   3
  -1  -1   3 70405.7 1567.73   1
  -1  -1   3 69925.9 980.514   3
  -1  -1   4 77669.9 1803.77   1
  -1  -1   4 75841.9 1017.06   3
  -1  -1   5 9547.10 705.046   1
  -1  -1   5 10615.3 387.591   3
  -1  -1   6 10158.5 791.332   1
  -1  -1   6 9093.87 373.352   3
  -1  -1   7 15935.7 1073.35   1
  -1  -1   7 15000.7 486.248   3
  -1  -1   8 2633.11 477.995   1
  -1  -1   8 2236.15 189.380   3
  -1  -1   9 274.970 234.412   1
  -1  -1  10 764.857 332.349   1
  -1  -1  11 4168.07 736.251   1
  -1  -1  12 1831.36 511.062   1
  -1   0  -4 94247.1 1852.85   2
  -1   0  -3 40.8445 98.9935   2
  -1   0  -2 103.418 76.5142   2
  -1   0  -2 21.7795 88.3534   3
  -1   0  -1 81788.6 1033.65   2
  -1   0  -1 83361.0 1176.47   3
  -1   0   0 7977.20 253.212   2
  -1   0   0 7846.05 352.223   3
  -1   0   1 93072.0 1165.62   3
  -1   0   1 92270.6 1342.48   1
  -1   0   2 86178.6 1502.34   1
  -1   0   2 87488.6 1145.26   3
  -1   0   3 742.544 125.541   3
  -1   0   3 729.975 186.885   1
  -1   0   4 35718.6 1243.19   1
  -1   0   4 36266.1 817.430   3
  -1   0   5 20422.0 1026.50   1
  -1   0   5 21782.8 668.443   3
  -1   0   6 38866.5 1519.63   1
  -1   0   6 38514.5 941.656   3
  -1   0   7 7950.02 749.310   1
  -1   0   7 7696.57 441.773   3
  -1   0   8 10.0701 143.033   1
  -1   0   8-158.922 82.4038   3
  -1   0   9 16419.0 1257.00   1
  -1   0  10 453.138 270.208   1
  -1   0  11 1416.52 426.430   1
  -1   0  12 576.679 358.188   1
  -1   1  -4 696.186 134.792   3
  -1   1  -3 307.190 96.5116   3
  -1   1  -2 40814.1 817.624   3
  -1   1  -1 4247.39 261.073   3
  -1   1   0 9724.95 396.470   3
  -1   1   1 5340.91 205.072   2
  -1   1   1 5482.69 322.398   3
  -1   1   2 44189.0 1106.15   1
  -1   1   2 44535.6 844.535   2
  -1   1   2 43597.6 944.704   3
  -1   1   3 20460.8 844.784   1
  -1   1   3 19317.5 696.427   2
  -1   1   3 20586.4 687.168   3
  -1   1   4 12964.1 755.529   1
  -1   1   4 11164.6 619.655   2
  -1   1   4 12020.1 561.006   3
  -1   1   5 55146.2 1665.34   1
  -1   1   5 54756.6 1264.80   3
  -1   1   6 13145.1 886.488   1
  -1   1   6 13195.4 655.098   3
  -1   1   7 657.683 281.796   1
  -1   1   7 540.792 149.120   3
  -1   1   8 2722.59 509.349   1
  -1   1   8 2934.08 345.635   3
  -1   1   9 165.858 258.043   1
  -1   1  10 1288.84 405.258   1
  -1   1  11 1751.81 495.758   1
  -1   1  12 1554.65 493.458   1
  -1   2  -5 27335.4 704.387   3
  -1   2  -4 3591.87 259.752   3
  -1   2  -3 81159.8 1183.45   3
  -1   2  -2 41217.5 857.169   3
  -1   2  -1 3898.93 286.371   3
  -1   2   0 7921.81 415.454   3
  -1   2   0 8010.68 278.157   2
  -1   2   1 6814.73 326.916   2
  -1   2   1 6690.42 412.902   3
  -1   2   2 336.933 132.712   1
  -1   2   2 427.227 110.875   2
  -1   2   2 162.613 116.308   3
  -1   2   3 83687.0 1713.74   1
  -1   2   3 83291.2 1552.63   2
  -1   2   4 12349.6 731.486   1
  -1   2   5 11423.7 776.183   1
  -1   2   6 5628.06 595.053   1
  -1   2   6 4847.17 454.232   3
  -1   2   7 5415.73 630.105   1
  -1   2   7 4821.34 479.501   3
  -1   2   8 4038.72 461.460   3
  -1   2   8 3888.23 586.175   1
  -1   2   9-50.5980 207.920   1
  -1   2  10 493.416 306.369   1
  -1   2  11 825.169 381.637   1
  -1   3  -6 166.139 67.6526   3
  -1   3  -5 14047.1 526.528   3
  -1   3  -4 54615.1 1026.52   3
  -1   3  -3 36694.1 867.434   3
  -1   3  -2 16936.1 620.449   3
  -1   3  -1 86703.9 1455.71   3
  -1   3   0 63720.1 1091.67   2
  -1   3   1 7894.53 436.871   2
  -1   3   2 23465.1 842.505   2
  -1   3   2 22996.5 868.481   1
  -1   3   3 3764.92 383.543   1
  -1   3   4 2646.83 350.636   1
  -1   3   5 769.570 224.183   1
  -1   3   6 2331.12 397.723   1
  -1   3   7 632.887 264.219   1
  -1   3   8 1863.23 346.249   3
  -1   3   8 2339.36 468.066   1
  -1   3   9 4538.13 684.953   1
  -1   3  10 2330.61 525.360   1
  -1   3  11 524.874 288.333   1
  -1   4  -7 9865.95 401.641   3
  -1   4  -6 50575.9 1031.76   3
  -1   4  -5 35677.7 895.762   3
  -1   4  -4 22360.9 732.917   3
  -1   4  -3 5953.56 395.518   3
  -1   4  -2 18069.8 708.168   3
  -1   4   0 12388.1 587.195   2
  -1   4   1 38715.5 1143.61   2
  -1   4   3 5433.74 474.312   1
  -1   4   4 23762.6 1039.41   1
  -1   4   5 3358.43 433.645   1
  -1   4   6 544.232 238.734   1
  -1   4   7 977.331 285.252   1
  -1   4   8 3383.10 495.622   3
  -1   4   8 3340.98 552.140   1
  -1   4   9 269.475 231.679   1
  -1   5  -8 1308.12 139.728   3
  -1   5  -7 23866.9 737.572   3
  -1   5  -6 32352.3 910.001   3
  -1   5  -5 15851.2 666.629   3
  -1   5  -4 25854.7 878.631   3
  -1   5  -3 13979.2 671.486   3
  -1   5   4 13376.6 820.896   1
  -1   5   5 5989.81 594.845   1
  -1   5   6 5052.31 580.840   1
  -1   5   7 7230.34 765.705   1
  -1   6  -8 6255.57 386.906   3
  -1   6  -7 2011.75 245.793   3
  -1   6  -6 3884.20 357.241   3
  -1   6  -5 19378.2 819.339   3
  -1   6  -4 93.6534 108.357   3
  -1   7  -8 1168.45 203.435   3
  -1   7  -7 882.578 196.055   3
  -1   7  -6 13965.6 749.029   3
  -1   7  -5 14669.4 794.732   3
  -1   8  -8 780.707 192.960   3
  -1   8  -7 7373.76 587.727   3
  -1   8  -6 4645.90 487.400   3
  -1   9  -8 4028.29 471.699   3
  -1   9  -7 1431.16 314.769   3
  -1   9  -6 459.605 233.425   3
  -1  10  -8 243.365 178.643   3
  -1  10  -7 861.389 262.651   3
  -1  10  -6 2947.20 478.206   3
  -1  11  -8 12.8401 169.606   3
  -1  11  -7 529.237 256.324   3
  -1  12  -7 1268.04 371.807   3
  -1  13  -7 86.5425 265.351   3
  -1  13  -6 620.614 356.579   3
  -1  14  -7-110.324 169.285   3
  -1  14  -6 43.2584 196.632   3
   0 -13   4 302.209 250.810   2
   0 -13   5 1388.86 509.921   2
   0 -13   6 1339.42 522.286   2
   0 -12   1 504.054 329.769   2
   0 -12   2 1485.48 456.313   2
   0 -12   3-71.1664 218.005   2
   0 -12   4 2201.10 580.183   2
   0 -12   5 207.527 280.466   2
   0 -12   6 3249.71 725.776   2
   0 -12   7 1507.00 588.234   2
   0 -12   8 425.568 333.604   2
   0 -12   9 284.448 255.837   2
   0 -11  -2 102.190 214.915   2
   0 -11  -1 993.134 411.638   2
   0 -11   0 1451.99 436.160   2
   0 -11   1 21.7640 239.730   2
   0 -11   2-116.950 262.507   2
   0 -11   3-44.0113 251.927   2
   0 -11   4 2414.43 543.936   2
   0 -11   5 2136.00 565.448   2
   0 -11   6 704.528 368.935   2
   0 -11   7 137.161 238.764   2
   0 -11   8 1066.81 445.789   2
   0 -11   9 664.474 285.051   1
   0 -11   9 492.439 317.732   2
   0 -11  10 406.102 264.116   1
   0 -11  11 178.884 257.328   1
   0 -11  12-2.39180 178.949   1
   0 -10  -3 2864.98 583.499   2
   0 -10  -2 4899.56 735.052   2
   0 -10  -1 2188.02 491.876   2
   0 -10   0-69.6691 248.782   2
   0 -10   1 212.527 179.749   2
   0 -10   2 1035.59 337.956   2
   0 -10   3 738.333 319.600   2
   0 -10   4 8.76759 169.378   2
   0 -10   5 6684.21 870.628   2
   0 -10   6 4991.57 544.634   1
   0 -10   6 5590.04 823.314   2
   0 -10   7-189.471 257.734   2
   0 -10   7 663.517 234.063   1
   0 -10   8 1231.88 341.241   1
   0 -10   9 1436.60 387.811   1
   0 -10  10 369.840 277.186   1
   0 -10  11 1615.70 462.343   1
   0 -10  12 371.935 275.483   1
   0  -9  -5 302.682 264.464   2
   0  -9  -4 837.707 333.248   2
   0  -9  -3 3024.41 578.604   2
   0  -9  -2 11833.4 1072.50   2
   0  -9  -1 2098.94 468.911   2
   0  -9   0 161.245 185.612   2
   0  -9   1 816.199 298.725   2
   0  -9   2 576.900 264.886   2
   0  -9   3 2574.99 480.294   2
   0  -9   4 1402.65 392.060   2
   0  -9   4 706.812 177.233   1
   0  -9   5-115.174 199.279   2
   0  -9   5 20.0161 105.640   1
   0  -9   6 342.208 279.001   2
   0  -9   6 344.450 175.507   1
   0  -9   7 3929.59 524.551   1
   0  -9   8 2785.30 496.913   1
   0  -9   9 212.731 185.499   1
   0  -9  10 171.307 161.953   1
   0  -9  11 146.527 212.901   1
   0  -9  12 91.7585 196.251   1
   0  -8  -6 163.907 258.307   2
   0  -8  -5 1449.89 440.567   2
   0  -8  -4 1885.81 438.496   2
   0  -8  -3 6487.76 763.218   2
   0  -8  -2 257.612 194.127   2
   0  -8  -1 3664.34 552.335   2
   0  -8   0 9810.63 858.961   2
   0  -8   1 7019.51 702.784   2
   0  -8   2 6287.35 680.703   2
   0  -8   2 7259.31 339.452   1
   0  -8   3 4527.46 354.802   1
   0  -8   3 4272.62 563.844   2
   0  -8   4 1463.61 252.818   1
   0  -8   4 1273.04 368.788   2
   0  -8   5 1392.35 269.937   1
   0  -8   5 1755.43 419.141   2
   0  -8   6 237.445 144.525   1
   0  -8   7 3593.38 512.317   1
   0  -8   8 528.419 209.018   1
   0  -8   9 344.986 281.047   1
   0  -8  10 1138.55 402.593   1
   0  -8  11 622.690 321.212   1
   0  -8  12 546.971 344.221   1
   0  -8  13 1004.19 421.919   1
   0  -7  -7 172.008 200.292   2
   0  -7  -6-112.543 208.935   2
   0  -7  -5 5355.86 728.518   2
   0  -7  -4 3879.83 592.215   2
   0  -7  -3 3652.82 554.151   2
   0  -7  -2 4075.61 562.844   2
   0  -7  -1 18188.2 1122.73   2
   0  -7   0 11310.2 861.733   2
   0  -7   1 9365.36 287.130   1
   0  -7   1 10938.6 824.737   2
   0  -7   1 9295.14 290.690   1
   0  -7   2 6780.84 645.221   2
   0  -7   2 6530.24 357.510   1
   0  -7   3 74.2302 86.9995   1
   0  -7   3-85.7761 190.729   2
   0  -7   4 187.530 120.337   1
   0  -7   4 46.6787 155.869   2
   0  -7   5 5040.74 496.355   1
   0  -7   6 6761.72 628.381   1
   0  -7   7 1883.62 356.049   1
   0  -7   8 4686.78 620.001   1
   0  -7   9 4303.64 626.490   1
   0  -7  10 391.282 276.635   1
   0  -7  11 226.110 212.415   1
   0  -7  12 235.838 255.665   1
   0  -7  13 499.219 350.494   1
   0  -6  -8 293.825 251.432   2
   0  -6  -7 537.220 289.482   2
   0  -6  -6 2944.33 559.902   2
   0  -6  -5 775.804 293.030   2
   0  -6  -4 928.057 284.252   2
   0  -6  -3 2167.82 403.869   2
   0  -6  -2 14343.6 950.807   2
   0  -6  -2 14404.9 478.569   1
   0  -6  -1 1792.45 125.167   1
   0  -6  -1 2577.46 395.327   2
   0  -6   0 35449.9 1381.66   2
   0  -6   1 17948.4 967.285   2
   0  -6   1 17251.3 452.482   1
   0  -6   2 11048.5 748.774   2
   0  -6   2 11187.1 475.008   1
   0  -6   3 4.55531 145.570   2
   0  -6   3-37.9376 71.9786   1
   0  -6   4 14112.9 726.745   1
   0  -6   5 247.994 155.946   1
   0  -6   6 8767.88 704.977   1
   0  -6   7 5551.38 621.243   1
   0  -6   8 12009.3 956.880   1
   0  -6   9 3180.38 551.885   1
   0  -6  10 2581.28 518.029   1
   0  -6  11 410.396 205.621   1
   0  -6  12 1461.39 505.315   1
   0  -6  13 187.864 242.131   1
   0  -5  -8 2979.13 582.006   2
   0  -5  -7 6343.15 787.324   2
   0  -5  -6 3981.48 595.267   2
   0  -5  -5 1412.68 330.636   2
   0  -5  -4 2879.28 319.519   1
   0  -5  -4 3360.27 480.481   2
   0  -5  -3 1991.64 360.150   2
   0  -5  -3 2222.34 242.270   1
   0  -5  -2 1884.26 189.716   1
   0  -5  -2 1883.08 343.690   2
   0  -5  -1 596.947 184.575   2
   0  -5  -1 575.513 82.3767   1
   0  -5   0 9153.23 651.062   2
   0  -5   0 10001.4 296.131   1
   0  -5   1 3380.53 397.149   2
   0  -5   1 3865.83 218.344   1
   0  -5   2 26584.3 726.083   1
   0  -5   2 26446.0 1042.85   2
   0  -5   3 39674.5 1065.78   1
   0  -5   4 9486.03 593.988   1
   0  -5   5 12256.5 758.742   1
   0  -5   6 16275.6 955.080   1
   0  -5   7 6988.21 682.732   1
   0  -5   8 469.965 226.724   1
   0  -5   9 938.564 338.532   1
   0  -5  10 1426.55 422.742   1
   0  -5  11 2220.61 529.324   1
   0  -5  12 1248.38 429.908   1
   0  -5  13 842.199 396.937   1
   0  -4  -7 91.3298 171.690   2
   0  -4  -6 4529.44 603.358   2
   0  -4  -5 7742.36 723.839   2
   0  -4  -4 7161.10 653.258   2
   0  -4  -4 6657.01 492.636   1
   0  -4  -3 12819.9 803.193   2
   0  -4  -3 12755.1 600.723   1
   0  -4  -2 12719.2 746.635   2
   0  -4  -2 12178.3 491.900   1
   0  -4  -1 81558.3 1787.52   2
   0  -4  -1 79096.5 983.426   1
   0  -4   0 969.175 210.527   2
   0  -4   0 818.289 85.6242   1
   0  -4   1 893.600 108.473   1
   0  -4   1 1341.67 237.345   2
   0  -4   2 1611.53 183.954   1
   0  -4   2 1831.43 255.857   2
   0  -4   3 1788.46 238.163   1
   0  -4   4 16337.4 775.027   1
   0  -4   5 47696.3 1472.63   1
   0  -4   6 669.639 243.165   1
   0  -4   7 14263.5 967.181   1
   0  -4   8 1301.81 343.209   1
   0  -4   9 5493.52 707.660   1
   0  -4  10 1234.20 406.914   1
   0  -4  11 5440.74 794.267   1
   0  -4  12 859.703 346.213   1
   0  -4  13 116.122 218.109   1
   0  -3  -7 503.285 249.692   2
   0  -3  -6 2215.66 403.666   2
   0  -3  -5 27.9870 138.829   2
   0  -3  -4 13784.9 824.986   2
   0  -3  -4 15548.4 771.910   1
   0  -3  -3 84305.2 1856.35   2
   0  -3  -3 87493.7 1583.04   1
   0  -3  -2 38354.1 1156.56   2
   0  -3  -2 39394.8 890.985   1
   0  -3  -1 50871.5 1241.98   2
   0  -3  -1 53222.8 790.220   1
   0  -3   0 66314.8 1323.86   2
   0  -3   1 5786.34 242.747   1
   0  -3   1 6316.77 398.547   2
   0  -3   2 14282.1 517.578   1
   0  -3   3-5.27482 93.4176   1
   0  -3   4 21477.3 888.209   1
   0  -3   5 246.037 157.014   1
   0  -3   6 77.5406 148.823   1
   0  -3   7 408.138 217.446   1
   0  -3   8 8171.01 806.314   1
   0  -3   9 14936.8 1144.22   1
   0  -3  10 10167.9 1035.95   1
   0  -3  11 2764.66 588.476   1
   0  -3  12 424.984 293.425   1
   0  -3  13 1574.79 509.698   1
   0  -2  -6 525.832 202.465   2
   0  -2  -5 6820.36 596.833   2
   0  -2  -4 55728.6 1540.95   2
   0  -2  -4 53859.4 1446.50   1
   0  -2  -3 37454.0 1144.42   2
   0  -2  -3 39732.3 1079.12   1
   0  -2  -2 76344.6 1427.68   2
   0  -2  -2 73864.7 1215.72   1
   0  -2  -1 8334.57 432.108   2
   0  -2  -1 8682.91 312.674   1
   0  -2   0 53518.5 975.519   2
   0  -2   1 94755.1 933.980   1
   0  -2   2 4010.97 279.885   1
   0  -2   3 57572.1 1263.83   1
   0  -2   4 988.731 216.147   1
   0  -2   5 2791.30 386.081   1
   0  -2   6 44653.5 1571.69   1
   0  -2   7 2074.11 406.890   1
   0  -2   8 4472.75 602.662   1
   0  -2   9 9347.27 932.312   1
   0  -2  10 10.0055 213.718   1
   0  -2  11 398.025 250.770   1
   0  -2  12 1101.65 442.577   1
   0  -1  -4 8065.30 556.643   2
   0  -1  -4 8295.98 570.877   1
   0  -1  -3 8061.88 487.493   2
   0  -1  -3 7369.48 461.669   1
   0  -1  -2 125548. 1598.46   2
   0  -1  -2 122111. 1539.22   1
   0  -1  -1 101584. 1160.01   2
   0  -1  -1 99959.5 991.327   1
   0  -1   2 46154.4 914.530   1
   0  -1   3 1419.01 220.452   1
   0  -1   4 1203.36 235.536   1
   0  -1   5 428.606 173.586   1
   0  -1   5 284.571 56.5792   3
   0  -1   6 3833.12 217.445   3
   0  -1   6 3102.27 432.474   1
   0  -1   7 33246.3 1480.71   1
   0  -1   7 30889.8 684.514   3
   0  -1   8 23483.2 1364.58   1
   0  -1   8 22988.9 582.535   3
   0  -1   9 499.991 269.663   1
   0  -1  10 278.843 171.813   1
   0  -1  11 1132.83 388.410   1
   0  -1  12 1747.60 510.451   1
   0   0  -4 2522.40 325.299   1
   0   0  -3 345.184 136.979   1
   0   0  -2 29905.8 743.784   1
   0   0   2 29312.4 685.320   2
   0   0   2 29482.0 727.480   1
   0   0   3 368.314 132.559   1
   0   0   3 117.679 81.4980   2
   0   0   4 3257.06 360.993   1
   0   0   5 526.655 198.877   1
   0   0   6 1150.95 279.247   1
   0   0   7 183.019 182.102   1
   0   0   8 9330.23 864.444   1
   0   0   9 1405.20 383.714   1
   0   0  10 7679.76 902.684   1
   0   0  11 740.319 331.858   1
   0   0  12 263.096 220.695   1
   0   1  -4 1353.34 233.055   1
   0   1  -3 1214.87 201.610   1
   0   1  -2 50114.7 949.600   1
   0   1   1 103872. 1192.35   2
   0   1   1 103017. 977.311   1
   0   1   2 121788. 1584.80   2
   0   1   2 121085. 1441.83   1
   0   1   3 7371.61 464.648   2
   0   1   3 7335.85 449.677   1
   0   1   4 9156.73 576.345   1
   0   1   5 27487.4 1121.22   1
   0   1   6 3499.14 449.748   1
   0   1   7 423.286 203.795   1
   0   1   8 766.886 320.442   1
   0   1   9 11843.0 1048.02   1
   0   1  10 3594.73 634.827   1
   0   1  11 1602.00 456.473   1
   0   1  12 1354.02 451.065   1
   0   2  -4 842.942 189.535   1
   0   2  -3 61913.3 1282.15   1
   0   2  -2 4192.09 284.044   1
   0   2   0 52073.9 965.549   2
   0   2   1 8607.80 445.436   2
   0   2   1 8981.01 307.132   1
   0   2   2 76907.9 1477.58   2
   0   2   2 77356.1 1193.05   1
   0   2   3 39839.2 1038.82   1
   0   2   4 57677.5 1445.17   1
   0   2   5 6778.18 563.524   1
   0   2   6 301.280 171.435   1
   0   2   7 29449.6 1429.48   1
   0   2   8 886.808 303.002   1
   0   2   9 1233.57 368.831   1
   0   2  10 1292.02 414.702   1
   0   2  11 1720.18 499.493   1
   0   3  -4 24468.8 936.934   1
   0   3  -3-4.05541 78.7828   1
   0   3   0 61423.5 1277.66   2
   0   3   1 54306.2 1301.17   2
   0   3   1 54675.4 796.696   1
   0   3   2 41557.3 887.648   1
   0   3   3 89709.6 1551.93   1
   0   3   4 14279.8 723.425   1
   0   3   5 173.053 132.591   1
   0   3   6 1971.85 350.050   1
   0   3   7 224.175 177.928   1
   0   3   8 2965.47 509.659   1
   0   3   9 3734.96 614.928   1
   0   3  10 1769.01 459.070   1
   0   4  -6 433.371 60.6822   3
   0   4  -6 357.196 54.5275   3
   0   4  -4 16822.0 780.873   1
   0   4  -1 730.077 164.275   2
   0   4   0 957.304 194.503   2
   0   4   2 13463.1 509.303   1
   0   4   3 13538.8 609.955   1
   0   4   4 7419.14 526.843   1
   0   4   5 7493.52 606.651   1
   0   4   6 4367.92 525.199   1
   0   4   7 368.680 229.356   1
   0   4   8 744.814 304.809   1
   0   5  -7 7071.85 280.454   3
   0   5  -7 7022.04 286.237   3
   0   5   3 1965.43 239.715   1
   0   5   4 3535.28 361.967   1
   0   5   5 1219.38 247.637   1
   0   5   6 4575.46 525.969   1
   0   6  -8 12591.4 404.857   3
   0   6  -7 6780.16 388.142   3
   0   7  -8 4452.59 345.221   3
   0   8  -8 659.076 171.727   3
   1 -13   2 327.450 282.043   2
   1 -13   3 647.457 344.800   2
   1 -13   4 196.751 302.685   2
   1 -13   5-101.251 304.027   2
   1 -13   6 1218.45 503.132   2
   1 -13   7 1399.10 535.583   2
   1 -13   8 130.916 266.990   2
   1 -12  -1-25.5790 227.009   2
   1 -12   0 239.077 204.596   2
   1 -12   1 1136.71 407.352   2
   1 -12   2 1704.49 468.947   2
   1 -12   3 3074.74 615.533   2
   1 -12   4 406.797 297.389   2
   1 -12   5 414.664 314.929   2
   1 -12   6 1222.45 480.778   2
   1 -12   7 1601.97 505.252   2
   1 -12   8 2361.97 609.939   2
   1 -12   9 561.406 401.697   2
   1 -12  10 183.441 257.775   1
   1 -12  10-324.416 292.394   2
   1 -12  11 55.8218 215.005   1
   1 -11  -3-26.7436 263.032   2
   1 -11  -2-19.8197 160.866   2
   1 -11  -1-138.784 193.653   2
   1 -11   0 5870.69 784.234   2
   1 -11   1 4083.12 662.916   2
   1 -11   2-132.553 221.915   2
   1 -11   3 2878.84 555.397   2
   1 -11   4 5828.22 787.129   2
   1 -11   5 5431.44 795.416   2
   1 -11   6 1795.83 478.133   2
   1 -11   7 71.2331 256.401   2
   1 -11   7 425.530 224.119   1
   1 -11   8 449.928 307.614   2
   1 -11   8 66.4353 204.813   1
   1 -11   9 296.061 199.571   1
   1 -11  10-196.587 268.559   1
   1 -11  11 251.319 257.188   1
   1 -11  12 1023.87 446.158   1
   1 -10  -4 684.090 378.499   2
   1 -10  -3 856.744 323.473   2
   1 -10  -2-83.9214 212.757   2
   1 -10  -1 2394.24 507.589   2
   1 -10   0 3880.92 604.261   2
   1 -10   1-193.638 185.309   2
   1 -10   2 6402.37 752.485   2
   1 -10   3 26.8943 198.457   2
   1 -10   4 7734.77 855.040   2
   1 -10   4 6849.05 602.295   1
   1 -10   5 5355.47 757.948   2
   1 -10   5 5870.73 605.615   1
   1 -10   6 3299.84 601.362   2
   1 -10   6 2187.10 414.365   1
   1 -10   7 175.912 273.882   2
   1 -10   7 1005.38 313.424   1
   1 -10   8-249.100 225.758   1
   1 -10   9 857.803 319.704   1
   1 -10  10 7722.64 953.907   1
   1 -10  11 322.128 319.827   1
   1 -10  12 40.5017 233.442   1
   1  -9  -5 809.626 357.024   2
   1  -9  -4 158.332 245.565   2
   1  -9  -3 872.433 284.688   2
   1  -9  -2 3007.06 511.184   2
   1  -9  -1 580.719 250.174   2
   1  -9   0 144.029 204.966   2
   1  -9   1-187.273 192.586   2
   1  -9   2 13908.0 1010.94   2
   1  -9   2 16036.4 770.718   1
   1  -9   3 9406.70 847.309   2
   1  -9   3 9677.61 661.621   1
   1  -9   4 3898.73 584.985   2
   1  -9   4 4525.52 501.558   1
   1  -9   5 1939.30 352.743   1
   1  -9   5 2234.64 456.035   2
   1  -9   6 442.125 208.449   1
   1  -9   6 645.533 336.194   2
   1  -9   7 2006.30 430.115   1
   1  -9   8 3778.31 600.326   1
   1  -9   9 1890.90 476.324   1
   1  -9  10 1010.98 384.243   1
   1  -9  11 2942.00 645.820   1
   1  -9  12 26.9607 273.394   1
   1  -8  -7 802.187 326.088   2
   1  -8  -6 4207.53 704.673   2
   1  -8  -5 5079.75 725.093   2
   1  -8  -4 8063.86 863.142   2
   1  -8  -3 2124.01 435.344   2
   1  -8  -2 8.68403 146.812   2
   1  -8  -1 1223.94 322.511   2
   1  -8   0 1108.37 295.094   2
   1  -8   1 7445.73 692.532   2
   1  -8   1 6129.51 447.703   1
   1  -8   2-163.572 211.531   2
   1  -8   3 29688.3 1384.19   2
   1  -8   3 29118.4 1146.02   1
   1  -8   4 28128.1 1215.44   1
   1  -8   4 29243.3 1429.46   2
   1  -8   5 802.877 251.696   1
   1  -8   5 629.264 252.186   2
   1  -8   6 6846.88 704.011   1
   1  -8   7 7005.24 768.060   1
   1  -8   8 1161.31 340.275   1
   1  -8   9 5479.59 754.104   1
   1  -8  10 1680.68 456.580   1
   1  -8  11 1067.06 478.059   1
   1  -8  12 515.096 336.405   1
   1  -7  -7 1298.62 404.576   2
   1  -7  -6 3294.51 590.261   2
   1  -7  -5 4836.39 678.000   2
   1  -7  -4 14661.4 1091.79   2
   1  -7  -3 2428.75 428.439   2
   1  -7  -2-147.745 176.688   2
   1  -7  -1 1635.58 335.768   2
   1  -7  -1 1998.62 265.148   1
   1  -7   0 1031.54 273.066   2
   1  -7   0 1014.03 183.082   1
   1  -7   1 5357.93 543.251   2
   1  -7   2 5070.76 514.805   2
   1  -7   3 967.047 227.517   2
   1  -7   4 2466.55 364.770   1
   1  -7   4 2847.58 433.125   2
   1  -7   5 18988.9 1067.38   1
   1  -7   6 14480.3 995.667   1
   1  -7   7 1951.65 398.070   1
   1  -7   8 766.863 337.029   1
   1  -7   9 1106.92 350.462   1
   1  -7  10 1890.24 493.714   1
   1  -7  11-7.74545 186.531   1
   1  -7  12 118.699 224.807   1
   1  -6  -7 2047.77 486.077   2
   1  -6  -6 6188.05 759.293   2
   1  -6  -5 11015.2 936.208   2
   1  -6  -4 1034.65 284.978   2
   1  -6  -3 7839.77 692.451   2
   1  -6  -2 14635.3 898.267   2
   1  -6  -2 14267.7 736.460   1
   1  -6  -1 8075.62 523.082   1
   1  -6  -1 8849.22 670.322   2
   1  -6   0 8808.01 642.227   2
   1  -6   0 8683.11 520.573   1
   1  -6   1 9395.07 643.221   2
   1  -6   2 1903.16 295.654   2
   1  -6   3 8494.80 648.911   2
   1  -6   4 22.4757 126.896   1
   1  -6   5 21995.7 1129.46   1
   1  -6   6 5412.58 605.717   1
   1  -6   7 2106.89 424.611   1
   1  -6   8 5429.64 695.131   1
   1  -6   9 634.847 324.123   1
   1  -6  10 1313.01 413.328   1
   1  -6  11 5139.13 822.527   1
   1  -6  12-143.514 187.396   1
   1  -5  -7 6988.29 815.568   2
   1  -5  -6 4831.54 642.959   2
   1  -5  -5 6706.28 699.048   2
   1  -5  -4 12343.9 875.579   2
   1  -5  -3 35805.8 1376.26   2
   1  -5  -2 16595.9 790.591   1
   1  -5  -2 17930.4 898.019   2
   1  -5  -1 17891.1 744.574   1
   1  -5  -1 17036.6 834.973   2
   1  -5   0 4647.67 418.912   2
   1  -5   1 5297.86 423.062   2
   1  -5   2 2930.42 318.007   2
   1  -5   4 32361.6 1245.41   1
   1  -5   5 17593.5 991.178   1
   1  -5   6 32242.6 1436.61   1
   1  -5   7 20648.0 1233.59   1
   1  -5   8 1735.16 397.180   1
   1  -5   9 24.3156 224.008   1
   1  -5  10 271.428 254.664   1
   1  -5  11-196.466 357.111   1
   1  -5  12 1057.68 402.582   1
   1  -4  -6 483.434 216.363   2
   1  -4  -5 4063.39 514.855   2
   1  -4  -4 21940.7 1066.99   2
   1  -4  -3 5167.24 482.275   2
   1  -4  -2 77876.5 1667.35   1
   1  -4  -2 77921.1 1668.86   2
   1  -4  -1 35847.1 1015.07   1
   1  -4  -1 36012.5 1064.31   2
   1  -4   0 12611.6 593.414   2
   1  -4   1 2674.83 266.934   2
   1  -4   4 23766.3 1037.79   1
   1  -4   5 36314.5 1390.49   1
   1  -4   6 41455.4 1597.79   1
   1  -4   7 9324.75 833.340   1
   1  -4   8 11694.7 990.406   1
   1  -4   9 2280.29 473.482   1
   1  -4  10 613.833 284.149   1
   1  -4  11 46.2646 270.212   1
   1  -4  12 127.655 209.591   1
   1  -3  -5 566.847 179.499   2
   1  -3  -4 3182.03 383.669   2
   1  -3  -3 3153.09 373.128   1
   1  -3  -3 2962.00 330.278   2
   1  -3  -2 21147.1 840.673   1
   1  -3  -2 20900.5 771.403   2
   1  -3  -1 7551.60 450.611   1
   1  -3  -1 7304.89 408.593   2
   1  -3   0 68334.3 1124.61   2
   1  -3   1 92727.7 1228.76   2
   1  -3   3 34821.9 832.695   3
   1  -3   4 53933.3 996.835   3
   1  -3   4 54229.0 1533.69   1
   1  -3   5 12844.5 478.363   3
   1  -3   5 13231.5 825.539   1
   1  -3   6 104.604 50.6503   3
   1  -3   6 419.608 234.710   1
   1  -3   7 4977.69 616.990   1
   1  -3   7 5188.72 276.934   3
   1  -3   8 5273.23 669.712   1
   1  -3   8 5803.56 258.549   3
   1  -3   9 6801.43 817.602   1
   1  -3  10 4927.07 712.513   1
   1  -3  11 2954.85 612.187   1
   1  -3  12 206.274 160.616   1
   1  -2  -4 11664.2 676.713   2
   1  -2  -3 86406.9 1840.87   1
   1  -2  -3 84929.6 1570.41   2
   1  -2  -2 206.194 98.7775   2
   1  -2  -2 633.943 153.751   1
   1  -2  -1 6476.12 400.918   1
   1  -2  -1 6757.20 307.446   2
   1  -2   0 8245.79 282.392   2
   1  -2   1 3482.41 258.752   3
   1  -2   2 41292.0 855.926   3
   1  -2   3 82524.8 1183.05   3
   1  -2   4 4265.97 272.449   3
   1  -2   4 4459.85 441.057   1
   1  -2   5 28220.7 1187.26   1
   1  -2   5 29536.7 713.993   3
   1  -2   6 6541.36 634.966   1
   1  -2   6 7089.84 361.694   3
   1  -2   7 22006.9 1240.49   1
   1  -2   7 22855.2 655.053   3
   1  -2   8 7940.30 819.623   1
   1  -2   9 15368.9 1181.60   1
   1  -2  10 2855.77 549.017   1
   1  -2  11 260.729 265.115   1
   1  -2  12-140.258 269.096   1
   1  -1  -3 21153.6 895.407   1
   1  -1  -2 45705.4 1141.76   1
   1  -1  -1 6132.35 366.053   1
   1  -1  -1 5629.69 324.804   3
   1  -1   0 9795.29 402.633   3
   1  -1   1 4242.38 189.476   2
   1  -1   1 4216.86 261.693   3
   1  -1   2 41688.7 814.061   2
   1  -1   2 41284.2 807.761   3
   1  -1   3 400.672 160.986   1
   1  -1   3 179.768 61.2173   3
   1  -1   3 76.7293 83.2492   2
   1  -1   4 673.751 200.262   1
   1  -1   4 574.132 115.094   3
   1  -1   5 549.266 110.049   3
   1  -1   5 321.137 168.626   1
   1  -1   6 15773.7 973.627   1
   1  -1   6 19158.9 671.850   3
   1  -1   7 41145.0 1690.90   1
   1  -1   7 42701.2 1062.87   3
   1  -1   8 31321.8 1574.94   1
   1  -1   9 7244.79 809.215   1
   1  -1  10 335.806 242.663   1
   1  -1  11 397.376 293.325   1
   1  -1  12 1703.40 471.896   1
   1   0  -3 663.791 176.965   1
   1   0  -3 647.724 114.998   3
   1   0  -2 84640.8 1515.68   1
   1   0  -2 85383.5 1167.00   3
   1   0  -1 95102.3 1351.54   1
   1   0  -1 96484.6 1208.20   3
   1   0   0 8099.79 254.996   2
   1   0   0 8322.70 361.310   3
   1   0   1 87538.2 1095.84   2
   1   0   1 88294.6 1194.76   3
   1   0   2 57.9361 78.9272   2
   1   0   2 70.5370 76.7867   3
   1   0   3-6.80589 113.847   1
   1   0   3-29.6373 70.8412   2
   1   0   3 6.45806 69.9985   3
   1   0   4 100665. 1549.97   3
   1   0   4 103947. 1991.08   1
   1   0   5 5838.47 541.572   1
   1   0   5 5713.09 402.722   3
   1   0   6 7992.21 688.749   1
   1   0   6 6483.70 467.191   3
   1   0   7 13483.1 947.261   1
   1   0   8 261.508 191.137   1
   1   0   9 1586.80 381.799   1
   1   0  10 2739.39 529.136   1
   1   0  11 1836.73 458.258   1
   1   0  12 3240.16 630.645   1
   1   1  -4 79389.1 1064.97   3
   1   1  -3 77130.8 1603.90   1
   1   1  -3 73959.4 1070.28   3
   1   1  -2 30382.3 879.058   1
   1   1  -2 29327.3 664.255   3
   1   1  -1 43061.4 864.909   1
   1   1  -1 40850.6 818.694   3
   1   1   0 10867.0 430.089   2
   1   1   0 9533.92 417.316   3
   1   1   1 95.7658 102.807   2
   1   1   1 168.656 113.308   3
   1   1   2 94.9804 84.1659   1
   1   1   2 3.28948 83.4446   2
   1   1   2-13.7703 77.0948   3
   1   1   3 2807.87 280.371   3
   1   1   3 2882.76 295.597   1
   1   1   4 11108.8 655.152   1
   1   1   4 10664.1 577.866   3
   1   1   5 48421.6 1506.74   1
   1   1   6 34695.3 1408.55   1
   1   1   7 1952.12 377.531   1
   1   1   8 791.674 279.565   1
   1   1   9 2035.43 435.546   1
   1   1  10 1945.15 453.076   1
   1   1  11 2813.09 559.635   1
   1   1  12 135.535 175.128   1
   1   2  -5 4859.21 254.342   3
   1   2  -4 33883.1 721.996   3
   1   2  -3 40438.3 1115.76   1
   1   2  -3 38802.9 800.298   3
   1   2  -2 993729. 4810.84   1
   1   2  -2 999999. 4276.07   3
   1   2  -1 6307.91 319.881   1
   1   2  -1 6223.47 368.953   3
   1   2   0 2740.51 270.160   2
   1   2   0 2003.34 221.429   3
   1   2   1 668.900 164.298   2
   1   2   1 622.515 141.368   3
   1   2   2 3548.57 268.924   1
   1   2   3 2324.43 265.093   1
   1   2   4 3942.33 392.691   1
   1   2   5 132.326 99.8120   1
   1   2   6 13689.6 876.296   1
   1   2   7 2487.60 412.349   1
   1   2   8 14166.1 1034.31   1
   1   2   9 1436.39 387.884   1
   1   2  10 820.682 297.760   1
   1   3  -6 7.32389 32.8386   3
   1   3  -5 7124.68 350.769   3
   1   3  -4 40051.3 1236.96   1
   1   3  -4 40643.4 887.871   3
   1   3  -3 46994.7 1157.06   1
   1   3  -3 43849.8 1004.82   3
   1   3  -2 14504.7 543.948   1
   1   3  -2 14437.4 600.843   3
   1   3  -1 41403.2 737.068   1
   1   3  -1 41167.5 1134.94   2
   1   3   0 55430.2 1385.09   2
   1   3   0 55884.4 662.145   1
   1   3   1 1954.88 146.123   1
   1   3   2 7330.47 366.541   1
   1   3   3 27179.3 845.981   1
   1   3   4 4562.14 411.909   1
   1   3   5 2679.70 365.124   1
   1   3   6-190.967 146.402   1
   1   3   7 17728.9 1117.10   1
   1   3   8 5202.93 661.737   1
   1   4  -7 1334.68 126.365   3
   1   4  -6-3.25592 44.3836   3
   1   4  -5 20744.1 706.459   3
   1   4  -4 4712.61 415.750   1
   1   4  -4 5081.17 381.100   3
   1   4  -3 50737.4 1188.73   1
   1   4  -3 46413.7 1164.96   3
   1   4  -2 1448.00 164.978   1
   1   4  -1 11151.2 332.924   1
   1   4   2 26132.4 615.568   1
   1   4   3 1851.04 225.009   1
   1   4   4 116.790 87.0287   1
   1   4   5 38224.8 1357.34   1
   1   4   6 2502.29 406.261   1
   1   5  -7 585.793 122.409   3
   1   5  -6 3823.33 337.851   3
   1   5  -5 85.9530 67.4794   3
   1   5  -4 2082.31 284.384   1
   1   5  -3 4799.51 365.146   1
   1   5  -2 34113.7 759.815   1
   1   5   3 68.8979 55.7792   1
   1   5   4 1294.72 212.411   1
   1   6  -7 10122.0 587.100   3
   1   6  -4 801.331 179.305   1
   1   6  -3 487.760 116.716   1
   2 -13   3 277.877 263.142   2
   2 -13   4-5.59414 217.590   2
   2 -13   5 354.578 295.800   2
   2 -13   6 69.7827 240.775   2
   2 -13   7 638.126 359.931   2
   2 -13   8 235.302 294.372   2
   2 -13   9 975.777 407.232   2
   2 -12   0 425.771 257.631   2
   2 -12   1 2420.85 569.718   2
   2 -12   2 4922.82 746.494   2
   2 -12   3 1346.28 404.153   2
   2 -12   4-28.5614 190.239   2
   2 -12   5-18.3907 211.059   2
   2 -12   6 521.450 325.648   2
   2 -12   7 1885.01 500.410   2
   2 -12   8 172.803 286.188   2
   2 -12   8 465.248 279.093   1
   2 -12   9 955.693 412.882   2
   2 -12   9 1439.92 459.970   1
   2 -12  10-1043.57 447.255   1
   2 -12  11 953.993 456.908   1
   2 -11  -2 4.69828 142.325   2
   2 -11  -1 1621.69 425.251   2
   2 -11   0 662.131 290.148   2
   2 -11   1 1043.67 338.511   2
   2 -11   2 796.404 320.048   2
   2 -11   3 269.157 213.059   2
   2 -11   4 3471.07 640.665   2
   2 -11   5 2256.28 437.127   1
   2 -11   5 2139.82 505.346   2
   2 -11   6 505.920 292.258   2
   2 -11   6 597.128 301.990   1
   2 -11   7 1916.67 492.149   2
   2 -11   7 1114.56 378.348   1
   2 -11   8 1370.25 484.967   1
   2 -11   8 993.736 359.519   2
   2 -11   9 128.881 217.623   1
   2 -11  10 512.737 328.708   1
   2 -11  11 1485.75 545.999   1
   2 -10  -4 683.804 321.016   2
   2 -10  -3 1051.20 361.140   2
   2 -10  -2 590.997 300.858   2
   2 -10  -1 1768.32 388.325   2
   2 -10   0 5495.27 677.291   2
   2 -10   1 8448.29 823.495   2
   2 -10   2-103.736 171.208   2
   2 -10   3 4846.41 630.768   2
   2 -10   4 4080.61 605.851   2
   2 -10   5 3646.68 564.849   1
   2 -10   5 2792.20 508.231   2
   2 -10   6 4015.80 627.747   1
   2 -10   6 3925.37 631.230   2
   2 -10   7 587.634 310.618   1
   2 -10   8 875.861 375.968   1
   2 -10   9 2305.20 605.892   1
   2 -10  10 761.102 402.050   1
   2 -10  11 899.114 444.490   1
   2  -9  -5-460.944 270.471   2
   2  -9  -4 426.926 274.057   2
   2  -9  -3 1660.87 393.117   2
   2  -9  -2 9493.98 871.940   2
   2  -9  -1 8651.59 809.522   2
   2  -9   0-137.501 185.846   2
   2  -9   1 7055.02 703.944   2
   2  -9   2 17996.4 1108.40   2
   2  -9   3 16412.7 1061.72   2
   2  -9   4 6181.85 677.549   2
   2  -9   5 1871.08 409.696   2
   2  -9   5 1922.60 399.983   1
   2  -9   6 631.033 294.034   1
   2  -9   7 666.678 334.152   1
   2  -9   8 120.659 229.511   1
   2  -9   9-153.997 291.936   1
   2  -9  10 1077.60 395.399   1
   2  -9  11 2207.82 683.863   1
   2  -9  12 360.100 399.511   1
   2  -8  -6 703.957 294.180   2
   2  -8  -5 2151.62 473.628   2
   2  -8  -4 1900.33 416.422   2
   2  -8  -3 7695.37 771.913   2
   2  -8  -2 8850.17 780.049   2
   2  -8  -1 274.496 196.844   2
   2  -8   0 15057.8 948.651   2
   2  -8   1 115.027 158.908   2
   2  -8   2 12135.6 821.701   2
   2  -8   3 12290.6 839.457   2
   2  -8   4 9525.16 779.658   2
   2  -8   6 644.565 323.394   1
   2  -8   7 9115.66 978.150   1
   2  -8   8 29159.4 1853.38   1
   2  -8   9 1116.50 420.816   1
   2  -8  10 713.077 386.946   1
   2  -8  11-144.903 317.667   1
   2  -8  12 800.993 430.227   1
   2  -7  -6-107.346 184.654   2
   2  -7  -5 1560.20 394.021   2
   2  -7  -4 3780.83 553.425   2
   2  -7  -3 821.894 275.090   2
   2  -7  -2 34.3503 137.189   2
   2  -7  -1 1076.00 251.361   2
   2  -7   0 36440.9 1339.01   2
   2  -7   1 18540.0 931.036   2
   2  -7   2 10571.1 698.347   2
   2  -7   3 2819.88 385.882   2
   2  -7   6 20661.4 1379.92   1
   2  -7   7 8686.06 953.009   1
   2  -7   8 2787.53 577.044   1
   2  -7   9 11479.6 1200.53   1
   2  -7  10 594.108 366.385   1
   2  -7  11 61.9897 261.853   1
   2  -7  12 515.463 362.980   1
   2  -6  -6 6595.63 768.973   2
   2  -6  -5 273.875 186.895   2
   2  -6  -4 1287.72 318.644   2
   2  -6  -3 948.808 248.388   2
   2  -6  -2-18.3051 120.941   2
   2  -6  -1 17162.5 850.069   2
   2  -6   0 2801.12 336.211   2
   2  -6   1 53006.3 1384.22   2
   2  -6   2 52058.7 1363.76   2
   2  -6   3 383.632 130.846   2
   2  -6   6 2902.54 522.026   1
   2  -6   7 18931.7 1373.43   1
   2  -6   8 1771.48 470.663   1
   2  -6   9 3616.46 685.531   1
   2  -6  10 2080.32 553.148   1
   2  -6  11 5038.74 866.419   1
   2  -6  12 2330.30 615.142   1
   2  -5  -5 421.098 209.285   2
   2  -5  -4 182.222 162.139   2
   2  -5  -3 3693.21 432.045   2
   2  -5  -2 3047.31 349.350   2
   2  -5  -1 15344.9 701.028   2
   2  -5   0 16609.3 690.114   2
   2  -5   1 2984.90 290.810   2
   2  -5   2 3356.58 307.998   2
   2  -5   6 4435.94 647.872   1
   2  -5   7 5968.15 777.437   1
   2  -5   8 8389.49 948.110   1
   2  -5   9 1784.07 507.673   1
   2  -5  10 2496.57 598.086   1
   2  -5  11 4638.92 813.178   1
   2  -5  12 2629.78 639.199   1
   2  -4  -4 9898.23 691.452   2
   2  -4  -3 3930.23 398.610   2
   2  -4  -2 6166.73 432.266   2
   2  -4  -1 13353.8 556.828   2
   2  -4   0 3886.85 274.823   2
   2  -4   1 27655.4 693.952   2
   2  -4   6 7456.96 792.309   1
   2  -4   7 2000.23 473.672   1
   2  -4   8 5364.12 735.659   1
   2  -4   9 14792.5 1277.21   1
   2  -4  10 2736.93 600.780   1
   2  -4  11 3882.10 749.097   1
   2  -4  12 2882.34 629.658   1
   2  -3  -2 295.096 96.2751   2
   2  -3  -1 13613.1 439.024   2
   2  -3   0 2518.75 150.972   2
   2  -3   1 34246.2 582.153   2
   2  -3   6 406.346 225.224   1
   2  -3   7 313.851 259.362   1
   2  -3   8 161.583 202.235   1
   2  -3   9-78.6713 229.221   1
   2  -3  10 4271.31 711.824   1
   2  -3  11 2953.55 601.454   1
   2  -3  12 947.284 376.821   1
   2  -2   1 2458.07 143.227   2
   2  -2   1 2968.45 312.722   3
   2  -2   2 50249.2 914.356   2
   2  -2   2 50638.4 1283.20   3
   2  -2   3 68109.0 1306.30   2
   2  -2   3 67148.2 1477.29   3
   2  -2   5 13949.9 945.232   1
   2  -2   6 22835.6 1275.21   1
   2  -2   7 2700.85 480.223   1
   2  -2   8 1242.40 371.159   1
   2  -2   9-167.004 245.159   1
   2  -2  10 682.310 321.252   1
   2  -2  11 138.540 189.915   1
   2  -2  12 469.983 262.630   1
   2  -1  -2 41630.9 1183.89   3
   2  -1  -1 46207.7 1230.77   3
   2  -1  -1 46424.9 1327.02   1
   2  -1   0 6354.35 447.814   3
   2  -1   1 39816.8 740.909   2
   2  -1   1 39143.9 1101.85   3
   2  -1   2 62909.2 1168.08   2
   2  -1   2 64020.2 1415.99   3
   2  -1   3 17485.7 717.559   2
   2  -1   5 10008.7 762.346   1
   2  -1   6 8628.15 749.730   1
   2  -1   7 8944.58 824.939   1
   2  -1   8 5550.20 683.505   1
   2  -1   9 2887.77 513.091   1
   2  -1  10 297.610 245.367   1
   2  -1  11 893.169 317.656   1
   2  -1  12 960.581 375.931   1
   2   0  -5 39216.3 1148.90   3
   2   0  -4 1360.32 220.037   3
   2   0  -3 4817.98 405.795   3
   2   0  -2 5364.49 419.309   3
   2   0  -1 1648.84 249.257   1
   2   0  -1 1401.77 212.781   3
   2   0   0 20478.5 797.890   3
   2   0   0 20293.6 561.804   2
   2   0   1 41126.6 955.241   2
   2   0   2 8358.86 503.815   2
   2   0   4 18618.9 929.843   1
   2   0   5 40497.4 1458.15   1
   2   0   6 18813.2 1064.71   1
   2   0   7 20590.6 1188.56   1
   2   0   8 1960.16 409.578   1
   2   0   9 111.225 127.960   1
   2   0  10 516.142 286.215   1
   2   0  11 1915.12 455.963   1
   2   0  12 410.647 229.335   1
   2   1  -6 1387.76 213.488   3
   2   1  -5 4628.27 405.585   3
   2   1  -4 15511.3 731.850   3
   2   1  -3 6550.78 464.388   3
   2   1  -2 1024.94 188.463   3
   2   1  -2 1011.62 208.530   1
   2   1  -1 12097.3 620.327   3
   2   1  -1 12657.2 648.493   1
   2   1   0 22639.8 752.926   2
   2   1   1 481.487 138.580   2
   2   1   4 22431.9 974.115   1
   2   1   5 54641.9 1631.27   1
   2   1   6 31634.4 1344.94   1
   2   1   7 6597.22 655.299   1
   2   1   8 1154.33 315.715   1
   2   1   9 954.934 303.109   1
   2   1  10 1934.50 426.325   1
   2   2  -7 4294.09 351.754   3
   2   2  -6 9325.08 566.419   3
   2   2  -5 153.396 125.820   3
   2   2  -4 19013.1 796.798   3
   2   2  -3 43438.9 1179.95   3
   2   2  -2 11058.6 639.639   1
   2   2  -1 39789.1 1115.72   1
   2   2   0 635.754 174.348   2
   2   2   3 4131.04 373.047   1
   2   2   4 4978.50 446.681   1
   2   2   5 9387.15 665.510   1
   2   2   6 179.266 144.079   1
   2   2   7 3439.39 466.859   1
   2   2   8 3983.51 531.298   1
   2   2   9 2521.76 450.366   1
   2   3  -7 2990.84 317.172   3
   2   3  -6 14815.2 732.005   3
   2   3  -5 16807.0 763.308   3
   2   3  -2 1651.21 245.279   1
   2   3  -1 307.932 113.523   1
   2   3   0 527.456 127.218   1
   2   3   3 25098.4 864.441   1
   2   3   4 16739.0 790.603   1
   2   3   5 2212.48 322.750   1
   2   3   6 1262.55 279.520   1
   2   3   7 4750.15 550.555   1
   2   4  -7 2915.10 333.542   3
   2   4  -6 10352.4 621.625   3
   2   4  -3 173.268 95.7145   1
   2   4  -2 461.363 138.971   1
   2   4  -1 117.356 80.0513   1
   2   4   0 198.814 66.4579   1
   2   4   2 3881.94 287.115   1
   2   4   3 356.259 122.939   1
   2   4   4 8114.85 548.389   1
   2   4   5 2703.09 360.100   1
   2   5  -3 6028.87 464.719   1
   2   5  -2 9594.61 507.337   1
   2   5  -1 957.490 146.829   1
   2   5   0 4133.50 244.824   1
   2   5   1 9893.88 349.867   1
   2   5   1 10235.2 346.073   1
   2   5   2 3308.98 241.713   1
   2   6  -3 2893.40 319.680   1
   2   6  -2 13044.8 561.399   1
   2   6  -1 4632.72 218.840   1
   3 -12   6 2860.26 577.815   1
   3 -12   7 1237.19 428.738   1
   3 -12   8 700.166 348.502   1
   3 -12   9 90.1381 250.250   1
   3 -11   6 3030.20 610.609   1
   3 -11   7 5444.59 836.709   1
   3 -11   8 5255.89 732.713   2
   3 -11   8 4688.29 815.417   1
   3 -11   9 1270.52 516.981   1
   3 -11  10-798.789 426.384   1
   3 -10   4 672.815 275.432   2
   3 -10   5 4939.78 639.127   2
   3 -10   6 2357.01 466.049   2
   3 -10   7 5857.59 728.146   2
   3 -10   7 7029.68 931.240   1
   3 -10   8 2292.95 586.144   1
   3 -10   9 5385.32 918.136   1
   3 -10  10 5128.07 974.291   1
   3  -9   1 678.254 219.019   2
   3  -9   2 5853.59 596.044   2
   3  -9   3 4199.90 511.733   2
   3  -9   4 1019.31 288.194   2
   3  -9   5 3648.10 511.782   2
   3  -9   7 800.584 390.026   1
   3  -9   8 3010.78 682.167   1
   3  -9   9 5265.13 961.633   1
   3  -9  10 5538.33 994.870   1
   3  -9  11 1194.51 533.280   1
   3  -8  -1 13720.3 844.550   2
   3  -8   0 623.900 184.098   2
   3  -8   1 11959.6 743.944   2
   3  -8   2 5035.76 496.937   2
   3  -8   3 2239.96 347.650   2
   3  -8   4 3244.42 428.613   2
   3  -8   7 12977.8 1236.32   1
   3  -8   8 9792.90 1147.70   1
   3  -8   9 7158.13 1052.76   1
   3  -8  10 1853.75 596.977   1
   3  -8  11 880.242 402.319   1
   3  -7  -3 7645.27 677.029   2
   3  -7  -2 347.564 161.656   2
   3  -7  -1 11634.7 704.810   2
   3  -7   0 30229.1 1057.50   2
   3  -7   1 26514.2 978.267   2
   3  -7   2 10089.5 615.918   2
   3  -7   3 2152.70 311.552   2
   3  -7   7 663.051 408.015   1
   3  -7   8 3810.45 746.826   1
   3  -7   9 7345.33 1064.28   1
   3  -7  10 4227.05 854.079   1
   3  -7  11 2324.06 623.923   1
   3  -6  -3-133.310 139.385   2
   3  -6  -2 19787.1 890.898   2
   3  -6  -1 56.2851 89.1231   2
   3  -6   0 14850.8 623.358   2
   3  -6   1 22019.2 744.769   2
   3  -6   2 15630.0 658.601   2
   3  -6   3 3902.61 375.533   2
   3  -6   7 1531.84 456.956   1
   3  -6   8 2299.13 578.477   1
   3  -6   9-274.296 347.993   1
   3  -6  10 1746.17 542.182   1
   3  -6  11 7033.73 1093.42   1
   3  -5  -2 35677.0 1038.43   2
   3  -5  -1 21469.3 675.392   2
   3  -5   0 13407.0 452.040   2
   3  -5   1 3351.53 224.821   2
   3  -5   2 1594.49 179.695   2
   3  -5   7 18073.8 1434.09   1
   3  -5   8 1511.66 478.109   1
   3  -5   9 557.370 441.631   1
   3  -5  10 2276.37 595.587   1
   3  -5  11 857.332 400.899   1
   3  -4   2 27619.4 638.934   2
   3  -4   3 35731.5 933.477   2
   3  -4   4 6105.68 457.166   2
   3  -4   7 2468.41 549.072   1
   3  -4   8 1878.62 489.834   1
   3  -4   9 6851.14 938.840   1
   3  -4  10 3887.62 736.237   1
   3  -4  11 1363.16 478.291   1
   3  -3   2 20986.1 588.617   2
   3  -3   3 1400.75 202.325   2
   3  -3   7 4713.70 692.158   1
   3  -3   8 4280.74 693.636   1
   3  -3   9 6210.43 858.740   1
   3  -3  10 2884.41 598.398   1
   3  -3  11 3515.69 693.576   1
   3  -2   1 23064.5 489.362   2
   3  -2   2 2063.44 228.164   2
   3  -2   3 1103.18 199.379   2
   3  -2   6 11360.8 970.111   1
   3  -2   7 25526.5 1509.24   1
   3  -2   8 5276.33 722.544   1
   3  -2   9 8240.49 944.771   1
   3  -2  10 3508.06 635.529   1
   3  -2  11 354.599 236.983   1
   3  -1   1 33544.0 840.455   2
   3  -1   2 42832.0 1157.99   2
   3  -1   6 190.962 170.812   1
   3  -1   7 511.078 266.397   1
   3  -1   8 8280.21 856.980   1
   3  -1   9 2686.47 525.751   1
   3  -1  10 612.063 281.554   1
   3  -1  11 1800.36 471.452   1
   3   0   0 37429.6 936.430   2
   3   0   1 31006.4 980.964   2
   3   0   5 1441.41 314.626   1
   3   0   6 1347.42 311.252   1
   3   0   7 206.539 187.221   1
   3   0   8 1791.16 384.543   1
   3   0   9 43.8919 127.999   1
   3   0  10 1418.42 387.857   1
   3   1   0 28464.0 978.256   2
   3   1   5 4934.88 529.326   1
   3   1   6 1924.38 360.119   1
   3   1   7 1472.06 331.940   1
   3   1   8-70.1924 126.279   1
   3   1   9 1984.76 426.419   1
   3   2   4 10986.3 708.010   1
   3   2   5 8360.41 655.791   1
   3   2   6 143.302 130.020   1
   3   2   7 89.3063 114.328   1
   3   3   4 14911.2 785.798   1
   3   3   5 2255.14 338.153   1
   3   4   3 4321.75 378.630   1
   4 -12   7 1003.58 405.603   1
   4 -11   7-55.1718 212.139   1
   4 -11   8 650.315 341.616   1
   4 -10   8-505.081 353.949   1
   4  -9   8 235.851 298.810   1
   4  -9   9 3123.59 767.916   1
   4  -8   8 8112.96 1091.98   1
   4  -8   9 3693.24 777.156   1
   4  -7   8 3974.10 776.594   1
   4  -7   9 92.5873 195.516   1
   4  -7  10 583.249 400.554   1
   4  -6   8 1385.80 462.190   1
   4  -6   9 474.706 402.730   1
   4  -6  10 3302.37 778.295   1
   4  -5   8 8193.17 1059.51   1
   4  -5   9 5412.61 906.807   1
   4  -5  10 3633.64 765.294   1
   4  -4   8 4843.70 802.886   1
   4  -4   9 10864.4 1213.76   1
   4  -4  10 525.909 335.845   1
   4  -3   7 438.374 313.400   1
   4  -3   8 4329.20 732.956   1
   4  -3   9 3177.30 626.092   1
   4  -3  10 911.736 390.307   1
   4  -2   7 4584.88 698.975   1
   4  -2   8 6412.73 840.796   1
   4  -2   9 2679.27 567.668   1
   4  -2  10 2225.59 524.206   1
   4  -1   1 2014.57 228.785   2
   4  -1   7 4416.52 650.156   1
   4  -1   8 2269.31 490.657   1
   4  -1   9 1985.57 468.477   1
   4  -1  10 1370.42 422.633   1
   4   0   6 3987.33 582.029   1
   4   0   7 5967.24 727.959   1
   4   0   8 2032.18 423.975   1
   4   0   9-112.156 165.451   1
   4   1   6 5952.85 675.161   1
   4   1   7 2030.84 417.124   1
   4   2   5 777.170 245.617   1
   5  -6   8 87.1371 226.338   1
   5  -5   8 1430.05 489.118   1
   5  -4   8 3469.17 692.034   1
   5  -3   8 2654.44 635.218   1
   5  -2   7 6048.49 861.504   1
   5  -2   8-189.285 229.877   1
   5  -1   7 2211.91 523.278   1
   5  -1   8 817.628 336.019   1
   5   0   6 4850.91 701.089   1
   5   0   7 1910.88 468.977   1
;
_shelx_hkl_checksum              53477
loop_
_space_group_symop_operation_xyz
'x, y, z'
'-x, -y, -z'
loop_
_atom_site_label
_atom_site_type_symbol
_atom_site_fract_x
_atom_site_fract_y
_atom_site_fract_z
_atom_site_U_iso_or_equiv
_atom_site_adp_type
_atom_site_occupancy
_atom_site_site_symmetry_order
_atom_site_calc_flag
_atom_site_refinement_flags_posn
_atom_site_refinement_flags_adp
_atom_site_refinement_flags_occupancy
_atom_site_disorder_assembly
_atom_site_disorder_group
Cu1 Cu 0.5000 0.0000 0.5000 0.0367(3) Uani 1 2 d S . P . .
O1 O 0.2160(5) 0.0319(3) 0.4059(3) 0.0388(7) Uani 1 1 d . . . . .
O2 O -0.1177(5) 0.1297(3) 0.3830(3) 0.0497(8) Uani 1 1 d . . . . .
O3 O 0.5175(5) 0.1758(3) 0.6638(3) 0.0395(7) Uani 1 1 d . . . . .
O4 O 0.3960(6) 0.3737(3) 0.8052(3) 0.0545(8) Uani 1 1 d . . . . .
O5 O 0.6437(6) 0.3384(3) 0.3999(3) 0.0523(8) Uani 1 1 d . . . . .
H5 H 0.7461 0.2866 0.4020 0.078 Uiso 1 1 calc R U . . .
N1 N -0.1501(6) 0.2173(4) -0.1065(4) 0.0471(9) Uani 1 1 d . . . . .
H1 H -0.2490 0.1896 -0.1825 0.057 Uiso 1 1 calc R U . . .
N2 N 0.4953(6) 0.2767(3) 0.2732(3) 0.0401(8) Uani 1 1 d . . . . .
C1 C 0.0881(7) 0.1342(4) 0.4491(4) 0.0341(9) Uani 1 1 d . . . . .
C2 C 0.1761(7) 0.2663(4) 0.5824(4) 0.0386(10) Uani 1 1 d . . . . .
H2A H 0.2436 0.3434 0.5555 0.046 Uiso 1 1 calc R U . . .
H2B H 0.0185 0.2900 0.6285 0.046 Uiso 1 1 calc R U . . .
C3 C 0.3757(7) 0.2728(4) 0.6917(4) 0.0324(9) Uani 1 1 d . . . . .
C4 C 0.0225(9) 0.1368(5) -0.0981(4) 0.0499(11) Uani 1 1 d . . . . .
H4 H 0.0344 0.0527 -0.1744 0.060 Uiso 1 1 calc R U . . .
C5 C 0.1799(8) 0.1774(4) 0.0208(4) 0.0441(11) Uani 1 1 d . . . . .
H5A H 0.2972 0.1204 0.0262 0.053 Uiso 1 1 calc R U . . .
C6 C 0.1659(7) 0.3042(4) 0.1347(4) 0.0331(9) Uani 1 1 d . . . . .
C7 C -0.0165(7) 0.3839(4) 0.1213(4) 0.0420(10) Uani 1 1 d . . . . .
H7 H -0.0328 0.4687 0.1957 0.050 Uiso 1 1 calc R U . . .
C8 C -0.1718(8) 0.3384(4) -0.0006(4) 0.0435(11) Uani 1 1 d . . . . .
H8 H -0.2926 0.3925 -0.0090 0.052 Uiso 1 1 calc R U . . .
C9 C 0.3325(7) 0.3532(4) 0.2641(4) 0.0373(9) Uani 1 1 d . . . . .
H9 H 0.3204 0.4387 0.3387 0.045 Uiso 1 1 calc R U . . .
loop_
_atom_site_aniso_label
_atom_site_aniso_U_11
_atom_site_aniso_U_22
_atom_site_aniso_U_33
_atom_site_aniso_U_23
_atom_site_aniso_U_13
_atom_site_aniso_U_12
Cu1 0.0339(4) 0.0375(4) 0.0323(4) 0.0037(3) -0.0101(3) 0.0195(3)
O1 0.0371(15) 0.0388(16) 0.0354(15) 0.0043(12) -0.0066(12) 0.0238(13)
O2 0.0453(17) 0.0506(17) 0.0453(18) 0.0053(14) -0.0209(14) 0.0284(14)
O3 0.0394(15) 0.0392(15) 0.0347(15) 0.0043(12) -0.0087(12) 0.0241(13)
O4 0.073(2) 0.0470(18) 0.0344(17) -0.0001(14) -0.0137(15) 0.0348(16)
O5 0.0555(18) 0.0525(18) 0.0422(18) 0.0080(14) -0.0209(14) 0.0251(15)
N1 0.042(2) 0.063(2) 0.037(2) 0.0227(19) -0.0119(16) 0.0052(19)
N2 0.043(2) 0.045(2) 0.0315(18) 0.0134(16) -0.0093(15) 0.0154(16)
C1 0.035(2) 0.034(2) 0.033(2) 0.0127(17) -0.0017(17) 0.0119(18)
C2 0.039(2) 0.039(2) 0.036(2) 0.0085(18) -0.0059(18) 0.0222(19)
C3 0.034(2) 0.030(2) 0.030(2) 0.0077(17) -0.0022(17) 0.0097(17)
C4 0.061(3) 0.045(3) 0.034(2) 0.006(2) -0.006(2) 0.011(2)
C5 0.051(3) 0.041(2) 0.039(3) 0.013(2) -0.003(2) 0.019(2)
C6 0.033(2) 0.039(2) 0.031(2) 0.0167(18) -0.0007(17) 0.0112(18)
C7 0.043(2) 0.045(2) 0.039(2) 0.016(2) -0.002(2) 0.018(2)
C8 0.039(2) 0.053(3) 0.045(3) 0.024(2) -0.004(2) 0.016(2)
C9 0.041(2) 0.034(2) 0.035(2) 0.0098(18) -0.0057(18) 0.0147(19)
loop_
_atom_type_symbol
_atom_type_description
_atom_type_scat_dispersion_real
_atom_type_scat_dispersion_imag
_atom_type_scat_source
C C 0.0033 0.0016 'International Tables Vol C Tables 4.2.6.8 and 6.1.1.4'
H H 0.0000 0.0000 'International Tables Vol C Tables 4.2.6.8 and 6.1.1.4'
Cu Cu 0.3201 1.2651 'International Tables Vol C Tables 4.2.6.8 and 6.1.1.4'
N N 0.0061 0.0033 'International Tables Vol C Tables 4.2.6.8 and 6.1.1.4'
O O 0.0106 0.0060 'International Tables Vol C Tables 4.2.6.8 and 6.1.1.4'
loop_
_geom_angle_atom_site_label_1
_geom_angle_atom_site_label_2
_geom_angle_atom_site_label_3
_geom_angle
_geom_angle_site_symmetry_1
_geom_angle_site_symmetry_3
_geom_angle_publ_flag
O1 Cu1 O1 180.0 2_656 . ?
O1 Cu1 O3 94.20(10) 2_656 2_656 ?
O1 Cu1 O3 85.80(10) . 2_656 ?
O1 Cu1 O3 85.80(10) 2_656 . ?
O1 Cu1 O3 94.20(10) . . ?
O3 Cu1 O3 180.00(14) 2_656 . ?
C1 O1 Cu1 129.0(2) . . ?
C3 O3 Cu1 129.8(2) . . ?
C8 N1 C4 121.6(4) . . ?
C9 N2 O5 112.1(3) . . ?
O2 C1 O1 121.2(3) . . ?
O2 C1 C2 116.7(3) . . ?
O1 C1 C2 122.1(3) . . ?
C3 C2 C1 122.9(3) . . ?
O4 C3 O3 122.4(3) . . ?
O4 C3 C2 117.2(3) . . ?
O3 C3 C2 120.4(3) . . ?
N1 C4 C5 120.5(4) . . ?
C4 C5 C6 120.1(4) . . ?
C5 C6 C7 117.4(4) . . ?
C5 C6 C9 122.2(3) . . ?
C7 C6 C9 120.4(4) . . ?
C8 C7 C6 120.4(4) . . ?
N1 C8 C7 120.0(4) . . ?
N2 C9 C6 118.7(3) . . ?
loop_
_geom_bond_atom_site_label_1
_geom_bond_atom_site_label_2
_geom_bond_distance
_geom_bond_site_symmetry_2
_geom_bond_publ_flag
Cu1 O1 1.904(2) 2_656 ?
Cu1 O1 1.904(2) . ?
Cu1 O3 1.927(2) 2_656 ?
Cu1 O3 1.927(2) . ?
O1 C1 1.273(4) . ?
O2 C1 1.246(4) . ?
O3 C3 1.283(4) . ?
O4 C3 1.219(4) . ?
O5 N2 1.378(4) . ?
N1 C8 1.324(5) . ?
N1 C4 1.342(5) . ?
N2 C9 1.274(4) . ?
C1 C2 1.510(5) . ?
C2 C3 1.507(5) . ?
C4 C5 1.357(6) . ?
C5 C6 1.391(5) . ?
C6 C7 1.392(5) . ?
C6 C9 1.457(5) . ?
C7 C8 1.368(5) . ?
loop_
_geom_hbond_atom_site_label_D
_geom_hbond_atom_site_label_H
_geom_hbond_atom_site_label_A
_geom_hbond_distance_DH
_geom_hbond_distance_HA
_geom_hbond_distance_DA
_geom_hbond_angle_DHA
_geom_hbond_site_symmetry_A
O5 H5 O2 0.82 1.82 2.611(4) 162.2 1_655
N1 H1 O1 0.86 2.57 3.138(4) 124.2 2
N1 H1 O3 0.86 1.95 2.791(4) 165.9 1_454
C2 H2A O5 0.97 2.65 3.291(5) 123.6 .
C4 H4 O1 0.93 2.49 3.114(5) 124.6 2
C4 H4 O2 0.93 2.35 3.268(5) 168.6 2
C8 H8 O4 0.93 2.44 3.170(5) 135.3 1_454
C8 H8 O4 0.93 2.65 3.277(5) 125.1 2_566
