#------------------------------------------------------------------------------
#$Date: 2022-09-04 01:33:56 +0300 (Sun, 04 Sep 2022) $
#$Revision: 277614 $
#$URL: file:///home/coder/svn-repositories/cod/cif/7/24/54/7245439.cif $
#------------------------------------------------------------------------------
#
# This file is available in the Crystallography Open Database (COD),
# http://www.crystallography.net/
#
# All data on this site have been placed in the public domain by the
# contributors.
#
data_7245439
loop_
_publ_author_name
'Croitor, Lilia'
'Coropceanu, Eduard B.'
'Fonari, Marina S.'
_publ_section_title
;
 Anion--pyridine-n-oxime interplay to control metal--metal separations in
 a series of Cu(ii) coordination polymers
;
_journal_name_full               CrystEngComm
_journal_paper_doi               10.1039/D2CE01000C
_journal_year                    2022
_chemical_formula_moiety         'C18.60 H23 Cu N4 O6.90'
_chemical_formula_sum            'C18.6 H23 Cu N4 O6.9'
_chemical_formula_weight         476.55
_space_group_crystal_system      triclinic
_space_group_IT_number           2
_space_group_name_Hall           '-P 1'
_space_group_name_H-M_alt        'P -1'
_atom_sites_solution_hydrogens   mixed
_atom_sites_solution_primary     direct
_atom_sites_solution_secondary   difmap
_audit_creation_method           SHELXL-2014/7
_audit_update_record
;
2022-05-23 deposited with the CCDC.	2022-08-15 downloaded from the CCDC.
;
_cell_angle_alpha                84.174(6)
_cell_angle_beta                 62.420(8)
_cell_angle_gamma                82.413(7)
_cell_formula_units_Z            1
_cell_length_a                   8.0458(7)
_cell_length_b                   8.4741(6)
_cell_length_c                   8.6258(6)
_cell_measurement_reflns_used    1137
_cell_measurement_temperature    293(2)
_cell_measurement_theta_max      27.5540
_cell_measurement_theta_min      3.5110
_cell_volume                     516.18(8)
_computing_cell_refinement
;
CrysAlisPro, Agilent Technologies,
Version 1.171.37.35 (release 13-08-2014 CrysAlis171 .NET)
(compiled Aug 13 2014,18:06:01)
;
_computing_data_collection
;
CrysAlisPro, Agilent Technologies,
Version 1.171.37.35 (release 13-08-2014 CrysAlis171 .NET)
(compiled Aug 13 2014,18:06:01)
;
_computing_data_reduction
;
CrysAlisPro, Agilent Technologies,
Version 1.171.37.35 (release 13-08-2014 CrysAlis171 .NET)
(compiled Aug 13 2014,18:06:01)
;
_computing_structure_refinement  'SHELXL-2014/7 (Sheldrick, 2014)'
_computing_structure_solution    'SHELXS-2014/7 (Sheldrick, 2014)'
_diffrn_ambient_temperature      293(2)
_diffrn_detector                 'CCD plate'
_diffrn_detector_area_resol_mean 15.9914
_diffrn_detector_type            Eos
_diffrn_measured_fraction_theta_full 0.993
_diffrn_measured_fraction_theta_max 0.993
_diffrn_measurement_device       'four-circle diffractometer'
_diffrn_measurement_device_type  'Xcalibur, Eos'
_diffrn_radiation_monochromator  graphite
_diffrn_radiation_probe          x-ray
_diffrn_radiation_type           'Mo K\a'
_diffrn_radiation_wavelength     0.71073
_diffrn_reflns_av_R_equivalents  0.0239
_diffrn_reflns_av_unetI/netI     0.0453
_diffrn_reflns_Laue_measured_fraction_full 0.993
_diffrn_reflns_Laue_measured_fraction_max 0.993
_diffrn_reflns_limit_h_max       9
_diffrn_reflns_limit_h_min       -9
_diffrn_reflns_limit_k_max       7
_diffrn_reflns_limit_k_min       -10
_diffrn_reflns_limit_l_max       7
_diffrn_reflns_limit_l_min       -10
_diffrn_reflns_number            2887
_diffrn_reflns_point_group_measured_fraction_full 0.993
_diffrn_reflns_point_group_measured_fraction_max 0.993
_diffrn_reflns_theta_full        25.000
_diffrn_reflns_theta_max         25.000
_diffrn_reflns_theta_min         3.511
_diffrn_source                   'Enhance (Mo) X-ray Source'
_exptl_absorpt_coefficient_mu    1.106
_exptl_absorpt_correction_T_max  1.00000
_exptl_absorpt_correction_T_min  0.93856
_exptl_absorpt_correction_type   multi-scan
_exptl_absorpt_process_details
;
CrysAlisPro, Agilent Technologies,
Version 1.171.37.35 (release 13-08-2014 CrysAlis171 .NET)
(compiled Aug 13 2014,18:06:01)
Empirical absorption correction using spherical harmonics,
 implemented in SCALE3 ABSPACK scaling algorithm.
;
_exptl_crystal_colour            blue
_exptl_crystal_density_diffrn    1.533
_exptl_crystal_description       needle
_exptl_crystal_F_000             247
_exptl_crystal_size_max          0.500
_exptl_crystal_size_mid          0.350
_exptl_crystal_size_min          0.040
_refine_diff_density_max         0.562
_refine_diff_density_min         -0.271
_refine_diff_density_rms         0.066
_refine_ls_extinction_method     none
_refine_ls_goodness_of_fit_ref   1.076
_refine_ls_hydrogen_treatment    constr
_refine_ls_matrix_type           full
_refine_ls_number_parameters     154
_refine_ls_number_reflns         1810
_refine_ls_number_restraints     1
_refine_ls_restrained_S_all      1.081
_refine_ls_R_factor_all          0.0446
_refine_ls_R_factor_gt           0.0398
_refine_ls_shift/su_max          0.003
_refine_ls_shift/su_mean         0.000
_refine_ls_structure_factor_coef Fsqd
_refine_ls_weighting_details
'w=1/[\s^2^(Fo^2^)+(0.0429P)^2^+0.3514P] where P=(Fo^2^+2Fc^2^)/3'
_refine_ls_weighting_scheme      calc
_refine_ls_wR_factor_gt          0.0995
_refine_ls_wR_factor_ref         0.1034
_reflns_Friedel_coverage         0.000
_reflns_number_gt                1666
_reflns_number_total             1810
_reflns_threshold_expression     'I > 2\s(I)'
_cod_data_source_file            d2ce01000c2.cif
_cod_data_source_block           Comp_6_CL_3083
_cod_original_formula_sum        'C18.60 H23 Cu N4 O6.90'
_cod_database_code               7245439
_shelx_shelxl_version_number     2014/7
_shelx_space_group_comment
;
The symmetry employed for this shelxl refinement is uniquely defined
by the following loop, which should always be used as a source of
symmetry information in preference to the above space-group names.
They are only intended as comments.
;
_shelx_estimated_absorpt_t_min   0.608
_shelx_estimated_absorpt_t_max   0.957
_shelx_res_file
;

    CL_3083.res created by SHELXL-2014/7


TITL CL_3083 in P1 New: P-1
CELL  0.71073    8.0458    8.4741    8.6258    84.174    62.420    82.413
ZERR  1  0.0007    0.0006    0.0006     0.006     0.008     0.007
LATT 1
SFAC C  H  Cu N  O
UNIT 18.60  23.00  1  4  6.9
OMIT 0 50
L.S.  8
ACTA
FMAP 2
PLAN 20
SIZE 0.5 0.35 0.04
DFIX 1.41 0.01 O1X C1X
htab
REM Instructions for potential hydrogen bonds
EQIV $1 x-1, y, z
HTAB O1 O3_$1
EQIV $2 -x+2, -y, -z+1
HTAB C1 O1WX_$2
EQIV $3 x+1, y-1, z-1
HTAB C2 O1X_$3
HTAB C5 O1A
EQIV $4 -x+2, -y+1, -z+1
HTAB C8 O3_$4
HTAB C1X O3_$4
EQIV $5 x-1, y, z+1
HTAB O1X O3_$5
WGHT    0.042900    0.351400
FVAR       9.06606   0.88463
CU1   3    1.000000    0.000000    0.500000    10.50000    0.03398    0.02857 =
         0.04300   -0.00204   -0.02596    0.00295
N1    4    0.948364   -0.084052    0.316024    11.00000    0.03073    0.03329 =
         0.03403    0.00142   -0.01604   -0.00315
eadp o1 o1a
eadp n2 n2a
PART 1
N2    4    0.466545    0.074229    0.254778    21.00000    0.02896    0.04681 =
         0.04009   -0.00038   -0.02121   -0.00364
O1    5    0.299078    0.090940    0.240039    21.00000    0.03040    0.04790 =
         0.05287   -0.00226   -0.02500    0.00119
AFIX 147
H1    2    0.248053    0.181698    0.263569    21.00000   -1.50000
AFIX   0
PART 2
O1A   5    0.425881    0.162769    0.311864   -21.00000    0.03040    0.04790 =
         0.05287   -0.00226   -0.02500    0.00119
AFIX 147
H1A   2    0.535768    0.183686    0.259649   -21.00000   -1.50000
AFIX   0
N2A   4    0.404794    0.034072    0.240194   -21.00000    0.02896    0.04681 =
         0.04009   -0.00038   -0.02121   -0.00364
PART 0
O2    5    0.851690    0.198037    0.491474    11.00000    0.03739    0.02954 =
         0.05482   -0.00134   -0.02901    0.00364
O3    5    1.082768    0.348992    0.324774    11.00000    0.03391    0.05109 =
         0.06610    0.00033   -0.01620    0.00215
C1    1    1.079179   -0.180349    0.195359    11.00000    0.03132    0.04067 =
         0.04309   -0.00124   -0.01673   -0.00055
AFIX  43
H1C   2    1.193374   -0.209050    0.198247    11.00000   -1.20000
AFIX   0
C2    1    1.050773   -0.238551    0.066906    11.00000    0.04182    0.04577 =
         0.03699   -0.00894   -0.01371    0.00409
AFIX  43
H2    2    1.144857   -0.304223   -0.016339    11.00000   -1.20000
AFIX   0
C3    1    0.881752   -0.198158    0.063743    11.00000    0.04519    0.04466 =
         0.03632   -0.00143   -0.02212   -0.00517
AFIX  43
H3    2    0.859214   -0.238002   -0.020635    11.00000   -1.20000
AFIX   0
C4    1    0.745041   -0.098095    0.186276    11.00000    0.03522    0.03310 =
         0.02966    0.00593   -0.01707   -0.00530
C5    1    0.785071   -0.043110    0.310022    11.00000    0.02937    0.03446 =
         0.03160    0.00131   -0.01448   -0.00105
AFIX  43
H5    2    0.694456    0.025235    0.392490    11.00000   -1.20000
AFIX   0
C6    1    0.564513   -0.052720    0.183982    11.00000    0.03998    0.04822 =
         0.03868   -0.00269   -0.02343   -0.00014
PART 1
AFIX  43
H6    2    0.521550   -0.116387    0.131010    11.00000   -1.20000
PART 0
AFIX   0
C7    1    0.913189    0.326953    0.410643    11.00000    0.03368    0.03695 =
         0.03944   -0.00804   -0.02255    0.00350
C8    1    0.769286    0.463249    0.419882    11.00000    0.04026    0.03334 =
         0.06782    0.00547   -0.02870    0.00042
AFIX  23
H8A   2    0.806041    0.509001    0.302180    11.00000   -1.20000
H8B   2    0.775086    0.544441    0.488353    11.00000   -1.20000
AFIX   0
C9    1    0.567569    0.427205    0.495971    11.00000    0.04045    0.02774 =
         0.06292    0.00347   -0.02915    0.00337
AFIX  23
H9A   2    0.529309    0.380089    0.613337    11.00000   -1.20000
H9B   2    0.558803    0.349176    0.425861    11.00000   -1.20000
PART -1
AFIX   0
C1X   1    0.509978    0.533061    0.984184    10.30000    0.04700
AFIX 133
H1X1  2    0.469717    0.645025    0.987830    10.30000   -1.50000
H1X2  2    0.620418    0.511719    0.875520    10.30000   -1.50000
H1X3  2    0.538558    0.501065    1.079879    10.30000   -1.50000
AFIX   0
O1X   5    0.368954    0.449345    0.997500    10.30000    0.10444
AFIX   3
H1X   2    0.313287    0.406545    1.095074    10.30000   -1.50000
AFIX   0
PART -2
O1WX  5    0.571523    0.471115    0.892585    10.15000    0.08485
PART
HKLF 4

REM  CL_3083 in P1 New: P-1
REM R1 =  0.0398 for    1666 Fo > 4sig(Fo)  and  0.0446 for all    1810 data
REM    154 parameters refined using      1 restraints

END

WGHT      0.0423      0.3595

REM Instructions for potential hydrogen bonds
HTAB O1 O3_$1
HTAB C1 O1WX_$2
HTAB C2 O1X_$3
HTAB C5 O1A
HTAB C8 O3_$4
HTAB C1X O3_$4
HTAB O1X O3_$5

REM Highest difference peak  0.562,  deepest hole -0.271,  1-sigma level  0.066
Q1    1   0.5281  0.4879  1.0486  11.00000  0.05    0.56
Q2    1   0.6541  0.4500  0.8964  11.00000  0.05    0.41
Q3    1   0.4751  0.6147  0.9439  11.00000  0.05    0.41
Q4    1   1.1334 -0.0486  0.4839  11.00000  0.05    0.33
Q5    1   0.5282  0.3318  0.5258  11.00000  0.05    0.30
Q6    1   0.9576  0.1419  0.4663  11.00000  0.05    0.29
Q7    1   0.5252  0.6145  0.9910  11.00000  0.05    0.29
Q8    1   0.3244  0.4793  1.0150  11.00000  0.05    0.24
Q9    1   0.7400 -0.1201  0.2757  11.00000  0.05    0.24
Q10   1   1.1700 -0.3067  0.0594  11.00000  0.05    0.23
Q11   1   0.8003 -0.1723  0.1649  11.00000  0.05    0.21
Q12   1   0.8163  0.5627  0.3883  11.00000  0.05    0.21
Q13   1   1.0017 -0.1392  0.2814  11.00000  0.05    0.20
Q14   1   0.7491  0.2230  0.5379  11.00000  0.05    0.20
Q15   1   1.1733 -0.2504  0.2245  11.00000  0.05    0.20
Q16   1   0.8819 -0.0508  0.2760  11.00000  0.05    0.19
Q17   1   1.0727  0.3980  0.3071  11.00000  0.05    0.19
Q18   1   0.6526 -0.1104  0.2074  11.00000  0.05    0.18
Q19   1   0.7509 -0.0331  0.3640  11.00000  0.05    0.18
Q20   1   0.8751  0.2567  0.5143  11.00000  0.05    0.18
;
_shelx_res_checksum              54368
_shelx_hkl_file
;
 -10  -5  -5 364.629 259.698   2
 -10  -4  -8 2248.49 527.085   3
 -10  -4  -7 2966.93 580.250   3
 -10  -4  -6 1254.31 395.063   3
 -10  -4  -5 1281.67 392.766   3
 -10  -4  -5 1800.05 461.886   2
 -10  -4  -4 4003.89 692.035   2
 -10  -3  -8 3945.00 704.188   3
 -10  -3  -7 2952.73 587.548   3
 -10  -3  -6-146.679 232.009   3
 -10  -3  -5 5697.78 760.371   2
 -10  -3  -5 5160.84 793.830   3
 -10  -3  -4 9230.70 1000.42   2
 -10  -3  -3 2872.54 584.941   2
 -10  -2  -7 4371.19 712.599   3
 -10  -2  -6-67.7290 155.436   3
 -10  -2  -5 2546.49 514.545   2
 -10  -2  -5 2278.75 515.551   3
 -10  -2  -4 3329.76 589.476   2
 -10  -2  -3 785.366 293.462   2
 -10  -1  -7 1930.35 496.132   3
 -10  -1  -6 271.135 216.114   3
 -10  -1  -5 4538.73 645.994   2
 -10  -1  -4 4687.00 692.560   2
 -10  -1  -3 3291.05 584.460   2
 -10   0  -6 235.283 216.329   3
 -10   0  -4 1894.55 458.839   2
  -9  -7  -6 5176.45 792.149   2
  -9  -7  -5 2691.71 590.489   2
  -9  -6  -6 2161.05 480.451   2
  -9  -6  -5 3245.03 613.186   2
  -9  -6  -4 2145.90 494.400   2
  -9  -6  -3 503.746 297.246   2
  -9  -5  -8-171.166 215.750   1
  -9  -5  -7 1568.66 411.724   1
  -9  -5  -6 1735.70 418.019   2
  -9  -5  -5 1921.65 444.219   2
  -9  -5  -4 689.747 294.947   2
  -9  -5  -3 859.715 331.859   2
  -9  -5  -2 885.022 351.067   2
  -9  -4  -9 387.426 190.801   3
  -9  -4  -9 269.155 206.802   1
  -9  -4  -8 798.631 340.881   1
  -9  -4  -8 478.744 230.141   3
  -9  -4  -7 4951.65 676.761   3
  -9  -4  -7 5062.93 692.226   1
  -9  -4  -6 6692.19 769.055   3
  -9  -4  -6 3916.53 585.144   2
  -9  -4  -5 1463.01 399.576   3
  -9  -4  -5 2486.10 498.017   2
  -9  -4  -4 504.134 248.533   2
  -9  -4  -4 591.525 256.631   3
  -9  -4  -3 798.273 325.925   2
  -9  -4  -2 63.7412 246.954   2
  -9  -4  -1 1929.75 508.567   2
  -9  -3  -9 2.81682 205.120   3
  -9  -3  -9 18.1242 177.721   1
  -9  -3  -8 436.376 286.911   3
  -9  -3  -8 779.279 264.395   1
  -9  -3  -7 2761.20 538.330   3
  -9  -3  -7 2164.16 445.042   1
  -9  -3  -6 3117.15 501.962   1
  -9  -3  -6 3974.65 617.861   3
  -9  -3  -5 4583.15 677.363   3
  -9  -3  -5 3843.90 583.042   2
  -9  -3  -4 6309.17 771.019   2
  -9  -3  -3 3583.05 611.897   2
  -9  -3  -2 898.912 334.320   2
  -9  -3  -1 2276.40 536.892   2
  -9  -2 -10 3805.34 633.357   1
  -9  -2  -9 4854.83 763.922   3
  -9  -2  -9 4360.60 645.882   1
  -9  -2  -8 9170.93 885.145   1
  -9  -2  -8 7882.42 929.019   3
  -9  -2  -7 7698.82 900.276   3
  -9  -2  -6 5574.47 760.988   3
  -9  -2  -5 3127.35 508.934   2
  -9  -2  -5 3672.94 614.061   3
  -9  -2  -4 2737.55 469.337   2
  -9  -2  -3 4467.40 629.812   2
  -9  -2  -2 7412.76 866.653   2
  -9  -2  -1 6734.91 879.469   2
  -9  -1  -8 2266.39 534.145   3
  -9  -1  -7 4140.56 673.601   3
  -9  -1  -6 12005.4 1150.26   3
  -9  -1  -5 8137.75 928.814   3
  -9  -1  -5 8508.23 809.782   2
  -9  -1  -4 2765.75 485.750   2
  -9  -1  -3 2689.37 495.677   2
  -9  -1  -2 4050.55 646.839   2
  -9   0  -8-202.101 278.759   3
  -9   0  -7 22.0425 164.777   3
  -9   0  -6 6454.35 846.567   3
  -9   0  -5 3893.20 551.010   2
  -9   1  -8 474.712 279.166   3
  -9   1  -7 1954.98 509.969   3
  -9   1  -6 4789.64 757.384   3
  -9   2  -7 6314.93 863.631   3
  -9   2  -6 7446.43 951.393   3
  -9   3  -6 4360.15 741.890   3
  -8  -8  -6 188.718 215.951   2
  -8  -8  -5 159.324 199.257   2
  -8  -7  -6 4336.48 733.347   2
  -8  -7  -5 3812.27 659.957   2
  -8  -7  -4 7718.62 932.571   2
  -8  -7  -3 666.155 275.518   2
  -8  -7  -2 57.5011 177.664   2
  -8  -6  -8 691.541 354.111   1
  -8  -6  -6 2284.96 472.876   2
  -8  -6  -5 9740.02 988.673   2
  -8  -6  -4 11365.7 1094.45   2
  -8  -6  -3 428.826 296.792   2
  -8  -6  -2 2481.28 559.012   2
  -8  -6  -1 6380.60 883.730   2
  -8  -5  -9 322.537 320.540   1
  -8  -5  -8 1679.17 375.903   3
  -8  -5  -8 1577.89 452.386   1
  -8  -5  -7 7069.84 744.873   3
  -8  -5  -7 4781.39 747.918   1
  -8  -5  -6 1127.91 304.181   3
  -8  -5  -6 1029.58 289.376   2
  -8  -5  -5 5487.54 622.002   3
  -8  -5  -5 5539.38 695.070   2
  -8  -5  -4 519.528 187.410   3
  -8  -5  -4 321.789 209.859   2
  -8  -5  -3 609.116 262.324   2
  -8  -5  -2 1238.06 391.343   2
  -8  -5  -1 3463.82 631.019   2
  -8  -5   0 1691.10 486.004   2
  -8  -4  -9-117.306 205.536   1
  -8  -4  -8 3225.74 569.629   1
  -8  -4  -8 3086.94 554.642   3
  -8  -4  -7 6630.14 750.341   3
  -8  -4  -7 6976.99 787.968   1
  -8  -4  -6 4165.83 556.167   2
  -8  -4  -6 5091.29 637.895   3
  -8  -4  -5 2789.83 468.739   2
  -8  -4  -5 2641.90 451.062   3
  -8  -4  -4 189.301 154.892   3
  -8  -4  -4 22.5394 139.360   2
  -8  -4  -3 606.103 259.532   2
  -8  -4  -2 230.343 150.738   2
  -8  -4  -1 5080.77 720.559   2
  -8  -4   0 2996.39 595.767   2
  -8  -4   1 815.847 362.492   2
  -8  -3 -10 707.794 347.146   1
  -8  -3  -9-45.2663 189.363   1
  -8  -3  -9 392.297 289.653   3
  -8  -3  -8 3772.89 590.009   3
  -8  -3  -8 4868.30 670.752   1
  -8  -3  -7 5123.08 662.361   3
  -8  -3  -7 4130.58 585.440   1
  -8  -3  -6 7185.36 752.114   1
  -8  -3  -6 6773.00 659.293   2
  -8  -3  -6 7355.47 790.609   3
  -8  -3  -5 2644.01 473.432   3
  -8  -3  -5 3435.13 493.725   2
  -8  -3  -4 7761.52 775.057   2
  -8  -3  -3 4346.63 607.573   2
  -8  -3  -2 1909.54 402.746   2
  -8  -3  -1 1945.27 469.150   2
  -8  -3   0 44.5254 170.371   2
  -8  -3   1 1144.50 411.339   2
  -8  -2 -10 346.592 275.908   1
  -8  -2  -9 1752.67 477.365   3
  -8  -2  -9 1893.24 456.343   1
  -8  -2  -8 7798.38 826.111   1
  -8  -2  -8 8136.72 894.656   3
  -8  -2  -7 8004.14 769.927   1
  -8  -2  -7 7789.93 841.613   3
  -8  -2  -6 2694.30 394.883   2
  -8  -2  -6 2669.95 410.432   1
  -8  -2  -6 3100.64 523.917   3
  -8  -2  -5 50.0990 121.977   2
  -8  -2  -5 274.370 173.281   3
  -8  -2  -4 3132.33 473.574   2
  -8  -2  -3 4947.64 621.324   2
  -8  -2  -2 19956.6 1340.48   2
  -8  -2  -1 5388.46 717.485   2
  -8  -2   0 1331.83 376.471   2
  -8  -2   1 888.138 346.580   2
  -8  -1 -10 844.902 323.584   1
  -8  -1  -9 7072.56 877.784   3
  -8  -1  -9 7802.05 833.308   1
  -8  -1  -8 14872.0 1238.00   3
  -8  -1  -8 15169.8 1105.16   1
  -8  -1  -7 22084.2 1271.16   1
  -8  -1  -7 20219.2 1430.87   3
  -8  -1  -6 16538.7 1014.21   1
  -8  -1  -6 14903.6 1184.32   3
  -8  -1  -5 18147.8 1000.23   1
  -8  -1  -5 20055.9 1144.32   2
  -8  -1  -5 19332.5 1368.12   3
  -8  -1  -4 3694.49 507.009   2
  -8  -1  -3 5492.23 644.621   2
  -8   0 -10 449.886 245.426   1
  -8   0  -9 2199.25 446.108   1
  -8   0  -9 1594.59 455.900   3
  -8   0  -8 2567.93 525.049   3
  -8   0  -8 2721.61 456.655   1
  -8   0  -7 1140.27 297.190   1
  -8   0  -7 1224.23 396.327   3
  -8   0  -6 3317.23 579.900   3
  -8   0  -5 7312.93 835.035   3
  -8   0  -5 8532.62 719.676   2
  -8   1 -10 2151.71 454.375   1
  -8   1  -9 4044.47 576.042   1
  -8   1  -9 4778.18 746.140   3
  -8   1  -8 4470.04 689.341   3
  -8   1  -7 4869.02 707.142   3
  -8   1  -6 3501.93 586.285   3
  -8   2  -8 1656.40 433.464   3
  -8   2  -7 3548.01 635.709   3
  -8   2  -6 5497.56 769.368   3
  -8   3  -8 5431.21 799.367   3
  -8   3  -7 5649.89 815.449   3
  -8   3  -6 1516.30 409.989   3
  -8   4  -7 4745.96 779.022   3
  -8   4  -6 4800.83 751.941   3
  -8   4  -5 9474.59 1056.12   3
  -8   5  -6 3094.29 603.048   3
  -8   5  -5 5330.64 821.602   3
  -7  -9  -6 1203.32 433.069   2
  -7  -8  -7 444.997 292.454   2
  -7  -8  -6 401.760 165.334   2
  -7  -8  -5-118.024 250.585   2
  -7  -8  -4 312.523 256.865   2
  -7  -8  -3 591.750 270.994   2
  -7  -8  -2 361.270 272.942   2
  -7  -7  -7 6392.27 801.658   2
  -7  -7  -6 7932.00 914.602   2
  -7  -7  -5 4196.12 668.280   2
  -7  -7  -4 1997.15 473.194   2
  -7  -7  -3 25.8212 192.848   2
  -7  -7  -2 2174.10 510.521   2
  -7  -7  -1 1196.64 385.344   2
  -7  -7   0 973.232 400.344   2
  -7  -6  -8 387.155 304.014   1
  -7  -6  -7 4575.33 648.033   2
  -7  -6  -6 6672.89 776.501   2
  -7  -6  -5 9833.36 949.045   2
  -7  -6  -4 1317.24 360.368   2
  -7  -6  -3 2777.38 529.312   2
  -7  -6  -2 16811.7 1323.12   2
  -7  -6  -1 908.227 332.957   2
  -7  -6   0 1081.55 392.184   2
  -7  -6   1 1456.76 488.711   2
  -7  -5  -9 3335.94 646.556   1
  -7  -5  -8 4192.23 668.678   1
  -7  -5  -7 9541.31 826.818   3
  -7  -5  -7 9098.26 967.955   1
  -7  -5  -6 14183.9 1052.07   2
  -7  -5  -6 13139.6 935.823   3
  -7  -5  -5 8085.48 693.879   3
  -7  -5  -5 8452.40 803.197   2
  -7  -5  -4 2336.14 438.707   2
  -7  -5  -4 2009.53 326.451   3
  -7  -5  -3 13427.0 1080.00   2
  -7  -5  -3 12292.8 860.379   3
  -7  -5  -2 32306.3 1778.39   2
  -7  -5  -1 4897.19 724.226   2
  -7  -5   0 1761.21 504.210   2
  -7  -5   1 4072.32 690.965   2
  -7  -5   2 2150.19 512.765   2
  -7  -4 -10 971.946 403.840   1
  -7  -4  -9 915.122 350.506   1
  -7  -4  -8 2232.41 476.286   1
  -7  -4  -8 3169.42 524.402   3
  -7  -4  -7 2996.96 536.881   1
  -7  -4  -7 2924.50 486.359   3
  -7  -4  -6 25249.6 1382.66   3
  -7  -4  -6 27312.1 1396.36   2
  -7  -4  -5 4782.27 567.225   2
  -7  -4  -5 3841.66 498.413   3
  -7  -4  -4 3966.03 500.315   3
  -7  -4  -4 4150.37 545.441   2
  -7  -4  -3 11862.3 968.591   2
  -7  -4  -2 13127.5 1061.81   2
  -7  -4  -1 4817.79 668.743   2
  -7  -4   0 214.543 211.612   2
  -7  -4   1 2888.43 559.229   2
  -7  -4   2 126.955 197.550   2
  -7  -3 -10 521.448 318.527   1
  -7  -3  -9 3954.13 636.350   1
  -7  -3  -8 2176.12 445.270   1
  -7  -3  -8 2171.57 433.654   3
  -7  -3  -7 1141.87 334.876   1
  -7  -3  -7 1506.14 341.905   3
  -7  -3  -6 21494.1 1139.38   2
  -7  -3  -6 22061.6 1303.08   3
  -7  -3  -6 20349.8 1259.47   1
  -7  -3  -5 86.2359 117.449   2
  -7  -3  -5-46.7391 107.650   3
  -7  -3  -4 568.848 197.217   3
  -7  -3  -4 620.148 214.409   2
  -7  -3  -3 10822.9 877.830   2
  -7  -3  -2 15063.9 1084.04   2
  -7  -3  -1 792.984 305.832   2
  -7  -3   0 34.9600 131.085   2
  -7  -3   1-6.07238 166.921   2
  -7  -3   2 427.373 220.631   2
  -7  -3   3 6005.59 839.642   2
  -7  -2 -10-58.2226 241.419   1
  -7  -2  -9 9114.12 934.810   3
  -7  -2  -9 7546.36 843.791   1
  -7  -2  -8 3378.78 527.563   1
  -7  -2  -8 2301.75 469.385   3
  -7  -2  -7 8019.80 766.290   1
  -7  -2  -7 9393.96 877.995   3
  -7  -2  -6 8186.10 720.847   1
  -7  -2  -6 8431.03 631.366   2
  -7  -2  -6 6920.45 734.641   3
  -7  -2  -5 449.270 214.106   3
  -7  -2  -5 222.571 130.076   1
  -7  -2  -5 275.575 122.016   2
  -7  -2  -4 4819.79 533.654   2
  -7  -2  -3 11834.2 885.404   2
  -7  -2  -2 28207.4 1488.02   2
  -7  -2  -1 14228.8 1062.72   2
  -7  -2   0 2289.65 453.013   2
  -7  -2   1 982.139 325.416   2
  -7  -2   2 435.173 246.885   2
  -7  -2   3 9416.92 1048.06   2
  -7  -1 -10 2618.11 535.936   1
  -7  -1  -9 13508.0 1180.81   3
  -7  -1  -9 14740.4 1179.31   1
  -7  -1  -8 8611.74 820.147   1
  -7  -1  -8 9074.95 918.033   3
  -7  -1  -7 15298.9 1145.02   3
  -7  -1  -7 14435.2 1004.84   1
  -7  -1  -6 4370.54 420.809   2
  -7  -1  -6 3720.05 467.718   1
  -7  -1  -6 3000.05 485.513   3
  -7  -1  -5 11758.0 767.281   2
  -7  -1  -5 11410.4 762.824   1
  -7  -1  -5 11020.6 942.487   3
  -7  -1  -4 9431.60 719.994   2
  -7  -1  -4 8744.33 612.993   1
  -7   0 -10 2870.53 544.894   1
  -7   0  -9 9061.84 986.364   3
  -7   0  -9 8042.75 845.205   1
  -7   0  -8 17426.3 1302.75   3
  -7   0  -8 14307.4 1062.41   1
  -7   0  -7 8859.74 882.573   3
  -7   0  -7 11582.8 859.130   1
  -7   0  -6 4072.54 467.827   1
  -7   0  -6 4646.39 624.627   3
  -7   0  -6 4997.49 435.732   2
  -7   0  -5 38722.9 1921.13   3
  -7   0  -5 41841.8 1534.29   1
  -7   0  -5 42009.5 1590.08   2
  -7   0  -4 47957.2 1556.95   1
  -7   0  -3 51429.1 1491.17   1
  -7   1 -10 2927.37 617.731   3
  -7   1 -10 3584.62 617.700   1
  -7   1  -9 4310.76 598.500   1
  -7   1  -9 2287.73 506.372   3
  -7   1  -8 6134.90 794.426   3
  -7   1  -8 6424.87 662.592   1
  -7   1  -7-152.796 193.183   3
  -7   1  -7 316.331 163.391   1
  -7   1  -6 367.004 149.796   1
  -7   1  -6 289.386 222.172   3
  -7   1  -5 117.667 75.9386   1
  -7   1  -5 138.194 128.839   3
  -7   2 -10 3604.63 583.474   1
  -7   2  -9 4827.68 743.324   3
  -7   2  -9 5572.39 688.470   1
  -7   2  -8 5822.86 775.301   3
  -7   2  -8 6429.46 678.684   1
  -7   2  -7 6262.46 613.371   1
  -7   2  -7 5636.99 748.118   3
  -7   2  -6 4904.23 667.295   3
  -7   2  -6 5065.78 488.683   1
  -7   2  -5 5102.83 701.783   3
  -7   3 -10 1239.49 338.047   1
  -7   3  -9 2112.57 494.012   3
  -7   3  -9 1701.45 406.877   1
  -7   3  -8 2132.72 387.616   1
  -7   3  -8 3600.43 616.787   3
  -7   3  -7 4451.00 692.864   3
  -7   3  -6 538.577 288.259   3
  -7   3  -5 1394.07 368.654   3
  -7   4  -8 4226.44 681.717   3
  -7   4  -7 10710.9 1070.19   3
  -7   4  -6 4697.60 693.489   3
  -7   4  -5 7936.12 896.167   3
  -7   5  -8 4337.82 700.758   3
  -7   5  -7 5499.55 782.300   3
  -7   5  -6 7346.86 883.828   3
  -7   5  -5 9623.24 1020.00   3
  -7   6  -7 2335.00 515.649   3
  -7   6  -6 6167.85 862.639   3
  -7   6  -5 3377.81 588.214   3
  -7   7  -6 3136.52 618.949   3
  -7   7  -5 385.083 169.468   3
  -7   7  -4 1141.60 375.981   3
  -6  -9  -7 1080.92 368.718   2
  -6  -9  -6 6641.39 892.320   2
  -6  -9  -5 2846.60 616.586   2
  -6  -9  -4 268.252 257.056   2
  -6  -9  -3 3197.10 683.199   2
  -6  -9  -2 2036.30 562.430   2
  -6  -8  -7 310.018 194.530   2
  -6  -8  -6 8830.05 977.410   2
  -6  -8  -5 799.356 341.154   2
  -6  -8  -4 156.622 184.288   2
  -6  -8  -3 4156.14 721.658   2
  -6  -8  -2 8429.62 1006.30   2
  -6  -8  -1 3985.60 681.757   2
  -6  -8   0 1224.43 421.830   2
  -6  -7  -8 211.320 244.172   1
  -6  -7  -7 897.183 280.813   2
  -6  -7  -6 5699.21 738.893   2
  -6  -7  -5 177.436 239.559   2
  -6  -7  -4 35.8946 183.609   2
  -6  -7  -3 261.042 182.419   2
  -6  -7  -2 1289.13 373.779   2
  -6  -7  -1 2012.71 460.640   2
  -6  -7   0 2967.21 613.159   2
  -6  -7   1 906.584 390.624   2
  -6  -7   2-140.504 243.008   2
  -6  -6  -9 4608.62 757.284   1
  -6  -6  -8 1082.84 391.701   1
  -6  -6  -7 6374.80 693.373   2
  -6  -6  -6 9498.17 903.175   2
  -6  -6  -5 16700.0 1201.20   2
  -6  -6  -4 8264.28 836.543   2
  -6  -6  -3 7100.82 776.236   2
  -6  -6  -2 14039.1 1128.56   2
  -6  -6  -1 3252.33 564.578   2
  -6  -6   0 1810.72 441.646   2
  -6  -6   1 804.628 326.184   2
  -6  -6   2 1283.22 393.153   2
  -6  -6   3 3746.80 692.833   2
  -6  -5  -9 4372.99 703.228   1
  -6  -5  -8 3790.81 628.449   1
  -6  -5  -7 4688.83 553.854   2
  -6  -5  -7 4954.91 699.929   1
  -6  -5  -6 2424.09 422.741   2
  -6  -5  -6 2116.62 353.236   3
  -6  -5  -5 5594.05 632.642   2
  -6  -5  -5 5893.94 542.698   3
  -6  -5  -4 324.452 176.077   2
  -6  -5  -4 270.002 133.674   3
  -6  -5  -3 13234.7 775.783   3
  -6  -5  -3 13369.5 1011.46   2
  -6  -5  -2 15194.8 1116.14   2
  -6  -5  -1 29915.1 1656.54   2
  -6  -5   0 7045.80 794.558   2
  -6  -5   1-54.4650 195.943   2
  -6  -5   2 975.774 351.853   2
  -6  -5   3 2843.06 606.672   2
  -6  -4 -10 3908.29 680.407   1
  -6  -4  -9 5948.38 792.856   1
  -6  -4  -8 15783.8 1212.74   1
  -6  -4  -7 9169.38 904.047   1
  -6  -4  -7 10437.0 850.517   3
  -6  -4  -7 11211.7 786.910   2
  -6  -4  -6 15081.6 967.683   2
  -6  -4  -6 15792.8 999.344   3
  -6  -4  -5 9627.47 733.916   3
  -6  -4  -5 9381.17 741.518   2
  -6  -4  -4 23234.9 1166.78   3
  -6  -4  -4 26281.4 1336.44   2
  -6  -4  -3 16278.6 1058.14   2
  -6  -4  -3 16726.7 947.811   3
  -6  -4  -2 2007.10 405.016   2
  -6  -4  -1 19529.6 1256.75   2
  -6  -4   0 10809.0 951.138   2
  -6  -4   1 2793.01 501.015   2
  -6  -4   2 1889.03 450.484   2
  -6  -4   3 8002.53 929.805   2
  -6  -4   4 3591.50 668.260   2
  -6  -3 -10 469.164 260.735   1
  -6  -3  -9 1529.56 404.261   1
  -6  -3  -8 10380.6 941.829   1
  -6  -3  -7 5155.07 639.442   1
  -6  -3  -7 6006.86 649.210   3
  -6  -3  -6 120.337 111.635   1
  -6  -3  -6 25.7790 88.3061   2
  -6  -3  -6 218.950 153.225   3
  -6  -3  -5 668.748 209.199   3
  -6  -3  -5 400.810 148.141   2
  -6  -3  -4 53483.1 1957.77   2
  -6  -3  -4 54243.9 2001.74   3
  -6  -3  -3 28681.4 1386.00   2
  -6  -3  -2 604.323 204.326   2
  -6  -3  -1 8769.21 776.458   2
  -6  -3   0 1814.73 359.685   2
  -6  -3   1 421.147 217.780   2
  -6  -3   2 1112.96 337.143   2
  -6  -3   3 12125.3 1098.64   2
  -6  -3   4 872.082 347.496   2
  -6  -2 -10-10.5201 218.770   1
  -6  -2  -9 1428.16 380.717   1
  -6  -2  -8 7384.16 785.521   1
  -6  -2  -8 7822.47 804.873   3
  -6  -2  -7 20583.7 1264.70   3
  -6  -2  -7 19059.1 1193.04   1
  -6  -2  -6 2290.39 286.934   2
  -6  -2  -6 1910.31 348.592   1
  -6  -2  -6 2580.57 417.087   3
  -6  -2  -5 1657.66 270.585   2
  -6  -2  -5 1483.47 288.352   1
  -6  -2  -5 1198.37 297.332   3
  -6  -2  -4 62904.1 2270.07   3
  -6  -2  -4 63675.9 2108.43   2
  -6  -2  -3 6594.44 588.165   2
  -6  -2  -2 3991.48 479.260   2
  -6  -2  -1 2709.52 417.653   2
  -6  -2   0 12400.2 955.693   2
  -6  -2   1 196.314 185.621   2
  -6  -2   2 1955.45 431.937   2
  -6  -2   3 1902.37 433.951   2
  -6  -2   4 112.832 206.640   2
  -6  -2   5 1064.88 400.141   2
  -6  -1 -10 3975.10 655.073   1
  -6  -1  -9 3937.46 582.654   1
  -6  -1  -8 13750.3 1042.56   1
  -6  -1  -8 14368.5 1122.06   3
  -6  -1  -7 25025.9 1351.70   1
  -6  -1  -7 24063.5 1420.37   3
  -6  -1  -6 7327.10 471.484   2
  -6  -1  -6 7064.43 644.380   1
  -6  -1  -6 7150.95 709.857   3
  -6  -1  -5 13459.9 945.025   3
  -6  -1  -5 12239.0 783.199   1
  -6  -1  -5 12281.3 699.402   2
  -6  -1  -4 58089.4 1899.24   1
  -6  -1  -4 59090.8 1928.02   2
  -6  -1  -1 2525.92 278.361   1
  -6   0 -10 3837.69 631.678   1
  -6   0  -9 1168.20 307.169   1
  -6   0  -8 32581.7 1642.27   1
  -6   0  -8 29991.1 1716.47   3
  -6   0  -7 17326.9 1069.16   1
  -6   0  -7 16831.3 1179.02   3
  -6   0  -6 730.856 125.946   2
  -6   0  -6 290.092 146.280   1
  -6   0  -6 387.548 177.532   3
  -6   0  -5 26103.5 1411.37   3
  -6   0  -5 24989.3 1126.14   1
  -6   0  -5 24280.2 1008.60   2
  -6   0  -4 50302.0 1621.67   1
  -6   0  -3 55564.6 1601.63   1
  -6   0  -2 6524.00 373.138   1
  -6   0  -1 142.437 60.9406   1
  -6   1 -10 6730.19 820.077   1
  -6   1  -9 879.530 319.531   3
  -6   1  -9 911.679 272.184   1
  -6   1  -8 13551.7 1003.47   1
  -6   1  -8 12559.2 1075.54   3
  -6   1  -7 2003.35 349.983   1
  -6   1  -7 2084.96 425.246   3
  -6   1  -6 16578.6 949.226   1
  -6   1  -6 15947.0 1135.10   3
  -6   1  -6 17437.8 707.537   2
  -6   1  -5 24372.6 1062.55   1
  -6   1  -5 22293.8 1356.77   3
  -6   1  -4 30436.5 1096.84   1
  -6   1  -3 57462.6 1512.31   1
  -6   2 -10 4136.12 649.719   1
  -6   2  -9 5714.36 773.060   3
  -6   2  -9 6660.32 775.944   1
  -6   2  -8 1829.05 443.089   3
  -6   2  -8 1809.38 363.277   1
  -6   2  -7 403.721 228.976   3
  -6   2  -7 398.218 186.142   1
  -6   2  -6 13495.4 1058.32   3
  -6   2  -6 13235.8 835.220   1
  -6   2  -5 5136.98 448.929   1
  -6   2  -5 5426.00 641.526   3
  -6   2  -4 3785.34 323.884   1
  -6   2  -3 112.149 46.1815   1
  -6   3 -10 1895.59 468.574   1
  -6   3  -9 5130.80 681.622   1
  -6   3  -9 3706.45 643.459   3
  -6   3  -8 116.039 188.948   3
  -6   3  -8 166.262 171.270   1
  -6   3  -7 3230.13 429.608   1
  -6   3  -7 2963.81 521.190   3
  -6   3  -6 15595.0 929.756   1
  -6   3  -6 13781.2 1100.24   3
  -6   3  -5 20441.6 971.015   1
  -6   3  -5 18448.8 1264.27   3
  -6   3  -4 6780.55 452.958   1
  -6   4  -9 3010.79 565.152   1
  -6   4  -9 2062.54 487.423   3
  -6   4  -8-110.373 152.879   1
  -6   4  -8-202.418 216.082   3
  -6   4  -7 1426.52 329.079   1
  -6   4  -7 1992.92 459.398   3
  -6   4  -6 10425.8 976.458   3
  -6   4  -6 10502.3 789.619   1
  -6   4  -5 18592.3 1291.86   3
  -6   5  -9 3219.09 613.970   3
  -6   5  -9 4510.51 683.832   1
  -6   5  -8 2141.29 441.539   1
  -6   5  -8 3214.07 596.540   3
  -6   5  -7 897.770 292.261   3
  -6   5  -6 14854.8 1190.34   3
  -6   5  -5 27550.1 1658.97   3
  -6   6  -8 2567.34 532.809   3
  -6   6  -7 1744.29 457.585   3
  -6   6  -6 14563.3 1204.11   3
  -6   6  -5 12158.0 1082.84   3
  -6   6  -4 3756.07 585.713   3
  -6   7  -7-18.9857 197.122   3
  -6   7  -6 3535.92 611.494   3
  -6   7  -5 4286.31 669.804   3
  -6   7  -4 1745.87 436.527   3
  -6   8  -3 932.534 359.143   3
  -5  -9  -7 928.399 264.871   2
  -5  -9  -6 2437.23 506.786   2
  -5  -9  -5 4557.27 720.931   2
  -5  -9  -4 4672.50 756.333   2
  -5  -9  -3 3718.71 746.424   2
  -5  -9  -2 3141.36 655.813   2
  -5  -9  -1 980.451 372.053   2
  -5  -9   0 2142.34 526.008   2
  -5  -8  -7 1989.69 456.593   2
  -5  -8  -6 2655.26 521.184   2
  -5  -8  -5 2458.03 510.610   2
  -5  -8  -4 6584.87 852.114   2
  -5  -8  -3 5499.37 766.393   2
  -5  -8  -2 1681.61 474.145   2
  -5  -8  -1 5602.60 800.096   2
  -5  -8   0 4795.69 731.576   2
  -5  -8   1 632.863 313.742   2
  -5  -8   2-285.584 262.435   2
  -5  -7  -8 2389.35 546.200   1
  -5  -7  -7 3140.62 521.979   2
  -5  -7  -6 408.698 241.595   2
  -5  -7  -5 836.952 299.382   2
  -5  -7  -4 8314.05 888.363   2
  -5  -7  -3 1287.67 365.296   2
  -5  -7  -2 218.345 203.680   2
  -5  -7  -1 5787.52 736.095   2
  -5  -7   0 13102.9 1141.84   2
  -5  -7   1 2263.08 499.984   2
  -5  -7   2 1116.75 389.008   2
  -5  -7   3 1696.44 482.174   2
  -5  -6  -9 382.447 273.538   1
  -5  -6  -8 4787.64 722.029   1
  -5  -6  -7 11747.6 936.021   2
  -5  -6  -6 12.2740 167.936   2
  -5  -6  -5 2475.74 455.294   2
  -5  -6  -4 8606.72 824.513   2
  -5  -6  -3 2425.98 441.920   2
  -5  -6  -3 3372.96 287.853   3
  -5  -6  -2 44.1722 161.686   2
  -5  -6  -1 583.118 234.710   2
  -5  -6   0-114.170 191.262   2
  -5  -6   1-173.928 198.775   2
  -5  -6   2 1147.64 369.352   2
  -5  -6   3 1534.85 423.736   2
  -5  -6   4 202.622 250.327   2
  -5  -5  -9 289.263 218.207   1
  -5  -5  -8 9499.26 976.401   1
  -5  -5  -7 9934.10 778.318   2
  -5  -5  -7 10583.1 990.131   1
  -5  -5  -6 1918.80 342.433   2
  -5  -5  -5 11310.3 873.164   2
  -5  -5  -4 21677.3 1235.18   2
  -5  -5  -4 20575.1 940.415   3
  -5  -5  -3 27042.9 1410.24   2
  -5  -5  -3 27867.9 1069.62   3
  -5  -5  -2 30496.6 1534.77   2
  -5  -5  -2 29959.2 1115.10   3
  -5  -5  -1 24017.6 1382.83   2
  -5  -5   0 10409.6 902.566   2
  -5  -5   1 3856.34 560.686   2
  -5  -5   2 3685.82 584.726   2
  -5  -5   3-16.1025 198.411   2
  -5  -5   4 1429.45 436.384   2
  -5  -5   5 1106.37 367.811   2
  -5  -4 -10 4539.44 731.880   1
  -5  -4  -9 3186.22 569.722   1
  -5  -4  -8 15732.0 1206.53   1
  -5  -4  -7 6896.11 572.208   2
  -5  -4  -7 8125.63 806.178   1
  -5  -4  -6 6711.87 602.646   2
  -5  -4  -5 7906.60 657.929   2
  -5  -4  -5 7511.33 596.138   3
  -5  -4  -4 10917.5 692.147   3
  -5  -4  -4 11512.7 799.712   2
  -5  -4  -3 26952.8 1325.46   2
  -5  -4  -3 28491.7 1150.08   3
  -5  -4  -2 5023.68 543.197   2
  -5  -4  -1 3186.86 459.684   2
  -5  -4   0 1197.47 311.686   2
  -5  -4   1 40085.2 1881.11   2
  -5  -4   2 14780.8 1122.96   2
  -5  -4   3 1296.01 377.852   2
  -5  -4   4 750.941 321.146   2
  -5  -4   5 851.409 305.713   2
  -5  -4   6 352.996 272.063   2
  -5  -3 -10 908.903 345.119   1
  -5  -3  -9 4675.05 679.045   1
  -5  -3  -8 12646.5 1048.58   1
  -5  -3  -7 10950.3 628.577   2
  -5  -3  -7 11599.5 946.788   1
  -5  -3  -6 22028.4 1036.68   2
  -5  -3  -6 22068.9 1261.97   1
  -5  -3  -6 23351.5 1213.89   3
  -5  -3  -5 6924.32 595.316   3
  -5  -3  -5 6485.56 525.987   2
  -5  -3  -4 48076.4 1713.18   2
  -5  -3  -4 47070.9 1707.70   3
  -5  -3  -3 83075.5 2451.24   3
  -5  -3  -3 80134.1 2493.87   2
  -5  -3  -2 88755.5 2740.78   2
  -5  -3  -1 631.812 203.959   2
  -5  -3   0 322.551 169.282   2
  -5  -3   1 26358.0 1405.62   2
  -5  -3   2 11167.7 932.999   2
  -5  -3   3 5294.20 654.633   2
  -5  -3   4 2762.67 515.101   2
  -5  -3   5 2150.68 459.663   2
  -5  -3   6-307.837 304.676   2
  -5  -2 -10 693.924 290.530   1
  -5  -2  -9 4933.20 672.181   1
  -5  -2  -8 85.4742 185.643   1
  -5  -2  -7 3270.94 487.031   1
  -5  -2  -7 4619.55 567.068   3
  -5  -2  -6 7313.93 475.286   2
  -5  -2  -6 7477.96 390.394   4
  -5  -2  -6 7853.73 693.198   3
  -5  -2  -6 8584.82 715.677   1
  -5  -2  -5 4833.62 510.736   3
  -5  -2  -5 5419.72 534.819   1
  -5  -2  -5 5534.95 430.114   2
  -5  -2  -5 4972.78 360.075   4
  -5  -2  -4 1345.12 237.080   2
  -5  -2  -4 1041.85 229.849   3
  -5  -2  -3 12088.1 728.711   2
  -5  -2  -2 41943.4 1584.17   2
  -5  -2  -1 185.486 116.472   2
  -5  -2   0 4161.96 493.318   2
  -5  -2   1 14430.4 990.228   2
  -5  -2   2 5782.71 655.119   2
  -5  -2   3 285.041 163.182   2
  -5  -2   4-40.7882 155.792   2
  -5  -2   5 2002.70 480.457   2
  -5  -2   6 559.291 298.003   2
  -5  -1 -10 5435.95 744.928   1
  -5  -1  -9 10348.5 951.838   1
  -5  -1  -8 302.867 195.585   1
  -5  -1  -7 588.358 247.893   3
  -5  -1  -7 235.112 143.517   1
  -5  -1  -6 4346.33 243.248   4
  -5  -1  -6 4574.57 514.237   1
  -5  -1  -6 4428.78 289.548   2
  -5  -1  -5 40779.8 1258.11   2
  -5  -1  -5 39908.6 1661.54   3
  -5  -1  -5 37338.6 1169.45   4
  -5  -1  -5 38957.1 1514.95   1
  -5  -1  -4 3940.09 355.671   2
  -5  -1  -4 3567.14 377.893   1
  -5  -1  -4 3423.12 419.704   3
  -5  -1  -3 16371.5 826.766   2
  -5  -1   0 2330.71 257.763   1
  -5  -1   6 533.667 351.245   2
  -5   0 -10 7083.40 844.590   1
  -5   0  -9 12485.5 1051.24   1
  -5   0  -8 9093.14 838.553   1
  -5   0  -8 9382.87 879.351   3
  -5   0  -7 298.858 149.841   3
  -5   0  -7 148.557 158.118   1
  -5   0  -6 31164.9 1381.01   1
  -5   0  -6 28032.0 741.046   2
  -5   0  -6 31697.5 1510.15   3
  -5   0  -5 78964.3 2611.80   3
  -5   0  -5 76117.2 1985.63   4
  -5   0  -5 78622.8 1988.50   2
  -5   0  -5 76817.2 2350.77   1
  -5   0  -4 1101.69 199.720   1
  -5   0  -4 1194.10 186.324   4
  -5   0  -4 931.840 238.890   3
  -5   0  -3 31274.2 1072.17   1
  -5   0  -1 19302.4 660.444   1
  -5   0   0 140.290 56.0623   1
  -5   0   1 18260.9 731.914   1
  -5   1 -10 4118.83 647.435   1
  -5   1  -9 10523.3 955.247   1
  -5   1  -8 1818.27 403.163   3
  -5   1  -8 1522.71 326.309   1
  -5   1  -7 2106.26 395.580   3
  -5   1  -7 2003.22 364.566   1
  -5   1  -6 69545.9 1565.38   2
  -5   1  -6 73678.3 2588.76   3
  -5   1  -6 76736.9 2387.13   1
  -5   1  -5 96269.8 2674.12   1
  -5   1  -5 91436.6 2989.13   3
  -5   1  -5 92402.6 2397.91   4
  -5   1  -4 28486.5 1063.65   1
  -5   1  -4 25970.2 1345.95   3
  -5   1  -3 8806.93 454.450   1
  -5   1  -2 25420.8 713.366   1
  -5   1   1 20023.7 638.313   1
  -5   2 -10 6281.84 819.139   1
  -5   2  -9 24323.1 1521.86   1
  -5   2  -8 981.475 310.597   3
  -5   2  -8 476.352 227.932   1
  -5   2  -7 160.563 141.371   3
  -5   2  -7 42.2722 152.004   1
  -5   2  -6 35189.8 1708.45   3
  -5   2  -6 38058.4 1550.52   1
  -5   2  -5 34786.3 1658.29   3
  -5   2  -5 37407.4 1253.60   2
  -5   2  -5 37350.1 1411.84   1
  -5   2  -4 35951.4 1236.00   1
  -5   2  -4 33077.6 1582.38   3
  -5   2  -3 6161.38 358.309   1
  -5   3 -10 1118.30 382.436   1
  -5   3  -9 6057.37 756.532   1
  -5   3  -8 142.930 172.290   3
  -5   3  -8 9.60688 122.078   1
  -5   3  -7 8559.31 758.781   1
  -5   3  -7 8092.80 819.733   3
  -5   3  -6 11950.7 951.572   3
  -5   3  -6 13475.6 879.802   1
  -5   3  -5 14911.9 833.666   1
  -5   3  -5 11981.1 936.666   3
  -5   3  -4 9100.94 566.421   1
  -5   3  -4 8418.63 762.773   3
  -5   3  -3 1377.42 174.667   1
  -5   4  -9-79.7317 178.451   1
  -5   4  -8-86.3053 136.764   3
  -5   4  -8-86.6640 166.324   1
  -5   4  -7 8877.07 811.397   1
  -5   4  -7 8950.44 880.083   3
  -5   4  -6 4309.62 509.490   1
  -5   4  -6 4193.00 574.832   3
  -5   4  -5 11617.0 932.141   3
  -5   4  -5 13244.3 836.067   1
  -5   4  -4 12334.2 709.791   1
  -5   4  -4 12538.7 969.971   3
  -5   5  -9-88.9135 154.950   1
  -5   5  -8 4820.44 690.665   3
  -5   5  -8 5711.05 731.185   1
  -5   5  -7 11915.4 988.001   1
  -5   5  -7 10974.8 1009.52   3
  -5   5  -6 4185.10 533.547   1
  -5   5  -6 3974.66 575.358   3
  -5   5  -5 3538.80 433.574   1
  -5   5  -5 4083.47 573.385   3
  -5   5  -4 18671.1 1221.58   3
  -5   6  -8 6686.73 829.099   3
  -5   6  -8 7087.68 847.143   1
  -5   6  -7 14875.7 1148.36   1
  -5   6  -7 13700.4 1136.42   3
  -5   6  -6 9643.77 912.358   3
  -5   6  -5 2268.55 460.084   3
  -5   6  -4 17532.7 1218.15   3
  -5   7  -7 10374.9 1007.08   3
  -5   7  -6 7760.83 848.970   3
  -5   7  -5 4424.70 624.763   3
  -5   7  -4 10700.0 954.121   3
  -4 -10  -6 1461.05 414.573   4
  -4 -10  -5 79.9036 180.405   2
  -4 -10  -4 258.932 258.709   2
  -4 -10  -3 40.6220 187.718   2
  -4 -10  -2 260.149 292.149   2
  -4 -10  -1-262.054 322.216   2
  -4  -9  -6 6504.32 855.082   2
  -4  -9  -5 5771.53 810.148   2
  -4  -9  -4 6230.23 827.853   2
  -4  -9  -3 7210.00 906.580   2
  -4  -9  -2 4480.03 748.111   2
  -4  -9  -1 675.609 306.036   2
  -4  -9   0 4276.72 749.735   2
  -4  -9   1 2535.41 555.187   2
  -4  -9   2 1196.75 425.530   2
  -4  -8  -8 117.327 204.871   1
  -4  -8  -7 4159.99 601.797   4
  -4  -8  -6 5858.66 765.499   2
  -4  -8  -5 4626.27 675.369   2
  -4  -8  -4 3285.69 570.086   2
  -4  -8  -3 8609.51 941.946   2
  -4  -8  -2 3789.27 642.689   2
  -4  -8  -1 4229.76 672.955   2
  -4  -8   0 15669.8 1310.46   2
  -4  -8   1 2748.53 557.543   2
  -4  -8   2 1022.19 374.585   2
  -4  -8   3 1022.65 370.069   2
  -4  -8   4 1642.96 496.771   2
  -4  -7  -8 270.194 264.705   1
  -4  -7  -7 4109.52 546.289   4
  -4  -7  -6 5785.28 712.339   2
  -4  -7  -5 4255.97 598.606   2
  -4  -7  -4 7063.47 782.645   2
  -4  -7  -3 11915.5 1050.18   2
  -4  -7  -2 1018.68 302.373   2
  -4  -7  -1 10348.4 973.873   2
  -4  -7   0 11890.1 1043.22   2
  -4  -7   1 4632.55 646.931   2
  -4  -7   2 1534.92 391.168   2
  -4  -7   3 942.209 332.104   2
  -4  -7   4 320.851 192.372   2
  -4  -7   5 254.894 230.471   2
  -4  -6  -9 638.786 333.221   1
  -4  -6  -8 2551.35 520.325   1
  -4  -6  -7 6139.35 790.190   1
  -4  -6  -7 5886.00 589.160   4
  -4  -6  -6 4491.01 562.538   2
  -4  -6  -5 1581.80 333.562   2
  -4  -6  -4 3931.60 554.543   2
  -4  -6  -3 1693.60 362.377   2
  -4  -6  -2 5148.22 614.393   2
  -4  -6  -1 8109.41 781.691   2
  -4  -6   0 2476.60 442.856   2
  -4  -6   1 1401.92 359.545   2
  -4  -6   2 6388.18 752.623   2
  -4  -6   3 5183.60 702.287   2
  -4  -6   4 1515.55 394.885   2
  -4  -6   5 1274.08 396.653   2
  -4  -6   6 234.105 224.890   2
  -4  -5 -10 597.670 279.487   1
  -4  -5  -9-121.560 223.171   1
  -4  -5  -8 1712.70 419.845   1
  -4  -5  -7 2133.00 426.199   1
  -4  -5  -7 2669.64 350.965   4
  -4  -5  -6 7968.66 683.287   2
  -4  -5  -5 11646.2 847.597   2
  -4  -5  -4 4501.28 531.297   2
  -4  -5  -3 2762.15 262.676   3
  -4  -5  -3 3694.78 474.352   2
  -4  -5  -2 14237.2 957.744   2
  -4  -5  -2 15059.9 597.848   3
  -4  -5  -1 15053.9 1009.09   2
  -4  -5   0 448.534 204.203   2
  -4  -5   1 94.5272 126.739   2
  -4  -5   2 66.0680 114.839   2
  -4  -5   3-56.0850 159.242   2
  -4  -5   4 406.800 244.442   2
  -4  -5   5 1670.44 427.402   2
  -4  -5   6 392.397 218.159   2
  -4  -4 -10 3997.55 668.580   1
  -4  -4  -9 8821.56 962.422   1
  -4  -4  -8 7208.71 799.775   1
  -4  -4  -7 1663.93 229.866   4
  -4  -4  -7 1666.91 378.465   1
  -4  -4  -6 13320.5 806.469   2
  -4  -4  -6 13503.3 997.957   1
  -4  -4  -5 22556.5 1125.05   2
  -4  -4  -4 12314.6 806.667   2
  -4  -4  -4 13809.9 726.662   3
  -4  -4  -3 22532.6 1121.17   2
  -4  -4  -3 23588.3 920.065   3
  -4  -4  -2 61034.5 2110.40   2
  -4  -4  -2 60552.4 1715.27   3
  -4  -4  -1 28257.3 1323.25   2
  -4  -4   0 18339.4 1091.47   2
  -4  -4   1 45841.3 1920.92   2
  -4  -4   2 23213.9 1332.21   2
  -4  -4   3 6973.35 731.102   2
  -4  -4   4 3796.79 576.532   2
  -4  -4   5 937.941 305.798   2
  -4  -4   6-117.387 180.819   2
  -4  -3 -10 1784.94 475.470   1
  -4  -3  -9 12020.5 1076.65   1
  -4  -3  -8 7482.18 821.505   1
  -4  -3  -7 10472.2 884.317   1
  -4  -3  -6 37664.3 1690.94   1
  -4  -3  -6 36119.1 1305.95   2
  -4  -3  -5 29838.5 1201.81   2
  -4  -3  -5 29628.8 1267.37   3
  -4  -3  -4 13009.1 730.823   2
  -4  -3  -4 12199.5 711.964   3
  -4  -3  -3 38637.1 1330.67   3
  -4  -3  -3 38260.6 1428.15   2
  -4  -3  -2 43283.9 1576.64   2
  -4  -3  -1 8114.67 624.195   2
  -4  -3   0 3235.41 404.905   2
  -4  -3   1 6743.64 621.174   2
  -4  -3   2 5985.74 624.129   2
  -4  -3   3 13773.6 1003.91   2
  -4  -3   4 10446.6 917.331   2
  -4  -3   5 3096.22 519.524   2
  -4  -3   6 326.610 219.407   2
  -4  -3   7 1576.11 445.326   2
  -4  -2 -10 2413.07 513.495   1
  -4  -2  -9 7339.71 836.574   1
  -4  -2  -8 441.692 211.949   1
  -4  -2  -7 4998.15 599.353   1
  -4  -2  -6 21496.0 782.759   2
  -4  -2  -6 20967.8 640.212   4
  -4  -2  -6 21653.6 659.181   4
  -4  -2  -6 23994.8 1197.06   3
  -4  -2  -6 21870.3 1193.36   1
  -4  -2  -5 42960.3 1665.77   1
  -4  -2  -5 42275.2 1182.41   4
  -4  -2  -5 40941.7 1325.90   2
  -4  -2  -5 41248.9 1596.53   3
  -4  -2  -4 46915.9 1382.22   4
  -4  -2  -4 47645.0 1645.92   3
  -4  -2  -4 47815.9 1478.50   2
  -4  -2  -3 27237.8 1076.82   2
  -4  -2  -3 26710.2 1001.82   4
  -4  -2  -3 28514.1 1137.96   3
  -4  -2  -2 49677.7 1632.91   2
  -4  -2  -1 60631.3 1940.45   2
  -4  -2   0 143844. 3799.45   2
  -4  -2   1 21210.3 1115.16   2
  -4  -2   2 3985.42 487.570   2
  -4  -2   3 8411.94 762.275   2
  -4  -2   4 4060.49 563.456   2
  -4  -2   5 1644.43 384.912   2
  -4  -2   6 2583.02 500.460   2
  -4  -2   7 2393.05 512.662   2
  -4  -1 -10 5402.93 745.382   1
  -4  -1  -9 4804.25 654.860   1
  -4  -1  -8 1353.19 345.234   1
  -4  -1  -7 1355.12 307.095   1
  -4  -1  -6 222.597 142.991   3
  -4  -1  -6 44.4601 91.9833   1
  -4  -1  -5 15221.4 567.613   2
  -4  -1  -5 14154.3 480.790   4
  -4  -1  -5 15314.4 901.351   3
  -4  -1  -5 15399.3 865.770   1
  -4  -1  -4 39074.6 1412.48   1
  -4  -1  -4 39807.8 1196.61   2
  -4  -1  -4 38847.6 1127.64   4
  -4  -1  -4 38578.6 1484.62   3
  -4  -1  -3 10503.8 554.925   2
  -4  -1  -3 10363.8 527.056   4
  -4  -1   0 35912.0 1169.90   1
  -4  -1   1 2349.71 267.997   1
  -4  -1   7 819.147 339.166   2
  -4   0 -10 4106.39 655.524   1
  -4   0  -9 1486.15 402.076   1
  -4   0  -8 8332.82 802.480   1
  -4   0  -7 12564.7 914.038   1
  -4   0  -6 2305.37 365.708   3
  -4   0  -6 2526.45 359.287   1
  -4   0  -5 10367.3 348.010   2
  -4   0  -5 9491.16 712.761   3
  -4   0  -5 10714.3 690.827   1
  -4   0  -4 35210.8 1035.86   4
  -4   0  -4 34828.6 1020.67   2
  -4   0  -4 33466.7 1249.92   1
  -4   0  -4 33307.3 1382.13   3
  -4   0  -3 13885.8 625.720   4
  -4   0  -3 14145.6 646.562   1
  -4   0  -2 5801.27 342.435   1
  -4   0   0 26773.6 809.153   1
  -4   0   1 405.514 94.3662   1
  -4   0   2 3094.68 304.703   1
  -4   1 -10 3904.33 648.559   1
  -4   1  -9 83.2164 144.295   1
  -4   1  -8 10276.9 877.644   1
  -4   1  -7 16784.8 1068.78   1
  -4   1  -7 16487.3 1107.93   3
  -4   1  -6 35795.2 1510.90   1
  -4   1  -6 34711.3 1589.21   3
  -4   1  -5 38576.8 993.700   2
  -4   1  -5 40812.6 977.494   2
  -4   1  -5 41237.6 1503.83   1
  -4   1  -5 38146.2 1625.19   3
  -4   1  -4 125926. 2930.43   4
  -4   1  -4 122110. 3109.71   1
  -4   1  -4 116306. 3397.48   3
  -4   1  -3 11179.3 584.110   4
  -4   1  -3 11364.5 540.552   1
  -4   1  -2 514.022 82.2233   1
  -4   1   1 28908.3 833.256   1
  -4   1   2 1920.39 216.176   1
  -4   2 -10 1425.47 442.564   1
  -4   2  -9 1030.32 318.110   1
  -4   2  -8 2408.40 432.600   1
  -4   2  -7 16593.6 1132.87   3
  -4   2  -7 17810.8 1111.58   1
  -4   2  -6 7461.54 635.623   1
  -4   2  -6 7049.54 687.102   3
  -4   2  -5 7567.98 662.793   3
  -4   2  -5 6941.87 382.192   2
  -4   2  -5 6921.99 553.231   1
  -4   2  -4 87223.0 2389.66   1
  -4   2  -4 84937.7 2702.12   3
  -4   2  -4 87627.9 2281.71   2
  -4   2  -3 24406.7 880.038   1
  -4   2  -2 43825.8 1132.63   1
  -4   3 -10 1314.61 410.965   1
  -4   3  -9 465.719 229.518   1
  -4   3  -8 4655.49 605.015   1
  -4   3  -7 59266.2 2276.24   1
  -4   3  -7 53480.0 2259.35   3
  -4   3  -6 19839.9 1119.82   1
  -4   3  -6 19328.4 1185.33   3
  -4   3  -5 10251.7 798.228   3
  -4   3  -5 9958.99 563.248   2
  -4   3  -5 9685.22 687.133   1
  -4   3  -4 8779.72 575.636   1
  -4   3  -4 7597.04 666.466   3
  -4   3  -3 11853.3 605.881   1
  -4   4  -9 2659.63 531.278   1
  -4   4  -8-249.175 221.015   1
  -4   4  -7 12414.3 989.378   1
  -4   4  -7 10936.7 934.902   3
  -4   4  -6 4439.99 561.429   3
  -4   4  -6 4834.72 558.851   1
  -4   4  -5 8678.43 694.075   1
  -4   4  -5 9218.64 772.449   3
  -4   4  -4 1557.75 275.239   1
  -4   4  -4 1198.93 264.623   3
  -4   5  -9-112.932 249.083   1
  -4   5  -8 8744.54 941.032   1
  -4   5  -7 7720.00 791.610   1
  -4   5  -7 5776.04 689.765   3
  -4   5  -6 4364.07 572.618   3
  -4   5  -6 6090.89 651.928   1
  -4   5  -5 2181.03 354.713   1
  -4   5  -5 1433.05 302.442   3
  -4   5  -4 261.412 142.364   3
  -4   6  -8 7988.04 921.711   1
  -4   6  -7 4868.89 645.885   3
  -4   6  -7 6483.93 748.136   1
  -4   6  -6 14123.1 1060.88   1
  -4   6  -6 11638.4 961.915   3
  -4   6  -5 5440.07 623.271   3
  -4   6  -4 2059.14 369.583   3
  -4   6  -3 3291.06 481.718   3
  -4   7  -6 7707.18 786.607   3
  -4   7  -5 10075.2 869.910   3
  -4   7  -4 2551.50 427.130   3
  -4   7  -3 3741.53 526.109   3
  -3 -10  -6 578.191 302.255   4
  -3 -10  -5 1119.50 396.554   4
  -3 -10  -5 700.163 341.498   2
  -3 -10  -4 5567.35 843.049   2
  -3 -10  -3 17.2047 203.193   2
  -3 -10  -2 371.991 274.535   2
  -3 -10  -1 4490.07 762.111   2
  -3 -10   0 5567.99 864.019   2
  -3 -10   1 3700.58 740.067   2
  -3  -9  -7 2295.38 473.473   4
  -3  -9  -6 1780.72 435.815   4
  -3  -9  -5 3024.29 579.448   2
  -3  -9  -4 2487.89 532.245   2
  -3  -9  -3-656.519 290.723   2
  -3  -9  -2 888.450 353.406   2
  -3  -9  -1 154.421 209.657   2
  -3  -9   0 1263.12 431.655   2
  -3  -9   1 53.0315 200.276   2
  -3  -9   2-71.5582 309.960   2
  -3  -9   3 73.2786 230.876   2
  -3  -9   4 503.465 323.549   2
  -3  -8  -8 234.873 262.003   1
  -3  -8  -7 5850.32 701.261   4
  -3  -8  -7 6812.03 875.755   1
  -3  -8  -6 5017.77 659.426   4
  -3  -8  -5 15290.0 1226.96   2
  -3  -8  -4 5461.02 724.535   2
  -3  -8  -3 7696.22 854.193   2
  -3  -8  -2 11018.4 1043.82   2
  -3  -8  -1 19314.9 1450.92   2
  -3  -8   0 14473.6 1242.76   2
  -3  -8   1 6369.43 819.519   2
  -3  -8   2 2181.54 490.207   2
  -3  -8   3-299.510 300.212   2
  -3  -8   4 4370.89 728.926   2
  -3  -8   5 3747.17 709.910   2
  -3  -7  -9-305.894 263.239   1
  -3  -7  -8 2612.95 526.386   1
  -3  -7  -7 3367.44 604.675   1
  -3  -7  -7 3409.58 500.153   4
  -3  -7  -6 5723.57 649.045   4
  -3  -7  -5 6929.15 770.812   2
  -3  -7  -4 5358.68 663.367   2
  -3  -7  -3 11792.3 1002.83   2
  -3  -7  -2 8488.89 866.623   2
  -3  -7  -1 19170.8 1320.76   2
  -3  -7   0 7900.28 828.307   2
  -3  -7   1 8337.37 868.083   2
  -3  -7   2 5635.60 737.768   2
  -3  -7   3 889.374 302.327   2
  -3  -7   4 3785.22 617.244   2
  -3  -7   5 2088.27 496.504   2
  -3  -6  -9-170.425 165.707   1
  -3  -6  -8 6227.96 801.517   1
  -3  -6  -7 5474.26 568.790   4
  -3  -6  -7 5377.22 693.413   1
  -3  -6  -6 6538.01 630.282   4
  -3  -6  -5 1212.21 293.090   2
  -3  -6  -4 2287.72 397.487   2
  -3  -6  -3 3591.67 511.808   2
  -3  -6  -2 27961.3 1492.82   2
  -3  -6  -1 39567.3 1816.85   2
  -3  -6   0 1225.18 299.754   2
  -3  -6   1 5560.80 636.750   2
  -3  -6   2 3199.86 503.833   2
  -3  -6   3 5561.07 687.390   2
  -3  -6   4 4229.42 629.643   2
  -3  -6   5 3113.45 576.456   2
  -3  -6   6-41.6015 183.845   2
  -3  -5 -10 30.8949 177.387   1
  -3  -5  -9 237.885 168.265   1
  -3  -5  -8 4391.27 649.970   1
  -3  -5  -7 4183.27 602.715   1
  -3  -5  -7 5542.67 504.799   4
  -3  -5  -6 10065.8 897.441   1
  -3  -5  -6 10633.8 736.310   4
  -3  -5  -5 18088.7 1058.16   2
  -3  -5  -4 8329.27 691.594   2
  -3  -5  -3 531.239 175.211   2
  -3  -5  -2 32273.3 1487.14   2
  -3  -5  -1 13197.6 895.047   2
  -3  -5   0 1109.58 278.111   2
  -3  -5   1 1952.76 368.776   2
  -3  -5   2 2980.37 458.201   2
  -3  -5   3 2958.69 462.928   2
  -3  -5   4 2392.32 438.221   2
  -3  -5   5 8184.28 847.627   2
  -3  -5   6 585.374 325.105   2
  -3  -4 -10-222.351 213.195   1
  -3  -4  -9 3182.67 567.637   1
  -3  -4  -8 4259.61 617.455   1
  -3  -4  -7 672.663 151.392   4
  -3  -4  -7 728.126 262.219   1
  -3  -4  -6 243.547 167.685   1
  -3  -4  -6 408.085 140.039   4
  -3  -4  -5 10643.5 710.929   2
  -3  -4  -4 4718.46 473.544   2
  -3  -4  -3 19365.7 1008.82   2
  -3  -4  -2 75761.9 2389.46   2
  -3  -4  -2 79883.9 1922.40   3
  -3  -4  -1 9053.31 671.107   2
  -3  -4   0 1170.60 250.752   2
  -3  -4   1 5093.22 524.454   2
  -3  -4   2 17761.2 1066.75   2
  -3  -4   3 325.352 157.434   2
  -3  -4   4 304.431 164.725   2
  -3  -4   5-527.370 237.319   2
  -3  -4   6 207.125 195.213   2
  -3  -3 -10 1051.85 368.589   1
  -3  -3  -9 8050.81 902.206   1
  -3  -3  -8 20260.6 1333.09   1
  -3  -3  -7 23299.1 828.084   4
  -3  -3  -7 22613.8 1328.29   1
  -3  -3  -6 26673.2 1356.26   1
  -3  -3  -6 26606.6 936.778   4
  -3  -3  -5 32473.3 1208.60   2
  -3  -3  -5 32488.4 1457.28   1
  -3  -3  -4 3430.98 361.755   2
  -3  -3  -3 70452.5 2102.13   2
  -3  -3  -3 73724.2 1969.80   3
  -3  -3  -2 102521. 2754.00   2
  -3  -3  -2 100956. 2455.35   3
  -3  -3  -1 49365.8 1662.25   2
  -3  -3   0 23702.3 1084.82   2
  -3  -3   1 29765.7 1304.90   2
  -3  -3   2 30908.2 1384.49   2
  -3  -3   3 33428.5 1512.32   2
  -3  -3   4 32025.1 1543.23   2
  -3  -3   5 3151.88 490.491   2
  -3  -3   6 880.737 291.604   2
  -3  -3   7 1024.93 333.469   2
  -3  -2 -10 848.459 297.476   1
  -3  -2  -9 1597.76 392.478   1
  -3  -2  -8 2392.56 445.154   1
  -3  -2  -7 7468.23 719.708   1
  -3  -2  -6 32807.5 878.798   4
  -3  -2  -6 33378.9 1501.47   1
  -3  -2  -5 35776.0 1458.62   1
  -3  -2  -5 34602.1 1100.21   2
  -3  -2  -4 76413.2 2064.99   2
  -3  -2  -4 80853.8 2264.75   3
  -3  -2  -3 110260. 2773.68   2
  -3  -2  -3 115612. 2848.82   3
  -3  -2  -2 32241.0 1130.16   2
  -3  -2  -1 38558.1 1279.57   4
  -3  -2  -1 39427.0 1330.23   2
  -3  -2   0 54909.7 1738.76   2
  -3  -2   1 21059.6 1002.00   2
  -3  -2   2 3887.99 431.655   2
  -3  -2   3 7733.25 651.746   2
  -3  -2   4 6608.75 639.639   2
  -3  -2   5 405.811 221.439   2
  -3  -2   6 5136.20 638.605   2
  -3  -2   7 3721.93 592.465   2
  -3  -1 -10 4090.78 662.834   1
  -3  -1  -9 3661.62 588.301   1
  -3  -1  -8 4900.78 627.838   1
  -3  -1  -7 8862.72 766.434   1
  -3  -1  -6 2629.52 385.372   1
  -3  -1  -5 1668.97 288.177   3
  -3  -1  -5 1966.40 304.236   1
  -3  -1  -4 65959.4 2004.49   1
  -3  -1  -4 66028.7 1629.27   2
  -3  -1  -4 66884.1 1517.76   4
  -3  -1  -4 67105.7 2038.91   3
  -3  -1  -3 86912.2 2037.10   4
  -3  -1  -3 86653.3 2098.96   2
  -3  -1  -3 84533.4 2336.20   3
  -3  -1  -2 39441.2 1205.19   2
  -3  -1  -2 40738.1 1182.32   4
  -3  -1  -1 43775.8 1334.94   4
  -3  -1   0 76394.3 1948.72   1
  -3  -1   1 59648.2 1683.60   1
  -3  -1   7 1963.10 419.870   2
  -3   0 -10 1419.36 414.978   1
  -3   0  -9 14.0222 141.419   1
  -3   0  -8 4956.78 619.098   1
  -3   0  -7 14096.9 972.446   1
  -3   0  -6 6499.77 596.508   1
  -3   0  -5 2555.58 346.424   3
  -3   0  -5 2616.17 336.180   1
  -3   0  -4 3632.91 163.018   4
  -3   0  -4 3621.49 353.621   1
  -3   0  -4 3583.50 373.543   3
  -3   0  -3 3511.12 219.726   4
  -3   0  -3 3322.38 293.566   1
  -3   0  -3 3412.43 340.535   3
  -3   0  -2 4745.57 297.291   1
  -3   0  -2 4703.38 306.957   4
  -3   0  -1 59042.6 1649.34   4
  -3   0   0 442.013 75.1633   1
  -3   0   1 717.606 114.750   1
  -3   0   2 1854.49 222.191   1
  -3   1 -10 854.016 328.027   1
  -3   1  -9 780.949 277.341   1
  -3   1  -8 3689.10 538.485   1
  -3   1  -7 6104.36 626.001   1
  -3   1  -6 18865.1 1042.74   1
  -3   1  -6 16824.5 1026.59   3
  -3   1  -5 44136.7 1593.81   1
  -3   1  -5 41633.7 1647.18   3
  -3   1  -4 19988.9 570.682   2
  -3   1  -4 19476.1 876.207   1
  -3   1  -4 18822.2 954.482   3
  -3   1  -3 1611.44 172.381   4
  -3   1  -3 1525.11 196.109   1
  -3   1  -3 1289.77 229.338   3
  -3   1  -2 13076.3 589.365   4
  -3   1  -2 12537.8 486.222   1
  -3   1  -1 20467.6 844.187   4
  -3   1   1 43776.2 1124.29   1
  -3   1   2 13164.4 587.749   1
  -3   2 -10 1054.40 338.371   1
  -3   2  -9 5222.52 722.394   1
  -3   2  -8 6231.19 716.374   1
  -3   2  -7 5210.72 596.684   1
  -3   2  -6 22768.2 1195.17   1
  -3   2  -6 22181.4 1216.50   3
  -3   2  -5 48068.1 1696.14   1
  -3   2  -5 43811.3 1094.14   2
  -3   2  -5 46184.2 1748.40   3
  -3   2  -4 35793.1 1071.54   2
  -3   2  -4 37139.4 1327.48   1
  -3   2  -4 34219.2 1402.55   3
  -3   2  -3 78009.6 2053.45   2
  -3   2  -3 80949.1 2107.40   1
  -3   2  -3 75063.5 2315.31   3
  -3   2  -2 265210. 5696.27   1
  -3   2  -2 270691. 5989.69   4
  -3   3  -9 6175.86 794.735   1
  -3   3  -8 5450.85 677.885   1
  -3   3  -7 9814.94 857.518   1
  -3   3  -6 23761.3 1272.40   1
  -3   3  -6 21807.9 1226.58   3
  -3   3  -5 17787.5 711.981   2
  -3   3  -5 18154.2 1042.14   3
  -3   3  -4 2015.78 282.667   1
  -3   3  -4 2167.72 327.920   3
  -3   3  -4 2040.71 244.259   2
  -3   3  -3 7079.11 496.732   2
  -3   3  -3 7103.24 485.370   1
  -3   3  -3 7097.57 571.301   3
  -3   3  -2 94075.5 2342.38   1
  -3   4  -9 3591.74 636.860   1
  -3   4  -8 3098.01 550.089   1
  -3   4  -7 5870.58 685.778   1
  -3   4  -6 28137.8 1455.83   1
  -3   4  -6 25115.0 1349.02   3
  -3   4  -5 43609.0 1753.76   1
  -3   4  -5 39803.0 1690.25   3
  -3   4  -4 9526.07 681.747   1
  -3   4  -4 9006.62 693.540   3
  -3   4  -3 60565.6 1888.80   1
  -3   4  -3 57440.3 1992.89   3
  -3   5  -9 1487.44 409.832   1
  -3   5  -8 2009.44 448.540   1
  -3   5  -7-62.9890 199.844   1
  -3   5  -6 487.464 222.009   3
  -3   5  -6 434.042 181.656   1
  -3   5  -5 1370.39 293.847   3
  -3   5  -5 1491.13 311.159   1
  -3   5  -4 552.643 177.789   1
  -3   5  -4 633.200 192.356   3
  -3   5  -3 17608.9 989.002   3
  -3   6  -8 7711.71 920.338   1
  -3   6  -7 5595.51 724.047   1
  -3   6  -6 9753.49 908.108   1
  -3   6  -5 2634.26 417.742   3
  -3   6  -4 5381.00 553.600   3
  -3   6  -3 4770.42 508.627   3
  -3   7  -5 4537.14 544.875   3
  -3   7  -4 19038.6 1099.61   3
  -3   7  -3 15076.4 948.351   3
  -3   7  -2 13443.8 895.730   3
  -2 -10  -5 905.063 368.788   4
  -2 -10  -4 1049.78 368.898   4
  -2 -10  -3-37.0276 188.766   2
  -2 -10  -2 6972.45 928.913   2
  -2 -10  -1 2848.91 621.150   2
  -2 -10   0 1029.82 358.844   2
  -2 -10   1 1841.48 534.605   2
  -2 -10   2 573.914 358.195   2
  -2 -10   3 289.683 238.135   2
  -2  -9  -7 2728.30 570.511   1
  -2  -9  -7 2083.26 448.269   4
  -2  -9  -6 3243.63 569.869   4
  -2  -9  -5 3615.98 634.178   4
  -2  -9  -4-18.7889 221.119   2
  -2  -9  -3 156.077 212.661   2
  -2  -9  -2 12746.0 1162.23   2
  -2  -9  -1 2259.96 506.932   2
  -2  -9   0 1185.64 375.322   2
  -2  -9   1 1437.67 433.340   2
  -2  -9   2 4084.77 711.405   2
  -2  -9   3 556.942 343.471   2
  -2  -9   4 4676.38 779.381   2
  -2  -9   5 4304.25 767.784   2
  -2  -8  -8-314.042 291.400   1
  -2  -8  -7 662.527 298.297   1
  -2  -8  -7 1252.76 308.985   4
  -2  -8  -6 7755.53 822.416   4
  -2  -8  -5 14324.1 1142.41   4
  -2  -8  -4 643.095 241.390   2
  -2  -8  -3 4051.40 604.905   2
  -2  -8  -2 16389.8 1234.40   2
  -2  -8  -1 4406.27 632.765   2
  -2  -8   0 1565.90 401.962   2
  -2  -8   1 294.572 183.498   2
  -2  -8   2 125.218 164.257   2
  -2  -8   3 287.077 268.000   2
  -2  -8   4 3735.61 653.908   2
  -2  -8   5 28.9209 184.586   2
  -2  -7  -9 1520.43 428.893   1
  -2  -7  -8 2865.54 579.213   1
  -2  -7  -7 1413.18 329.860   4
  -2  -7  -7 511.169 282.104   1
  -2  -7  -6 12684.6 981.411   4
  -2  -7  -5 7189.83 751.031   4
  -2  -7  -4 288.343 238.994   2
  -2  -7  -3 31924.4 1677.82   2
  -2  -7  -2 29190.6 1590.74   2
  -2  -7  -1 29361.1 1630.66   2
  -2  -7   0 11336.8 987.415   2
  -2  -7   1 14551.2 1120.35   2
  -2  -7   2 5902.03 726.004   2
  -2  -7   3 17026.4 1272.53   2
  -2  -7   4 16022.2 1247.67   2
  -2  -7   5 202.543 204.743   2
  -2  -6  -9 2562.87 547.093   1
  -2  -6  -8 4190.09 653.276   1
  -2  -6  -7 4248.82 623.543   1
  -2  -6  -7 4762.09 539.641   4
  -2  -6  -6 18807.6 1291.75   1
  -2  -6  -6 18558.7 1109.39   4
  -2  -6  -5 339.959 188.825   4
  -2  -6  -4 4849.53 570.160   2
  -2  -6  -3 20591.1 1202.29   2
  -2  -6  -2 33083.2 1605.42   2
  -2  -6  -1 47002.5 2005.02   2
  -2  -6   0 13670.8 999.903   2
  -2  -6   1 3228.00 478.696   2
  -2  -6   2 200.966 141.043   2
  -2  -6   3 46080.5 2011.31   2
  -2  -6   4 11174.7 948.143   2
  -2  -6   5 173.530 182.951   2
  -2  -6   6 213.817 179.731   2
  -2  -5  -9 2838.71 554.723   1
  -2  -5  -8 1049.43 335.209   1
  -2  -5  -7 6754.49 587.726   4
  -2  -5  -7 5352.16 664.616   1
  -2  -5  -6 7074.89 722.919   1
  -2  -5  -6 6069.79 552.997   4
  -2  -5  -5 1568.63 289.037   4
  -2  -5  -4 23236.5 1205.78   2
  -2  -5  -3 3322.95 428.819   2
  -2  -5  -2 10980.9 813.133   2
  -2  -5  -1 7903.40 675.149   2
  -2  -5   0 30367.5 1413.19   2
  -2  -5   1 416.982 184.728   2
  -2  -5   1 256.013 60.8038   3
  -2  -5   2 4311.35 507.497   2
  -2  -5   2 4760.37 343.024   3
  -2  -5   3 45675.5 1909.08   2
  -2  -5   4 3979.24 533.053   2
  -2  -5   5 42.0695 141.630   2
  -2  -5   6 1002.36 281.512   2
  -2  -4 -10 70.6900 197.507   1
  -2  -4  -9 2493.47 529.868   1
  -2  -4  -8 2008.85 420.108   1
  -2  -4  -7 7194.35 538.542   4
  -2  -4  -7 6291.37 698.285   1
  -2  -4  -6 506.068 186.740   1
  -2  -4  -6 785.561 189.197   4
  -2  -4  -5 4877.88 541.097   1
  -2  -4  -5 5172.88 448.263   4
  -2  -4  -4 32342.4 1334.58   2
  -2  -4  -3 84296.5 2503.80   2
  -2  -4  -2 39503.5 1525.33   2
  -2  -4  -1 534.095 153.283   2
  -2  -4   0 9078.22 655.286   2
  -2  -4   1 8231.25 643.643   2
  -2  -4   2 16071.0 935.584   2
  -2  -4   3 26192.3 1274.29   2
  -2  -4   4 4721.66 533.582   2
  -2  -4   5 471.347 201.204   2
  -2  -4   6 129.836 187.298   2
  -2  -3 -10 2451.30 528.779   1
  -2  -3  -9 3802.99 608.586   1
  -2  -3  -8 9300.39 884.790   1
  -2  -3  -7 11158.9 594.214   4
  -2  -3  -7 10002.3 868.531   1
  -2  -3  -6 1148.29 187.246   4
  -2  -3  -6 958.179 271.709   1
  -2  -3  -5 189.925 86.3022   4
  -2  -3  -5 68.1394 120.167   1
  -2  -3  -4 865.819 175.433   2
  -2  -3  -3 59717.9 1825.50   2
  -2  -3  -2 1022.25 194.973   2
  -2  -3  -1 41376.6 1375.02   2
  -2  -3  -1 38110.1 963.845   3
  -2  -3   0 46061.7 1538.05   2
  -2  -3   1 7156.94 536.675   2
  -2  -3   2 15393.3 856.141   2
  -2  -3   3 16400.3 924.113   2
  -2  -3   4 25381.4 1247.91   2
  -2  -3   5-1.13068 104.136   2
  -2  -3   6-83.8060 214.914   2
  -2  -3   7-75.8551 148.706   2
  -2  -2 -10 2630.11 549.328   1
  -2  -2  -9 2454.98 497.524   1
  -2  -2  -8 11346.4 965.627   1
  -2  -2  -7 17268.9 658.488   4
  -2  -2  -7 17009.2 1106.83   1
  -2  -2  -6 43641.2 1219.66   4
  -2  -2  -6 43468.6 1774.98   1
  -2  -2  -5 47557.3 1276.63   4
  -2  -2  -5 44786.6 1697.51   1
  -2  -2  -4 213055. 4799.34   2
  -2  -2  -4 211395. 5150.76   1
  -2  -2  -4 220267. 4697.04   4
  -2  -2  -3 268529. 5874.32   2
  -2  -2  -2 1765.65 204.191   2
  -2  -2  -2 1906.56 180.234   3
  -2  -2  -1 8393.29 471.241   2
  -2  -2   0 92834.5 2409.54   2
  -2  -2   1 173926. 4036.96   1
  -2  -2   1 163188. 4021.07   2
  -2  -2   2 17648.4 855.707   2
  -2  -2   3 35210.7 1380.16   2
  -2  -2   4 16448.6 931.590   2
  -2  -2   5 7857.84 669.335   2
  -2  -2   6 11931.4 883.803   2
  -2  -2   7 4070.71 538.127   2
  -2  -1 -10 2604.19 566.140   1
  -2  -1  -9 1839.14 394.065   1
  -2  -1  -8 2501.65 452.586   1
  -2  -1  -7 4702.84 561.684   1
  -2  -1  -6 1620.88 126.986   4
  -2  -1  -6 2023.57 342.160   1
  -2  -1  -5 596.257 193.767   1
  -2  -1  -5 557.681 63.0524   4
  -2  -1  -4 169755. 3569.99   4
  -2  -1  -4 184812. 4230.42   1
  -2  -1  -3 246086. 5558.69   1
  -2  -1  -3 246040. 5238.84   2
  -2  -1  -3 255890. 5553.43   3
  -2  -1  -2 44936.9 1172.34   2
  -2  -1  -2 43826.4 1267.00   3
  -2  -1  -1 33052.8 986.637   2
  -2  -1  -1 33773.7 971.397   4
  -2  -1   0 90623.4 2239.27   4
  -2  -1   1 123575. 2899.97   1
  -2  -1   1 121041. 2978.83   4
  -2  -1   2 40498.3 1317.54   1
  -2  -1   7 2134.16 396.376   2
  -2   0 -10 2560.86 527.617   1
  -2   0  -9 2231.83 481.680   1
  -2   0  -8 5481.66 649.682   1
  -2   0  -7 24202.4 1322.22   1
  -2   0  -6 7187.72 627.528   1
  -2   0  -5 8585.51 627.599   1
  -2   0  -4 47205.7 1543.74   1
  -2   0  -4 45130.6 1545.10   3
  -2   0  -3 4091.73 326.425   1
  -2   0  -3 3698.51 323.635   3
  -2   0  -2 17768.3 519.595   4
  -2   0  -2 18120.0 717.245   3
  -2   0  -2 17455.7 628.158   1
  -2   0  -1 5952.91 307.010   4
  -2   0   0 145748. 3113.83   1
  -2   0   0 150425. 3367.92   4
  -2   0   1 30420.4 879.037   1
  -2   0   1 29697.4 1028.92   4
  -2   0   2 70442.0 1876.36   1
  -2   1 -10 1070.60 348.221   1
  -2   1  -9 617.281 265.072   1
  -2   1  -8 1048.78 290.885   1
  -2   1  -7 2224.65 380.963   1
  -2   1  -6 1025.53 243.843   1
  -2   1  -5 41045.7 1553.09   1
  -2   1  -4 34218.6 1253.98   1
  -2   1  -4 32663.1 1269.29   3
  -2   1  -3 13878.9 422.758   2
  -2   1  -3 14033.1 643.327   1
  -2   1  -3 12761.8 665.641   3
  -2   1  -2 3155.84 217.427   4
  -2   1  -2 3214.60 294.889   3
  -2   1  -2 3172.34 233.227   1
  -2   1  -1 6673.76 250.908   1
  -2   1  -1 7751.95 393.889   4
  -2   1   0 1347.06 185.243   4
  -2   1   1 52274.0 1269.90   1
  -2   1   1 51688.5 1569.86   4
  -2   1   2 68741.1 1790.97   1
  -2   2 -10 51.2638 205.599   1
  -2   2  -9 2086.67 453.168   1
  -2   2  -8 6423.33 738.098   1
  -2   2  -7 3127.37 483.640   1
  -2   2  -6 7385.38 667.735   1
  -2   2  -5 19628.2 1038.67   1
  -2   2  -4 19561.2 933.016   1
  -2   2  -4 20307.1 652.225   2
  -2   2  -4 18603.9 925.584   3
  -2   2  -3 32716.2 997.345   2
  -2   2  -3 29884.8 1169.84   3
  -2   2  -2 111217. 2659.08   2
  -2   2  -2 109634. 2629.74   1
  -2   2  -1 4176.80 333.819   4
  -2   2   0 7113.56 468.604   4
  -2   3  -9 4780.45 699.740   1
  -2   3  -8 5071.39 672.030   1
  -2   3  -7 8523.53 808.651   1
  -2   3  -6 29914.3 1479.99   1
  -2   3  -5 26492.3 919.837   2
  -2   3  -5 27766.3 1303.73   1
  -2   3  -4 7835.98 458.811   2
  -2   3  -4 7411.98 570.575   3
  -2   3  -3 48986.7 1533.73   2
  -2   3  -3 48019.0 1621.96   3
  -2   3  -2 132253. 3184.72   1
  -2   3  -2 129082. 3271.40   2
  -2   4  -9 2594.54 542.529   1
  -2   4  -8 2644.66 500.396   1
  -2   4  -7 7662.12 801.711   1
  -2   4  -6 18340.8 1182.95   1
  -2   4  -5 14572.4 980.757   1
  -2   4  -4 23738.0 1169.52   1
  -2   4  -4 21606.8 1049.63   3
  -2   4  -3 24474.7 1088.41   1
  -2   4  -3 21543.3 991.556   3
  -2   5  -8 451.096 280.410   1
  -2   5  -7 5100.99 741.588   1
  -2   5  -6 4219.17 572.516   1
  -2   5  -5 2755.24 449.013   1
  -2   5  -4 26962.7 1323.86   1
  -2   5  -4 23989.2 1136.59   3
  -2   5  -3 55461.0 1828.88   3
  -2   5  -2 41565.4 1486.01   3
  -2   6  -8 280.567 241.879   1
  -2   6  -7 2665.12 492.879   1
  -2   6  -6 178.687 196.516   1
  -2   6  -4 2158.88 324.922   3
  -2   6  -3 934.300 194.384   3
  -2   6  -2 197.112 106.526   3
  -2   7  -4 22404.1 1115.55   3
  -2   7  -3 10531.1 701.700   3
  -2   7  -2 6484.87 528.716   3
  -1 -10  -4 3841.70 677.049   4
  -1 -10  -3 2871.19 605.652   4
  -1 -10  -2 7566.28 951.237   2
  -1 -10  -1 6699.53 910.177   2
  -1 -10   0 5311.90 801.834   2
  -1 -10   1 626.344 293.962   2
  -1 -10   2 362.225 310.194   2
  -1 -10   3 5007.66 802.782   2
  -1 -10   4 1966.64 502.841   2
  -1  -9  -7 1690.39 440.218   1
  -1  -9  -7 1057.79 351.426   4
  -1  -9  -6-748.315 317.119   1
  -1  -9  -6 298.732 205.179   4
  -1  -9  -5 198.788 159.190   4
  -1  -9  -4-53.8806 138.547   4
  -1  -9  -3-94.6741 169.148   4
  -1  -9  -2 3499.25 611.271   2
  -1  -9  -1 6091.56 799.101   2
  -1  -9   0 8628.70 955.676   2
  -1  -9   1 355.435 269.103   2
  -1  -9   2 902.598 349.663   2
  -1  -9   3 3280.54 594.574   2
  -1  -9   4 2454.59 534.846   2
  -1  -9   5-184.780 304.930   2
  -1  -8  -8 802.589 341.986   1
  -1  -8  -7 3311.04 582.377   1
  -1  -8  -7 3576.19 568.139   4
  -1  -8  -6 1986.09 438.560   4
  -1  -8  -6 1334.86 355.823   1
  -1  -8  -5 4458.95 642.868   4
  -1  -8  -4 3222.78 536.966   4
  -1  -8  -3 9523.72 937.580   2
  -1  -8  -2 845.941 281.125   2
  -1  -8  -1 3200.14 540.747   2
  -1  -8   0 6138.07 730.923   2
  -1  -8   1-53.2649 151.037   2
  -1  -8   2 676.470 260.833   2
  -1  -8   3 4841.08 698.337   2
  -1  -8   4 10637.7 1059.13   2
  -1  -8   5 1064.16 365.515   2
  -1  -7  -8 2302.41 523.918   1
  -1  -7  -7 1717.60 386.899   4
  -1  -7  -7 1648.78 416.129   1
  -1  -7  -6 1030.82 326.500   4
  -1  -7  -6 843.434 311.674   1
  -1  -7  -5 381.288 235.737   4
  -1  -7  -4 7927.20 768.048   4
  -1  -7  -3 43394.1 2001.70   2
  -1  -7  -2 4962.45 626.861   2
  -1  -7  -1 13531.2 1025.32   2
  -1  -7   0 6105.17 681.421   2
  -1  -7   1 3692.89 546.822   2
  -1  -7   2 1046.78 296.980   2
  -1  -7   3 12960.2 1070.98   2
  -1  -7   4 4028.88 600.280   2
  -1  -7   5 330.888 225.954   2
  -1  -6  -9 328.695 249.494   1
  -1  -6  -8 8471.83 912.037   1
  -1  -6  -7 15755.5 1068.61   4
  -1  -6  -7 14662.0 1153.08   1
  -1  -6  -6 8295.59 822.257   1
  -1  -6  -6 7594.66 721.611   4
  -1  -6  -5 1305.93 296.596   4
  -1  -6  -4 35137.4 1606.41   4
  -1  -6  -3 38156.3 1732.38   2
  -1  -6  -2 17937.6 1117.51   2
  -1  -6  -1 30801.3 1498.37   2
  -1  -6   0 33530.8 1612.47   2
  -1  -6   1 23359.4 1333.65   2
  -1  -6   2 9632.63 825.230   2
  -1  -6   3 50714.9 2106.70   2
  -1  -6   4 12082.5 958.396   2
  -1  -6   5 8157.66 803.245   2
  -1  -6   6 1844.39 386.782   2
  -1  -5  -9 1140.52 339.933   1
  -1  -5  -8 3359.11 564.433   1
  -1  -5  -7 18001.9 1047.08   4
  -1  -5  -7 14894.8 1130.25   1
  -1  -5  -6 23.6408 153.913   1
  -1  -5  -6 354.213 161.065   4
  -1  -5  -5 424.889 195.605   1
  -1  -5  -5 597.027 189.285   4
  -1  -5  -4 70261.0 2319.17   4
  -1  -5  -3 36368.1 1566.34   2
  -1  -5  -2 14744.8 917.738   2
  -1  -5  -1 1720.40 302.724   2
  -1  -5   0 33529.7 1493.99   2
  -1  -5   1 23690.1 1214.38   2
  -1  -5   2 60424.6 2185.85   2
  -1  -5   2 64479.4 1684.14   3
  -1  -5   3 26267.5 1303.89   2
  -1  -5   4 46.2286 120.824   2
  -1  -5   5 12272.8 907.183   2
  -1  -5   6 1483.64 342.629   2
  -1  -4 -10 156.469 188.736   1
  -1  -4  -9 801.784 326.023   1
  -1  -4  -8 1858.06 413.770   1
  -1  -4  -7 11599.9 954.733   1
  -1  -4  -7 13162.4 812.150   4
  -1  -4  -6 6561.55 541.287   4
  -1  -4  -6 5250.49 605.250   1
  -1  -4  -5 3608.44 459.331   1
  -1  -4  -5 3850.60 408.254   4
  -1  -4  -4 29602.5 1220.73   4
  -1  -4  -3 49382.6 1738.39   2
  -1  -4  -2 37542.3 1427.39   2
  -1  -4  -1 1436.10 263.639   2
  -1  -4   0 6147.57 526.974   2
  -1  -4   1 1494.13 247.154   2
  -1  -4   1 1736.03 140.207   3
  -1  -4   2 164300. 4271.72   2
  -1  -4   2 171597. 3835.58   3
  -1  -4   3 143.368 107.765   2
  -1  -4   4 222.115 124.699   2
  -1  -4   5 8381.43 702.991   2
  -1  -4   6 2417.24 383.251   2
  -1  -3 -10 1770.27 470.826   1
  -1  -3  -9 544.323 230.449   1
  -1  -3  -8 7982.41 815.155   1
  -1  -3  -7 1216.57 224.301   4
  -1  -3  -7 1023.56 280.298   1
  -1  -3  -6 169.053 133.143   1
  -1  -3  -6 199.818 99.1464   4
  -1  -3  -5 17419.7 806.182   4
  -1  -3  -5 14516.6 911.614   1
  -1  -3  -4 421.660 146.612   1
  -1  -3  -4 431.284 113.465   4
  -1  -3  -3 30396.3 1150.15   2
  -1  -3  -2 55083.7 1682.89   2
  -1  -3  -1 43975.5 1457.45   2
  -1  -3   0 4914.32 398.905   2
  -1  -3   1 115926. 3028.23   2
  -1  -3   1 121201. 2643.60   3
  -1  -3   2 172477. 4176.59   2
  -1  -3   3 18372.9 895.954   2
  -1  -3   4 253.970 129.560   2
  -1  -3   5 9449.34 703.912   2
  -1  -3   6 5668.76 572.324   2
  -1  -3   7 251.698 141.622   2
  -1  -2 -10 2206.84 527.351   1
  -1  -2  -9 2853.29 521.708   1
  -1  -2  -8 10392.2 924.978   1
  -1  -2  -7-21.2005 57.4802   4
  -1  -2  -7 317.631 190.711   1
  -1  -2  -6 23523.2 911.627   4
  -1  -2  -6 23096.1 1224.42   1
  -1  -2  -5 52303.9 1490.52   4
  -1  -2  -5 48099.1 1811.47   1
  -1  -2  -4 29283.6 953.953   4
  -1  -2  -4 25952.5 1125.25   1
  -1  -2  -3 20500.6 886.328   1
  -1  -2  -3 21326.5 755.642   4
  -1  -2  -2 649.595 123.559   2
  -1  -2  -1 12150.2 554.370   2
  -1  -2   0 261364. 5680.30   2
  -1  -2   1 632475. 12972.3   1
  -1  -2   1 611847. 12926.3   2
  -1  -2   2 159917. 3779.79   2
  -1  -2   3 333.931 123.458   2
  -1  -2   4 684.190 178.097   2
  -1  -2   5 13440.5 797.194   2
  -1  -2   6 12544.2 822.856   2
  -1  -2   7 3427.36 433.469   2
  -1  -1 -10 934.949 362.360   1
  -1  -1  -9 6554.28 789.253   1
  -1  -1  -8 3171.89 500.969   1
  -1  -1  -7 15.7122 157.484   1
  -1  -1  -7 554.119 125.633   4
  -1  -1  -6 37925.7 1159.49   4
  -1  -1  -6 35849.8 1572.18   1
  -1  -1  -5 60749.3 1553.46   4
  -1  -1  -5 57411.9 1984.42   1
  -1  -1  -4 148601. 3254.72   4
  -1  -1  -4 147873. 3715.66   1
  -1  -1  -3 140114. 3002.13   4
  -1  -1  -3 136207. 3333.92   1
  -1  -1  -2 979543. 20012.6   2
  -1  -1  -2 994150. 20206.5   1
  -1  -1  -1 70570.5 1636.54   2
  -1  -1  -1 69863.9 1587.43   3
  -1  -1   0 60180.8 1479.44   2
  -1  -1   1 286050. 6038.62   1
  -1  -1   1 284003. 6023.27   4
  -1  -1   1 280582. 6040.13   2
  -1  -1   2 155198. 3632.55   4
  -1  -1   2 163482. 3716.51   1
  -1  -1   3 42846.8 1345.16   4
  -1  -1   7 17598.3 1019.08   2
  -1   0 -10 891.783 393.921   1
  -1   0  -9 8134.83 881.663   1
  -1   0  -8-63.6097 149.263   1
  -1   0  -7 2534.54 412.457   1
  -1   0  -6 12573.8 860.080   1
  -1   0  -5 57624.8 1961.74   1
  -1   0  -4 84.9488 97.6556   1
  -1   0  -3 38972.0 1252.04   1
  -1   0  -2 33350.2 991.329   1
  -1   0  -2 33511.4 999.603   3
  -1   0   1 143662. 3233.41   4
  -1   0   1 147292. 3163.18   1
  -1   0   2 114029. 2738.55   4
  -1   0   2 117133. 2752.73   1
  -1   0   3 26810.7 976.583   4
  -1   1 -10 893.728 373.426   1
  -1   1  -9 3472.26 620.261   1
  -1   1  -8 1442.54 361.692   1
  -1   1  -7 686.881 210.481   1
  -1   1  -6 13260.1 900.732   1
  -1   1  -5 143813. 3832.44   1
  -1   1  -4 34849.9 1306.26   1
  -1   1  -3 245.700 100.379   1
  -1   1  -2 11577.5 501.318   1
  -1   1  -2 11691.0 371.284   2
  -1   1  -2 11128.1 501.353   3
  -1   1  -1 13258.9 450.540   2
  -1   1  -1 13415.9 442.431   1
  -1   1   0 115836. 2617.45   4
  -1   1   1 1084.02 147.664   4
  -1   1   2 104558. 2484.10   1
  -1   1   2 102796. 2566.25   4
  -1   1   3 3414.98 324.393   4
  -1   1   3 3675.24 331.884   1
  -1   2  -9 1581.68 455.725   1
  -1   2  -8 1444.01 368.599   1
  -1   2  -7 439.349 201.795   1
  -1   2  -6 4615.76 541.709   1
  -1   2  -5 29562.4 1342.95   1
  -1   2  -4 278.688 125.433   1
  -1   2  -3 2361.63 202.954   2
  -1   2  -3 2319.01 266.660   1
  -1   2  -3 1906.09 236.126   3
  -1   2  -2 1571.88 173.052   2
  -1   2  -2 1532.17 195.532   1
  -1   2  -2 1043.45 163.338   3
  -1   2  -1 223257. 4865.15   1
  -1   2  -1 228707. 4955.90   2
  -1   2   0 325.611 95.2213   2
  -1   2   1 11668.7 584.329   4
  -1   2   2 7795.28 497.109   4
  -1   3  -9 2464.69 534.671   1
  -1   3  -8 2442.33 492.050   1
  -1   3  -7 784.889 256.753   1
  -1   3  -6 34421.1 1646.05   1
  -1   3  -5 29305.5 1391.32   1
  -1   3  -4 16356.6 917.226   1
  -1   3  -4 15014.4 696.301   2
  -1   3  -3 254.031 95.1990   3
  -1   3  -3 234.325 92.1511   1
  -1   3  -3 337.735 109.624   2
  -1   3  -2 21671.7 881.231   2
  -1   3  -2 21014.2 815.602   3
  -1   3  -1 77192.2 2176.23   2
  -1   3   0 200560. 4699.92   2
  -1   4  -9 5586.34 833.905   1
  -1   4  -8 2065.71 476.668   1
  -1   4  -7 7613.12 824.404   1
  -1   4  -6 17566.3 1197.06   1
  -1   4  -5 20100.5 1195.97   1
  -1   4  -4 40209.8 1659.95   1
  -1   4  -3 48902.7 1724.05   1
  -1   4  -3 44069.3 1474.23   3
  -1   4  -2 15281.3 679.109   3
  -1   5  -8 821.638 329.602   1
  -1   5  -7 7803.63 869.537   1
  -1   5  -6 4773.95 646.485   1
  -1   5  -5 2723.57 436.805   1
  -1   5  -4 19698.0 1159.13   1
  -1   5  -3 34132.9 1235.09   3
  -1   5  -2 24791.0 940.058   3
  -1   6  -7 3167.07 590.169   1
  -1   6  -6 735.083 250.091   1
  -1   6  -3 8839.21 565.645   3
  -1   6  -2 2665.89 276.782   3
  -1   6  -1 38165.3 1262.98   3
  -1   7  -2 186.001 84.4843   3
  -1   7  -1 175.946 94.3744   3
   0 -10  -3 5356.08 782.176   4
   0 -10  -2 2946.18 594.457   4
   0 -10  -1 2359.55 500.987   4
   0 -10   0 3572.48 636.716   2
   0 -10   1 1322.61 384.362   2
   0 -10   2 2037.85 496.592   2
   0 -10   3 3320.65 629.343   2
   0 -10   4 1794.23 457.311   2
   0  -9  -6-2.08561 226.951   4
   0  -9  -5 411.909 236.767   4
   0  -9  -4 2099.87 471.419   4
   0  -9  -3 5694.65 761.646   4
   0  -9  -2 11342.8 1084.30   4
   0  -9  -1 9590.04 999.154   2
   0  -9   0 9947.17 1009.36   2
   0  -9   1 5416.89 747.363   2
   0  -9   2 8492.10 935.771   2
   0  -9   3 1792.22 440.684   2
   0  -9   4 1910.02 462.209   2
   0  -9   5 2417.71 513.115   2
   0  -8  -7 1418.10 386.308   4
   0  -8  -7 1314.84 377.498   1
   0  -8  -6 377.222 216.548   1
   0  -8  -6 415.682 216.317   4
   0  -8  -5 1014.71 329.395   4
   0  -8  -4-179.374 174.975   4
   0  -8  -3 1958.73 430.005   4
   0  -8  -2 815.576 262.244   4
   0  -8  -1-234.745 180.039   2
   0  -8   0 501.770 262.489   2
   0  -8   1 4234.87 630.434   2
   0  -8   2 11080.9 1002.62   2
   0  -8   3 507.906 204.956   2
   0  -8   4 1231.41 363.868   2
   0  -8   5 2407.83 487.998   2
   0  -7  -8 2431.05 524.800   1
   0  -7  -7 519.792 257.805   1
   0  -7  -7 772.663 250.491   4
   0  -7  -6 2113.62 444.026   1
   0  -7  -6 2718.44 479.234   4
   0  -7  -5 2999.96 493.825   4
   0  -7  -5 2998.46 477.745   1
   0  -7  -4 4615.72 597.699   4
   0  -7  -3 28795.7 1569.88   4
   0  -7  -2 40759.2 1885.33   4
   0  -7  -1 9162.80 846.509   2
   0  -7   0 1283.63 333.878   2
   0  -7   1 9709.44 850.963   2
   0  -7   2 11877.6 948.379   2
   0  -7   3 2211.83 400.324   2
   0  -7   4 1487.28 357.767   2
   0  -7   5 2487.95 472.451   2
   0  -6  -9 2430.23 519.224   1
   0  -6  -8 1107.87 324.296   1
   0  -6  -7 276.082 191.286   1
   0  -6  -7 228.160 144.860   4
   0  -6  -6 6214.44 673.539   4
   0  -6  -6 5205.90 641.897   1
   0  -6  -5 666.391 259.198   1
   0  -6  -5 1053.85 268.112   4
   0  -6  -4 1512.22 315.967   4
   0  -6  -3 3652.28 492.249   4
   0  -6  -2 33389.3 1591.68   2
   0  -6  -2 33219.5 1567.45   4
   0  -6  -1 12594.6 918.321   2
   0  -6   0 5013.56 571.043   2
   0  -6   1 39622.1 1720.58   2
   0  -6   2 24872.5 1336.81   2
   0  -6   3 11695.7 912.981   2
   0  -6   4 970.934 264.743   2
   0  -6   5 3412.35 494.969   2
   0  -6   6 1514.82 370.465   2
   0  -5  -9 5752.47 780.082   1
   0  -5  -8 1117.62 357.621   1
   0  -5  -7 3352.66 523.074   1
   0  -5  -7 1936.29 358.213   4
   0  -5  -6 7997.54 701.953   4
   0  -5  -6 5694.91 636.266   1
   0  -5  -5 32002.4 1509.87   1
   0  -5  -5 33112.3 1499.32   4
   0  -5  -4 41001.5 1682.22   4
   0  -5  -3 23853.4 1196.83   4
   0  -5  -2 64078.8 2219.40   2
   0  -5  -2 63278.9 2173.43   4
   0  -5  -1 5398.73 535.933   2
   0  -5   0 14373.4 886.042   2
   0  -5   1 63891.4 2180.53   2
   0  -5   2 112784. 3304.12   2
   0  -5   3 38915.7 1628.53   2
   0  -5   4 1729.51 325.721   2
   0  -5   5 8277.86 708.233   2
   0  -5   6 10422.2 819.685   2
   0  -4  -9 3977.92 624.502   1
   0  -4  -8 1456.03 359.613   1
   0  -4  -7 75.5644 133.677   4
   0  -4  -7-164.218 180.212   1
   0  -4  -6 58.6914 117.332   1
   0  -4  -6 330.098 158.378   4
   0  -4  -5 35385.6 1455.25   4
   0  -4  -5 33001.2 1477.63   1
   0  -4  -4 11229.1 760.768   1
   0  -4  -4 11170.8 735.275   4
   0  -4  -3 24463.6 1110.48   4
   0  -4  -2 75468.2 2276.96   4
   0  -4  -1 22649.8 1065.87   2
   0  -4   0 14618.5 802.770   2
   0  -4   1 3836.12 404.888   2
   0  -4   2 135841. 3576.36   2
   0  -4   3 23200.9 1081.49   2
   0  -4   3 24100.3 962.167   3
   0  -4   4 14009.9 819.222   2
   0  -4   5 1258.91 255.276   2
   0  -4   6 8859.25 687.705   2
   0  -3  -9 2623.70 511.394   1
   0  -3  -8 2978.62 494.597   1
   0  -3  -7 3005.99 471.522   1
   0  -3  -7 3166.36 391.854   4
   0  -3  -6 2464.05 328.162   4
   0  -3  -6 1699.46 322.767   1
   0  -3  -5 54108.6 1787.90   4
   0  -3  -5 53582.5 1938.59   1
   0  -3  -4 340.858 136.223   1
   0  -3  -4 566.571 151.229   4
   0  -3  -3 338.936 134.989   4
   0  -3  -2 349.032 97.2681   4
   0  -3  -1 95355.4 2543.36   2
   0  -3   0 6875.32 477.973   2
   0  -3   1 65707.7 1938.12   1
   0  -3   1 74987.7 2034.52   2
   0  -3   2 4309.51 371.598   2
   0  -3   2 4192.61 303.602   3
   0  -3   3 195.054 89.7102   2
   0  -3   3 485.703 125.226   3
   0  -3   4 4517.09 409.808   2
   0  -3   5 545.897 162.878   2
   0  -3   6 11753.0 750.194   2
   0  -3   7 8923.83 670.599   2
   0  -2 -10 1372.14 415.243   1
   0  -2  -9 5858.28 760.857   1
   0  -2  -8 4659.24 617.419   1
   0  -2  -7 5970.77 505.610   4
   0  -2  -7 5352.75 623.669   1
   0  -2  -6 19779.6 924.708   4
   0  -2  -6 18848.6 1098.60   1
   0  -2  -5 31648.8 1188.08   4
   0  -2  -5 33551.3 1394.26   1
   0  -2  -4 35711.0 1209.47   4
   0  -2  -4 34641.3 1340.51   1
   0  -2  -3 767.225 159.558   1
   0  -2  -3 1063.75 171.720   4
   0  -2  -2 5374.93 354.127   4
   0  -2  -1 923.973 151.198   2
   0  -2   0 134117. 3117.01   2
   0  -2   1 337262. 7489.68   1
   0  -2   1 362748. 7478.05   2
   0  -2   1 355196. 7262.61   3
   0  -2   2 2717.04 239.606   2
   0  -2   2 2699.31 277.400   1
   0  -2   2 2988.52 241.503   3
   0  -2   3 65668.3 1831.95   2
   0  -2   3 73608.1 1972.48   3
   0  -2   4 22666.8 905.477   2
   0  -2   4 22088.2 874.746   4
   0  -2   5 87.3146 70.9163   2
   0  -2   6 8840.30 599.473   2
   0  -2   7 10211.6 697.439   2
   0  -1  -9 4828.79 682.964   1
   0  -1  -8-154.024 195.324   1
   0  -1  -7 1732.30 357.496   1
   0  -1  -7 1190.64 219.307   4
   0  -1  -6 27306.5 1084.28   4
   0  -1  -6 27470.1 1352.62   1
   0  -1  -5 23830.3 922.035   4
   0  -1  -5 22813.7 1116.47   1
   0  -1  -4 78663.5 2035.02   4
   0  -1  -4 76528.7 2259.35   1
   0  -1  -3 43401.4 1207.92   4
   0  -1  -3 40072.2 1330.45   1
   0  -1  -2 2402.64 191.675   4
   0  -1  -2 2301.03 215.924   1
   0  -1  -1 5312.45 258.318   4
   0  -1   1 17874.7 610.667   1
   0  -1   1 19536.5 572.175   2
   0  -1   1 19765.2 567.943   3
   0  -1   2 379370. 7894.16   2
   0  -1   2 384756. 8078.84   1
   0  -1   3 86424.3 2100.36   4
   0  -1   3 86252.6 2098.77   2
   0  -1   4 39122.1 1199.28   4
   0  -1   4 39015.1 1217.09   2
   0  -1   5 12481.0 632.350   4
   0  -1   5 12871.5 653.665   2
   0  -1   6 3220.35 336.879   2
   0  -1   7 20308.7 985.614   2
   0   0  -9 4147.30 648.113   1
   0   0  -8 100.148 162.991   1
   0   0  -7 13401.4 993.428   1
   0   0  -6 18664.9 1093.50   1
   0   0  -5 24873.7 921.014   4
   0   0  -5 22410.9 1109.55   1
   0   0  -4 104209. 2495.60   4
   0   0  -4 98902.4 2764.33   1
   0   0  -3 38270.0 1257.13   1
   0   0  -3 38158.7 1075.34   4
   0   0  -2 16619.4 518.575   4
   0   0  -2 16082.4 618.366   1
   0   0   2 16182.0 521.719   4
   0   0   2 18074.1 653.820   1
   0   0   3 36289.5 1068.35   4
   0   0   3 43130.9 1321.07   1
   0   0   4 100706. 2466.84   4
   0   0   5 22126.9 880.869   4
   0   1  -9 156.009 156.020   1
   0   1  -8 388.893 232.191   1
   0   1  -7 23307.6 1379.33   1
   0   1  -6 3183.74 450.073   1
   0   1  -5 12407.6 815.931   1
   0   1  -4 39875.8 1468.05   1
   0   1  -3 87753.2 2366.17   1
   0   1  -2 371672. 7891.06   1
   0   1  -1 18607.7 618.094   1
   0   1  -1 19197.9 569.367   2
   0   1   1 5182.68 266.081   2
   0   1   1 5042.40 255.292   4
   0   1   2 2356.33 225.733   1
   0   1   2 2339.44 191.317   4
   0   1   3 46971.2 1416.93   1
   0   1   3 41921.8 1240.51   4
   0   1   4 77486.7 2054.71   4
   0   1   5 22578.9 928.422   4
   0   2  -9 1586.41 400.693   1
   0   2  -8 1657.11 406.620   1
   0   2  -7 11058.6 956.837   1
   0   2  -6 7191.76 708.153   1
   0   2  -5-20.5691 131.256   1
   0   2  -4 22202.8 1070.34   1
   0   2  -3 66175.4 1994.44   1
   0   2  -2 2845.03 279.337   1
   0   2  -2 2946.59 244.089   2
   0   2  -1 350415. 7410.69   1
   0   2  -1 354336. 7364.06   2
   0   2  -1 343394. 7161.36   3
   0   2   0 141028. 3263.18   2
   0   2   1 1070.73 157.327   2
   0   2   2 5558.23 392.648   2
   0   2   3 1010.11 169.318   4
   0   2   4 37401.8 1293.20   4
   0   3  -9 235.690 225.616   1
   0   3  -8 1443.18 393.100   1
   0   3  -7 9189.46 893.009   1
   0   3  -6 11461.3 945.292   1
   0   3  -5 635.110 190.234   1
   0   3  -4 4918.58 513.984   1
   0   3  -3 520.689 145.657   1
   0   3  -3 253.421 107.685   2
   0   3  -2 3735.41 360.899   1
   0   3  -2 4036.92 347.052   2
   0   3  -1 70289.6 1921.72   2
   0   3  -1 66109.3 1591.12   3
   0   3   0 7607.26 501.040   2
   0   3   1 100054. 2670.98   2
   0   4  -8 836.552 310.093   1
   0   4  -7 13013.0 1119.67   1
   0   4  -6 8942.66 863.932   1
   0   4  -5 1050.42 277.856   1
   0   4  -4 15238.2 982.122   1
   0   4  -3 24159.0 1178.39   1
   0   4  -1 2799.16 198.696   3
   0   5  -8 1589.41 443.214   1
   0   5  -7 17231.7 1366.26   1
   0   5  -6 10192.5 957.652   1
   0   5  -5 6775.99 725.845   1
   0   5  -4 2177.62 366.084   1
   0   5  -1 57579.3 1451.16   3
   0   6  -7 1019.93 360.238   1
   0   6  -6 667.439 293.470   1
   0   6  -1 38119.9 1054.18   3
   0   6   0 4889.08 290.399   3
   0   7   0 1369.27 146.152   3
   1 -10  -2 1618.08 454.058   4
   1 -10  -1 6099.64 867.913   4
   1 -10   0 3171.39 611.094   4
   1 -10   1 672.698 315.983   4
   1 -10   2 4429.43 719.421   2
   1 -10   3 2919.10 568.311   2
   1 -10   4 1234.37 337.144   2
   1  -9  -5 1610.72 440.965   4
   1  -9  -4 2492.48 525.549   4
   1  -9  -3 1114.52 360.230   4
   1  -9  -2 5889.63 788.936   4
   1  -9  -1 15904.8 1296.63   4
   1  -9   0 5965.26 807.294   4
   1  -9   1 2971.96 557.304   2
   1  -9   1 1952.41 464.344   4
   1  -9   2 4132.25 643.149   2
   1  -9   3 2915.38 542.603   2
   1  -9   4 1369.87 390.657   2
   1  -8  -6 171.770 178.207   4
   1  -8  -5 4626.75 689.164   4
   1  -8  -4 2007.61 444.161   4
   1  -8  -3 1546.20 395.290   4
   1  -8  -2 3788.45 596.885   4
   1  -8  -1 7686.39 826.335   4
   1  -8   0 5485.27 694.376   4
   1  -8   1 12686.8 1063.34   2
   1  -8   2 19678.7 1339.54   2
   1  -8   3 12256.7 1044.45   2
   1  -8   4 3598.59 573.102   2
   1  -8   5 4248.19 608.349   2
   1  -7  -7-121.751 169.458   4
   1  -7  -6 853.179 271.841   1
   1  -7  -6 1043.72 298.892   4
   1  -7  -5 3665.74 531.589   1
   1  -7  -5 3441.74 549.468   4
   1  -7  -4 2006.39 422.790   4
   1  -7  -3 2355.87 434.476   4
   1  -7  -2 4871.64 622.289   4
   1  -7  -1 1240.66 314.680   4
   1  -7   0 621.625 237.254   2
   1  -7   0 730.329 229.016   4
   1  -7   1 97.1527 150.069   2
   1  -7   2 5.15697 137.889   2
   1  -7   3 1799.88 382.683   2
   1  -7   4 4245.07 551.523   2
   1  -7   5 1204.39 312.145   2
   1  -6  -7-159.415 197.958   4
   1  -6  -7 4.14802 227.085   1
   1  -6  -6 1556.96 373.403   1
   1  -6  -6 2192.65 440.203   4
   1  -6  -5 3460.22 526.347   4
   1  -6  -5 2984.25 449.460   1
   1  -6  -4 8066.16 696.676   1
   1  -6  -4 7979.50 770.983   4
   1  -6  -3 7529.61 717.157   4
   1  -6  -2 11894.2 900.501   4
   1  -6  -1 22358.3 1252.00   4
   1  -6   0 52106.2 2053.15   2
   1  -6   1 36664.0 1652.92   2
   1  -6   2 2557.86 393.205   2
   1  -6   3 9779.45 773.759   2
   1  -6   4 5721.59 594.499   2
   1  -6   5 1815.06 343.075   2
   1  -6   6 464.857 155.311   2
   1  -5  -8 578.426 247.553   1
   1  -5  -7 2103.62 415.359   4
   1  -5  -7 2055.36 416.031   1
   1  -5  -6 1938.08 383.449   1
   1  -5  -6 2520.72 419.283   4
   1  -5  -5 4566.89 546.708   4
   1  -5  -5 4900.26 536.467   1
   1  -5  -4 28993.0 1336.70   1
   1  -5  -4 32274.9 1512.37   4
   1  -5  -3 17638.6 1049.23   4
   1  -5  -2 52.6068 104.484   4
   1  -5  -1 1244.89 255.475   4
   1  -5   0 49126.8 1843.07   2
   1  -5   1 17675.9 997.242   2
   1  -5   2 25290.8 1199.28   2
   1  -5   3 33549.4 1426.26   2
   1  -5   4 18915.0 1048.02   2
   1  -5   5 3592.66 444.810   2
   1  -5   6 5815.84 584.513   2
   1  -4  -9 346.041 210.757   1
   1  -4  -8 450.267 189.752   1
   1  -4  -7 10130.3 832.906   4
   1  -4  -7 7968.66 790.737   1
   1  -4  -6 1348.88 288.265   4
   1  -4  -6 1110.85 293.870   1
   1  -4  -5 14471.8 924.515   4
   1  -4  -5 13047.4 865.871   1
   1  -4  -4 44295.7 1714.28   4
   1  -4  -4 40878.9 1565.18   1
   1  -4  -3 77932.7 2320.74   1
   1  -4  -3 81362.3 2497.16   4
   1  -4  -2 17273.5 922.803   4
   1  -4  -1 88361.9 2599.73   4
   1  -4   0 174003. 4335.94   2
   1  -4   1 28434.0 1187.89   2
   1  -4   2 14488.1 780.359   2
   1  -4   3 46706.2 1628.88   2
   1  -4   4 40961.2 1520.17   2
   1  -4   5 18594.6 956.995   2
   1  -4   6 17280.5 938.753   2
   1  -3  -9 558.649 261.612   1
   1  -3  -8 1114.66 348.258   1
   1  -3  -7 1767.73 361.618   1
   1  -3  -7 1612.19 320.629   4
   1  -3  -6 2647.23 403.187   1
   1  -3  -6 2606.85 375.670   4
   1  -3  -5 5223.13 505.570   4
   1  -3  -5 5756.49 544.266   1
   1  -3  -4 26761.9 1186.98   4
   1  -3  -4 26912.2 1165.63   1
   1  -3  -3 10950.3 693.056   4
   1  -3  -3 10381.5 611.761   1
   1  -3  -2 19753.1 923.001   4
   1  -3  -1 40967.0 1402.44   4
   1  -3   0 183760. 4340.76   4
   1  -3   1 70979.6 1957.15   2
   1  -3   1 65451.0 1838.84   1
   1  -3   2 21091.7 866.820   2
   1  -3   2 21978.0 903.084   1
   1  -3   3 285.981 112.864   2
   1  -3   3 241.961 95.7435   3
   1  -3   4 15185.0 736.644   2
   1  -3   5 28198.4 1091.13   2
   1  -3   6 31575.2 1197.59   2
   1  -2  -9 46.5578 174.397   1
   1  -2  -8 501.765 257.135   1
   1  -2  -7 1894.79 376.756   1
   1  -2  -7 1816.96 323.761   4
   1  -2  -6 3674.21 479.281   1
   1  -2  -6 3921.56 439.283   4
   1  -2  -5 1348.87 266.006   1
   1  -2  -5 1323.09 249.065   4
   1  -2  -4 25803.7 1081.06   4
   1  -2  -4 23301.2 1052.40   1
   1  -2  -3 15801.7 769.534   4
   1  -2  -3 15016.2 725.343   1
   1  -2  -2 6818.97 397.833   1
   1  -2  -2 6960.55 461.488   4
   1  -2  -1 12350.5 599.741   4
   1  -2   0 247.335 84.5195   4
   1  -2   1 225247. 4920.58   2
   1  -2   1 224775. 4854.41   1
   1  -2   2 1327.83 162.860   2
   1  -2   2 1307.24 187.179   1
   1  -2   2 1534.69 184.929   3
   1  -2   3 2835.63 232.396   2
   1  -2   3 2555.37 276.272   3
   1  -2   4 197.830 61.8824   2
   1  -2   5 25497.2 910.505   4
   1  -2   5 27864.2 947.629   2
   1  -2   6 5068.17 380.306   2
   1  -2   6 4532.26 346.478   4
   1  -2   7 252.865 123.445   2
   1  -1  -9-175.411 223.620   1
   1  -1  -8 49.1032 127.599   1
   1  -1  -7 13537.7 858.554   4
   1  -1  -7 10982.7 923.796   1
   1  -1  -6 25723.4 1181.38   4
   1  -1  -6 27127.3 1350.56   1
   1  -1  -5 1075.75 237.543   1
   1  -1  -5 1292.73 229.944   4
   1  -1  -4 19384.9 859.818   4
   1  -1  -4 16239.6 855.300   1
   1  -1  -3 3216.57 302.388   4
   1  -1  -3 3008.83 299.032   1
   1  -1  -2 104897. 2556.58   4
   1  -1  -2 103243. 2478.63   1
   1  -1  -1 983.540 143.768   4
   1  -1  -1 921.495 103.157   1
   1  -1   0 112197. 2543.86   4
   1  -1   1 12329.3 425.190   1
   1  -1   1 13267.0 462.686   4
   1  -1   2 10796.5 363.528   2
   1  -1   2 11135.0 496.364   1
   1  -1   2 11970.0 520.516   3
   1  -1   3 421.392 116.817   1
   1  -1   3 421.655 65.1115   2
   1  -1   3 476.449 123.499   3
   1  -1   4 33421.9 933.729   4
   1  -1   4 34256.7 944.553   2
   1  -1   5 146460. 3330.28   4
   1  -1   5 150591. 3364.11   2
   1  -1   6 13944.7 614.299   2
   1  -1   6 13201.8 587.154   4
   1  -1   7 651.386 138.674   2
   1   0  -9-238.556 228.479   1
   1   0  -8 1085.01 343.446   1
   1   0  -7 13878.9 1051.81   1
   1   0  -6 10465.0 693.992   4
   1   0  -6 10253.4 815.993   1
   1   0  -5 19397.9 923.587   4
   1   0  -5 19509.6 1042.34   1
   1   0  -4 6875.75 482.708   4
   1   0  -4 7201.89 541.611   1
   1   0  -3 28395.6 1006.91   4
   1   0  -3 27706.6 1047.38   1
   1   0  -2 118903. 2776.53   4
   1   0  -2 115524. 2771.50   1
   1   0  -1 147313. 3202.89   1
   1   0  -1 148450. 3271.74   4
   1   0   2 34698.8 1033.98   3
   1   0   2 34887.3 1023.92   1
   1   0   3 36570.5 865.904   4
   1   0   3 38096.2 1228.69   1
   1   0   4 169.036 47.6150   4
   1   0   5 58423.5 1498.34   4
   1   0   6 10767.2 514.889   4
   1   1  -9-298.423 255.795   1
   1   1  -8 3227.95 563.409   1
   1   1  -7 18207.7 1241.95   1
   1   1  -6 11518.8 885.918   1
   1   1  -5 17581.5 1020.34   1
   1   1  -4 1136.21 221.330   1
   1   1  -3 45004.3 1503.74   1
   1   1  -2 156938. 3671.84   1
   1   1  -1 287800. 6140.20   1
   1   1   0 61233.8 1496.69   2
   1   1   1 68214.9 1602.79   2
   1   1   1 69049.2 1567.93   3
   1   1   2 955416. 20094.3   2
   1   1   2 999999. 20213.3   3
   1   1   3 137761. 3097.47   2
   1   1   3 142206. 3347.13   3
   1   1   4 151199. 3383.84   2
   1   1   4 146070. 3293.82   4
   1   1   5 60390.3 1608.04   4
   1   1   6 35429.3 1157.64   4
   1   2  -9 906.505 369.486   1
   1   2  -8 3048.27 576.544   1
   1   2  -7 2933.43 496.844   1
   1   2  -6 13768.5 1020.78   1
   1   2  -5 13051.1 915.347   1
   1   2  -4 895.015 207.692   1
   1   2  -3 315.802 106.972   1
   1   2  -2 163187. 3945.34   1
   1   2  -1 629158. 13044.8   2
   1   2   0 271878. 5875.24   2
   1   2   1 10872.5 502.507   2
   1   2   1 10283.9 339.010   3
   1   2   2 742.597 111.767   3
   1   2   2 733.729 127.935   2
   1   2   3 20576.3 802.985   2
   1   2   4 27028.3 1006.01   2
   1   2   5 50653.6 1614.50   2
   1   3  -8 2301.01 521.207   1
   1   3  -7-155.624 233.531   1
   1   3  -6 6336.96 723.221   1
   1   3  -5 8774.82 787.329   1
   1   3  -4 148.378 109.329   1
   1   3  -3 18320.1 983.616   1
   1   3  -2 170700. 4237.20   1
   1   3  -1 120814. 3061.39   2
   1   3   0 4980.94 390.315   2
   1   3   1 39010.0 1267.98   2
   1   3   1 35264.6 861.952   3
   1   3   2 54112.9 1696.74   2
   1   3   3 30522.4 1204.87   2
   1   4  -8 3958.56 684.894   1
   1   4  -7 881.772 346.636   1
   1   4  -6 2335.41 462.552   1
   1   4  -5 8583.61 809.984   1
   1   4  -4 497.532 199.600   1
   1   4  -3 70.5904 113.217   1
   1   4   1 540.674 62.2182   3
   1   5  -7 1172.17 392.059   1
   1   5  -6 2062.52 449.051   1
   1   5  -5 12960.0 1054.63   1
   2 -10   0 1464.05 414.865   4
   2 -10   1 1235.69 379.616   4
   2 -10   2 740.375 317.355   4
   2 -10   3 1685.45 456.739   4
   2 -10   4 2275.18 538.759   4
   2  -9  -3 330.221 149.909   4
   2  -9  -2 4530.31 704.350   4
   2  -9  -1 11199.6 1092.98   4
   2  -9   0 4500.62 701.737   4
   2  -9   1 6084.09 803.330   4
   2  -9   2 2763.63 557.671   4
   2  -9   3 3795.50 658.291   4
   2  -9   4 3327.77 583.596   4
   2  -8  -5 1150.35 406.126   4
   2  -8  -4 3529.88 607.281   4
   2  -8  -3 1169.20 361.979   4
   2  -8  -2 13523.5 1142.87   4
   2  -8  -1 5944.37 758.049   4
   2  -8   0 4381.05 641.537   4
   2  -8   1 9157.68 918.536   4
   2  -8   2 11177.3 1009.89   4
   2  -8   3 6872.08 799.128   4
   2  -8   4 4858.36 643.056   2
   2  -8   5 3207.02 532.686   2
   2  -7  -6 953.160 314.270   4
   2  -7  -5 4285.55 650.920   4
   2  -7  -4 519.372 240.309   4
   2  -7  -3 4123.14 592.788   4
   2  -7  -2 10700.3 965.612   4
   2  -7  -1 3421.08 539.290   4
   2  -7   0 1833.83 385.990   4
   2  -7   1 4787.47 615.616   4
   2  -7   2 5634.57 654.290   4
   2  -7   3 10434.8 873.718   2
   2  -7   4 21802.6 1306.02   2
   2  -7   5 13395.7 987.823   2
   2  -6  -7 28.8648 166.383   4
   2  -6  -6 1337.83 357.961   4
   2  -6  -5 752.716 289.812   4
   2  -6  -4 651.349 252.970   4
   2  -6  -4 745.278 215.171   1
   2  -6  -3 5880.63 551.295   1
   2  -6  -3 6081.75 678.751   4
   2  -6  -2 8180.24 766.653   4
   2  -6  -1 1135.55 287.809   4
   2  -6   0 9657.62 810.033   4
   2  -6   1 7166.77 690.483   4
   2  -6   2-6.80409 116.491   4
   2  -6   3 946.044 246.355   2
   2  -6   4 1920.58 338.837   2
   2  -6   5 118.814 115.728   2
   2  -5  -7 2520.57 473.660   4
   2  -5  -6 3797.40 512.599   1
   2  -5  -6 4234.49 586.632   4
   2  -5  -5 974.011 264.500   4
   2  -5  -5 1180.10 273.667   1
   2  -5  -4 2776.34 368.927   1
   2  -5  -4 3064.06 461.917   4
   2  -5  -3 19227.7 947.182   1
   2  -5  -3 19426.7 1186.43   4
   2  -5  -2 8485.53 732.623   4
   2  -5  -1 2834.13 406.643   4
   2  -5   0 19754.6 1108.22   4
   2  -5   1 59469.2 2109.64   4
   2  -5   2 41119.1 1652.68   4
   2  -5   3 50967.1 1847.75   2
   2  -5   4 23634.7 1146.30   2
   2  -5   5 1726.65 279.836   2
   2  -5   6 3674.39 421.457   2
   2  -4  -7 4097.17 552.545   1
   2  -4  -7 3717.37 551.509   4
   2  -4  -6 9798.05 857.698   4
   2  -4  -6 7999.69 744.199   1
   2  -4  -5 6146.28 638.806   4
   2  -4  -5 4900.98 509.252   1
   2  -4  -4 11738.7 870.552   4
   2  -4  -4 12035.3 750.845   1
   2  -4  -3 22184.0 1166.93   4
   2  -4  -3 20882.0 935.207   1
   2  -4  -2 24507.0 962.090   1
   2  -4  -2 25298.0 1229.67   4
   2  -4  -1 23775.8 1151.85   4
   2  -4   0 17341.4 926.933   4
   2  -4   1 2083.83 247.571   1
   2  -4   1 2026.35 306.554   4
   2  -4   2 6173.93 510.311   4
   2  -4   3 19902.1 935.844   2
   2  -4   4 21099.0 959.978   2
   2  -4   5 14892.0 772.207   2
   2  -4   6 16434.8 806.324   2
   2  -3  -7 1422.76 327.912   1
   2  -3  -7 846.795 270.635   4
   2  -3  -6 4241.21 539.441   4
   2  -3  -6 3928.66 490.644   1
   2  -3  -5 18510.6 1093.06   4
   2  -3  -5 16518.3 958.637   1
   2  -3  -4 11492.1 805.446   4
   2  -3  -4 11990.5 719.275   1
   2  -3  -3 15256.9 894.022   4
   2  -3  -3 14162.1 710.958   1
   2  -3  -2 22060.6 1072.45   4
   2  -3  -2 23035.1 843.433   1
   2  -3  -1 129751. 3410.64   4
   2  -3   0 119124. 3113.22   4
   2  -3   1 204326. 4559.30   1
   2  -3   1 210547. 4869.38   4
   2  -3   2 126379. 3058.91   1
   2  -3   2 124303. 3159.18   4
   2  -3   3 51879.4 1547.11   2
   2  -3   4 7561.38 463.448   2
   2  -3   5 25046.8 918.121   2
   2  -3   6 26351.3 936.646   2
   2  -2  -8 1754.89 402.438   1
   2  -2  -7 269.886 212.113   4
   2  -2  -7 330.505 236.958   1
   2  -2  -6 4181.91 507.564   4
   2  -2  -6 4037.04 510.782   1
   2  -2  -5 6062.73 581.785   4
   2  -2  -5 5353.58 515.833   1
   2  -2  -4 4685.42 433.814   1
   2  -2  -4 4737.50 481.006   4
   2  -2  -3 279.315 105.828   1
   2  -2  -3 175.199 80.0674   4
   2  -2  -2 46814.1 1568.59   4
   2  -2  -2 44897.4 1294.14   1
   2  -2  -1 15255.9 748.225   4
   2  -2  -1 14867.2 507.160   1
   2  -2   0 7077.85 462.079   4
   2  -2   1 3639.61 215.447   1
   2  -2   1 3775.94 310.215   4
   2  -2   2 102821. 2530.10   4
   2  -2   2 104537. 2495.95   1
   2  -2   3 32034.3 1012.58   4
   2  -2   3 33277.0 1158.86   1
   2  -2   4 18974.2 640.869   2
   2  -2   5 17168.8 588.362   2
   2  -2   6 6628.42 329.821   2
   2  -2   6 6920.21 361.225   4
   2  -1  -9 347.920 163.815   1
   2  -1  -8 552.226 223.878   1
   2  -1  -7 1273.79 293.955   4
   2  -1  -7 1013.63 314.870   1
   2  -1  -6 7640.11 702.813   1
   2  -1  -6 8121.47 689.876   4
   2  -1  -5 12539.9 827.415   1
   2  -1  -5 12925.8 840.736   4
   2  -1  -4 1197.74 233.667   4
   2  -1  -4 1281.54 233.199   1
   2  -1  -3 6423.69 512.568   4
   2  -1  -3 6762.05 461.635   1
   2  -1  -2 68154.8 1958.47   4
   2  -1  -2 64882.8 1720.68   1
   2  -1  -1 52467.0 1564.41   4
   2  -1  -1 51780.3 1261.71   1
   2  -1   0 1239.40 177.158   4
   2  -1   1 7562.36 385.776   4
   2  -1   1 7309.03 265.611   1
   2  -1   2 3421.87 220.749   4
   2  -1   2 3422.92 245.659   1
   2  -1   3 14027.2 463.537   4
   2  -1   3 15569.5 748.388   3
   2  -1   3 15390.0 686.297   1
   2  -1   4 32554.1 817.067   4
   2  -1   5 35075.2 853.198   4
   2  -1   6 857.311 88.1267   4
   2   0  -9 1167.17 328.060   1
   2   0  -8 1002.97 335.164   1
   2   0  -7 928.476 299.244   1
   2   0  -6 8622.22 704.230   4
   2   0  -6 7491.65 709.304   1
   2   0  -5 28179.9 1290.06   4
   2   0  -5 28475.2 1351.39   1
   2   0  -4 5854.47 516.653   4
   2   0  -4 5096.25 485.428   1
   2   0  -3 11346.1 673.656   4
   2   0  -3 10260.6 609.880   1
   2   0  -2 68698.1 1866.37   1
   2   0  -2 71616.6 2001.00   4
   2   0  -1 30368.1 907.355   1
   2   0  -1 31981.2 1060.65   4
   2   0   0 144765. 3305.42   4
   2   0   1 6459.97 321.562   4
   2   0   2 17372.5 512.906   4
   2   0   3 4555.91 351.423   1
   2   0   3 4164.05 350.539   3
   2   0   6 6144.91 262.261   2
   2   0   6 6136.40 252.621   2
   2   0   7 22911.1 689.842   2
   2   1  -8 3787.71 633.048   1
   2   1  -7 1939.22 430.096   1
   2   1  -6 1275.84 303.768   1
   2   1  -5 3691.64 472.243   1
   2   1  -4 507.463 155.931   1
   2   1  -3 47394.7 1617.44   1
   2   1  -3 46239.3 1585.30   4
   2   1  -2 40293.8 1344.54   1
   2   1  -2 39426.3 1341.26   4
   2   1  -1 117907. 2879.30   1
   2   1  -1 125419. 2979.27   4
   2   1   0 89012.7 2208.03   4
   2   1   2 44662.3 1161.20   2
   2   1   3 253887. 5291.46   2
   2   1   3 251056. 5651.64   3
   2   1   4 177402. 3792.90   2
   2   1   5 657.015 101.534   2
   2   1   6 1751.50 185.865   2
   2   2  -8 5344.00 771.959   1
   2   2  -7 4360.61 644.754   1
   2   2  -6 13324.1 1033.41   1
   2   2  -5 7630.77 720.429   1
   2   2  -4 17577.1 1038.63   1
   2   2  -3 37265.8 1474.80   1
   2   2  -2 17918.8 864.673   1
   2   2   0 94624.2 2433.08   2
   2   2   1 8630.64 473.316   2
   2   2   2 2021.06 212.076   2
   2   2   2 1736.12 184.320   3
   2   2   3 265670. 5803.69   2
   2   2   3 268625. 5902.53   3
   2   2   4 203522. 4569.12   2
   2   2   5 41938.9 1328.19   2
   2   2   6 42479.4 1406.20   2
   2   3  -8 1439.66 450.486   1
   2   3  -7 377.162 218.241   1
   2   3  -6 227.778 203.714   1
   2   3  -5-37.8464 159.908   1
   2   3  -4 24307.2 1297.97   1
   2   3  -3 15819.9 952.200   1
   2   3   1 40893.1 1391.68   2
   2   3   2 845.499 162.939   2
   2   3   2 894.448 125.352   3
   2   3   3 53911.3 1688.81   2
   2   3   3 56048.4 1592.70   3
   2   3   4 966.086 188.656   2
   2   4  -7 3578.28 614.742   1
   2   4  -6-73.1715 256.546   1
   2   4  -5 344.386 135.275   1
   2   4  -4 3646.30 510.092   1
   2   4   2 35041.6 982.303   3
   2   4   3 79823.5 2083.30   3
   2   5  -7 3566.64 649.788   1
   2   5   3 2756.99 253.997   3
   2   6   3 18357.0 717.043   3
   3  -9  -2 4374.25 727.313   4
   3  -9  -1 5170.12 766.940   4
   3  -9   0 9576.38 1030.07   4
   3  -9   1 5132.97 754.434   4
   3  -9   2-5.33349 147.955   4
   3  -9   3 9927.55 1034.40   4
   3  -9   4 5248.22 736.701   4
   3  -9   5 548.886 291.791   4
   3  -8  -4 3420.21 620.931   4
   3  -8  -3 4207.51 684.443   4
   3  -8  -2 6579.69 829.799   4
   3  -8  -1 2421.98 512.540   4
   3  -8   0 7253.43 834.711   4
   3  -8   1 2583.34 505.520   4
   3  -8   2 4751.67 670.205   4
   3  -8   3 20270.0 1404.36   4
   3  -8   4 6936.15 808.647   4
   3  -8   5 1695.65 394.436   4
   3  -7  -5 921.028 356.389   4
   3  -7  -4 1276.39 351.075   4
   3  -7  -3 5641.14 752.906   4
   3  -7  -2 6924.09 802.625   4
   3  -7  -1 4535.06 633.450   4
   3  -7   0 11734.3 992.297   4
   3  -7   1 2369.13 432.623   4
   3  -7   2 10864.9 942.179   4
   3  -7   3 13527.3 1050.64   4
   3  -7   4 15180.7 1112.00   4
   3  -7   5 3854.06 555.054   4
   3  -6  -6 606.416 263.504   4
   3  -6  -5 1133.26 366.094   4
   3  -6  -4 3664.96 576.115   4
   3  -6  -3 18028.4 1255.44   4
   3  -6  -2 1847.34 410.449   4
   3  -6  -2 1786.79 268.701   1
   3  -6  -1 2807.12 466.265   4
   3  -6   0 5801.05 645.963   4
   3  -6   1 9108.87 794.081   4
   3  -6   2 8468.52 753.324   4
   3  -6   3 3322.15 471.895   4
   3  -6   4 5784.88 608.063   4
   3  -6   5 1308.05 305.373   4
   3  -6   6 8295.73 725.003   4
   3  -5  -7 397.077 253.116   4
   3  -5  -6 245.979 189.289   4
   3  -5  -5 1089.05 313.598   4
   3  -5  -4 2815.20 474.733   4
   3  -5  -3 9317.13 831.862   4
   3  -5  -3 8474.90 573.884   1
   3  -5  -2 2417.01 269.015   1
   3  -5  -2 2736.27 443.499   4
   3  -5  -1 2250.70 380.770   4
   3  -5   0 1795.42 227.663   1
   3  -5   0 2483.34 400.672   4
   3  -5   1 12141.3 650.695   1
   3  -5   1 12778.1 879.187   4
   3  -5   2 13529.0 893.125   4
   3  -5   3 16112.5 966.533   4
   3  -5   4 504.009 177.801   4
   3  -5   5 1029.91 236.972   4
   3  -5   6 361.910 132.749   4
   3  -4  -7 3686.71 586.354   4
   3  -4  -6 4703.08 639.950   4
   3  -4  -5 2869.00 479.751   4
   3  -4  -4 13619.0 999.938   4
   3  -4  -4 12340.3 738.853   1
   3  -4  -3 9197.01 786.998   4
   3  -4  -3 9319.47 560.203   1
   3  -4  -2 6486.13 623.554   4
   3  -4  -2 6086.90 398.842   1
   3  -4  -1 17026.7 656.867   1
   3  -4  -1 16839.1 1018.21   4
   3  -4   0 18220.9 685.056   1
   3  -4   0 22261.3 1113.54   4
   3  -4   1 16686.1 681.666   1
   3  -4   1 17784.6 966.607   4
   3  -4   2 20798.9 863.443   1
   3  -4   2 21821.9 1055.20   4
   3  -4   3 56140.4 1885.02   4
   3  -4   4 8073.63 587.622   4
   3  -4   5 38789.6 1434.53   4
   3  -4   6 23814.1 1052.89   4
   3  -3  -7 627.944 256.613   4
   3  -3  -6 381.282 186.377   4
   3  -3  -5 7390.61 727.976   4
   3  -3  -5 5866.47 550.682   1
   3  -3  -4 27741.8 1433.36   4
   3  -3  -4 27748.8 1157.61   1
   3  -3  -3 14045.0 924.605   4
   3  -3  -3 12445.5 647.280   1
   3  -3  -2 15424.8 941.940   4
   3  -3  -2 14717.9 607.789   1
   3  -3  -1 36368.1 1468.39   4
   3  -3  -1 35214.5 962.692   1
   3  -3   0 52888.9 1293.59   1
   3  -3   0 65119.8 1978.27   4
   3  -3   1 36928.6 1007.13   1
   3  -3   1 36951.0 1396.34   4
   3  -3   2 91216.7 2540.59   4
   3  -3   2 91155.0 2266.51   1
   3  -3   3 6883.81 485.644   4
   3  -3   3 6203.72 448.703   1
   3  -3   4 2449.40 277.112   4
   3  -3   5 17860.9 781.028   4
   3  -3   6 21358.4 837.179   4
   3  -2  -7 2539.03 468.351   4
   3  -2  -6-135.020 182.632   4
   3  -2  -6 444.525 208.287   1
   3  -2  -5 5062.88 580.248   4
   3  -2  -5 5860.75 563.090   1
   3  -2  -4 7828.89 710.597   4
   3  -2  -4 7949.85 578.606   1
   3  -2  -3 10430.2 763.369   4
   3  -2  -3 9592.05 557.074   1
   3  -2  -2 25780.1 1190.81   4
   3  -2  -2 25007.8 842.839   1
   3  -2  -1 48205.2 1187.08   1
   3  -2  -1 55789.8 1783.04   4
   3  -2   0 26441.5 1099.00   4
   3  -2   1 50657.4 1528.79   4
   3  -2   1 43445.3 1027.13   1
   3  -2   2 267404. 5953.27   4
   3  -2   2 266728. 5690.88   1
   3  -2   3 78173.6 2061.83   4
   3  -2   3 79344.1 2109.64   1
   3  -2   4 37645.9 1137.57   4
   3  -2   5 45888.2 1249.10   4
   3  -2   6 22291.4 680.640   4
   3  -1  -7 368.923 187.617   4
   3  -1  -7 245.722 178.130   1
   3  -1  -6 2352.74 422.881   4
   3  -1  -6 3095.39 461.097   1
   3  -1  -5 5261.55 592.409   4
   3  -1  -5 5213.55 541.828   1
   3  -1  -4 2115.79 338.998   4
   3  -1  -4 2164.90 298.675   1
   3  -1  -3 294.277 139.379   4
   3  -1  -3 78.3690 56.1094   1
   3  -1  -2 12814.5 580.459   1
   3  -1  -2 13388.6 788.388   4
   3  -1  -1 43630.4 1137.02   1
   3  -1  -1 44874.5 1538.93   4
   3  -1   0 18168.5 825.499   4
   3  -1   1 18679.5 786.149   4
   3  -1   2 12486.8 497.339   1
   3  -1   2 12797.1 573.148   4
   3  -1   3 1551.64 163.316   4
   3  -1   3 1993.69 220.992   1
   3  -1   4 19751.1 605.004   4
   3   0  -8 217.096 201.566   1
   3   0  -7 304.536 197.988   1
   3   0  -6 1456.97 340.556   1
   3   0  -6 1426.68 316.123   4
   3   0  -5 4267.63 498.560   1
   3   0  -5 3683.19 479.624   4
   3   0  -4 4686.69 475.912   1
   3   0  -4 4638.81 516.925   4
   3   0  -3 10232.7 639.759   1
   3   0  -3 10108.7 715.323   4
   3   0  -2 2689.50 283.927   1
   3   0  -2 2208.68 313.538   4
   3   0  -1 601.222 107.396   1
   3   0  -1 503.082 139.247   4
   3   0   0 479.962 131.641   4
   3   0   1 52838.2 1522.20   4
   3   0   2 4951.02 314.464   4
   3   0   3 3277.32 213.918   4
   3   1  -8 1106.88 340.847   1
   3   1  -7 2247.97 497.241   1
   3   1  -6 2045.07 410.837   1
   3   1  -5 174.803 120.328   1
   3   1  -4 4801.08 508.877   1
   3   1  -4 4338.72 494.005   4
   3   1  -3 53688.4 1829.06   1
   3   1  -3 51604.2 1860.34   4
   3   1  -2 49728.3 1628.18   1
   3   1  -2 53796.9 1789.25   4
   3   1  -1 60169.1 1877.48   4
   3   1   0 77677.5 2146.59   4
   3   1   1 40523.8 1272.61   4
   3   2  -8 1587.59 415.599   1
   3   2  -7 3689.69 605.497   1
   3   2  -6 4339.71 628.566   1
   3   2  -5 319.781 170.340   1
   3   2  -4 7151.96 659.405   1
   3   2  -3 7902.08 639.846   1
   3   2   2 31459.8 1092.56   2
   3   2   3 110506. 2704.52   2
   3   2   4 79580.6 2040.41   2
   3   2   5 35379.7 1092.33   2
   3   2   6 36014.2 1107.22   2
   3   3  -7 663.137 309.557   1
   3   3  -6 444.063 240.888   1
   3   3  -5 2845.97 466.521   1
   3   3  -4 30187.2 1523.36   1
   3   3   4 3216.36 325.024   2
   3   3   5 30981.3 1167.07   2
   3   3   6 24640.5 1013.93   2
   3   4  -7-77.9216 217.118   1
   3   4  -6-87.2792 194.606   1
   4  -9   0 308.373 171.466   4
   4  -9   1 1295.38 485.856   4
   4  -9   2 680.594 293.176   4
   4  -9   3 938.663 281.062   4
   4  -9   4 478.372 223.952   4
   4  -9   5 352.978 217.012   4
   4  -8  -2 7404.22 916.913   4
   4  -8  -1 2109.71 480.300   4
   4  -8   0 1074.95 317.900   4
   4  -8   1 2541.36 528.331   4
   4  -8   2 25169.9 1614.39   4
   4  -8   3 15314.7 1223.37   4
   4  -8   4 12.0959 141.187   4
   4  -8   5 5624.04 714.784   4
   4  -7  -3 3280.72 583.649   4
   4  -7  -2 8339.11 950.860   4
   4  -7  -1 6748.67 816.177   4
   4  -7   0 1328.31 354.052   4
   4  -7   1 3396.14 545.539   4
   4  -7   2 42345.1 2029.84   4
   4  -7   3 3683.31 550.259   4
   4  -7   4 1129.66 281.287   4
   4  -7   5 10373.7 905.297   4
   4  -6  -5 4796.96 728.549   4
   4  -6  -4 1475.10 402.158   4
   4  -6  -3 5100.63 696.695   4
   4  -6  -2 3712.20 588.408   4
   4  -6  -1 4523.24 623.226   4
   4  -6   0 130.704 172.220   4
   4  -6   1 15918.1 1129.14   4
   4  -6   2 52302.1 2169.65   4
   4  -6   3 2554.42 435.504   4
   4  -6   4 1464.02 307.527   4
   4  -6   5 4047.10 502.146   4
   4  -6   6 12040.2 876.910   4
   4  -5  -5 617.803 287.233   4
   4  -5  -4 2544.50 493.686   4
   4  -5  -3 3524.65 546.813   4
   4  -5  -2 12775.9 1040.78   4
   4  -5  -1 11803.8 943.138   4
   4  -5   0 271.794 146.226   4
   4  -5   1 23882.3 1307.97   4
   4  -5   2 16985.6 1063.41   4
   4  -5   3 7807.12 687.845   4
   4  -5   4 1020.50 252.288   4
   4  -5   5 1377.81 263.090   4
   4  -5   6 4358.70 469.641   4
   4  -4  -6 2060.34 473.126   4
   4  -4  -5 1984.85 428.592   4
   4  -4  -4 2456.83 454.202   4
   4  -4  -3 2381.40 432.086   4
   4  -4  -2 1904.40 371.498   4
   4  -4  -1 232.543 45.0011   1
   4  -4  -1 568.674 213.387   4
   4  -4   0 5386.46 571.567   4
   4  -4   1 21221.0 1124.73   4
   4  -4   1 17556.0 589.557   1
   4  -4   2 5527.31 544.832   4
   4  -4   2 5472.66 358.747   1
   4  -4   3 8626.28 652.292   4
   4  -4   4 1818.34 288.267   4
   4  -4   5 8527.34 608.372   4
   4  -4   6 3484.76 363.260   4
   4  -3  -7 589.669 316.127   4
   4  -3  -6 832.833 312.065   4
   4  -3  -5 18703.0 1282.46   4
   4  -3  -4 18527.4 1232.85   4
   4  -3  -3 10814.4 894.665   4
   4  -3  -2 12981.3 521.265   1
   4  -3  -2 15488.2 1005.49   4
   4  -3  -1 8327.02 707.915   4
   4  -3   0 45302.4 1767.08   4
   4  -3   1 26769.1 1227.83   4
   4  -3   2 36103.6 1400.83   4
   4  -3   2 33922.9 999.475   1
   4  -3   3 11155.5 687.400   4
   4  -3   3 11355.7 591.199   1
   4  -3   4 7643.83 539.062   4
   4  -3   5 10496.3 600.024   4
   4  -3   6 19228.5 791.966   4
   4  -2  -7-59.5398 178.484   4
   4  -2  -6-146.806 151.780   4
   4  -2  -5 4893.81 635.818   4
   4  -2  -4 1353.27 240.085   1
   4  -2  -4 1398.01 330.869   4
   4  -2  -3 5011.25 397.189   1
   4  -2  -3 6063.77 634.016   4
   4  -2  -2 15077.0 607.438   1
   4  -2  -2 15885.6 993.819   4
   4  -2  -1 37611.8 1563.18   4
   4  -2   0 62545.4 2074.44   4
   4  -2   1 37615.5 1431.64   4
   4  -2   2 43145.6 1495.27   4
   4  -2   3 24023.9 982.279   4
   4  -2   3 25252.1 902.544   1
   4  -2   4 85356.4 2255.34   4
   4  -2   5 6911.62 398.268   4
   4  -2   6 7394.57 348.366   4
   4  -1  -7 262.110 194.987   4
   4  -1  -6 5214.96 678.051   4
   4  -1  -5 10744.1 812.925   1
   4  -1  -5 12180.5 990.986   4
   4  -1  -4 2135.38 315.507   1
   4  -1  -4 1989.52 383.141   4
   4  -1  -3 2863.86 320.243   1
   4  -1  -3 3871.98 494.823   4
   4  -1  -2 1838.28 215.765   1
   4  -1  -2 1998.00 330.701   4
   4  -1  -1 29714.5 1315.48   4
   4  -1   0 59525.9 1969.05   4
   4  -1   1 76163.5 2237.33   4
   4  -1   2 767.412 158.973   4
   4  -1   3 10566.3 554.743   4
   4  -1   4 123488. 2904.23   4
   4  -1   5 39758.1 1056.18   4
   4   0  -6 2705.39 486.344   4
   4   0  -6 2433.40 451.942   1
   4   0  -5 1001.56 267.110   1
   4   0  -5 969.167 280.681   4
   4   0  -4 4063.00 458.641   1
   4   0  -4 2954.38 466.457   4
   4   0  -3 6610.16 532.110   1
   4   0  -3 6780.09 653.995   4
   4   0  -2 3904.73 352.188   1
   4   0  -2 3728.92 455.462   4
   4   0  -1 573.504 150.763   4
   4   0   0 25691.9 1125.21   4
   4   0   1 73931.5 2150.20   4
   4   0   2 5306.26 403.003   4
   4   0   3 14363.3 636.760   4
   4   0   4 32559.9 977.552   4
   4   1  -6 2506.97 467.037   1
   4   1  -5 56.2042 127.484   1
   4   1  -4 852.255 229.024   1
   4   1  -4 852.816 260.159   4
   4   1  -3 8915.96 666.853   1
   4   1  -3 9220.65 767.170   4
   4   1  -2 14224.3 911.557   4
   4   1  -1 2743.56 363.669   4
   4   1   0 35735.9 1377.82   4
   4   1   1 522.139 149.075   4
   4   1   2 29714.6 1094.01   4
   4   2  -7 2092.98 477.925   1
   4   2  -6 1976.36 443.383   1
   4   2  -5 1297.41 316.224   1
   4   2  -4 4506.04 549.018   1
   4   2   6 22445.6 777.601   2
   4   3   6 35413.6 1252.95   2
   5  -9   3 2440.68 506.587   4
   5  -9   4 51.3384 141.441   4
   5  -8   0 1407.96 407.458   4
   5  -8   1 443.896 233.255   4
   5  -8   2 4680.08 699.670   4
   5  -8   3 4370.27 673.799   4
   5  -8   4-32.6110 112.708   4
   5  -8   5 576.456 243.847   4
   5  -7  -2 1685.43 445.298   4
   5  -7  -1 3351.42 618.550   4
   5  -7   0 8657.04 937.795   4
   5  -7   1 5604.94 742.773   4
   5  -7   2 11922.8 1081.35   4
   5  -7   3 4551.56 631.158   4
   5  -7   4 8588.81 853.827   4
   5  -7   5 3909.36 575.884   4
   5  -6  -3 5073.51 760.754   4
   5  -6  -2 132.496 162.263   4
   5  -6  -1 2718.75 525.773   4
   5  -6   0 8286.67 866.633   4
   5  -6   1 26583.3 1564.15   4
   5  -6   2 9612.98 886.215   4
   5  -6   3 6841.91 731.906   4
   5  -6   4 14733.7 1053.50   4
   5  -6   5 1415.16 308.436   4
   5  -5  -4 3076.63 578.509   4
   5  -5  -3 4161.66 645.944   4
   5  -5  -2 1521.71 398.644   4
   5  -5  -1 1432.50 352.825   4
   5  -5   0 12473.9 1006.87   4
   5  -5   1 27609.0 1501.69   4
   5  -5   2 829.338 251.137   4
   5  -5   3 7912.00 722.765   4
   5  -5   4 16623.0 1060.76   4
   5  -5   5 3679.59 466.854   4
   5  -5   6 3664.77 450.827   4
   5  -4  -5 264.239 204.260   4
   5  -4  -4 2728.86 517.355   4
   5  -4  -3 976.312 329.727   4
   5  -4  -2 133.075 153.424   4
   5  -4  -1 122.303 173.899   4
   5  -4   0 66158.8 2482.26   4
   5  -4   1 41692.2 1809.29   4
   5  -4   2 885.404 235.691   4
   5  -4   3 8209.75 679.405   4
   5  -4   4 11094.6 773.171   4
   5  -4   5 12202.7 781.006   4
   5  -4   6 4039.97 415.215   4
   5  -3  -5 462.520 248.132   4
   5  -3  -4 5283.26 695.890   4
   5  -3  -3 6552.82 738.677   4
   5  -3  -2 575.252 237.171   4
   5  -3  -1 5020.37 604.199   4
   5  -3   0 30419.4 1490.46   4
   5  -3   1 1104.05 257.978   4
   5  -3   2 128.911 115.611   4
   5  -3   3 1547.79 187.890   1
   5  -3   3 1401.38 259.064   4
   5  -3   4 9373.19 648.652   4
   5  -3   5 13710.7 753.897   4
   5  -3   6 12773.6 670.510   4
   5  -2  -6 738.518 316.555   4
   5  -2  -5 837.574 293.160   4
   5  -2  -4 1603.61 413.511   4
   5  -2  -3 20035.3 1301.77   4
   5  -2  -2 5093.52 601.108   4
   5  -2  -1 54109.2 2119.84   4
   5  -2   0 87057.3 2798.27   4
   5  -2   1 23178.5 1177.77   4
   5  -2   2 19734.7 1019.18   4
   5  -2   3 5789.96 491.305   4
   5  -2   4 35530.1 1304.50   4
   5  -2   5 38532.7 1294.15   4
   5  -2   6 36070.5 1123.88   4
   5  -1  -6 2256.59 492.928   4
   5  -1  -5 1105.20 355.572   4
   5  -1  -4 1573.49 378.608   4
   5  -1  -3 533.422 206.272   4
   5  -1  -2-0.42508 151.818   4
   5  -1  -1 23382.7 1250.78   4
   5  -1   0 17567.3 1013.85   4
   5  -1   1 42236.1 1622.00   4
   5  -1   2 29245.6 1228.31   4
   5  -1   3 8915.99 581.958   4
   5  -1   4 25359.2 996.718   4
   5  -1   5 90765.4 2307.79   4
   5  -1   6 72586.4 1749.96   4
   5   0  -5 310.392 202.698   4
   5   0  -4 4431.02 606.250   4
   5   0  -3 5830.92 665.812   4
   5   0  -2 17888.1 1136.11   4
   5   0  -1 19710.5 1132.69   4
   5   0   0-0.66568 91.3568   4
   5   0   1 19530.9 1013.72   4
   5   0   2 25841.4 1131.57   4
   5   0   3 30461.7 1173.50   4
   5   0   4 1326.75 198.610   4
   5   1  -3 112.280 169.062   4
   5   1  -2 26963.7 1418.94   4
   5   1  -1 15021.4 969.471   4
   5   1   0 2890.77 393.800   4
   5   1   1 2049.10 309.937   4
   5   1   2 20153.3 972.211   4
   6  -8   2 744.822 322.018   4
   6  -8   3 395.011 221.257   4
   6  -8   4 760.018 318.684   4
   6  -7   0 4835.38 733.140   4
   6  -7   1 4371.42 684.466   4
   6  -7   2 4314.80 657.191   4
   6  -7   3 265.740 168.693   4
   6  -7   4 1976.74 441.835   4
   6  -7   5 4129.65 604.110   4
   6  -6  -1 3392.38 622.953   4
   6  -6   0 4314.72 678.542   4
   6  -6   1 12066.1 1088.12   4
   6  -6   2 13082.9 1104.81   4
   6  -6   3 2451.65 462.412   4
   6  -6   4 3341.93 512.229   4
   6  -6   5 11394.0 933.292   4
   6  -5  -2 4345.77 670.395   4
   6  -5  -1 8342.50 912.501   4
   6  -5   0 4098.59 621.249   4
   6  -5   1 19427.6 1330.85   4
   6  -5   2 6812.44 744.850   4
   6  -5   3 4633.56 590.352   4
   6  -5   4 5198.87 602.673   4
   6  -5   5 28636.1 1451.71   4
   6  -4  -3-35.1646 165.793   4
   6  -4  -2 3748.32 623.180   4
   6  -4  -1 2450.22 470.546   4
   6  -4   0 9935.00 911.346   4
   6  -4   1 9891.41 888.505   4
   6  -4   2 6298.39 670.882   4
   6  -4   3 612.994 206.771   4
   6  -4   4 256.105 107.375   4
   6  -4   5 20770.9 1121.25   4
   6  -3  -4 19.7365 185.868   4
   6  -3  -3 275.559 200.281   4
   6  -3  -2 3480.18 566.797   4
   6  -3  -1 3695.14 562.628   4
   6  -3   0 2443.26 446.616   4
   6  -3   1 94.0818 131.601   4
   6  -3   2 24851.2 1330.41   4
   6  -3   3 13040.0 894.194   4
   6  -3   4 6841.53 597.229   4
   6  -3   5 20783.5 1045.49   4
   6  -3   6 13883.5 778.755   4
   6  -2  -4 34.4046 161.142   4
   6  -2  -3 81.0023 175.957   4
   6  -2  -2 7011.44 774.941   4
   6  -2  -1 39013.9 1863.65   4
   6  -2   0 1397.78 313.371   4
   6  -2   1 5254.95 605.328   4
   6  -2   2 3355.33 447.034   4
   6  -2   3 57.6580 114.856   4
   6  -2   4 3488.41 403.643   4
   6  -2   5 5216.41 459.396   4
   6  -2   6 13487.8 691.712   4
   6  -1  -4 342.765 235.009   4
   6  -1  -3 406.864 226.274   4
   6  -1  -2 5669.07 695.915   4
   6  -1  -1 57531.7 2333.11   4
   6  -1   0 5390.10 627.051   4
   6  -1   1 33781.5 1545.58   4
   6  -1   2 56760.5 2043.68   4
   6  -1   3 58147.2 1994.42   4
   6  -1   4 29642.8 1236.35   4
   6  -1   5 24567.9 1035.85   4
   6  -1   6 15798.4 707.300   4
   6   0  -5 1287.89 348.563   4
   6   0  -4 1624.63 413.762   4
   6   0  -3 102.252 139.331   4
   6   0  -2 25184.1 1483.07   4
   6   0  -1 10623.8 891.624   4
   6   0   0 514.111 206.238   4
   6   0   1 1.48234 91.9284   4
   6   0   2 6083.89 572.754   4
   6   0   3 51669.7 1828.38   4
   6   0   4 50030.4 1702.96   4
   6   0   5 24376.2 1003.04   4
   6   1  -3 645.818 283.713   4
   6   1  -2 23591.8 1429.73   4
   6   1  -1 10275.4 882.308   4
   6   1   0 15010.8 1017.13   4
   6   1   1 2178.11 362.507   4
   6   1   2 147.083 124.939   4
   6   1   3 27281.7 1230.02   4
   7  -7   2 6425.42 848.682   4
   7  -7   3 4400.18 684.002   4
   7  -7   4 673.481 236.107   4
   7  -6   1-306.632 226.926   4
   7  -6   2 2379.75 514.673   4
   7  -6   3 3530.18 575.270   4
   7  -6   4 1452.05 365.909   4
   7  -6   5 3428.88 553.540   4
   7  -5  -1 13194.0 1238.49   4
   7  -5   0 7684.62 903.404   4
   7  -5   1 5551.38 755.877   4
   7  -5   2 5386.73 707.455   4
   7  -5   3 8539.08 854.605   4
   7  -5   4 9479.02 874.562   4
   7  -5   5 9852.02 860.250   4
   7  -4  -1 2363.37 521.320   4
   7  -4   0 6697.08 825.139   4
   7  -4   1 7996.50 853.069   4
   7  -4   2 3674.32 572.444   4
   7  -4   3 10350.4 897.836   4
   7  -4   4 10973.8 897.526   4
   7  -4   5 9554.10 796.434   4
   7  -3  -2 2218.14 496.989   4
   7  -3  -1 628.226 302.193   4
   7  -3   0 5123.44 688.863   4
   7  -3   1-12.5311 171.851   4
   7  -3   2 1830.95 393.228   4
   7  -3   3 11713.1 925.158   4
   7  -3   4 23761.9 1296.06   4
   7  -3   5 1194.21 269.538   4
   7  -2  -3 2320.93 547.162   4
   7  -2  -2 576.523 243.997   4
   7  -2  -1 8369.66 887.029   4
   7  -2   0 5890.25 712.744   4
   7  -2   1-112.594 130.983   4
   7  -2   2 641.906 221.746   4
   7  -2   3 6411.52 651.083   4
   7  -2   4 27694.7 1349.68   4
   7  -2   5 5455.78 526.431   4
   7  -1  -3 2599.27 541.820   4
   7  -1  -2 533.302 227.543   4
   7  -1  -1 4276.57 626.936   4
   7  -1   0 7572.92 801.742   4
   7  -1   1 9783.01 865.024   4
   7  -1   2 2561.91 422.035   4
   7  -1   3 8202.81 717.954   4
   7  -1   4 7214.80 635.606   4
   7  -1   5 259.885 88.7391   4
   7  -1   6 328.936 125.492   4
   7   0  -3 5860.43 795.242   4
   7   0  -2 6692.56 809.332   4
   7   0  -1 384.017 222.957   4
   7   0   0 2260.81 431.890   4
   7   0   1 12852.0 985.444   4
   7   0   2 10999.0 865.435   4
   7   0   3 50233.2 1954.95   4
   7   0   4 46588.4 1783.52   4
   7   0   5 38625.7 1507.07   4
   7   1  -2 9823.88 1001.41   4
   7   1  -1-101.309 165.107   4
   7   1   0 9458.90 884.958   4
   7   1   1 5294.73 638.744   4
   7   1   2 4205.94 535.780   4
   7   1   3 1114.32 273.205   4
   8  -6   3 6690.09 853.276   4
   8  -6   4 3186.09 575.014   4
   8  -5   2 1199.60 372.578   4
   8  -5   3 14.9444 188.163   4
   8  -5   4 766.784 294.142   4
   8  -4   1 15204.5 1276.90   4
   8  -4   2 13676.3 1172.62   4
   8  -4   3 4816.24 666.331   4
   8  -4   4 10536.8 954.794   4
   8  -4   5 8954.37 836.656   4
   8  -3   0 702.814 302.445   4
   8  -3   1 4353.94 656.044   4
   8  -3   2 2226.02 453.320   4
   8  -3   3 5153.29 648.548   4
   8  -3   4 13544.1 1038.99   4
   8  -3   5 9150.90 804.739   4
   8  -2  -1 13.3575 175.801   4
   8  -2   0 1520.34 427.809   4
   8  -2   1 1077.67 354.847   4
   8  -2   2 806.181 285.162   4
   8  -2   3 1489.14 348.163   4
   8  -2   4 4602.59 576.265   4
   8  -2   5 3844.94 505.521   4
   8  -1  -1 1110.43 365.384   4
   8  -1   0 579.318 238.811   4
   8  -1   1 4648.81 667.102   4
   8  -1   2 7605.05 798.727   4
   8  -1   3 5939.76 673.956   4
   8  -1   4 516.057 209.772   4
   8  -1   5 953.115 238.322   4
   8   0  -1 1620.04 428.468   4
   8   0   0 4.24036 155.138   4
   8   0   1 1234.66 332.619   4
   8   0   2 15652.1 1152.98   4
   8   0   3 13797.4 1029.25   4
   8   0   4 4610.63 561.577   4
   8   0   5 7651.80 680.368   4
   8   1   0 1435.81 415.278   4
   8   1   1 4465.39 647.668   4
   8   1   2 12356.9 1020.63   4
   9  -5   4 5099.64 716.265   4
   9  -4   3 26.9695 153.044   4
   9  -4   4 2703.12 511.313   4
   9  -3   2 1125.92 364.878   4
   9  -3   3 7691.62 884.072   4
   9  -3   4 14751.5 1184.92   4
   9  -3   5 10890.0 959.884   4
   9  -2   1 2872.14 593.944   4
   9  -2   2 656.222 221.101   4
   9  -2   3 3124.18 545.590   4
   9  -2   4 3574.18 575.020   4
   9  -2   5 4963.31 628.317   4
   9  -1   1-60.0925 208.331   4
   9  -1   2 1458.88 373.971   4
   9  -1   3 3021.14 524.714   4
   9  -1   4 648.128 283.253   4
   9  -1   5 231.388 135.207   4
   9   0   1 1049.90 371.224   4
   9   0   2 5158.69 712.938   4
   9   0   3 6998.46 797.579   4
   9   0   4 2526.02 462.471   4
  10  -3   4 2148.89 486.269   4
  10  -2   3 3338.56 610.055   4
  10  -2   4 1789.47 445.444   4
  10  -1   3 3790.32 632.548   4
  10  -1   4 3487.80 600.496   4
  10   0   3 1029.44 361.206   4
   0   0   0    0.00    0.00   0
TITL CL_3083 in P1
REM P1 (#1 in standard setting)
CELL 0.71073   8.045770   8.474111   8.625819  84.1739  62.4203  82.4127
ZERR    1.00   0.000666   0.000601   0.000614   0.0059   0.0078   0.0066
LATT -1
SFAC C H N O F Cu
UNIT 40.00 46.00 10.00 4.00 1.00 1.00
TREF
HKLF 4
END
;
_shelx_hkl_checksum              25509
loop_
_space_group_symop_operation_xyz
'x, y, z'
'-x, -y, -z'
loop_
_atom_site_label
_atom_site_type_symbol
_atom_site_fract_x
_atom_site_fract_y
_atom_site_fract_z
_atom_site_U_iso_or_equiv
_atom_site_adp_type
_atom_site_occupancy
_atom_site_site_symmetry_order
_atom_site_calc_flag
_atom_site_refinement_flags_posn
_atom_site_refinement_flags_adp
_atom_site_refinement_flags_occupancy
_atom_site_disorder_assembly
_atom_site_disorder_group
Cu1 Cu 1.0000 0.0000 0.5000 0.0324(2) Uani 1 2 d S . P . .
N1 N 0.9484(3) -0.0841(3) 0.3160(3) 0.0324(6) Uani 1 1 d . . . . .
N2 N 0.4665(5) 0.0742(5) 0.2548(4) 0.0366(8) Uani 0.885(4) 1 d . . P A 1
O1 O 0.2991(4) 0.0909(3) 0.2400(3) 0.0418(7) Uani 0.885(4) 1 d . . P A 1
H1 H 0.2481 0.1817 0.2636 0.063 Uiso 0.885(4) 1 calc R U P A 1
O1A O 0.426(3) 0.163(3) 0.312(3) 0.0418(7) Uani 0.115(4) 1 d . . P A 2
H1A H 0.5358 0.1837 0.2596 0.063 Uiso 0.115(4) 1 calc R U P A 2
N2A N 0.405(4) 0.034(4) 0.240(4) 0.0366(8) Uani 0.115(4) 1 d . . P A 2
O2 O 0.8517(3) 0.1980(3) 0.4915(3) 0.0382(5) Uani 1 1 d . . . . .
O3 O 1.0828(3) 0.3490(3) 0.3248(3) 0.0538(7) Uani 1 1 d . . . . .
C1 C 1.0792(4) -0.1803(4) 0.1954(4) 0.0388(7) Uani 1 1 d . . . . .
H1C H 1.1934 -0.2090 0.1982 0.047 Uiso 1 1 calc R U . . .
C2 C 1.0508(5) -0.2386(4) 0.0669(4) 0.0435(8) Uani 1 1 d . . . . .
H2 H 1.1449 -0.3042 -0.0163 0.052 Uiso 1 1 calc R U . . .
C3 C 0.8818(5) -0.1982(4) 0.0637(4) 0.0406(8) Uani 1 1 d . . . . .
H3 H 0.8592 -0.2380 -0.0206 0.049 Uiso 1 1 calc R U . . .
C4 C 0.7450(4) -0.0981(4) 0.1863(4) 0.0321(7) Uani 1 1 d . . . . .
C5 C 0.7851(4) -0.0431(4) 0.3100(4) 0.0320(7) Uani 1 1 d . . . . .
H5 H 0.6945 0.0252 0.3925 0.038 Uiso 1 1 calc R U . . .
C6 C 0.5645(5) -0.0527(4) 0.1840(4) 0.0405(8) Uani 1 1 d . . . . .
H6 H 0.5216 -0.1164 0.1310 0.049 Uiso 1 1 calc R U . A 1
C7 C 0.9132(4) 0.3270(4) 0.4106(4) 0.0346(7) Uani 1 1 d . . . . .
C8 C 0.7693(5) 0.4632(4) 0.4199(5) 0.0465(9) Uani 1 1 d . . . . .
H8A H 0.8060 0.5090 0.3022 0.056 Uiso 1 1 calc R U . . .
H8B H 0.7751 0.5444 0.4884 0.056 Uiso 1 1 calc R U . . .
C9 C 0.5676(4) 0.4272(4) 0.4960(5) 0.0426(8) Uani 1 1 d . . . . .
H9A H 0.5293 0.3801 0.6133 0.051 Uiso 1 1 calc R U . . .
H9B H 0.5588 0.3492 0.4259 0.051 Uiso 1 1 calc R U . . .
C1X C 0.510(2) 0.5331(16) 0.984(2) 0.047(3) Uiso 0.3 1 d D . P B -1
H1X1 H 0.4697 0.6450 0.9878 0.070 Uiso 0.3 1 calc R U P B -1
H1X2 H 0.6204 0.5117 0.8755 0.070 Uiso 0.3 1 calc R U P B -1
H1X3 H 0.5386 0.5011 1.0799 0.070 Uiso 0.3 1 calc R U P B -1
O1X O 0.3690(16) 0.4493(16) 0.9975(18) 0.104(4) Uiso 0.3 1 d D . P B -1
H1X H 0.3133 0.4065 1.0951 0.157 Uiso 0.3 1 d R U P B -1
O1WX O 0.572(3) 0.471(3) 0.893(3) 0.085(6) Uiso 0.15 1 d . . P C -2
loop_
_atom_site_aniso_label
_atom_site_aniso_U_11
_atom_site_aniso_U_22
_atom_site_aniso_U_33
_atom_site_aniso_U_23
_atom_site_aniso_U_13
_atom_site_aniso_U_12
Cu1 0.0340(3) 0.0286(3) 0.0430(3) -0.0020(2) -0.0260(3) 0.0030(2)
N1 0.0307(14) 0.0333(14) 0.0340(13) 0.0014(11) -0.0160(11) -0.0031(11)
N2 0.0290(19) 0.047(2) 0.0401(17) -0.0004(16) -0.0212(14) -0.0036(15)
O1 0.0304(15) 0.0479(16) 0.0529(16) -0.0023(13) -0.0250(13) 0.0012(12)
O1A 0.0304(15) 0.0479(16) 0.0529(16) -0.0023(13) -0.0250(13) 0.0012(12)
N2A 0.0290(19) 0.047(2) 0.0401(17) -0.0004(16) -0.0212(14) -0.0036(15)
O2 0.0374(12) 0.0295(12) 0.0548(14) -0.0013(10) -0.0290(11) 0.0036(10)
O3 0.0339(14) 0.0511(16) 0.0661(16) 0.0003(12) -0.0162(12) 0.0021(12)
C1 0.0313(17) 0.0407(19) 0.0431(18) -0.0012(14) -0.0167(14) -0.0005(14)
C2 0.042(2) 0.046(2) 0.0370(18) -0.0089(15) -0.0137(15) 0.0041(16)
C3 0.045(2) 0.045(2) 0.0363(17) -0.0014(14) -0.0221(15) -0.0052(15)
C4 0.0352(17) 0.0331(17) 0.0297(15) 0.0059(12) -0.0171(13) -0.0053(13)
C5 0.0294(16) 0.0345(17) 0.0316(15) 0.0013(13) -0.0145(13) -0.0010(13)
C6 0.0400(19) 0.048(2) 0.0387(18) -0.0027(15) -0.0234(15) -0.0001(16)
C7 0.0337(18) 0.0370(19) 0.0394(17) -0.0080(14) -0.0225(14) 0.0035(14)
C8 0.040(2) 0.0333(19) 0.068(2) 0.0055(16) -0.0287(18) 0.0004(15)
C9 0.0404(19) 0.0277(17) 0.063(2) 0.0035(15) -0.0292(17) 0.0034(15)
loop_
_atom_type_symbol
_atom_type_description
_atom_type_scat_dispersion_real
_atom_type_scat_dispersion_imag
_atom_type_scat_source
C C 0.0033 0.0016 'International Tables Vol C Tables 4.2.6.8 and 6.1.1.4'
H H 0.0000 0.0000 'International Tables Vol C Tables 4.2.6.8 and 6.1.1.4'
Cu Cu 0.3201 1.2651 'International Tables Vol C Tables 4.2.6.8 and 6.1.1.4'
N N 0.0061 0.0033 'International Tables Vol C Tables 4.2.6.8 and 6.1.1.4'
O O 0.0106 0.0060 'International Tables Vol C Tables 4.2.6.8 and 6.1.1.4'
loop_
_geom_angle_atom_site_label_1
_geom_angle_atom_site_label_2
_geom_angle_atom_site_label_3
_geom_angle
_geom_angle_site_symmetry_1
_geom_angle_site_symmetry_3
_geom_angle_publ_flag
O2 Cu1 O2 180.0 2_756 . ?
O2 Cu1 N1 89.08(9) 2_756 2_756 ?
O2 Cu1 N1 90.92(9) . 2_756 ?
O2 Cu1 N1 90.92(9) 2_756 . ?
O2 Cu1 N1 89.08(9) . . ?
N1 Cu1 N1 180.0 2_756 . ?
C5 N1 C1 118.3(3) . . ?
C5 N1 Cu1 121.3(2) . . ?
C1 N1 Cu1 120.5(2) . . ?
C6 N2 O1 109.4(3) . . ?
C6 N2A O1A 106(2) . . ?
C7 O2 Cu1 126.9(2) . . ?
N1 C1 C2 122.3(3) . . ?
C3 C2 C1 119.0(3) . . ?
C2 C3 C4 119.7(3) . . ?
C3 C4 C5 117.9(3) . . ?
C3 C4 C6 120.5(3) . . ?
C5 C4 C6 121.7(3) . . ?
N1 C5 C4 122.8(3) . . ?
N2 C6 C4 119.6(3) . . ?
N2A C6 C4 150.0(13) . . ?
O3 C7 O2 124.9(3) . . ?
O3 C7 C8 118.1(3) . . ?
O2 C7 C8 117.0(3) . . ?
C7 C8 C9 117.4(3) . . ?
C8 C9 C9 113.5(3) . 2_666 ?
loop_
_geom_bond_atom_site_label_1
_geom_bond_atom_site_label_2
_geom_bond_distance
_geom_bond_site_symmetry_2
_geom_bond_publ_flag
Cu1 O2 1.942(2) 2_756 ?
Cu1 O2 1.942(2) . ?
Cu1 N1 2.029(2) 2_756 ?
Cu1 N1 2.029(2) . ?
N1 C5 1.337(4) . ?
N1 C1 1.337(4) . ?
N2 C6 1.271(5) . ?
N2 O1 1.399(4) . ?
O1A N2A 1.37(4) . ?
N2A C6 1.29(3) . ?
O2 C7 1.262(4) . ?
O3 C7 1.244(4) . ?
C1 C2 1.378(4) . ?
C2 C3 1.370(4) . ?
C3 C4 1.380(4) . ?
C4 C5 1.385(4) . ?
C4 C6 1.461(4) . ?
C7 C8 1.504(4) . ?
C8 C9 1.504(5) . ?
C9 C9 1.517(6) 2_666 ?
C1X O1X 1.371(9) . ?
loop_
_geom_hbond_atom_site_label_D
_geom_hbond_atom_site_label_H
_geom_hbond_atom_site_label_A
_geom_hbond_distance_DH
_geom_hbond_distance_HA
_geom_hbond_distance_DA
_geom_hbond_angle_DHA
_geom_hbond_site_symmetry_A
O1 H1 O3 0.82 1.75 2.547(4) 163.7 1_455
C1 H1C O1WX 0.93 2.64 3.33(2) 131.5 2_756
C2 H2 O1X 0.93 2.60 3.320(13) 134.2 1_644
C5 H5 O1A 0.93 2.66 3.17(2) 115.0 .
C8 H8B O3 0.97 2.65 3.527(5) 151.3 2_766
C1X H1X2 O3 0.96 2.57 3.328(14) 136.3 2_766
O1X H1X O3 0.82 2.06 2.829(13) 156.1 1_456
