#------------------------------------------------------------------------------
#$Date: 2019-11-07 22:55:18 +0200 (Thu, 07 Nov 2019) $
#$Revision: 223893 $
#$URL: file:///home/coder/svn-repositories/cod/cif/7/70/04/7700422.cif $
#------------------------------------------------------------------------------
#
# This file is available in the Crystallography Open Database (COD),
# http://www.crystallography.net/
#
# All data on this site have been placed in the public domain by the
# contributors.
#
data_7700422
loop_
_publ_author_name
'Bilyj, Jessica K.'
'Silajew, Nicole V.'
'Hanson, Graeme R.'
'Harmer, Jeffrey R.'
'Bernhardt, Paul V.'
_publ_section_title
;
 Trivalent copper stabilised by acetylacetone dithiocarbazate Schiff base
 ligands: structural, spectroscopic and electrochemical properties.
;
_journal_issue                   41
_journal_name_full
'Dalton transactions (Cambridge, England : 2003)'
_journal_page_first              15501
_journal_page_last               15514
_journal_paper_doi               10.1039/c9dt02071c
_journal_volume                  48
_journal_year                    2019
_chemical_formula_sum            'C9 H13 Cu N4 S4'
_chemical_formula_weight         369.01
_space_group_IT_number           2
_space_group_name_Hall           '-P 1'
_space_group_name_H-M_alt        'P -1'
_symmetry_cell_setting           triclinic
_symmetry_Int_Tables_number      2
_symmetry_space_group_name_Hall  '-P 1'
_symmetry_space_group_name_H-M   'P -1'
_atom_sites_solution_hydrogens   geom
_audit_conform_dict_location     ftp://ftp.iucr.org/pub/cif_core.dic
_audit_conform_dict_name         cif_core.dic
_audit_conform_dict_version      2.4.5
_audit_creation_date             2019-05-17T15:44:36-00:00
_audit_creation_method           'WinGX routine CIF_UPDATE'
_audit_update_record
;
2019-05-17 deposited with the CCDC.    2019-07-02 downloaded from the CCDC.
;
_cell_angle_alpha                106.962(6)
_cell_angle_beta                 107.126(7)
_cell_angle_gamma                90.272(6)
_cell_formula_units_Z            2
_cell_length_a                   7.5839(7)
_cell_length_b                   8.7981(6)
_cell_length_c                   11.6005(9)
_cell_measurement_reflns_used    1891
_cell_measurement_temperature    190(2)
_cell_measurement_theta_max      61.99
_cell_measurement_theta_min      4.18
_cell_measurement_wavelength     1.54184
_cell_volume                     704.04(11)
_computing_cell_refinement
'CrysalisPro  Version 1.171.36.28 (Agilent Technologies, 2013)'
_computing_data_collection
'CrysalisPro  Version 1.171.36.28 (Agilent Technologies, 2013)'
_computing_data_reduction
'CrysalisPro  Version 1.171.36.28 (Agilent Technologies, 2013)'
_computing_molecular_graphics    'Ortep for Windows (Farrugia, 2012)'
_computing_publication_material  'WinGX publication routines (Farrugia, 2012)'
_computing_structure_refinement  'SHELXL-2018/1 (Sheldrick, 2018)'
_diffrn_ambient_temperature      190(2)
_diffrn_detector                 'CCD plate'
_diffrn_detector_area_resol_mean 16.07
_diffrn_measured_fraction_theta_full 0.988
_diffrn_measured_fraction_theta_max 0.988
_diffrn_measurement_device       '\k-geometry diffractometer'
_diffrn_measurement_device_type
'Agilent Technologies Xcalibur, Sapphire3, Gemini ultra'
_diffrn_measurement_method       '\w scans'
_diffrn_orient_matrix_UB_11      -0.088468
_diffrn_orient_matrix_UB_12      0.082139
_diffrn_orient_matrix_UB_13      -0.100727
_diffrn_orient_matrix_UB_21      -0.189484
_diffrn_orient_matrix_UB_22      -0.021367
_diffrn_orient_matrix_UB_23      0.019994
_diffrn_orient_matrix_UB_31      0.043595
_diffrn_orient_matrix_UB_32      0.163225
_diffrn_orient_matrix_UB_33      0.103782
_diffrn_radiation_monochromator  mirror
_diffrn_radiation_probe          x-ray
_diffrn_radiation_type           CuK\a
_diffrn_radiation_wavelength     1.5418
_diffrn_reflns_av_R_equivalents  0.0232
_diffrn_reflns_av_unetI/netI     0.0317
_diffrn_reflns_Laue_measured_fraction_full 0.988
_diffrn_reflns_Laue_measured_fraction_max 0.988
_diffrn_reflns_limit_h_max       7
_diffrn_reflns_limit_h_min       -8
_diffrn_reflns_limit_k_max       10
_diffrn_reflns_limit_k_min       -9
_diffrn_reflns_limit_l_max       13
_diffrn_reflns_limit_l_min       -13
_diffrn_reflns_number            4546
_diffrn_reflns_point_group_measured_fraction_full 0.988
_diffrn_reflns_point_group_measured_fraction_max 0.988
_diffrn_reflns_reduction_process
;
 Scaled and merged with Sortav
 R.H. Blessing, (1987) Cryst. Rev. 1, 3-58
 R.H. Blessing, (1989) J. Appl. Cryst. 22, 396-397
;
_diffrn_reflns_theta_full        62.468
_diffrn_reflns_theta_max         62.468
_diffrn_reflns_theta_min         4.19
_diffrn_source                   'Enhance Ultra (Cu) X-ray Source'
_diffrn_standards_number         0
_exptl_absorpt_coefficient_mu    7.63
_exptl_absorpt_correction_T_max  1
_exptl_absorpt_correction_T_min  0.381
_exptl_absorpt_correction_type   multi-scan
_exptl_absorpt_process_details
;
        CrysAlisPro, Agilent Technologies,
        Version 1.171.36.28 (release 01-02-2013 CrysAlis171 .NET)
        (compiled Feb  1 2013,16:14:44)
        Empirical absorption correction using spherical harmonics,
        implemented in SCALE3 ABSPACK scaling algorithm.
;
_exptl_crystal_colour            brown
_exptl_crystal_density_diffrn    1.741
_exptl_crystal_density_method    'not measured'
_exptl_crystal_description       plate
_exptl_crystal_F_000             376
_exptl_crystal_size_max          0.2
_exptl_crystal_size_mid          0.2
_exptl_crystal_size_min          0.02
_refine_diff_density_max         0.875
_refine_diff_density_min         -0.391
_refine_diff_density_rms         0.124
_refine_ls_extinction_method     none
_refine_ls_goodness_of_fit_ref   1.099
_refine_ls_hydrogen_treatment    constr
_refine_ls_matrix_type           full
_refine_ls_number_constraints    0
_refine_ls_number_parameters     163
_refine_ls_number_reflns         2215
_refine_ls_number_restraints     0
_refine_ls_restrained_S_all      1.099
_refine_ls_R_factor_all          0.0476
_refine_ls_R_factor_gt           0.0413
_refine_ls_shift/su_max          0
_refine_ls_shift/su_mean         0
_refine_ls_structure_factor_coef Fsqd
_refine_ls_weighting_details
'w=1/[\s^2^(Fo^2^)+(0.0738P)^2^] where P=(Fo^2^+2Fc^2^)/3'
_refine_ls_weighting_scheme      calc
_refine_ls_wR_factor_gt          0.106
_refine_ls_wR_factor_ref         0.1109
_reflns_Friedel_coverage         0
_reflns_number_gt                1939
_reflns_number_total             2215
_reflns_threshold_expression     'I > 2\s(I)'
_iucr_refine_instructions_details
;
TITL SIR92 run in space group P -1
    shelx.res
    created by SHELXL-2018/1 at 15:44:27 on 17-May-2019
CELL  1.54180   7.5839   8.7981  11.6005  106.962  107.126   90.272
ZERR     2.00   0.0007   0.0006   0.0009    0.006    0.007    0.006
LATT   1
SFAC  C    H    N    S    CU
UNIT  18 26 8 8 2
MERG   2
OMIT    -2.00 125.00
FMAP   2
PLAN    5
ACTA
BOND
CONF
L.S.  10
TEMP   -83.00
WGHT    0.073800
FVAR       3.93112
C1    1    1.128762    0.342739    0.402524    11.00000    0.03118    0.03607 =
         0.02643    0.00962    0.00366    0.00258
C2    1    1.050971    0.656639    0.282009    11.00000    0.03201    0.03143 =
         0.03460    0.00882    0.01156    0.00113
C3    1    0.940732    0.696134    0.175894    11.00000    0.03807    0.02780 =
         0.03637    0.01048    0.01087    0.00118
AFIX  43
H3    2    0.956444    0.805234    0.180689    11.00000   -1.20000
AFIX   0
C4    1    0.812156    0.600024    0.064929    11.00000    0.03324    0.02895 =
         0.03411    0.01324    0.01081    0.00434
C5    1    0.645154    0.208535   -0.096381    11.00000    0.03271    0.03304 =
         0.02626    0.01118    0.00639    0.00262
C6    1    1.169421    0.788003    0.393913    11.00000    0.03983    0.03653 =
         0.04167    0.01188    0.00446   -0.00341
AFIX  33
H6A   2    1.148809    0.890891    0.377934    11.00000   -1.50000
H6B   2    1.136424    0.788934    0.469672    11.00000   -1.50000
H6C   2    1.300315    0.769896    0.407147    11.00000   -1.50000
AFIX   0
C7    1    0.718311    0.672957   -0.036665    11.00000    0.04131    0.02837 =
         0.03544    0.01081    0.00547    0.00128
AFIX  33
H7A   2    0.764836    0.785927   -0.009662    11.00000   -1.50000
H7B   2    0.744796    0.616815   -0.115196    11.00000   -1.50000
H7C   2    0.584111    0.663687   -0.051382    11.00000   -1.50000
AFIX   0
C8    1    1.397054    0.463927    0.637665    11.00000    0.03718    0.04395 =
         0.03395    0.01082    0.00129    0.00097
AFIX  33
H8A   2    1.475967    0.443359    0.714166    11.00000   -1.50000
H8B   2    1.474991    0.501506    0.595517    11.00000   -1.50000
H8C   2    1.315654    0.545649    0.661001    11.00000   -1.50000
AFIX   0
C9    1    0.528166   -0.099731   -0.259394    11.00000    0.04498    0.03429 =
         0.04345   -0.00167   -0.00158    0.00384
AFIX  33
H9A   2    0.436380   -0.169957   -0.335409    11.00000   -1.50000
H9B   2    0.651224   -0.105679   -0.270804    11.00000   -1.50000
H9C   2    0.529314   -0.133730   -0.185923    11.00000   -1.50000
AFIX   0
N1    3    1.156302    0.484629    0.398207    11.00000    0.03121    0.03795 =
         0.02610    0.01175    0.00171    0.00000
N2    3    1.056278    0.505350    0.282655    11.00000    0.02810    0.03319 =
         0.02814    0.01246    0.00451    0.00152
N3    3    0.767852    0.444543    0.046719    11.00000    0.02922    0.03029 =
         0.02809    0.00814    0.00351    0.00569
N4    3    0.655692    0.363043   -0.072847    11.00000    0.03276    0.03152 =
         0.02697    0.00801    0.00205    0.00139
S1    4    0.962751    0.193491    0.290102    11.00000    0.03757    0.03223 =
         0.03222    0.01371   -0.00088   -0.00180
S2    4    0.791859    0.111500   -0.002433    11.00000    0.04123    0.02702 =
         0.03277    0.00915   -0.00306    0.00234
S3    4    1.258567    0.282708    0.531780    11.00000    0.04051    0.03774 =
         0.03057    0.01349   -0.00161    0.00240
S4    4    0.468898    0.101688   -0.233886    11.00000    0.04191    0.03474 =
         0.03454    0.01036   -0.00603    0.00007
CU1   5    0.897237    0.329056    0.155303    11.00000    0.03097    0.02748 =
         0.02709    0.00951    0.00157    0.00109
HKLF    4




REM  SIR92 run in space group P -1
REM R1 =  0.0413 for    1939 Fo > 4sig(Fo)  and  0.0476 for all    2215 data
REM    163 parameters refined using      0 restraints

END

WGHT      0.0744      0.0000

REM Highest difference peak  0.875,  deepest hole -0.391,  1-sigma level  0.124
Q1    1   1.0022  0.3172  0.1176  11.00000  0.05    0.87
Q2    1   0.7969  0.3429  0.1980  11.00000  0.05    0.73
Q3    1   0.7119  0.1247  0.0394  11.00000  0.05    0.68
Q4    1   0.5639  0.0946 -0.2653  11.00000  0.05    0.62
Q5    1   1.0447  0.1824  0.2559  11.00000  0.05    0.54
;
_cod_data_source_file            c9dt02071c2.cif
_cod_data_source_block           shelx_CCDC2
_cod_depositor_comments
'Adding full bibliography for 7700420--7700423.cif.'
_cod_original_cell_volume        704.04(10)
_cod_database_code               7700422
_shelx_shelxl_version_number     2018/1
_iucr_refine_reflections_details
;
   0   0   1 34091.5 429.653   1
   0   0   2 1493.63 143.893   1
   0   0   3 1474.04 179.900   1
   0   0   4 13445.7 564.351   1
   0   0   5 1208.30 209.353   1
   0   0   6 2074.92 287.469   1
   0   0   7 20007.0 474.751   8
   0   0   7 19766.6 493.781  26
   0   0   8 2154.71 200.634   8
   0   0   8 2129.15 199.914  26
   0   0   9 8399.58 397.184  26
   0   0   9 9086.99 382.377   8
   0   0  10 261.729 109.409   8
   0   0  11 460.658 129.272  15
   0   0  11 381.175 104.882  22
   0   0  12 242.164 86.4414  15
   0   0  12-6.38020 51.2903  22
   0  -1  12 488.143 111.846  15
   0  -1  12 135.603 61.1863  22
   0   1 -11 261.154 80.4256  10
   0  -1  11 275.078 88.9392  22
   0   1 -10 4541.20 290.518  10
   0  -1   9 14252.6 496.398  26
   0   1  -9 13843.4 486.973  10
   0  -1   9 13658.5 449.089   8
   0  -1   8 91877.6 1140.31  26
   0  -1   8 89304.7 1045.36   8
   0  -1   7 1598.98 150.233  26
   0  -1   7 1647.03 145.721  21
   0  -1   7 1716.59 142.785   8
   0  -1   7 1489.00 283.009   1
   0  -1   6 3833.19 433.846   1
   0  -1   5 17777.9 829.328   1
   0  -1   4 119453. 2434.79   2
   0  -1   3 1691.34 365.627   2
   0  -1   2 432.943 235.432   2
   0  -1   1 12740.3 475.490   2
   0   1   0 41530.7 427.709   3
   0  -1   0 43258.7 529.234   2
   0   1   1 2221.26 147.877   1
   0   1   2 30957.1 617.418   1
   0   1   3 17041.1 539.943   1
   0   1   4 33615.4 874.290   1
   0   1   5 47490.7 1181.78   1
   0   1   6 864.736 189.253   1
   0   1   6 1089.27 124.960   8
   0   1   7 774.294 123.972  26
   0   1   7 948.289 139.332   8
   0   1   7 806.072 126.279  21
   0   1   8 12118.8 453.302  26
   0   1   8 13098.9 455.205   8
   0   1   9 15637.4 490.042   5
   0   1   9 15835.2 520.189   8
   0   1  10 1345.57 175.963   8
   0   1  10 1280.87 178.930  15
   0   1  10 1177.46 185.555  22
   0   1  11 1472.21 176.910  22
   0   1  11 1745.64 185.307  15
   0   2 -12 3622.92 216.611  10
   0   2 -11 947.615 143.335  10
   0  -2  10 5770.24 302.516   4
   0  -2  10 5795.42 325.230  26
   0   2 -10 5388.85 317.585  10
   0   2  -9 959.805 148.396  10
   0  -2   9 988.123 157.075  26
   0  -2   8 843.506 227.579   1
   0  -2   8 372.855 105.418  26
   0  -2   7 4007.89 227.232  19
   0  -2   7 3687.96 212.442  26
   0  -2   7 3882.21 496.894   1
   0  -2   6 42830.5 1555.57   1
   0  -2   5 55252.9 2082.81   2
   0  -2   4 57377.5 2066.67   2
   0  -2   3 15327.3 1021.64   2
   0  -2   2 36022.8 1227.61   2
   0   2  -1 2767.42 163.366   3
   0  -2   1 3290.52 282.038   2
   0   2   0 46083.2 660.568   3
   0  -2   0 48487.8 828.841   2
   0   2   1 10615.6 415.563   1
   0   2   2 16440.6 554.086   1
   0   2   3 60146.3 1158.02   1
   0   2   4 17181.0 693.315   1
   0   2   5 487.110 135.196   1
   0   2   6-41.4093 57.1850  21
   0   2   6 39.7577 78.0469   8
   0   2   7 6765.04 339.002  15
   0   2   7 6691.78 337.734   8
   0   2   7 6524.19 315.420  21
   0   2   8 5867.32 336.017  15
   0   2   8 6103.10 343.020   8
   0   2   8 5962.91 325.952   5
   0   2   9 9732.09 436.641  15
   0   2   9 9217.09 398.559   5
   0   2   9 9802.68 425.789   8
   0   2   9 9153.34 473.327  22
   0   2  10 4745.14 295.711  15
   0   2  10 4578.46 318.078  22
   0   2  11 3284.32 233.212  22
   0   3 -12 1726.55 164.145  10
   0   3 -11 71.4083 75.3606  10
   0   3 -10 26980.6 709.972  10
   0  -3  10 29342.4 682.674   4
   0   3  -9 2004.87 201.660  10
   0  -3   9 2114.15 196.252  26
   0  -3   8 4707.73 614.797   1
   0  -3   8 5352.38 264.363  26
   0  -3   7 5617.45 835.940   2
   0  -3   7 4588.45 253.685  19
   0  -3   7 5594.25 652.699   1
   0  -3   7 4554.99 221.848  26
   0  -3   6 7532.68 926.637   2
   0  -3   5 516.530 369.052   2
   0  -3   4 45814.2 1980.44   2
   0  -3   3 26804.0 1327.00   2
   0  -3   2 1354.96 297.476   2
   0   3  -1 971.994 126.787   3
   0  -3   1 1347.80 221.072   2
   0  -3   0 679.268 141.755   2
   0   3   1 27339.5 377.984   5
   0  -3  -1 26724.8 779.989   2
   0   3   2 8457.20 243.026   5
   0   3   3 143068. 2095.35   1
   0   3   4 2470.84 311.122   1
   0   3   5 2.34247 112.728   5
   0   3   5 98.2457 83.0946   8
   0   3   5 21.3714 68.1484  15
   0   3   6 14317.9 452.007  15
   0   3   6 14955.3 481.365   5
   0   3   6 14848.1 480.249   8
   0   3   7 540.472 150.355   8
   0   3   7 472.804 137.440   5
   0   3   7 533.456 123.388  15
   0   3   8 523.951 145.354   5
   0   3   8 638.991 139.488  15
   0   3   8 603.117 148.057  22
   0   3   8 511.959 143.339   8
   0   3   9 3444.71 262.978   8
   0   3   9 2963.56 234.730  15
   0   3   9 2865.61 269.990  22
   0   3  10 2343.46 216.881  22
   0   4 -12 6518.34 274.328  14
   0   4 -12 6367.99 301.515  10
   0   4 -11 4167.39 279.232  10
   0   4 -10 1260.44 175.627  10
   0   4  -9-1.70015 76.1874  10
   0  -4   8 793.339 112.200  26
   0   4  -8 767.251 131.212  10
   0  -4   7 2911.78 646.770   2
   0  -4   7 3236.99 214.622  19
   0   4  -7 3233.49 197.689   6
   0  -4   6 627.822 105.750  19
   0  -4   6 1076.13 529.873   2
   0  -4   5 70550.1 2751.77   2
   0  -4   4 20781.9 1396.09   2
   0  -4   3 10078.6 874.462   2
   0  -4   2 27959.6 1202.06   2
   0   4  -1 52494.2 523.930   5
   0  -4   1 58370.2 1521.58   2
   0  -4   0 19018.2 809.319   2
   0   4   0 17856.2 338.143   5
   0   4   1 47967.9 606.096   5
   0  -4  -1 51184.8 1297.46   2
   0  -4  -2 7112.39 499.926   2
   0   4   2 7547.44 268.917   5
   0   4   3 13467.0 389.375   5
   0  -4  -3 13139.0 709.841   2
   0   4   4 14.6567 82.7879   8
   0   4   4 67.9338 67.2697  15
   0   4   4-88.3301 102.490  27
   0   4   4 93.5955 96.6423   5
   0   4   5 4509.91 256.898  15
   0   4   5 3923.93 260.381   8
   0   4   5 4239.23 269.053  22
   0   4   5 4267.68 275.448   5
   0   4   6 1356.61 193.307  22
   0   4   6 1204.41 183.397   8
   0   4   6 1543.40 177.474  15
   0   4   6 1633.53 201.834   5
   0   4   7 118.675 120.166   8
   0   4   7 305.431 110.150  22
   0   4   8 6876.48 390.558  22
   0   4   8 7105.52 366.741   8
   0   4   9 1536.82 173.158   8
   0   4   9 1387.14 169.963  22
   0   5 -12 483.488 97.1125  10
   0   5 -12 359.332 76.7910  14
   0   5 -11 76.0733 74.4725  14
   0   5 -11 47.4814 72.5602  10
   0   5 -10 8766.32 402.585  10
   0  -5  10 8397.38 359.307  13
   0   5  -9 10178.7 429.920  10
   0   5  -8 21681.0 588.024  10
   0   5  -8 21617.1 525.941   6
   0   5  -7 10792.3 375.709   6
   0   5  -7 10757.8 390.141  10
   0  -5   6 1059.07 125.872  19
   0   5  -6 1209.56 139.634   6
   0  -5   6 1621.61 565.114   2
   0   5  -6 1462.72 136.010  10
   0   5  -5 2664.79 181.201  14
   0   5  -5 2845.90 195.569   6
   0  -5   5 3478.84 676.088   2
   0  -5   4 420.664 310.971   2
   0  -5   3 2894.14 540.468   2
   0  -5   2 1028.57 304.938   2
   0  -5   1 14612.4 912.053   2
   0  -5   0 50872.3 1563.35   2
   0   5   0 45392.1 636.331   5
   0   5   1 2829.45 204.670  16
   0  -5  -1 3149.24 393.516   2
   0   5   1 2835.46 188.002   5
   0   5   2 366.663 111.672  16
   0   5   2 353.566 98.2211   7
   0   5   2 316.171 114.458   5
   0   5   3 11579.3 393.878   7
   0   5   3 10980.3 384.899  25
   0   5   3 10860.9 399.388   5
   0   5   4 20918.3 578.632   5
   0   5   4 20610.9 546.342   7
   0   5   4 20161.7 590.765  27
   0   5   5 26518.5 684.512   5
   0   5   5 25111.2 625.378   7
   0   5   5 25017.3 639.392   8
   0   5   6 10772.8 454.095   5
   0   5   6 10190.9 410.181   7
   0   5   6 10021.1 426.397   8
   0   5   7 121.399 103.094   8
   0   5   7-325.825 114.709   7
   0   5   8 1065.64 149.718   8
   0   6 -12 56.9067 51.5520  14
   0   6 -11 2175.34 178.433  10
   0   6 -11 2202.73 185.133  14
   0   6 -10 732.344 130.297  14
   0  -6  10 848.183 139.288  13
   0   6 -10 877.205 134.407  10
   0   6  -9 9264.56 358.128   6
   0   6  -9 9482.56 400.679  14
   0   6  -9 9245.15 386.706  10
   0   6  -8 6366.74 318.904   6
   0   6  -8 6544.93 316.985  10
   0   6  -8 6217.70 326.110  14
   0   6  -7 27674.2 643.585   6
   0   6  -7 27421.5 645.678  14
   0   6  -6 56.0995 85.4660   6
   0   6  -6-91.8585 73.9518  17
   0   6  -6-48.7308 63.4186  14
   0   6  -5 53.9317 79.6859   6
   0   6  -5 161.401 82.9323  17
   0   6  -5 176.597 81.8092  14
   0   6  -4 31759.8 614.513  14
   0   6  -4 31773.5 661.022  17
   0   6  -4 31150.6 631.061   6
   0   6  -3 23589.7 579.228  17
   0   6  -3 23347.7 528.160   6
   0   6  -2 21047.0 546.752  17
   0   6  -2 22143.7 572.379   7
   0   6  -2 21323.7 480.455   6
   0  -6   2 20242.0 1345.57   2
   0   6  -1 3563.27 249.183   7
   0   6  -1 3668.41 245.011  17
   0  -6   1 4141.92 593.178   2
   0   6   0 9206.61 367.314   7
   0   6   0 8095.54 347.128  17
   0  -6   0 8856.31 796.882   2
   0   6   1 967.090 158.889   7
   0   6   1 1212.10 162.364   5
   0   6   1 710.043 125.587  17
   0   6   2 169.678 119.302   5
   0   6   2 80.1367 102.773   7
   0   6   2-34.5024 136.972  27
   0   6   2 74.1020 86.6816  25
   0   6   3 317.007 111.995   7
   0   6   3 322.830 149.512  27
   0   6   3 249.779 109.651  25
   0   6   3 434.200 141.665   5
   0   6   4 4277.67 276.512   7
   0   6   4 5123.58 323.871   5
   0   6   4 4418.47 313.442  27
   0   6   5 2239.46 206.351   7
   0   6   5 2394.51 239.141   5
   0  -7  11 86.4240 67.3451  13
   0   7 -11-33.2724 53.5902  14
   0   7 -10 800.852 124.563  14
   0  -7  10 947.522 135.042  13
   0   7  -9 8866.43 374.552  14
   0   7  -9 8681.99 353.041   6
   0   7  -8 4908.24 288.375  14
   0   7  -8 5172.97 297.349   6
   0   7  -7 350.418 105.693  14
   0   7  -7 502.231 129.321   6
   0   7  -6 2257.85 203.636  17
   0   7  -6 2386.46 217.031   6
   0   7  -6 2358.22 204.361  14
   0   7  -5 591.552 132.609   6
   0   7  -5 488.006 102.342  14
   0   7  -5 468.347 121.323  17
   0   7  -4 851.702 153.490   6
   0   7  -4 912.102 165.285  17
   0   7  -3 853.659 147.551  27
   0   7  -3 1117.31 173.514  17
   0   7  -3 992.639 150.618   6
   0   7  -2 29365.1 717.586   7
   0   7  -2 26788.7 684.387  17
   0   7  -1 11304.9 457.872   7
   0   7  -1 10444.2 432.737  17
   0   7   0 4387.19 280.278  17
   0   7   0 4462.18 319.229  27
   0   7   0 4314.22 300.695   7
   0   7   1 16809.2 516.608  17
   0   7   1 16694.1 560.481  25
   0   7   1 16517.0 591.975  27
   0   7   1 16850.2 545.281   7
   0   7   2 275.841 135.701  27
   0   7   2 191.628 94.1474  25
   0   7   2 267.618 104.265   7
   0   7   3 906.622 176.152  27
   0   7   3 1041.19 161.894  25
   0   7   4 2216.92 226.532  27
   0  -8  10 7183.71 283.654  13
   0   8 -10 6527.28 268.616  14
   0   8  -9 2100.97 171.838  14
   0   8  -9 2023.23 171.788   6
   0   8  -8 22.3464 79.0656   6
   0   8  -8 2.76172 53.7028  14
   0   8  -7 16387.3 491.091  14
   0   8  -7 17170.1 496.909  17
   0   8  -7 17465.0 534.296   6
   0   8  -6 341.890 101.407  14
   0   8  -6 287.619 114.754   6
   0   8  -6 432.537 119.922  17
   0   8  -5 5532.65 309.544   6
   0   8  -5 5513.89 322.861  17
   0   8  -4 10965.8 459.981  17
   0   8  -4 10529.0 407.772   6
   0   8  -3 69.6698 101.209  27
   0   8  -3-16.2057 96.0002  17
   0   8  -3 7.93956 77.2408   6
   0   8  -2 466.566 137.282  27
   0   8  -2 609.534 142.997  17
   0   8  -1 353.644 111.235  17
   0   8  -1 278.129 143.076  27
   0   8   0 1253.50 171.785  17
   0   8   0 1205.53 178.805  25
   0   8   0 1338.62 207.367  27
   0   8   1 515.560 167.896  27
   0   8   1 654.651 146.829  25
   0   8   2 3659.67 262.781  25
   0   8   2 3645.23 288.595  27
   0   8   3 6853.26 353.778  27
   0   9  -8 16.1848 69.0693   6
   0   9  -7 1245.09 142.608  17
   0   9  -7 1562.75 160.127   6
   0   9  -6 7397.24 338.215  17
   0   9  -6 7426.07 327.079   6
   0   9  -5 7484.06 358.130  17
   0   9  -5 8049.81 336.093   6
   0   9  -4 2797.93 197.877   6
   0   9  -4 2656.82 226.702  17
   0   9  -3 1023.44 157.953  17
   0   9  -3 1124.46 156.333  27
   0   9  -2 381.583 121.496  27
   0   9  -2 216.120 101.034  25
   0   9  -2 385.154 112.434  17
   0   9  -1 5049.03 301.005  25
   0   9  -1 5195.02 312.729  27
   0   9  -1 4609.52 273.281  17
   0   9   0 9795.34 400.581  25
   0   9   0 9884.18 418.695  27
   0   9   1 10682.5 417.753  27
   0   9   1 10211.4 380.662  25
   0   9   2 514.670 114.801  27
   0  10  -5 270.758 79.7787  25
   0  10  -5 409.165 90.5336  17
   0  10  -4 993.273 125.957  17
   0  10  -4 899.613 117.368  25
   0  10  -3 3191.16 203.754  17
   0  10  -3 3173.99 207.453  25
   0  10  -2 453.406 95.5441  25
  -1  10  -3 3842.15 217.035  17
  -1  10  -4 1730.59 150.285  17
  -1   9   2 489.948 105.639  25
  -1   9   1 835.672 137.732  25
  -1   9   0 212.158 124.762  27
  -1   9   0 390.718 100.943  17
  -1   9   0 306.317 109.217  25
  -1   9  -1 127.924 90.3928  17
  -1   9  -1 124.090 89.7807  25
  -1   9  -1 66.3464 105.773  27
  -1   9  -2 2051.03 203.280  25
  -1   9  -2 2196.49 207.790  17
  -1   9  -3 2.31305 81.2175  25
  -1   9  -3-69.6947 90.6457  17
  -1   9  -4 10170.6 411.731  17
  -1   9  -4 11044.3 408.148  25
  -1   9  -5 2486.93 208.503  17
  -1   9  -5 2561.31 191.614   9
  -1   9  -6 15864.6 456.254  17
  -1   9  -6 14950.0 443.131   9
  -1   9  -7 3918.32 216.175  14
  -1   9  -8 636.086 92.1489  14
   1  -9   8 977.621 117.679  13
  -1   9  -8 825.793 106.314   9
  -1   8   4 110.713 87.5847  25
  -1   8   3 112.961 93.4157  25
  -1   8   2 20128.9 645.126  27
  -1   8   2 19876.9 600.925  25
  -1   8   1 10671.8 420.183  17
  -1   8   1 10926.2 466.664  25
  -1   8   1 10646.0 488.178  27
  -1   8   0 331.432 112.107  17
  -1   8   0 262.577 115.934  25
  -1   8   0 297.867 139.630  27
  -1   8  -1 9315.65 421.918  17
  -1   8  -1 9512.49 439.783  27
  -1   8  -1 9481.18 428.282  25
  -1   8  -2 2389.81 226.532  17
  -1   8  -2 2310.27 225.893  27
  -1   8  -3 127.407 105.395  17
  -1   8  -3-10.2321 82.2141   6
  -1   8  -4 4382.12 271.114  14
  -1   8  -4 4385.57 290.724  17
  -1   8  -4 4440.83 275.777   6
  -1   8  -5 1452.03 170.798  14
  -1   8  -5 1461.34 173.476  17
  -1   8  -5 1176.68 167.831   6
  -1   8  -6 1308.37 174.129   6
  -1   8  -6 1371.27 165.624  17
  -1   8  -6 1326.16 164.330  14
  -1   8  -7 348.617 95.6599  14
  -1   8  -7 335.063 107.620   6
  -1   8  -8 628.883 114.584  14
   1  -8   9 303.866 92.1222  13
  -1   8  -9 227.008 75.6321  14
  -1   7   5 3247.64 235.399  25
  -1   7   4 1230.53 168.850  25
  -1   7   4 1061.55 182.034  27
  -1   7   3 268.054 140.975  27
  -1   7   3 523.271 139.239  25
  -1   7   2 9293.05 433.545  25
  -1   7   2 9107.75 457.439  27
  -1   7   1 528.234 125.216  17
  -1   7   1 900.165 188.350  27
  -1   7   1 780.846 154.900  25
  -1   7   0 3581.45 263.904  17
  -1   7   0 3984.11 306.189  27
  -1   7  -1 12256.0 467.091  17
  -1   7  -1 11778.5 472.692  27
  -1   7  -2 10627.2 384.550   6
  -1   7  -2 10853.1 435.958  17
  -1   7  -2 10204.3 420.068  27
  -1   7  -3 36382.8 784.975  17
  -1   7  -3 34471.7 726.973  14
  -1   7  -3 34002.5 706.250   6
  -1   7  -4 3324.88 246.826  17
  -1   7  -4 2928.14 233.603   6
  -1   7  -4 3081.40 231.893  14
  -1   7  -5 6493.16 332.032  14
  -1   7  -5 6633.04 329.913  17
  -1   7  -5 6468.01 333.028   6
  -1   7  -6 5000.57 302.463  14
  -1   7  -6 5032.51 279.187  17
  -1   7  -6 4762.65 300.019   6
  -1   7  -7 39.2927 75.5624  14
  -1   7  -7-7.93741 106.173   6
  -1   7  -8 11449.4 419.690   6
  -1   7  -8 11506.7 441.147  14
   1  -7   9 13826.6 462.756  13
  -1   7  -9 13603.2 454.728  14
   1  -7  10 1433.31 151.581  13
  -1   7 -10 1520.86 151.422  14
  -1   6   7 2660.70 216.445   8
  -1   6   6 7954.45 374.464   8
  -1   6   5 11235.9 471.119  27
  -1   6   5 11769.5 479.926   5
  -1   6   5 10360.0 424.551  25
  -1   6   5 10716.2 438.344   8
  -1   6   4 369.573 151.781   5
  -1   6   4 227.880 134.796  27
  -1   6   4 358.768 120.543  25
  -1   6   3 1673.35 215.029   5
  -1   6   3 1129.51 198.299  27
  -1   6   3 1369.01 180.758  25
  -1   6   2 19436.8 576.186  25
  -1   6   2 18757.2 520.384  17
  -1   6   2 20426.8 573.441   5
  -1   6   2 19133.3 611.030  27
  -1   6   1 7086.06 329.810  17
  -1   6   1 7225.76 350.297  25
  -1   6   1 6629.71 353.565  27
  -1   6   0 18767.2 550.625  27
  -1   6   0 18859.8 532.004  17
  -1   6  -1 21578.7 557.823  27
  -1   6  -1 21816.5 555.030  17
  -1   6  -1 21701.5 479.475   6
  -1   6  -2 4209.06 235.362   6
  -1   6  -2 4297.92 241.609  14
  -1   6  -2 4182.28 248.888  27
  -1   6  -2 4530.21 265.971  17
  -1   6  -3 1218.54 158.359  17
  -1   6  -3 1485.49 153.876  14
   1  -6   3 1596.51 459.900   2
  -1   6  -3 1644.85 165.583   6
  -1   6  -4 1317.86 155.388   6
   1  -6   4 1699.49 502.794   2
  -1   6  -4 1185.84 142.599  14
  -1   6  -4 1347.93 150.231  17
  -1   6  -5 1177.52 151.104   6
  -1   6  -5 1094.32 134.952  17
  -1   6  -5 1264.31 152.333  14
  -1   6  -6 1351.85 168.323   6
  -1   6  -6 1186.05 154.241  14
  -1   6  -7 29869.1 653.491  10
  -1   6  -7 29334.2 675.604   6
  -1   6  -7 31311.8 718.691  14
  -1   6  -8 13595.1 465.898  10
  -1   6  -8 14116.8 493.345  14
  -1   6  -8 13327.3 444.675   6
  -1   6  -9 5184.71 294.450  10
   1  -6   9 5997.82 325.915  13
  -1   6  -9 5884.06 320.133  14
  -1   6 -10 1810.40 174.960  10
  -1   6 -10 2009.83 181.675  14
   1  -6  10 1874.61 183.837  13
  -1   6 -11 698.956 102.492  10
  -1   6 -11 637.261 99.5082  14
  -1   5   8 454.533 128.063   8
  -1   5   7 584.862 158.907   8
  -1   5   6 5432.75 335.851   8
  -1   5   6 6004.72 359.872   5
  -1   5   5 7269.91 380.952  27
  -1   5   5 8010.06 403.102   5
  -1   5   5 7157.43 349.414  25
  -1   5   5 7276.46 369.811   8
  -1   5   4 736.617 165.622   5
  -1   5   4 543.648 148.158  27
  -1   5   4 806.237 145.686  25
  -1   5   4 696.554 146.474   8
  -1   5   3 2040.55 192.442  25
  -1   5   3 2075.89 189.170   8
  -1   5   3 2433.35 215.380   5
  -1   5   3 2271.15 215.926  27
  -1   5   2 576.915 139.615   5
  -1   5   2 570.754 111.587  17
  -1   5   2 367.049 115.701  27
  -1   5   2 370.359 104.168  25
  -1   5   1 821.657 132.431  27
  -1   5   1 910.610 118.423  17
  -1   5   1 905.595 144.432   5
   1  -5   0 10382.4 784.413   2
   1  -5   1 18430.9 1130.31   2
   1  -5   2 30224.3 1598.46   2
   1  -5   3 3269.96 605.389   2
  -1   5  -4 74055.9 903.145  14
  -1   5  -4 74007.7 881.084   6
  -1   5  -5 1305.91 132.378  10
  -1   5  -5 1079.74 128.470  14
  -1   5  -5 1509.67 148.786   6
  -1   5  -6 3507.77 228.455  14
  -1   5  -6 3449.55 220.624  10
  -1   5  -6 3607.23 222.019   6
  -1   5  -7 4154.38 259.596  14
  -1   5  -7 3649.11 248.866  10
  -1   5  -7 3894.93 240.733   6
  -1   5  -8 790.932 142.490  10
  -1   5  -8 741.624 135.748  14
  -1   5  -9 1127.51 157.960  10
   1  -5   9 1055.05 164.252  13
  -1   5  -9 1036.11 149.137  14
  -1   5 -10 1173.14 151.401  14
   1  -5  10 1118.26 148.600  13
  -1   5 -10 1081.22 150.078  10
  -1   5 -11 2544.25 198.173  10
  -1   5 -11 2527.03 183.100  14
  -1   4   9 1575.02 188.245   8
  -1   4   9 1202.30 170.129  22
  -1   4   8 75.7237 87.4025  22
  -1   4   8 135.128 126.489   8
  -1   4   7 11358.2 470.889   5
  -1   4   7 11258.0 465.206   8
  -1   4   6 18153.4 558.679   8
  -1   4   6 17872.8 567.010   5
  -1   4   5 1359.81 157.116  25
  -1   4   5 1376.74 166.615   8
  -1   4   5 1254.14 175.419   5
  -1   4   4 49680.5 785.354   8
  -1   4   4 50989.1 824.260  27
  -1   4   4 51310.2 778.843  25
  -1   4   4 51409.9 827.015   5
  -1   4   3 569.982 117.333   5
  -1   4   2 9771.30 319.555   5
   1  -4  -1 9982.46 587.799   2
  -1   4   1 9111.25 292.015   5
   1  -4   0 7285.52 563.270   2
  -1   4   0 6174.73 446.236   3
  -1   4   0 7305.51 246.230   5
   1  -4   1 17091.6 979.837   2
  -1   4  -1 17463.7 729.072   3
  -1   4  -2 3439.71 330.807   3
   1  -4   2 2364.22 453.460   2
   1  -4   3 12891.9 1083.69   2
   1  -4   4 3014.39 602.666   2
   1  -4   5 4965.55 788.254   2
  -1   4  -6 25511.0 568.275  10
  -1   4  -6 24722.8 512.874   6
  -1   4  -7 2282.98 199.447  10
   1  -4   8 5376.48 317.891  13
  -1   4  -8 5317.14 307.570  10
  -1   4  -9 14175.1 515.048  10
   1  -4   9 14158.2 486.310  13
  -1   4 -10 850.668 144.919  10
  -1   4 -10 793.823 126.504  14
  -1   4 -11 4752.30 276.502  10
  -1   4 -11 4516.73 240.127  14
  -1   4 -12 12063.5 365.985  10
  -1   3  10 3506.40 272.849  22
  -1   3  10 4205.05 265.675   8
  -1   3   9 7330.66 377.724   8
  -1   3   8 587.171 131.613  21
  -1   3   8 434.129 138.394   5
  -1   3   8 737.053 163.955   8
  -1   3   7 344.543 90.8519  15
  -1   3   7 350.021 125.772   5
  -1   3   7 586.630 118.555  21
  -1   3   7 406.918 132.441   8
  -1   3   6 734.553 106.591  15
  -1   3   6 567.997 133.168   8
  -1   3   6 560.835 107.854  21
  -1   3   6 620.412 138.894   5
  -1   3   5 9112.67 345.223   5
  -1   3   5 9357.65 337.473   8
  -1   3   5 8605.68 309.285  25
  -1   3   4 550.515 109.957   5
  -1   3   3 43686.9 611.135   5
  -1   3   2 62217.2 666.263   5
   1  -3  -2 62668.4 1138.55   2
  -1   3   1 4361.39 172.474   5
   1  -3  -1 4731.80 331.773   2
  -1   3   0 520.831 81.3005   5
  -1   3   0 379.602 123.708   3
   1  -3   0 521.537 164.330   2
   1  -3   1 12597.7 783.270   2
  -1   3  -1 13725.6 566.497   3
   1  -3   2 25288.7 1288.74   2
   1  -3   3 35343.8 1653.95   2
   1  -3   4 287033. 4958.67   2
   1  -3   5 46.1314 299.538   2
   1  -3   6-108.872 250.329   2
  -1   3  -6-315.463 88.7041  10
   1  -3   7 1599.45 180.588  13
  -1   3  -7 1292.28 154.268  10
   1  -3   7 1811.86 399.356   1
  -1   3  -8 371.841 106.238  10
   1  -3   8 268.492 110.556  13
  -1   3  -9 381.345 113.102  10
  -1   3 -10 7699.79 376.550  10
  -1   3 -11 9013.54 372.721  10
  -1   3 -12 82.1269 50.0246  10
  -1   2  11 3038.25 242.492  22
  -1   2  11 3251.26 219.142   8
  -1   2  10 9203.71 393.927   8
  -1   2  10 8175.11 357.481  15
  -1   2   9 2138.45 211.339  21
  -1   2   9 2111.56 218.111   8
  -1   2   9 1815.99 197.510   5
  -1   2   9 2087.59 205.897  15
  -1   2   8 315.760 123.729   5
  -1   2   8 163.129 96.7415  15
  -1   2   8 301.017 123.640   8
  -1   2   8 305.522 116.684  21
  -1   2   7 459.758 103.417  15
  -1   2   7 477.485 121.300   8
  -1   2   7 563.042 131.883   5
  -1   2   7 705.835 127.155  21
  -1   2   6 25784.7 535.219  21
  -1   2   6 24791.8 536.640   5
  -1   2   6 25478.7 541.245   8
  -1   2   5 40321.0 618.564   5
  -1   2   4 64064.7 696.023   5
  -1   2   3 624.457 80.2635   5
  -1   2   3 699.947 130.709   1
   1  -2  -2 22.5740 45.5632   2
  -1   2   2-22.7109 47.8677   5
  -1   2   1 2324.66 218.277   3
   1  -2  -1 2545.51 191.110   2
  -1   2   0 80413.4 1157.97   3
   1  -2   0 80707.1 1383.48   2
   1  -2   1 33.6385 250.383   2
   1  -2   2 8431.89 712.055   2
   1  -2   3 76060.7 2178.17   2
   1  -2   4 35868.6 1611.24   2
   1  -2   5 10129.3 770.449   1
   1  -2   6 2437.61 412.313   1
   1  -2   7 35116.4 661.259  26
   1  -2   7 34143.9 1544.58   1
  -1   2  -7 35438.7 696.607  10
   1  -2   7 33210.1 656.118  13
  -1   2  -8 11095.3 435.638  10
  -1   2  -9 7221.16 367.179  10
  -1   2 -10 297.911 94.7665  10
  -1   2 -11 63.9709 65.5378  10
   1  -2  12 1857.41 166.370  15
  -1   1  12 314.974 88.6704  22
  -1   1  11 367.708 110.836  15
  -1   1  11 463.954 110.233   8
  -1   1  10 27.8115 90.6286  26
  -1   1  10 36.1913 98.9469  15
  -1   1  10 69.5384 106.637   8
  -1   1   9 4174.24 286.239  26
  -1   1   9 4723.07 292.012   8
  -1   1   9 4985.55 301.041  21
  -1   1   8 7696.15 345.084   8
  -1   1   8 8208.39 337.934   5
  -1   1   8 8666.78 370.229  11
  -1   1   8 7941.64 362.621  26
  -1   1   8 8070.46 357.405  21
  -1   1   7 2886.45 197.921   5
  -1   1   7 2853.44 199.918  11
  -1   1   7 2792.67 199.111   8
  -1   1   7 2584.93 192.800  21
  -1   1   5 2026.40 117.111   4
  -1   1   4 5041.59 154.620   4
  -1   1   4 4871.41 265.765   1
  -1   1   3 13693.2 362.256   1
  -1   1   2 60685.9 601.282   1
   1  -1  -1 179510. 991.596   2
  -1   1   1 176658. 1460.61   3
   1  -1   0 74190.4 1129.65   2
   1  -1   1 4694.48 369.813   2
   1  -1   2 99207.6 1825.04   2
   1  -1   3 272.829 172.331   1
   1  -1   4 2633.20 344.134   1
   1  -1   5 6258.61 544.969   1
   1  -1   6 6094.41 595.884   1
   1  -1   7 29911.2 621.770  26
  -1   1  -7 29491.9 628.053  10
   1  -1   7 29568.9 589.921   8
   1  -1   7 29956.2 1375.96   1
  -1   1  -8 49.8477 68.3102  10
  -1   1  -9 421.616 105.177  10
   1  -1   9 252.543 96.4652  22
  -1   1 -10 376.725 91.3106  10
   1  -1  10 304.370 97.1926  22
   1  -1  11 793.658 111.723  22
   1  -1  11 667.892 144.559  15
  -1   0  12 705.210 118.254  15
  -1   0  12 686.490 115.374  22
  -1   0  11 2619.44 206.427   8
  -1   0  10 5781.15 338.262  26
  -1   0  10 5816.26 307.266   8
  -1   0   9 56120.1 945.393  21
  -1   0   9 54442.5 962.728  26
  -1   0   9 54804.5 866.507   8
  -1   0   8 1006.90 138.621   8
  -1   0   8 675.883 134.889  26
  -1   0   8 891.111 113.946   4
  -1   0   8 1031.07 145.637  11
  -1   0   8 974.317 142.651  21
  -1   0   7 7144.70 270.104   8
  -1   0   7 7289.56 288.622  11
  -1   0   7 6942.08 262.725   4
  -1   0   7 7760.35 292.564  21
  -1   0   6 56732.9 652.734   4
  -1   0   5 254.567 85.3660   1
  -1   0   5 260.285 61.5907   4
  -1   0   4 54.4257 44.5387   4
  -1   0   4 96.3421 61.1485   1
  -1   0   3 312.767 75.7185   1
  -1   0   2 43776.4 666.292   2
  -1   0   1 3884.83 167.785   3
  -1   0   1 3764.42 100.914   2
   1   0  -1 3565.26 92.9856   1
   1   0   0 70798.0 652.088   1
   1   0   1 10019.6 345.616   1
   1   0   2 3724.41 268.789   1
   1   0   3 4314.73 332.662   1
   1   0   4 42324.0 1155.59   1
   1   0   5 4058.59 425.134   1
   1   0   6 3593.51 205.192   8
   1   0   6 3622.90 213.494  26
   1   0   6 3797.43 456.792   1
   1   0   7 123495. 2681.36   1
   1   0   7 122780. 1285.23   8
   1   0   8 5338.51 303.946   8
   1   0   8 4818.72 310.086  22
   1   0   9 2514.64 238.413  22
   1   0  10 140.609 89.0900  22
   1   0  10 108.860 98.8980  15
   1   0  11 33.2965 77.0508  22
   1   0  11 73.1917 85.8540  15
  -1  -1  12 254.229 77.2142  22
   1   1 -11-34.1194 64.5287  10
  -1  -1  11 1.41571 95.4751  26
  -1  -1  10 1804.60 204.545  26
  -1  -1  10 1529.73 161.236   8
  -1  -1   9 3359.98 229.440   4
  -1  -1   9 3331.43 251.576  26
  -1  -1   9 3697.64 248.586  21
  -1  -1   9 3344.87 220.442   8
  -1  -1   8 3792.90 235.599  11
  -1  -1   8 3667.61 221.475   4
  -1  -1   8 3818.13 229.704  21
  -1  -1   8 3486.21 198.969   8
  -1  -1   7 20366.0 455.273  11
  -1  -1   7 19484.9 450.137   4
  -1  -1   6 630.567 188.121   1
  -1  -1   5 4409.39 377.046   1
  -1  -1   5 5225.15 549.766   2
  -1  -1   4 28018.1 1172.51   2
  -1  -1   3 44447.1 1432.89   2
  -1  -1   2 89375.1 1272.09   2
  -1  -1   1 192283. 1331.39   2
   1   1   0 14634.4 412.676   1
   1   1   1 2131.11 190.115   1
   1   1   2 4208.73 292.168   1
   1   1   3 17870.2 668.409   1
   1   1   4 9529.75 559.394   1
   1   1   5 5622.98 491.984   1
   1   1   6 22876.7 526.901   8
   1   1   6 21930.1 1046.04   1
   1   1   7 262.311 121.199   8
   1   1   8 2549.27 249.614  15
   1   1   8 2165.73 231.939  22
   1   1   8 2129.73 218.163   8
   1   1   9 2214.44 234.014  22
   1   1   9 2131.38 233.684  15
   1   1  10 4869.22 314.875  22
   1   1  10 4879.45 319.027  15
   1   1  11 4036.76 247.622  15
   1   1  11 3984.06 239.187  22
   1   2 -12 308.743 82.5622  10
  -1  -2  11 11648.3 448.009  26
  -1  -2  11 11165.2 412.310   4
   1   2 -11 11226.0 447.220  10
  -1  -2  10 6256.76 324.265   4
  -1  -2  10 6747.91 346.216  26
  -1  -2   9 12449.4 435.818  19
  -1  -2   9 12222.5 426.232   4
  -1  -2   9 11995.4 435.042  26
  -1  -2   8 72.2646 64.2470  21
  -1  -2   8 176.812 94.7065  19
  -1  -2   8 206.922 87.6465  11
  -1  -2   7 577.118 201.046   1
  -1  -2   6 38326.6 1750.82   2
  -1  -2   5 36028.0 1680.55   2
  -1  -2   4 5194.19 667.324   2
  -1  -2   3 45.8612 216.378   2
  -1  -2   2 82719.7 1358.07   2
  -1  -2   1 3425.35 258.986   2
   1   2   0 7711.50 384.912   1
   1   2   1 9703.58 459.179   1
   1   2   2 146492. 1896.09   1
   1   2   3 127508. 1969.60   1
   1   2   4 16122.8 775.063   1
   1   2   5 4355.01 232.701  15
   1   2   5 4135.58 226.280   8
   1   2   6 4417.53 487.112   1
   1   2   6 4238.29 262.749  15
   1   2   6 3842.01 251.807   8
   1   2   6 3558.37 260.839  22
   1   2   7 1689.39 198.620  15
   1   2   7 1555.46 205.346  22
   1   2   7 1846.18 204.998   8
   1   2   8 5864.60 386.875  22
   1   2   8 6514.80 355.072   8
   1   2   8 6338.52 370.683  15
   1   2   9 4956.87 324.545  15
   1   2   9 4724.67 338.314  22
   1   2  10 7094.29 347.419  15
   1   2  10 7218.19 363.467  22
   1   3 -13 850.807 104.032  10
   1   3 -12 2912.17 225.305  10
  -1  -3  11 374.290 123.016  26
   1   3 -11 422.482 124.734  10
  -1  -3  11 227.500 105.935   4
  -1  -3  10 134.176 91.4338  26
  -1  -3  10 345.504 114.685   4
  -1  -3   9 105.189 93.6623  19
  -1  -3   9 113.072 82.4726  26
  -1  -3   8 492.894 103.376  26
  -1  -3   8 531.434 117.697  19
  -1  -3   7 121.186 300.089   2
  -1  -3   7 449.814 93.0190  19
  -1  -3   6 132384. 3618.90   2
  -1  -3   5 40055.0 1914.20   2
  -1  -3   4 6507.43 710.693   2
  -1  -3   3 56990.7 1585.70   2
  -1  -3   2 5711.15 431.766   2
  -1  -3   1 4737.77 357.859   2
  -1  -3   0 29545.3 866.622   2
   1   3   1 26140.9 888.732   1
   1   3   2 17112.4 764.085   1
   1   3   3 8982.01 596.717   1
   1   3   4 2057.47 166.203   8
   1   3   4 1693.03 307.593   1
   1   3   4 1961.99 171.015  22
   1   3   4 2230.20 171.206  15
   1   3   5 22.4722 87.8078  22
   1   3   5 76.9799 98.6080   8
   1   3   5 71.1558 89.8427  15
   1   3   5 298.711 146.898   1
   1   3   6 28.3011 84.7806  15
   1   3   6 83.2168 112.816   8
   1   3   6-14.0647 105.290  22
   1   3   7 5573.19 363.997  22
   1   3   7 6164.07 345.682   8
   1   3   7 5969.38 343.323  15
   1   3   7 6056.59 339.366   5
   1   3   8 7229.71 372.208   8
   1   3   8 7383.05 388.272  15
   1   3   8 6848.92 406.121  22
   1   3   9 987.026 167.744  22
   1   4 -13 1681.39 146.339  10
   1   4 -12 663.860 126.343  10
  -1  -4  11 15124.0 453.534  26
   1   4 -11 14784.6 519.680  10
  -1  -4  10 1117.98 158.729   4
  -1  -4  10 890.632 131.315  26
  -1  -4   9 1102.25 163.949  19
  -1  -4   9 1304.36 147.885  26
  -1  -4   8 6033.20 260.179  26
  -1  -4   8 6446.23 318.102  19
   1   4  -7 986.505 118.162   6
  -1  -4   7 1156.07 135.139  19
  -1  -4   6 721.186 406.496   2
  -1  -4   5 7983.97 929.034   2
  -1  -4   4 21058.7 1264.51   2
  -1  -4   3 1006.53 269.358   2
  -1  -4   2 488.777 177.974   2
  -1  -4   1 9003.49 581.175   2
   1   4   0 158.193 62.6650   5
  -1  -4   0 484.775 161.232   2
  -1  -4  -1 171.280 121.292   2
   1   4   1 268.992 74.0817   5
  -1  -4  -2 65452.1 1657.54   2
   1   4   3 748.107 122.210  28
   1   4   3 897.008 121.202  16
   1   4   3 867.835 115.787  22
   1   4   4 15679.9 484.056  22
   1   4   4 15064.9 437.515   8
   1   4   4 16000.1 474.281  15
   1   4   4 15711.8 464.451   5
   1   4   5 13977.4 479.344   5
   1   4   5 13819.9 502.147  22
   1   4   5 14108.3 481.010  15
   1   4   5 13181.0 458.961   8
   1   4   6 3412.26 265.774   8
   1   4   6 3757.83 289.533  22
   1   4   6 3816.98 274.700   5
   1   4   7 1457.56 191.679   5
   1   4   7 1080.56 173.820   8
   1   4   7 1184.30 181.355  22
   1   4   8 56.9852 77.5251  22
   1   5 -12 2598.25 203.906  10
   1   5 -11 976.336 150.717  10
   1   5 -10-47.9350 75.0210  10
  -1  -5  10 225.785 91.9835   4
  -1  -5   9 4803.99 290.336  19
   1   5  -9 5092.02 304.383  10
   1   5  -8 14081.8 436.202   6
  -1  -5   8 14467.1 462.406  19
   1   5  -7 6892.32 307.138   6
  -1  -5   7 6377.82 973.459   2
  -1  -5   7 6469.03 299.507  19
  -1  -5   6 39238.8 666.994  19
   1   5  -6 40126.6 712.184   6
   1   5  -5 121.216 71.5537   6
  -1  -5   5 290.593 338.512   2
  -1  -5   4 5233.29 730.804   2
  -1  -5   3 23381.7 1285.77   2
  -1  -5   2 15569.7 962.603   2
  -1  -5   1 7185.66 619.105   2
  -1  -5   0 4126.11 466.614   2
   1   5   0 4439.59 242.247  28
   1   5   0 4562.48 243.910   7
   1   5   0 4179.33 237.435  16
   1   5   1 1886.07 170.595   7
   1   5   1 1860.91 151.613   5
   1   5   1 1806.35 175.057  28
  -1  -5  -1 1835.67 326.696   2
   1   5   1 1947.69 176.200  16
   1   5   2 1803.60 177.847   7
   1   5   2 1965.68 192.018  28
   1   5   2 2145.72 176.473   5
   1   5   2 2020.37 192.812  16
   1   5   3 7381.95 332.948   5
   1   5   3 7113.46 337.447   7
   1   5   3 7585.34 343.427  16
   1   5   4 15258.9 508.455   7
   1   5   4 14810.2 488.541   5
   1   5   5 1254.04 172.704   7
   1   5   5 1704.84 195.689   5
   1   5   6 8961.68 407.420   7
   1   5   7 2830.61 230.576   7
   1   6 -12 8.88040 46.9566  14
   1   6 -12-41.4961 55.7724  10
   1   6 -11 3097.10 216.541  14
   1   6 -11 2699.52 201.339  10
   1   6 -10 4322.95 263.004  10
  -1  -6  10 5073.47 283.498   4
   1   6 -10 4641.33 275.102  14
   1   6  -9 21231.8 565.936  10
   1   6  -9 21877.6 560.311   6
  -1  -6   8 355.885 110.720  19
   1   6  -8 173.312 110.443   6
   1   6  -7 2389.45 191.894  14
   1   6  -7 2824.17 209.236  17
  -1  -6   7 2211.98 185.115  19
   1   6  -7 2307.59 209.450   6
   1   6  -6 2568.76 213.176   6
  -1  -6   6 2656.01 184.806  19
   1   6  -6 2394.87 187.690  14
  -1  -6   5 1911.40 565.926   2
   1   6  -5 1564.86 167.582   6
   1   6  -4 7624.92 324.979   6
  -1  -6   4 6733.79 882.864   2
   1   6  -3 13548.2 481.077   7
   1   6  -3 13887.5 421.118  28
   1   6  -3 14251.6 415.841   6
  -1  -6   3 13453.3 1140.88   2
   1   6  -2 47313.8 716.020   6
   1   6  -2 48363.7 826.984  17
   1   6  -2 48394.6 870.837   7
   1   6  -2 47278.4 798.079  28
  -1  -6   2 49949.3 1998.75   2
   1   6  -1 11719.2 424.265  28
   1   6  -1 11299.3 407.876  17
  -1  -6   1 12974.9 995.220   2
   1   6  -1 12539.6 451.024   7
   1   6   0 40512.3 814.637  28
   1   6   0 41397.9 805.032   7
   1   6   0 39904.1 753.530  17
   1   6   0 40410.8 810.058  16
   1   6   1 6709.66 342.795   7
   1   6   1 6519.40 348.151  16
   1   6   2 6415.20 347.022  16
   1   6   2 6881.25 352.788   7
   1   6   2 6217.54 313.356  25
   1   6   3 14005.4 497.584   7
   1   6   3 13028.0 481.845  16
   1   6   3 13800.4 459.832   5
   1   6   4 6521.31 331.848   5
   1   6   4 6188.89 345.064   7
   1   6   4 5932.94 344.424  27
   1   6   5 12452.0 470.863   7
   1   6   6 483.513 116.489   7
  -1  -7  11 3918.19 208.804  13
   1   7 -11 3780.28 213.684  14
   1   7 -10 6367.77 299.095  14
   1   7 -10 6979.47 295.728   6
   1   7  -9 127.716 65.5129  14
   1   7  -9 9.61296 94.6540   6
   1   7  -8 6652.88 321.457  14
   1   7  -8 7901.56 366.432   6
   1   7  -7 2311.89 205.344  17
   1   7  -7 2550.70 229.791   6
   1   7  -7 2285.56 194.713  14
   1   7  -6 7400.21 360.565  17
   1   7  -6 7347.53 359.167   6
   1   7  -5 34750.3 775.772  17
   1   7  -5 33592.9 735.288   6
   1   7  -4 1293.59 168.118   6
   1   7  -4 1410.30 179.319  17
   1   7  -3 18775.0 510.717   6
   1   7  -3 18263.5 573.650  17
   1   7  -3 19437.7 635.493   7
   1   7  -2 157.038 160.478   7
   1   7  -2 58.9607 99.6859  17
   1   7  -1 1958.84 233.430   7
   1   7  -1 2133.91 209.752  17
   1   7   0 742.347 174.140   7
   1   7   0 625.826 129.715  17
   1   7   1-217.962 157.943   7
   1   7   1 11.1657 85.4780  25
   1   7   2 3891.83 301.907  27
   1   7   2 3901.70 287.113   7
   1   7   3 3060.38 248.619   7
   1   7   3 3046.24 268.318  27
   1   7   4 1238.16 171.606  27
   1   7   4 1099.75 155.614   7
   1   7   5 3059.55 213.859   7
   1   8 -10-166.048 71.1178   6
   1   8 -10-101.337 62.6590  14
   1   8  -9 1482.87 160.612   6
   1   8  -9 1129.14 130.115  14
   1   8  -8 1957.32 194.366   6
   1   8  -7 1478.50 178.509   6
   1   8  -7 1813.69 187.211  17
   1   8  -6 8565.57 394.513  17
   1   8  -6 8001.09 373.011   6
   1   8  -5 1850.84 205.874  17
   1   8  -5 1621.00 183.897   6
   1   8  -4 95.8371 87.9827   6
   1   8  -4 117.983 108.941  17
   1   8  -3 6347.04 355.398  17
   1   8  -2 53.9319 125.198   7
   1   8  -2 140.785 100.640  17
   1   8  -1 4254.01 308.964  27
   1   8  -1 4171.27 316.626   7
   1   8  -1 4203.11 280.149  17
   1   8   0 23170.4 656.881   7
   1   8   0 22689.0 687.004  27
   1   8   0 23567.3 649.958  25
   1   8   1-90.3550 150.345  27
   1   8   1-109.985 122.329   7
   1   8   1 33.2891 91.3853  25
   1   8   2 676.024 165.931  27
   1   8   2 656.992 140.512   7
   1   8   3 1645.95 179.791  27
   1   8   3 1548.54 166.012   7
   1   9  -9 215.982 68.9647   6
   1   9  -8 6398.80 284.657   6
   1   9  -8 6458.40 266.415  17
   1   9  -7 1968.47 176.726   6
   1   9  -7 1840.00 171.313  17
   1   9  -6 9895.76 394.864  17
   1   9  -6 9455.53 359.532   6
   1   9  -5 2002.22 178.269   6
   1   9  -5 1988.98 194.446  17
   1   9  -4 1340.70 165.463  17
   1   9  -3 1004.03 155.352  27
   1   9  -3 1165.80 153.794  17
   1   9  -2 130.921 105.048  27
   1   9  -2-99.3354 102.088  17
   1   9  -1 434.090 113.929  17
   1   9  -1 454.043 132.685  27
   1   9  -1 456.187 114.106  25
   1   9   0-75.9879 77.7689  25
   1   9   0 102.732 101.886  27
   1   9   1 5883.18 297.826  27
   1  10  -5 3767.32 211.674  17
   1  10  -4 866.970 119.851  17
   1  10  -4 1115.61 130.302  25
  -2   9   2 10814.4 378.781  25
  -2   9   1 2499.52 190.338  17
  -2   9   1 2877.13 216.926  25
  -2   9   0 1816.44 178.109  17
  -2   9   0 2023.73 194.284  25
  -2   9  -1 2045.99 194.110  25
  -2   9  -1 2047.86 190.844  17
  -2   9  -2 378.333 111.089  17
  -2   9  -2 354.947 97.9792  25
  -2   9  -3 3601.47 248.176  17
  -2   9  -3 3389.93 225.020  25
  -2   9  -4 2693.67 189.685   9
  -2   9  -4 2977.07 221.453  17
  -2   9  -5 7725.36 317.945  17
  -2   9  -5 6888.71 298.025   9
   2  -9   6 586.898 97.2970  13
  -2   9  -6 592.138 103.419   9
   2  -9   7 192.504 67.4583  13
  -2   9  -7-18.9213 49.1860   9
  -2   8   4 41.9843 80.2021  25
  -2   8   3 1230.24 173.748  25
  -2   8   2 243.029 120.719  25
  -2   8   2 133.180 78.8399  17
  -2   8   1 3370.98 265.252  25
  -2   8   1 3166.07 242.961  17
  -2   8   0 1409.93 179.623  17
  -2   8   0 847.154 156.893  25
  -2   8  -1 635.306 141.999  17
  -2   8  -1 509.096 124.838  25
  -2   8  -2 6247.95 355.446  17
  -2   8  -2 6380.06 338.666  25
  -2   8  -3 671.087 120.417   9
  -2   8  -3 851.695 152.442  17
  -2   8  -3 732.207 134.442  25
  -2   8  -4 45.8714 83.5573  17
  -2   8  -4-120.253 80.7117   9
  -2   8  -5 15211.4 486.336  17
  -2   8  -5 14987.4 497.175  14
  -2   8  -5 15549.5 504.460   9
  -2   8  -6 1561.13 172.656  14
   2  -8   6 1697.96 172.628  13
   2  -8   7 700.141 129.398  13
  -2   8  -7 786.839 130.425  14
   2  -8   8 10423.5 356.395  13
  -2   8  -8 10103.2 372.049   9
  -2   8  -8 10489.6 367.594  14
  -2   8  -9 143.939 57.8564   9
  -2   8  -9 202.027 70.9061  14
   2  -8   9 178.019 73.2288  13
  -2   7   6 912.020 132.996  25
  -2   7   5 3311.85 252.282  25
  -2   7   4 593.628 149.984  25
  -2   7   3 9899.44 448.771  25
  -2   7   2 5329.27 309.466  17
  -2   7   2 5149.66 358.392  27
  -2   7   2 5194.98 338.882  25
  -2   7   1 984.479 169.767  25
  -2   7   1 1141.78 169.597  17
  -2   7   1 1192.71 196.248  27
  -2   7   0 16212.7 550.828  25
  -2   7   0 16272.2 582.798  27
  -2   7   0 15790.8 539.097  17
  -2   7  -1 1403.36 199.918  27
  -2   7  -1 1488.10 187.783  17
  -2   7  -1 1276.77 179.739  25
  -2   7  -2 204.933 116.947  17
  -2   7  -2 163.173 89.6475   9
  -2   7  -3 74.2393 84.9397  14
  -2   7  -3 303.859 113.604  17
  -2   7  -4 1928.77 194.581  17
  -2   7  -4 1821.78 193.977  14
  -2   7  -5 9559.26 382.868  17
  -2   7  -5 9677.33 416.197  14
  -2   7  -6 4097.10 278.178  14
   2  -7   7 16254.4 521.393  13
  -2   7  -7 15906.3 522.085  14
   2  -7   8 1892.22 192.403  13
  -2   7  -8 1942.51 192.440  14
   2  -7   9 4945.15 259.546  13
  -2   7  -9 4705.69 258.757  14
  -2   7 -10 7376.80 277.225  14
   2  -7  10 6748.36 255.900  13
  -2   6   7 229.491 107.937   8
  -2   6   6 1076.99 176.200   8
  -2   6   6 1130.62 170.040  25
  -2   6   5 795.693 155.977  25
  -2   6   5 541.385 146.492   8
  -2   6   4-27.1709 112.860  25
  -2   6   4-48.9849 101.486   8
  -2   6   3 2245.01 201.679  17
  -2   6   3 1854.40 205.814   8
  -2   6   3 1801.28 216.568  25
  -2   6   3 1984.60 241.239  27
  -2   6   2 2286.32 224.601  25
  -2   6   2 2495.95 257.217  27
  -2   6   2 2104.20 206.717  17
  -2   6   1 2493.65 241.515  27
  -2   6   1 2603.76 224.086  17
  -2   6   1 2574.78 221.252  25
  -2   6   0 14100.5 473.041  17
  -2   6   0 13666.7 484.023  27
  -2   6   0 14065.7 466.899  25
  -2   6  -1 42383.6 724.626   9
  -2   6  -1 42471.1 801.172  17
  -2   6  -1 42881.4 810.424  27
  -2   6  -2 35021.2 712.142  17
  -2   6  -2 35320.7 673.515   6
  -2   6  -2 35543.2 716.945  14
  -2   6  -2 36129.3 699.961  27
  -2   6  -3 815.159 128.125   6
  -2   6  -3 906.187 134.969  17
  -2   6  -3 817.738 129.362  14
  -2   6  -4 116.879 93.9648   6
  -2   6  -4 293.242 90.5905  14
  -2   6  -5 8325.64 360.678   6
  -2   6  -5 8237.93 372.747  14
  -2   6  -6 7501.87 363.130  14
  -2   6  -6 7482.93 340.251  10
  -2   6  -7 4491.08 273.530  10
  -2   6  -7 4831.33 296.804  14
   2  -6   7 4923.22 321.933  13
  -2   6  -8 8226.34 369.070  10
   2  -6   8 8917.66 399.414  13
  -2   6  -8 8966.14 387.068  14
  -2   6  -9 43.2478 59.1960  14
   2  -6   9 198.911 96.0210  13
  -2   6  -9 27.4929 71.6078  10
  -2   6 -10 158.202 68.5764  10
  -2   6 -10 235.910 67.3271  14
   2  -6  10 185.800 82.1088  13
  -2   5   9 174.926 94.3474   8
  -2   5   8 3138.37 249.452   8
  -2   5   7 17434.9 580.694   8
  -2   5   7 16762.7 527.718  25
  -2   5   6 16883.0 584.627   5
  -2   5   6 15731.2 553.008   8
  -2   5   6 15073.9 528.811  25
  -2   5   5 11950.5 474.064  25
  -2   5   5 12178.7 497.934   5
  -2   5   5 11416.1 468.679   8
  -2   5   4 315.474 123.976  25
  -2   5   4 342.137 160.960   5
  -2   5   4 484.382 152.999  27
  -2   5   4 350.365 126.960   8
  -2   5   3 319.167 154.801   5
  -2   5   3 159.951 92.3402   8
  -2   5   3 158.977 122.355  27
  -2   5   3 267.684 97.5293  17
  -2   5   3 108.842 84.5187  25
  -2   5   2 26029.8 637.542  27
  -2   5   2 25891.0 575.000  17
  -2   5   2 26889.3 615.544  25
  -2   5   1 737.245 113.268  17
  -2   5   1 781.495 137.502  27
  -2   5   1 886.766 129.074  25
  -2   5   0 5986.01 278.697  17
  -2   5   0 5938.98 290.068  27
  -2   5  -1 380.970 195.006   3
  -2   5  -1 414.768 94.2136  17
  -2   5  -1 405.571 90.9977  14
   2  -5   2 364.789 278.392   2
  -2   5  -2 268.413 83.1427   6
  -2   5  -2 3.75689 74.8031   3
  -2   5  -2 446.636 95.8856  17
  -2   5  -2 222.159 76.1824  14
  -2   5  -3 327.083 126.301   3
   2  -5   3 269.461 204.591   2
  -2   5  -3 425.547 96.2293  17
  -2   5  -3 574.516 112.395  14
  -2   5  -3 452.240 100.328   6
  -2   5  -4 9764.64 359.574  14
   2  -5   4 9760.18 1042.84   2
  -2   5  -4 9269.07 325.986  10
  -2   5  -4 9294.29 344.923   6
  -2   5  -4 8930.51 667.979   3
  -2   5  -4 8649.17 314.667  17
  -2   5  -5 14829.5 440.398  10
  -2   5  -5 13360.9 436.968  14
  -2   5  -5 13900.3 428.024   6
  -2   5  -6 22790.7 584.713  10
  -2   5  -6 22083.9 575.865  14
  -2   5  -7 15220.1 508.424  10
  -2   5  -7 14543.5 483.570  14
   2  -5   7 15649.9 532.099  13
   2  -5   8 6413.25 346.926  13
  -2   5  -8 6097.70 335.561  10
  -2   5  -8 6405.59 327.023  14
   2  -5   9 961.526 152.636  13
  -2   5  -9 991.665 134.328  14
  -2   5  -9 896.344 141.414  10
  -2   5 -10 548.747 102.139  14
  -2   5 -10 684.743 123.901  10
   2  -5  10 710.578 116.001  13
  -2   5 -11 13322.7 389.586  10
  -2   4  10 3323.04 217.341   8
  -2   4   9 173.178 94.0517  22
  -2   4   9 397.237 123.195   8
  -2   4   8 885.682 173.091   5
  -2   4   8 542.828 147.063   8
  -2   4   7 420.416 160.382   5
  -2   4   7 173.268 138.750   8
  -2   4   7 251.884 115.257  25
  -2   4   6 84.6441 108.190  25
  -2   4   6 20.0282 139.195   5
  -2   4   6-75.2144 103.983   8
  -2   4   5 110.677 127.120   5
  -2   4   5 7.71291 101.517   8
  -2   4   5 142.490 101.017  25
  -2   4   4 5796.88 291.064   8
  -2   4   4 6122.97 320.715   5
  -2   4   4 6107.81 296.563  25
  -2   4   4 6302.31 316.035  27
  -2   4   3 32177.3 646.947   5
  -2   4   3 31885.6 644.725  27
  -2   4   3 31977.5 613.959  25
  -2   4   2 6793.29 291.207   5
  -2   4   1 10121.1 666.749   3
  -2   4   0 18197.8 873.121   3
  -2   4  -1 12265.3 712.633   3
   2  -4   1 11205.5 885.878   2
  -2   4  -2 6365.24 517.358   3
   2  -4   2 6406.06 710.168   2
   2  -4   3 90997.6 2750.43   2
  -2   4  -4 1099.47 125.649  14
   2  -4   4 1514.02 437.834   2
  -2   4  -5 291.346 86.9689  10
   2  -4   5 512.338 351.435   2
  -2   4  -5 395.817 90.0148  14
  -2   4  -5 428.122 91.6529   6
  -2   4  -6 228.685 84.6377  14
  -2   4  -6 206.510 83.1082  10
   2  -4   6 337.536 126.969  13
  -2   4  -7 1440.34 167.370  10
  -2   4  -7 1612.65 163.203  14
   2  -4   7 1548.37 191.774  13
  -2   4  -8 10285.7 433.757  10
  -2   4  -8 9884.33 385.017  14
   2  -4   8 9941.23 431.031  13
  -2   4  -9 3728.25 266.553  10
   2  -4   9 3370.26 246.585  13
  -2   4  -9 3361.91 226.952  14
  -2   4 -10 17397.6 530.832  10
  -2   4 -11 2776.13 193.748  10
  -2   3  10 239.648 111.785   8
  -2   3   9 1974.44 204.342  21
  -2   3   9 1827.01 210.459   8
  -2   3   8 9773.00 415.165  21
  -2   3   8 9913.04 430.700   8
  -2   3   8 9759.73 428.648   5
  -2   3   7-46.7073 113.403   8
  -2   3   7-37.7290 93.0024  25
  -2   3   7 187.209 113.284  21
  -2   3   7 137.266 126.015   5
  -2   3   6 202.434 103.249  25
  -2   3   6 99.7006 80.9828  21
  -2   3   6 7.56573 118.975   5
  -2   3   6 23.4914 97.2532   8
  -2   3   5 45242.1 747.333  25
  -2   3   5 45906.9 773.272   5
  -2   3   5 46758.3 748.986   8
  -2   3   4 4456.82 241.352   5
  -2   3   3 13080.3 368.527   5
  -2   3   2 9177.91 294.933   5
  -2   3   1-57.2385 108.917   3
  -2   3   0 6623.21 476.986   3
   2  -3   0 5027.68 500.023   2
   2  -3   1 6240.04 604.421   2
  -2   3  -1 6714.78 473.810   3
   2  -3   2 69123.9 2056.10   2
   2  -3   3 4320.31 602.872   2
   2  -3   4 56980.7 2161.87   2
  -2   3  -5 20042.0 482.683  10
   2  -3   5 19040.5 1149.82   1
   2  -3   5 19631.2 495.116  13
   2  -3   6 11121.0 413.828  13
  -2   3  -6 10303.2 383.396  10
   2  -3   6 10337.2 897.837   1
  -2   3  -6 9589.10 325.397  14
  -2   3  -7 3114.00 236.649  10
   2  -3   7 3135.64 250.490  13
  -2   3  -7 3216.05 205.485  14
  -2   3  -8 8834.68 400.545  10
   2  -3   8 8869.02 397.243  13
  -2   3  -8 8475.83 335.789  14
  -2   3  -9 765.629 136.375  10
  -2   3 -10 385.503 112.641  10
  -2   3 -11 11365.5 373.092  10
  -2   2  11 1920.64 176.487   8
  -2   2  10 7056.53 357.279  21
  -2   2  10 6920.82 343.646   8
  -2   2   9 1101.32 170.897  21
  -2   2   9 1351.04 179.063   8
  -2   2   9 1424.54 177.409  11
  -2   2   9 1212.05 166.699   5
  -2   2   8-10.0826 100.193  21
  -2   2   8-52.9510 121.008   5
  -2   2   8-62.5297 109.403   8
  -2   2   8 100.786 96.2676  11
  -2   2   7 71.8390 91.2198   8
  -2   2   7-64.4256 102.352   5
  -2   2   7-4.24044 83.0815  21
  -2   2   7-65.0753 81.7985  11
  -2   2   6 2782.32 192.869  11
  -2   2   6 3097.37 202.690   8
  -2   2   6 3186.83 212.198   5
  -2   2   6 3092.46 204.130  21
  -2   2   6 3460.29 218.546  25
  -2   2   5 10410.1 271.813   4
  -2   2   5 10045.0 324.931   5
  -2   2   4 30455.6 425.733   4
  -2   2   4 29702.3 505.552   5
  -2   2   3 31006.9 482.927   5
  -2   2   3 31912.6 402.903   4
  -2   2   2 20748.9 760.633   3
  -2   2   2 21732.3 387.474   5
  -2   2   2 21787.2 318.587   4
  -2   2   1 5267.03 158.668   4
  -2   2   1 4761.86 364.617   3
   2  -2   0 255.454 156.860   2
  -2   2   0 190.740 115.191   3
   2  -2   1 73607.5 1640.23   2
   2  -2   2 24468.8 1077.00   2
   2  -2   3 61602.6 1640.60   1
   2  -2   4 4907.62 523.363   1
   2  -2   5 434.005 188.780   1
  -2   2  -6 7836.37 328.118  10
   2  -2   6 7609.92 732.912   1
   2  -2   6 7999.26 335.032  13
  -2   2  -7 48.9796 69.0643  10
   2  -2   7 98.0299 107.022  13
  -2   2  -8 2200.08 208.747  10
  -2   2  -9 2462.28 216.523  10
  -2   2 -10 7857.11 351.245  10
   2  -2  11 2858.79 204.848  15
  -2   1  12 692.937 97.1346   8
  -2   1  11 10751.0 421.721  26
  -2   1  11 11651.0 404.891   8
  -2   1  10 5004.92 311.868  26
  -2   1  10 5492.02 321.300  21
  -2   1  10 4873.55 286.852   8
  -2   1   9 2043.78 217.146  21
  -2   1   9 1985.74 207.398  11
  -2   1   9 2182.68 203.341   8
  -2   1   9 1961.85 209.135  26
  -2   1   8 3929.28 251.439  21
  -2   1   8 3792.88 247.572  11
  -2   1   8 3718.49 235.687   8
  -2   1   7 37672.5 677.508  21
  -2   1   7 36891.1 633.483   5
  -2   1   7 37919.2 664.940  11
  -2   1   7 37802.3 640.619   8
  -2   1   7 38354.5 614.041   4
  -2   1   6 6047.52 243.741   5
  -2   1   6 5695.76 226.919   4
  -2   1   5 7035.84 227.481   4
  -2   1   5 6751.46 233.857   5
  -2   1   4 59.7714 62.0031   5
  -2   1   4 117.069 52.8607   4
  -2   1   3 588.310 68.3151   4
  -2   1   3 636.407 85.6435   5
  -2   1   2 105110. 1469.06   3
   2  -1  -1 12487.4 288.661   1
  -2   1   1 12126.4 485.512   3
   2  -1   0 13851.8 436.189   1
   2  -1   1 281.108 119.590   1
   2  -1   2 53556.5 1212.84   1
   2  -1   3 4167.56 395.680   1
   2  -1   4 3000.92 382.364   1
   2  -1   5 1050.65 255.981   1
   2  -1   6 141585. 1311.04  22
  -2   1  -6 140504. 1323.84  10
   2  -1   6 139879. 1283.88  13
   2  -1   6 140236. 3006.72   1
  -2   1  -7 33024.9 707.349  10
   2  -1   7 32862.0 696.057  22
  -2   1  -8 2775.94 222.251  10
   2  -1   8 2709.58 219.609  22
  -2   1  -9 45.9805 60.3683  10
   2  -1   9 141.283 74.8384  22
   2  -1  10 6000.36 333.062  15
   2  -1  11 1316.44 146.176  15
  -2   0  12 23.2068 82.2817  26
  -2   0  11 1929.84 203.105  26
  -2   0  11 1935.27 175.124   8
  -2   0  10 1012.55 156.854  21
  -2   0  10 1086.56 148.754   8
  -2   0  10 904.198 158.362  26
  -2   0   9 4186.01 274.174  11
  -2   0   9 3805.76 259.227  21
  -2   0   9 3885.58 237.966   8
  -2   0   9 3899.92 238.275   4
  -2   0   8 5791.34 291.863  11
  -2   0   8 5496.55 258.692   8
  -2   0   8 5884.07 269.939   4
  -2   0   8 5295.62 277.410  21
  -2   0   7 2568.72 179.227  11
  -2   0   7 2550.74 174.878  21
  -2   0   7 2754.73 177.034   4
  -2   0   6 468.753 84.5401   4
  -2   0   5 167.256 54.4139   4
  -2   0   5 127.602 55.0473   5
  -2   0   4 291.600 57.1639   4
  -2   0   3 12982.5 302.459   2
  -2   0   3 12430.4 236.978   4
  -2   0   2 999999. 3729.46   3
  -2   0   2 992299. 2572.16   2
  -2   0   1 29171.5 622.722   3
   2   0  -1 29863.2 494.074   1
   2   0   0 316.088 94.1208   1
   2   0   1 842.075 145.728   1
   2   0   2 28544.8 836.806   1
   2   0   3 409.153 146.633   1
   2   0   4 9.54955 98.7418   1
   2   0   5 24908.0 1145.38   1
   2   0   6 21519.5 572.458  22
   2   0   6 21612.6 1172.22   1
   2   0   7 17764.5 564.517  22
   2   0   8 3127.59 254.815  22
   2   0   9 2134.36 209.350  22
   2   0   9 1784.01 215.910  15
   2   0  10 2266.05 224.274  15
   2   0  10 2346.83 198.343  22
   2   1 -12 3985.69 236.983  10
  -2  -1  12 4577.32 272.388  26
  -2  -1  11 5219.21 313.734  26
  -2  -1  10 23421.4 609.912  21
  -2  -1  10 22815.3 637.826  26
  -2  -1  10 22423.5 583.327   4
  -2  -1   9 367.969 104.580  21
  -2  -1   9 333.505 116.127  11
  -2  -1   9 250.447 91.9468   4
  -2  -1   8 380.933 103.498  11
  -2  -1   8 311.611 88.3971   4
  -2  -1   8 350.345 90.2764  21
  -2  -1   7 24098.6 484.829  11
  -2  -1   7 23352.8 494.964   4
  -2  -1   6 10059.5 302.575   4
  -2  -1   5 290.486 147.197   2
  -2  -1   5 19.0490 49.6560   4
  -2  -1   4 609.898 271.811   2
  -2  -1   4 714.281 74.0970   4
  -2  -1   3 389.040 164.763   2
  -2  -1   2 78.1361 73.5598   2
   2   1  -1 6273.78 307.476   1
  -2  -1   1 5866.20 226.341   3
   2   1   0 88716.1 1230.78   1
   2   1   1 2939.36 259.041   1
   2   1   2 71292.1 1392.06   1
   2   1   3 26053.5 945.944   1
   2   1   4 8088.45 601.065   1
   2   1   5 46.3329 73.3547  22
   2   1   5-48.9531 89.3185   8
   2   1   6 11176.0 449.864  22
   2   1   6 11828.4 436.539  15
   2   1   6 11618.3 416.404   8
   2   1   7 3748.73 294.691  22
   2   1   7 4010.94 268.458  12
   2   1   7 4341.18 301.317  15
   2   1   8 6.42089 91.3760  22
   2   1   8-28.6373 91.0434  15
   2   1   9 5348.57 335.220  15
   2   1   9 5191.33 325.542  22
   2   1  10 274.380 97.2295  22
   2   1  10 256.436 98.9675  15
   2   2 -13 75.3307 47.5996  10
  -2  -2  12 1435.74 172.569  26
   2   2 -12 1471.69 160.365  10
  -2  -2  11 2133.50 200.779   4
  -2  -2  11 2557.36 226.304  26
  -2  -2  10 41.5472 68.5335  21
  -2  -2  10 288.749 99.7718  19
  -2  -2  10 138.871 102.854  26
  -2  -2  10 210.523 103.305   4
  -2  -2   9 4028.32 255.772  11
  -2  -2   9 3744.74 228.086  21
  -2  -2   9 3521.99 246.299  19
  -2  -2   9 3769.98 250.928   4
  -2  -2   8 37449.8 628.151  21
  -2  -2   8 37703.8 663.801  11
  -2  -2   8 36686.7 680.420  19
  -2  -2   8 37988.0 699.098   4
  -2  -2   7 6956.53 286.895   4
  -2  -2   6 40336.0 593.969   4
  -2  -2   6 48551.0 1874.83   2
  -2  -2   5 3465.68 165.774   4
  -2  -2   5 3131.67 533.964   2
  -2  -2   4 76602.1 665.117   4
  -2  -2   4 74684.8 1944.94   2
  -2  -2   3 7923.87 480.614   2
  -2  -2   2 19683.4 646.830   2
   2   2  -1 1332.24 188.972   1
   2   2   0 2245.38 249.335   1
   2   2   1 90913.2 1589.42   1
   2   2   2 14489.2 699.997   1
   2   2   3 6130.91 505.721   1
   2   2   4 3531.76 231.403  22
   2   2   4 3422.12 427.019   1
   2   2   4 3450.11 206.715   8
   2   2   4 3792.41 214.419  15
   2   2   5 6604.90 346.766  22
   2   2   5 5847.54 613.332   1
   2   2   5 6283.36 301.720   8
   2   2   5 6187.11 271.933  16
   2   2   5 6558.91 313.451  15
   2   2   6 3115.82 244.927   8
   2   2   6 2897.63 259.659  22
   2   2   6 2978.57 239.482  15
   2   2   7 11278.2 482.380  15
   2   2   7 10038.9 478.917  22
   2   2   8 5112.92 347.767  22
   2   2   8 5643.82 353.012  15
   2   2   9 8905.70 406.932  15
   2   2   9 8424.77 401.876  22
   2   3 -13-87.3887 44.9350  10
   2   3 -12 20664.9 577.123  10
  -2  -3  12 21561.5 544.325  26
  -2  -3  11 2404.03 217.249   4
  -2  -3  11 2325.94 204.025  26
  -2  -3  10 1207.41 162.496  19
  -2  -3  10 1222.69 158.044  26
  -2  -3  10 1260.94 171.769   4
  -2  -3   9 1846.31 192.169  19
  -2  -3   9 1829.66 184.751   4
  -2  -3   9 1926.15 179.142  11
  -2  -3   8 792.111 110.376  11
  -2  -3   8 811.355 130.081   4
  -2  -3   8 871.408 131.601  19
  -2  -3   7 1162.36 138.618  19
  -2  -3   7 1014.02 131.335   4
  -2  -3   7 1155.84 142.901  24
  -2  -3   6 6362.94 817.583   2
  -2  -3   6 8695.98 287.125   4
  -2  -3   5 34729.0 510.700   4
  -2  -3   5 29543.1 1530.82   2
  -2  -3   4 7171.97 212.601   4
  -2  -3   4 8236.73 680.974   2
  -2  -3   3 4005.68 139.578   4
  -2  -3   3 4616.97 427.827   2
  -2  -3   2 2021.19 264.424   2
  -2  -3   1 12306.9 604.353   2
   2   3   0 786.626 195.813   1
   2   3   1 121832. 2120.09   1
   2   3   2 9709.69 644.190   1
   2   3   3 1119.72 134.846  22
   2   3   3 1014.24 125.716  16
   2   3   3 1222.62 133.672  15
   2   3   4 15918.1 505.196  22
   2   3   4 14700.8 423.727   8
   2   3   4 15430.7 432.034  16
   2   3   4 15362.3 945.286   1
   2   3   4 15800.9 465.366  15
   2   3   5 7074.46 376.355  22
   2   3   5 6830.04 328.605   8
   2   3   5 7419.42 356.126  15
   2   3   6 1934.33 225.595  22
   2   3   6 1985.21 209.734   8
   2   3   6 2083.66 222.878  15
   2   3   7 2511.85 253.212  22
   2   3   7 2690.04 247.733  15
   2   3   8 3692.35 283.237  22
   2   3   9 9736.63 392.047  22
   2   4 -13 1202.08 132.657  10
   2   4 -12 352.078 104.357  10
  -2  -4  12 457.810 106.202  26
  -2  -4  11 421.070 102.648  26
  -2  -4  11 430.559 107.906   4
  -2  -4  10 4317.31 276.792   4
  -2  -4  10 4808.47 300.767  19
  -2  -4  10 3976.57 242.766  26
  -2  -4   9 3793.61 267.169  19
  -2  -4   9 3672.55 253.318   4
  -2  -4   9 3780.48 227.246  26
  -2  -4   8 342.899 103.225   4
  -2  -4   8 293.539 101.825  19
   2   4  -8 540.157 102.052   6
  -2  -4   7 32987.1 622.086   4
  -2  -4   7 33209.4 637.702  19
  -2  -4   6 12726.8 369.630  24
  -2  -4   6 13171.4 372.317  19
  -2  -4   6 12800.8 355.975   4
  -2  -4   5 188.508 319.700   2
  -2  -4   5 783.377 93.6652   4
  -2  -4   4 15250.3 987.552   2
  -2  -4   3 32356.0 1255.11   2
  -2  -4   2 13946.2 774.653   2
  -2  -4   1 47349.8 1390.69   2
  -2  -4   0 3335.68 399.356   2
   2   4   1 41567.1 688.250  28
   2   4   1 41571.7 657.313  16
  -2  -4  -1 41604.8 1394.38   2
   2   4   1 42009.0 679.802   7
   2   4   2 44.3252 78.2848  16
   2   4   2 63.7442 82.5985  28
   2   4   2 127.143 74.6875  22
   2   4   3 14568.8 460.770  22
   2   4   3 14577.9 441.812  16
   2   4   3 14540.3 452.244  28
   2   4   4 241.584 96.2289  22
   2   4   4 404.020 112.559  16
   2   4   5 5668.08 343.653  22
   2   4   6 10391.6 429.835   5
   2   4   6 9560.76 448.883  22
   2   4   7 305.326 119.445  22
   2   4   8 231.072 101.042  22
   2   4   8-37.1952 92.2898   7
   2   5 -12 3688.84 237.966  10
   2   5 -11 1188.42 159.483  10
  -2  -5  10 7558.78 361.935  19
  -2  -5  10 7489.18 351.914   4
   2   5  -9 10011.7 377.682   6
  -2  -5   9 10150.7 418.045  19
  -2  -5   9 10868.8 414.973   4
   2   5  -8 0.17053 84.5364   6
  -2  -5   8 57.5858 85.3419  19
  -2  -5   8 192.190 87.7927   4
  -2  -5   7 2242.56 620.983   2
   2   5  -7 1766.94 177.975   6
  -2  -5   7 1656.37 156.460   4
  -2  -5   7 1612.95 162.404  19
  -2  -5   6 530.090 106.243  24
  -2  -5   6 501.232 425.433   2
  -2  -5   6 610.647 106.385  19
  -2  -5   6 545.294 96.2222   4
  -2  -5   5 10742.4 325.041  19
  -2  -5   5 11187.1 332.177  24
   2   5  -4 1432.34 177.651   7
  -2  -5   4 1663.31 425.296   2
   2   5  -3 22543.1 507.535  16
   2   5  -3 21481.8 548.119   7
   2   5  -2 41943.5 696.296  28
   2   5  -2 42863.1 701.958  16
  -2  -5   2 43923.8 1594.77   2
   2   5  -2 41998.0 748.051   7
   2   5  -1 18005.4 483.822  28
   2   5  -1 18810.2 483.371  16
  -2  -5   1 18658.9 1020.77   2
   2   5  -1 18390.1 497.083   7
   2   5   0 2175.83 193.182   7
   2   5   0 2105.42 192.713  28
  -2  -5   0 2515.12 382.755   2
   2   5   0 2225.80 189.479  16
  -2  -5  -1 2325.75 373.619   2
   2   5   1 2559.28 216.741   7
   2   5   1 2762.58 216.104  16
   2   5   1 2889.26 228.161  28
   2   5   2 11182.3 447.926  28
   2   5   2 12009.5 444.271   7
   2   5   2 12040.8 437.732  16
   2   5   2 12702.5 388.824   5
   2   5   3 9968.64 425.767   7
   2   5   3 10216.5 382.097   5
   2   5   3 9802.08 404.925  16
   2   5   4 18010.9 543.497  22
   2   5   4 17486.8 519.221   5
   2   5   4 16639.7 518.550  16
   2   5   4 17061.0 564.675   7
   2   5   5 238.954 123.638   7
   2   5   5 67.6604 89.8376  22
   2   5   5 422.060 117.169   5
   2   5   6 844.590 157.058   7
   2   5   6 694.993 139.734  22
   2   5   7 350.708 91.3434  22
   2   5   7 610.390 119.607   7
   2   6 -12 131.599 63.3331  10
   2   6 -12 139.931 64.8409  14
   2   6 -11 4206.61 243.217  10
  -2  -6  10 3162.92 233.281  19
  -2  -6  10 3118.15 224.255   4
   2   6 -10 3317.94 219.868   6
  -2  -6   9 28750.3 670.059  19
   2   6  -9 28104.3 656.339   6
  -2  -6   9 29690.8 653.135   4
  -2  -6   8 1227.49 155.628  19
   2   6  -8 1229.63 168.903   6
   2   6  -7 93.5059 95.3311   6
  -2  -6   7 13.2431 58.9315  19
   2   6  -6 17952.8 527.818   6
  -2  -6   6 17143.6 454.323  19
   2   6  -5 1698.00 179.176   6
   2   6  -4 12907.3 420.043   6
   2   6  -4 12936.3 408.269  28
   2   6  -4 12752.4 494.742   7
   2   6  -3 755.301 133.210  28
   2   6  -3 638.739 117.865   6
   2   6  -3 526.952 164.995   7
   2   6  -2 14162.2 466.538  28
   2   6  -2 14147.4 479.168  16
   2   6  -2 14259.1 509.097   7
   2   6  -1 2526.51 231.806  16
   2   6  -1 2413.86 244.964   7
   2   6  -1 2690.52 231.332  28
   2   6   0 153.790 114.406  28
   2   6   0 159.131 115.613  16
   2   6   0 176.521 124.825   7
   2   6   1 1497.13 198.196  16
   2   6   1 1652.49 207.267  28
   2   6   1 1522.85 201.517   7
   2   6   2 4078.11 294.699  16
   2   6   2 4643.48 311.171   7
   2   6   3 1368.00 190.367  16
   2   6   3 1382.44 186.173   7
   2   6   4 6969.48 371.219   7
   2   6   4 7036.78 349.968  16
   2   6   5 6118.16 330.902   7
   2   6   6 89.0435 84.7495   7
   2   7 -11 1822.66 148.990  14
   2   7 -10 1755.65 166.028   6
   2   7 -10 1644.54 151.457  14
   2   7  -9 3717.65 253.155   6
  -2  -7   9 3641.28 229.347  19
   2   7  -9 3040.30 208.097  14
  -2  -7   8 1674.46 162.050  19
   2   7  -8 1757.21 183.188  17
   2   7  -8 1843.20 194.838   6
   2   7  -7 55.4782 100.300   6
   2   7  -6 795.190 152.455   6
   2   7  -5 406.320 126.027   6
   2   7  -4 20042.5 552.030   6
   2   7  -4 21031.0 568.304  28
   2   7  -3 11117.6 400.409   6
   2   7  -3 11581.7 460.949  17
   2   7  -3 11614.3 513.184   7
   2   7  -3 11481.5 445.215  28
   2   7  -2 292.535 119.627  28
   2   7  -2 387.698 113.527  17
   2   7  -2 317.278 156.583   7
   2   7  -1 10638.2 430.957  17
   2   7  -1 10570.6 479.186   7
   2   7  -1 11329.5 475.732  28
   2   7   0 897.403 172.557   7
   2   7   1-71.2744 138.359   7
   2   7   2 5002.52 316.904   7
   2   7   3-24.0175 106.043   7
   2   7   3-22.3657 108.943  27
   2   7   4 7958.91 351.309   7
   2   8 -10 123.859 78.2851   6
   2   8  -9 7238.34 319.692   6
   2   8  -8 105.422 94.7770   6
   2   8  -8 7.40352 70.1849  17
   2   8  -7 3916.68 264.829  17
   2   8  -7 4055.34 269.985   6
   2   8  -6 14346.6 510.020  17
   2   8  -6 13714.2 470.063   6
   2   8  -5 255.668 100.200   6
   2   8  -5 528.112 132.670  17
   2   8  -4 1578.95 193.687  17
   2   8  -4 1808.65 184.953   6
   2   8  -3 44.5075 84.9531  17
   2   8  -3 186.664 151.515   7
   2   8  -2 2444.09 221.013  17
   2   8  -2 2692.43 266.842   7
   2   8  -1 667.793 127.549  17
   2   8  -1 647.036 166.165   7
   2   8   0 10229.7 449.126   7
   2   8   1 13101.9 491.320  27
   2   8   1 13003.2 475.664   7
   2   8   2 189.177 112.054  27
   2   8   2-163.281 112.936   7
   2   9  -9 36.2642 59.8416   6
   2   9  -8 4688.09 241.487   6
   2   9  -8 4337.58 229.370  17
   2   9  -7 6963.77 299.357   6
   2   9  -7 7254.58 318.380  17
   2   9  -6 3789.62 225.580   6
   2   9  -6 3919.04 251.342  17
   2   9  -5-5.99206 69.1425   6
   2   9  -5 69.3528 71.9424  17
   2   9  -4 47.9465 79.7082  17
   2   9  -4-60.3516 94.8978  27
   2   9  -3 6685.73 321.605  27
   2   9  -3 6348.09 316.547  17
   2   9  -2 2404.28 187.876  17
   2   9  -2 2413.16 210.817  27
   2   9  -1 7250.05 311.785  25
   2   9  -1 7768.97 348.694  27
   2   9   0 276.057 112.446   7
   2   9   0 143.058 103.770  27
  -3   9   1 1002.23 133.906  25
  -3   9   1 1145.94 135.667  17
  -3   9   0 771.371 119.891  25
  -3   9   0 793.073 125.826  17
  -3   9  -1 82.3564 81.0944  17
  -3   9  -1 155.141 66.1616  25
  -3   9  -2 3897.77 242.977  17
  -3   9  -3 630.579 111.946  17
  -3   9  -4 11804.6 366.856   9
  -3   9  -4 12315.2 384.320  17
  -3   9  -5 8672.11 313.940   9
  -3   8   4 6964.82 328.171  25
  -3   8   3 7848.08 367.670  25
  -3   8   2 1066.94 152.065  17
  -3   8   2 1313.43 175.567  25
  -3   8   1 5543.57 323.005  25
  -3   8   1 5114.78 305.006  17
  -3   8   0 2895.16 242.934  17
  -3   8   0 2720.24 230.078  25
  -3   8  -1 240.558 114.623  17
  -3   8  -1 287.248 96.5580  25
  -3   8  -2 2349.92 198.293   9
  -3   8  -2 2553.04 228.054  17
  -3   8  -3 274.513 90.3275   9
  -3   8  -3 177.188 86.8986  17
  -3   8  -4 7725.81 355.122   9
  -3   8  -4 7501.84 339.110  17
  -3   8  -5 104.394 83.1811   9
   3  -8   5 72.9143 70.9830  13
   3  -8   6 2666.58 186.674  13
  -3   8  -6 2664.25 203.103   9
  -3   8  -7 133.255 65.9530   9
   3  -8   7 111.390 70.4882  13
  -3   7   6 386.095 97.4693  25
  -3   7   5 783.764 143.452   8
  -3   7   5 933.900 159.092  25
  -3   7   4 7978.94 366.219   8
  -3   7   4 7573.68 392.633  25
  -3   7   3 301.460 111.152  17
  -3   7   3 328.667 128.907  25
  -3   7   2 4756.52 308.676  17
  -3   7   2 5065.24 324.648  25
  -3   7   1 1661.50 195.547  17
  -3   7   1 1656.82 203.243  25
  -3   7   0 12275.5 466.830  25
  -3   7   0 12390.6 482.699  17
  -3   7  -1 22989.5 605.261  25
  -3   7  -1 23336.1 657.343  17
  -3   7  -1 22809.0 597.070   9
  -3   7  -2 8.47522 78.3925   9
  -3   7  -2 226.437 112.186  17
  -3   7  -3 2380.36 219.168   9
  -3   7  -3 2514.86 216.796  17
  -3   7  -4 323.076 103.539   9
  -3   7  -4 357.312 97.3741  17
  -3   7  -4 233.241 99.8553  14
   3  -7   4 346.784 105.181  13
  -3   7  -5 594.500 127.273   9
  -3   7  -5 546.702 124.332  14
   3  -7   5 370.129 103.212  13
   3  -7   6 2797.14 223.326  13
  -3   7  -6 3002.86 242.022   9
  -3   7  -6 2914.51 231.352  14
  -3   7  -7 17992.9 520.557   9
  -3   7  -7 17959.6 517.943  14
  -3   7  -8 191.390 71.6867   9
  -3   7  -8 190.448 64.6361  10
   3  -7   8 218.695 88.0821  13
   3  -7   9 3190.45 181.551  13
  -3   6   7 4985.88 291.375   8
  -3   6   6 276.175 118.527  25
  -3   6   6 316.546 124.993   8
  -3   6   5 389.325 137.600  25
  -3   6   5 247.140 124.693   8
  -3   6   4 5311.41 329.798   8
  -3   6   4 5716.97 355.131  25
  -3   6   3 3416.62 279.138  25
  -3   6   3 2885.05 249.231   8
  -3   6   3 2891.42 240.261  17
  -3   6   2 557.935 134.063  17
  -3   6   2 757.152 156.126  25
  -3   6   1 9284.73 404.658  17
  -3   6   1 9153.67 399.891  25
  -3   6   0 52.5982 64.0346   9
  -3   6   0 150.465 108.222  17
  -3   6   0-22.8202 91.5043  25
  -3   6  -1 864.054 132.328   9
  -3   6  -1 718.798 140.742  17
  -3   6  -1 739.909 123.104  25
  -3   6  -2 2476.50 211.628   9
  -3   6  -2 2321.35 206.943  17
  -3   6  -2 2309.70 210.777  14
  -3   6  -3 182.233 90.6659   9
  -3   6  -3 244.985 94.9741  17
  -3   6  -3 245.269 101.815  14
   3  -6   3 335.894 107.179  13
  -3   6  -4 1159.43 159.693  14
   3  -6   4 964.921 148.885  13
   3  -6   5 17533.5 540.835  13
  -3   6  -5 16962.8 502.972  10
  -3   6  -5 17457.7 543.819  14
   3  -6   6 8432.51 386.768  13
  -3   6  -6 8713.43 390.937  14
  -3   6  -6 8354.38 366.166  10
  -3   6  -7 4382.81 274.810   9
  -3   6  -7 4472.50 274.696  14
   3  -6   7 4614.00 285.947  13
  -3   6  -7 4203.06 269.137  10
  -3   6  -8 7577.52 336.463  10
   3  -6   8 8162.60 352.688  13
  -3   6  -8 7972.75 333.158   9
  -3   6  -8 7991.10 336.774  14
   3  -6   9 1559.91 152.378  13
  -3   6  -9 1448.97 131.191  14
  -3   6  -9 1733.25 156.283  10
  -3   5   9-20.0338 85.6072   8
  -3   5   8 753.440 152.635   8
  -3   5   7 2952.82 258.652  25
  -3   5   7 3087.75 263.371   8
  -3   5   6 7652.66 397.089   8
  -3   5   6 7288.93 399.738  25
  -3   5   5 403.325 134.688   8
  -3   5   5 650.615 164.683  25
  -3   5   4 646.647 132.038  17
  -3   5   4 675.993 145.732   8
  -3   5   4 640.227 149.680  25
  -3   5   3 73.7382 94.5468  17
  -3   5   3 24.0062 98.1681  25
  -3   5   2 125.739 90.1689  17
  -3   5   2 123.363 85.4119  25
  -3   5   1 9448.41 788.537   3
  -3   5   1 9813.91 372.810  25
  -3   5   1 10051.9 389.437  17
  -3   5   1 10024.2 357.142   9
  -3   5   0 35616.0 1485.04   3
  -3   5   0 38681.7 695.096   9
  -3   5   0 37154.7 713.611  17
  -3   5   0 35955.9 656.630  25
  -3   5  -1 10601.3 374.525   9
  -3   5  -1 10224.8 376.759  17
  -3   5  -1 11071.7 391.414  14
  -3   5  -2 41670.6 751.152   9
  -3   5  -2 39928.8 720.592  17
  -3   5  -2 41277.8 752.559  14
   3  -5   2 41103.0 672.168  13
  -3   5  -3 74.8552 124.792   3
  -3   5  -3 149.696 76.3451  10
  -3   5  -3 156.890 71.8995  17
  -3   5  -3 96.4560 68.9594  14
   3  -5   3 53.4992 79.0065  13
  -3   5  -4 123.575 76.2433  10
  -3   5  -4 214.131 88.0307  14
   3  -5   4 193.598 97.8059  13
  -3   5  -5 4440.42 269.510  10
  -3   5  -5 4735.00 275.474  14
   3  -5   5 4762.04 292.139  13
  -3   5  -6 3676.59 256.923  10
  -3   5  -6 3669.27 247.534  14
   3  -5   6 3578.84 266.403  13
  -3   5  -7 8960.43 399.493  10
  -3   5  -7 9210.42 376.004  14
   3  -5   7 8365.31 404.083  13
  -3   5  -8 572.114 120.541  10
  -3   5  -8 679.636 111.038  14
   3  -5   8 742.063 139.631  13
  -3   5  -9 3465.29 234.617  10
  -3   5 -10 5205.35 250.133  10
  -3   4  10 278.002 100.168   8
  -3   4   9 5833.80 302.619  21
  -3   4   9 6152.49 329.532   8
  -3   4   8 5954.19 325.641  21
  -3   4   8 6137.29 346.234   8
  -3   4   7 3124.38 251.508  21
  -3   4   7 2763.56 248.732  25
  -3   4   7 3227.94 265.091   8
  -3   4   6 14222.1 524.148  25
  -3   4   6 14622.8 519.844   8
  -3   4   6 14527.5 497.296  21
  -3   4   5 20.1421 100.904   8
  -3   4   5 89.4192 110.092  25
  -3   4   4 5446.92 301.322  25
  -3   4   4 5277.51 269.685  17
  -3   4   3 9571.50 361.502  25
  -3   4   3 8958.52 338.761  17
  -3   4   2 2012.11 171.679  17
  -3   4   2 2364.59 177.753  25
  -3   4   1 18380.9 996.430   3
  -3   4   1 20076.5 475.125  17
  -3   4   0-152.264 149.826   3
  -3   4  -1 7002.46 607.329   3
  -3   4  -2 12657.9 821.764   3
  -3   4  -2 14321.8 397.274  14
  -3   4  -3 14565.4 412.913  10
   3  -4   3 14603.7 940.036   1
  -3   4  -3 14263.4 408.231  14
   3  -4   3 14115.8 413.043  13
  -3   4  -4 43064.3 752.192  10
  -3   4  -4 43009.8 724.559  14
   3  -4   4 42375.9 764.963  13
  -3   4  -5 981.381 138.353  10
  -3   4  -5 1036.24 129.853  14
   3  -4   5 1109.55 159.845  13
  -3   4  -6 1791.36 186.856  10
  -3   4  -6 1674.89 158.393  14
   3  -4   6 1856.85 201.254  13
   3  -4   7 3016.46 249.460  13
  -3   4  -7 2869.98 205.315  14
  -3   4  -7 2881.21 239.595  10
  -3   4  -8-95.2192 79.1943  10
   3  -4   8 19.4775 97.0959  13
  -3   4  -9 2390.53 213.334  10
  -3   4 -10 17729.2 473.799  10
  -3   3  10 442.497 105.509  21
  -3   3  10 460.334 117.806   8
  -3   3   9 160.086 99.9520  21
  -3   3   9 58.0357 104.186   8
  -3   3   8 367.260 117.760  21
  -3   3   8 278.217 117.745   8
  -3   3   7 3133.22 246.293  21
  -3   3   7 2940.85 251.695  25
  -3   3   7 3038.08 258.410   5
  -3   3   7 3087.03 246.357   8
  -3   3   6 1031.88 144.700  11
  -3   3   6 940.810 163.546  25
  -3   3   6 1227.50 185.408   5
  -3   3   6 927.393 155.538   8
  -3   3   5 23025.7 580.605  25
  -3   3   5 22238.5 575.421   5
  -3   3   5 22845.9 548.331   8
  -3   3   5 22557.0 507.804  11
  -3   3   4 45989.1 623.797   4
  -3   3   4 46630.5 754.107  25
  -3   3   3 1711.37 126.923   4
  -3   3   2 9740.84 673.457   3
  -3   3   1 3256.43 391.256   3
  -3   3   0 29374.0 1118.73   3
  -3   3  -1 5383.12 500.020   3
   3  -3   2 139056. 2465.61   1
   3  -3   3 4304.41 493.248   1
  -3   3  -4 2646.87 186.852  10
   3  -3   4 2763.52 431.116   1
  -3   3  -4 2214.57 155.862  14
   3  -3   4 2793.53 206.368  13
   3  -3   5-101.500 125.802   1
  -3   3  -5-1.88581 67.1034  10
  -3   3  -5 68.1069 46.2765  14
   3  -3   5 144.737 99.9043  13
  -3   3  -6 874.580 139.304  10
   3  -3   6 811.472 148.053  13
  -3   3  -7 89.1319 78.6376  10
   3  -3   7 51.7857 97.6684  13
  -3   3  -8 10664.2 433.584  10
  -3   3  -9 12931.6 461.579  10
  -3   3 -10 905.777 119.762  10
  -3   2  11 447.557 113.220  21
  -3   2  11 813.335 128.712   8
  -3   2  10 3157.36 251.157  21
  -3   2  10 3249.54 236.830   8
  -3   2  10 3513.74 255.201  11
  -3   2   9 456.667 123.401  11
  -3   2   9 444.909 126.902   8
  -3   2   9 505.131 129.453  21
  -3   2   8 18690.8 541.761  11
  -3   2   8 17301.8 524.842   5
  -3   2   8 17294.6 546.654  21
  -3   2   8 17383.1 521.394   8
  -3   2   7 7267.75 326.634  11
  -3   2   7 7407.65 338.229  21
  -3   2   7 7428.12 342.399   5
  -3   2   7 7483.67 329.053   8
  -3   2   6 12278.5 390.009  11
  -3   2   6 11764.2 402.145   5
  -3   2   6 11794.4 379.940   8
  -3   2   6 12047.5 348.800   4
  -3   2   6 12227.4 422.365  25
  -3   2   5 59.1758 54.0364   4
  -3   2   5 18.6766 99.8121   5
  -3   2   5 38.2829 68.5147  25
  -3   2   4 2836.53 157.382   4
  -3   2   3 17996.4 363.731   4
  -3   2   2 9947.47 603.270   3
  -3   2   2 10082.8 267.656   4
  -3   2   1 1766.63 266.678   3
  -3   2   0 7859.37 529.592   3
   3  -2   0 9379.54 449.118   1
   3  -2   1 19600.9 756.481   1
   3  -2   2 8793.92 583.130   1
   3  -2   3 13709.5 798.931   1
  -3   2  -4 7119.67 287.940  10
   3  -2   4 6977.57 288.307  13
   3  -2   4 7071.96 639.852   1
  -3   2  -5 24751.1 576.876  10
   3  -2   5 24135.8 592.996  13
   3  -2   5 25254.4 1292.33   1
  -3   2  -6 11724.8 423.697  10
   3  -2   6 11531.9 439.306  13
  -3   2  -7 831.685 134.321  10
  -3   2  -8 1154.33 154.181  10
  -3   2  -9 2323.04 196.444  10
   3  -2   9 2283.62 192.481  15
   3  -2  10 4297.65 230.568  15
   3  -2  10 4517.71 260.031  12
  -3   1  12 114.248 80.5741  26
  -3   1  11 7294.83 347.683  21
  -3   1  11 7287.43 309.731   8
  -3   1  11 6532.92 334.506  26
  -3   1  10 424.664 127.263  21
  -3   1  10 430.651 129.651  11
  -3   1  10 339.968 98.3275   8
  -3   1  10 409.661 125.775  26
  -3   1   9 1560.07 185.714  11
  -3   1   9 1550.23 186.554  21
  -3   1   9 1504.59 169.988   8
  -3   1   8 41.5999 91.7806  11
  -3   1   8 58.7565 92.6219  21
  -3   1   8 184.465 88.9618   8
  -3   1   8 73.5215 74.8768   4
  -3   1   7 668.355 116.535  21
  -3   1   7 866.034 132.967  11
  -3   1   7 823.019 116.398   8
  -3   1   7 936.600 123.343   4
  -3   1   6 8953.01 314.171   5
  -3   1   6 9105.32 305.323   4
  -3   1   6 8549.23 304.505  11
  -3   1   5 8605.26 294.750   5
  -3   1   5 8198.97 275.521   4
  -3   1   4 39078.7 540.045   4
  -3   1   3 43448.5 1137.98   3
  -3   1   3 45821.4 550.350   4
  -3   1   2 36143.5 467.209   4
  -3   1   2 34614.6 994.165   3
   3  -1  -1 1805.25 155.173   1
  -3   1   1 1621.66 228.663   3
  -3   1   1 1675.39 107.672   4
   3  -1   0 55305.3 999.383   1
   3  -1   1 154.750 98.0510   1
   3  -1   2 10838.1 605.518   1
   3  -1   3 698.102 192.042   1
   3  -1   4 1053.70 267.081   1
  -3   1  -5 68920.8 932.851  10
   3  -1   5 71582.3 2138.91   1
   3  -1   5 68983.7 911.514  22
   3  -1   6 2147.80 189.671  22
  -3   1  -6 1996.32 181.541  10
  -3   1  -7 7104.98 345.662  10
   3  -1   7 7124.72 340.913  22
   3  -1   8 383.664 96.6265  22
   3  -1   8 268.793 98.7201  15
   3  -1   9-21.5117 83.9672  12
   3  -1   9 113.445 86.9790  15
   3  -1  10 5177.98 252.081  15
   3  -1  10 4999.09 259.782  12
  -3   0  12 1640.53 169.580  26
  -3   0  11 11343.4 428.637  21
  -3   0  11 10962.8 441.833  26
  -3   0  10 13.9351 96.4921  11
  -3   0  10 60.8780 93.3692  21
  -3   0  10 150.064 91.5614   4
  -3   0   9 1918.90 195.923  11
  -3   0   9 1966.10 190.992  21
  -3   0   9 1920.36 188.404   4
  -3   0   8 33928.4 675.777  11
  -3   0   8 33357.5 662.825  21
  -3   0   8 34217.2 591.589   8
  -3   0   8 32844.4 667.288   4
  -3   0   7 902.733 118.789  21
  -3   0   7 919.004 125.194   4
  -3   0   7 1111.15 135.059  11
  -3   0   6 644.430 97.4225   4
  -3   0   5 12.6429 50.2120   4
  -3   0   4 7858.33 239.636   4
  -3   0   3 11845.9 273.171   4
  -3   0   2 36441.8 876.462   3
  -3   0   2 37129.6 447.367   4
  -3   0   1 32695.6 402.361   4
   3   0  -1 33972.4 709.213   1
   3   0   0 13656.5 519.422   1
   3   0   1 13368.9 590.582   1
   3   0   2 10471.3 594.161   1
   3   0   3 2515.07 336.181   1
   3   0   4 4016.00 232.198  22
   3   0   4 3829.78 463.427   1
   3   0   5 113857. 1288.76  22
   3   0   5 112470. 2677.21   1
   3   0   6 295.610 106.918  22
   3   0   6 186.097 95.1877  15
   3   0   7 150.142 91.3356  22
   3   0   7 9.66783 82.6011  15
   3   0   8 107.728 77.6692  22
   3   0   8 107.744 94.1339  15
   3   0   8 206.944 102.267  12
   3   0   9 344.897 95.1455  22
   3   0   9 354.231 112.136  15
   3   0   9 294.487 98.6463  12
  -3  -1  13 186.940 76.4446  26
  -3  -1  12 1180.28 157.718  26
  -3  -1  11 338.044 120.531  11
  -3  -1  11 74.7483 77.3626  21
  -3  -1  11 323.444 102.770   4
  -3  -1  11 164.332 111.180  26
  -3  -1  10 891.738 148.300  11
  -3  -1  10 841.245 132.620  21
  -3  -1  10 734.008 133.817   4
  -3  -1   9 12861.4 440.015  11
  -3  -1   9 12225.4 434.876   4
  -3  -1   9 12538.6 417.001  21
  -3  -1   8 3466.55 221.971  11
  -3  -1   8 3409.68 211.892  21
  -3  -1   8 3436.33 221.679  19
  -3  -1   8 3206.66 221.769   4
  -3  -1   7 9538.36 316.937  19
  -3  -1   7 9781.59 324.976  11
  -3  -1   7 9579.91 341.334   4
  -3  -1   7 9907.21 311.350  21
  -3  -1   7 9532.03 344.063  24
  -3  -1   6 8148.42 287.539   4
  -3  -1   5 53095.4 662.769   4
  -3  -1   4 31692.7 467.408   4
  -3  -1   3 51698.0 548.488   4
  -3  -1   3 57408.3 1073.72   2
  -3  -1   2 7.98529 36.8666   4
  -3  -1   2 36.3273 53.3948   3
  -3  -1   2 60.8382 71.5857   2
  -3  -1   1 7705.05 354.868   3
  -3  -1   1 7676.17 183.887   4
   3   1   0 14796.6 606.462   1
   3   1   1 2767.22 300.875   1
   3   1   2 1621.11 261.868   1
   3   1   3 12892.3 396.206  22
   3   1   3 11246.5 720.875   1
   3   1   4 15982.6 451.641  12
   3   1   4 15070.6 476.673  22
   3   1   4 15190.6 416.058  15
   3   1   4 15662.3 940.421   1
   3   1   5 5326.66 316.033  22
   3   1   5 4946.03 270.847  15
   3   1   5 5148.30 293.114  12
   3   1   6 2878.38 249.684  22
   3   1   6 2799.52 230.412  15
   3   1   6 2519.94 229.759  12
   3   1   7 5177.92 333.345  22
   3   1   7 4806.01 309.379  15
   3   1   7 5145.00 315.279  12
   3   1   8 8553.49 408.713  22
   3   1   8 8195.89 388.810  15
   3   1   9 13188.7 444.626  22
   3   1   9 12197.0 431.928  15
   3   2 -13 5065.01 243.010  10
  -3  -2  13 5673.33 258.063  26
  -3  -2  12 3143.94 230.734  26
  -3  -2  11 1375.29 155.661  21
  -3  -2  11 1334.84 167.615   4
  -3  -2  11 1638.47 188.047  26
  -3  -2  10 273.066 109.300   4
  -3  -2  10 357.572 90.8763  21
  -3  -2  10 344.814 109.198  19
  -3  -2  10 322.370 108.713  11
  -3  -2   9 773.542 128.576  11
  -3  -2   9 788.784 118.609  21
  -3  -2   9 744.500 137.295  19
  -3  -2   9 785.374 140.079   4
  -3  -2   8 17720.8 462.556  11
  -3  -2   8 17993.4 432.204  21
  -3  -2   8 18369.0 495.886  19
  -3  -2   8 18312.4 500.019   4
  -3  -2   7 3376.99 192.322  11
  -3  -2   7 3620.14 210.303  19
  -3  -2   7 3205.55 201.662   4
  -3  -2   7 3564.55 219.653  24
  -3  -2   6 2449.77 167.103   4
  -3  -2   5 4657.52 206.416   4
  -3  -2   4 8112.37 239.959   4
  -3  -2   4 9497.13 634.828   2
  -3  -2   3 760.824 158.228   2
  -3  -2   3 351.643 63.5788   4
  -3  -2   2 7221.80 179.647   4
  -3  -2   2 8280.63 463.151   2
   3   2  -1 12496.9 597.405   1
   3   2   0 73813.2 1529.91   1
   3   2   1 111952. 2031.72   1
   3   2   2 7516.92 579.259   1
   3   2   3 12085.2 419.530  22
   3   2   3 12134.4 366.969  15
   3   2   3 12292.4 806.327   1
   3   2   3 11829.3 377.488  12
   3   2   4 8700.09 390.874  22
   3   2   4 8616.14 345.088  15
   3   2   4 8400.40 349.000  12
   3   2   5 312.531 123.231  22
   3   2   5 411.104 112.780  15
   3   2   5 436.071 113.578  12
   3   2   6 726.963 157.093  22
   3   2   6 709.309 145.790  15
   3   2   6 750.313 135.213  12
   3   2   7 1591.33 203.898  22
   3   2   7 1926.48 211.997  15
   3   2   8 22809.3 644.342  22
   3   2   8 21823.9 613.284  15
   3   3 -13 686.502 100.020  10
  -3  -3  13 915.951 115.431  26
  -3  -3  12 570.101 117.221  26
  -3  -3  11 1089.40 153.563  19
  -3  -3  11 1007.91 150.543   4
  -3  -3  11 1003.44 146.447  26
  -3  -3  10 958.965 150.038  19
  -3  -3  10 1260.70 159.563  11
  -3  -3  10 1046.13 160.648   4
  -3  -3   9-11.1185 81.9335  19
  -3  -3   9 27.5483 75.7912  11
  -3  -3   9 27.3432 81.2451   4
  -3  -3   8 28037.4 554.787  11
  -3  -3   8 28079.5 632.525  19
  -3  -3   8 28233.2 621.569   4
  -3  -3   8 28721.8 647.536  24
  -3  -3   7 13703.7 350.480  11
  -3  -3   7 14646.1 422.350  19
  -3  -3   7 14231.3 411.784   4
  -3  -3   7 14695.6 432.624  24
  -3  -3   6 1836.40 155.784  24
  -3  -3   6 1678.91 145.666  19
  -3  -3   6 1711.84 142.566   4
  -3  -3   5 47510.0 627.353   4
  -3  -3   5 44838.0 1752.70   2
  -3  -3   4 556.676 218.296   2
  -3  -3   4 385.830 66.1567   4
  -3  -3   3 1279.54 237.817   2
  -3  -3   2 7506.87 520.802   2
  -3  -3   1 950.441 206.672   2
   3   3   0 27492.5 1069.28   1
   3   3   1 1798.36 305.535   1
   3   3   1 2233.21 174.769  22
   3   3   1 1874.91 149.870  16
   3   3   1 2307.06 163.083  12
   3   3   2 16505.3 483.257  22
   3   3   2 16253.8 935.736   1
   3   3   2 14892.7 435.480  16
   3   3   2 14993.7 426.214  28
   3   3   2 16046.6 433.644  12
   3   3   3 3502.18 254.708  22
   3   3   3 3505.54 236.452  16
   3   3   3 3571.88 235.502  15
   3   3   3 3061.59 213.934  12
   3   3   4 4110.26 294.929  22
   3   3   4 4146.34 272.480  16
   3   3   4 4206.33 269.687  15
   3   3   4 4240.30 254.605  12
   3   3   5 3749.48 297.805  22
   3   3   5 4131.65 269.957  16
   3   3   5 4210.87 289.559  15
   3   3   6 1819.44 221.222  22
   3   3   7 354.633 122.813  22
   3   3   8 6783.00 334.147  22
   3   4 -13 5543.53 261.503  10
  -3  -4  12 133.819 76.5768  26
  -3  -4  11 21.7553 81.2091  19
  -3  -4  11-16.1859 72.2908   4
  -3  -4  10 2912.98 240.106  19
  -3  -4  10 2712.30 227.158   4
  -3  -4   9 4161.23 276.159  19
  -3  -4   9 3895.09 256.318   4
  -3  -4   8 1438.08 168.884  19
  -3  -4   8 1268.22 152.877   4
  -3  -4   8 1251.75 167.834  24
  -3  -4   7 3099.88 213.182  19
  -3  -4   7 2994.16 197.980   4
  -3  -4   7 2954.07 215.964  24
  -3  -4   6 21661.7 507.468  24
  -3  -4   6 21257.2 500.106  19
  -3  -4   6 21621.6 473.572   4
  -3  -4   5 4047.34 602.478   2
  -3  -4   5 4816.54 228.846  19
  -3  -4   4 1882.55 388.351   2
  -3  -4   3 10096.2 716.047   2
  -3  -4   2 6584.78 566.994   2
  -3  -4   1 2942.66 384.771   2
   3   4  -1 3059.81 188.224  16
   3   4  -1 3134.58 206.470   7
   3   4   0 31554.7 609.337  22
   3   4   0 31707.3 648.128  28
   3   4   0 31715.4 629.115   7
  -3  -4   0 31065.0 1279.91   2
   3   4   0 31144.2 599.453  16
   3   4   1 4744.49 273.366  28
  -3  -4  -1 4897.01 547.440   2
   3   4   1 4898.33 260.055  16
   3   4   1 5233.61 276.375  22
   3   4   1 4706.06 264.264   7
   3   4   2 333.770 118.109  22
   3   4   2 431.320 123.686  16
   3   4   2 285.319 99.5315   7
   3   4   2 307.338 114.912  28
   3   4   2 261.950 93.0627  12
   3   4   3 7961.36 383.054  22
   3   4   3 8118.72 369.751  16
   3   4   3 7971.84 341.744  12
   3   4   4 2824.04 250.124  22
   3   4   4 2907.91 238.613  16
   3   4   5 148.168 111.887  22
   3   4   5 86.5930 87.4957  16
   3   4   6 1618.73 192.977   7
   3   4   6 2256.18 223.817  22
   3   4   7 212.826 93.6007   7
   3   4   7 344.049 102.262  22
   3   5 -12 73.1224 62.5041  10
  -3  -5  11 5378.08 296.225  19
  -3  -5  10 11225.2 448.239  19
  -3  -5  10 11574.4 425.053   4
   3   5  -9 11325.0 411.089   6
  -3  -5   9 11152.3 429.935  19
  -3  -5   9 10895.6 409.354   4
  -3  -5   8 10807.8 414.881  19
  -3  -5   8 10425.5 385.993   4
  -3  -5   7 88.7537 87.7224  24
  -3  -5   7 92.4788 78.0849  19
  -3  -5   6 737.709 125.263  24
  -3  -5   6 576.895 110.404  19
  -3  -5   5 7233.14 294.239  24
  -3  -5   5 7075.12 283.225  19
   3   5  -5 7670.18 295.508  28
   3   5  -4 2418.64 185.034  28
  -3  -5   4 1983.67 464.572   2
   3   5  -4 2239.72 178.298  16
   3   5  -4 2213.05 219.526   7
   3   5  -3 6592.48 293.124  16
  -3  -5   3 7499.07 707.862   2
   3   5  -3 6319.39 332.479   7
   3   5  -3 6675.16 304.534  28
   3   5  -2 22107.7 564.335  28
   3   5  -2 22035.2 532.670  16
   3   5  -2 22761.2 598.205   7
  -3  -5   2 23629.6 1224.66   2
   3   5  -1 383.006 110.773  28
  -3  -5   1 262.255 156.055   2
   3   5  -1 641.477 136.603   7
   3   5  -1 452.709 114.061  16
   3   5   0 2184.69 214.592  28
   3   5   0 2193.55 201.227  16
   3   5   0 2616.92 224.168   7
   3   5   1 3401.72 268.701  28
   3   5   1 3894.50 264.873  16
   3   5   1 3923.66 274.077   7
   3   5   2 12606.7 477.611   7
   3   5   2 11991.9 441.252  22
   3   5   2 12268.4 462.926  16
   3   5   2 12651.8 482.059  28
   3   5   3 480.480 123.126  22
   3   5   3 238.895 129.880  16
   3   5   3 270.889 108.375  28
   3   5   3 286.278 112.588   7
   3   5   4 18278.0 558.714  16
   3   5   4 19277.8 574.444  22
   3   5   4 19373.6 603.536   7
   3   5   5 5143.22 298.053  22
   3   5   5 5380.76 320.555   7
   3   5   6 5238.47 291.474   7
   3   5   6 4898.14 271.056  22
   3   6 -12 351.301 71.8277  14
  -3  -6  11 6513.12 305.485  19
   3   6 -10 1717.45 173.698   6
  -3  -6  10 1941.73 190.980  19
   3   6  -9 1186.09 161.900   6
  -3  -6   9 1070.37 148.540  19
   3   6  -8 149.176 101.300   6
  -3  -6   8 50.1631 77.0579  19
  -3  -6   7 2155.13 188.608  19
  -3  -6   7 2331.89 194.723  24
  -3  -6   6 1370.46 157.462  24
  -3  -6   6 1301.21 148.592  19
   3   6  -5 2412.23 194.470  28
   3   6  -4 28786.8 650.390  28
   3   6  -4 26663.4 732.374   7
   3   6  -3 9920.80 406.689  28
   3   6  -3 9901.60 405.346  16
   3   6  -3 9766.01 456.487   7
   3   6  -2 32820.2 735.825  16
   3   6  -2 33143.2 799.575   7
   3   6  -2 32574.0 750.382  28
   3   6  -1 3913.07 284.307  28
   3   6  -1 4020.95 279.255  16
   3   6  -1 3429.18 283.341   7
   3   6   0 10136.0 435.600  16
   3   6   0 10421.8 453.078   7
   3   6   0 10639.7 463.557  28
   3   6   1 11894.3 473.257  16
   3   6   1 12054.9 484.863   7
   3   6   1 11415.8 479.096  28
   3   6   2 1509.81 198.763   7
   3   6   2 1462.73 194.512  16
   3   6   3 18325.4 565.418  16
   3   6   3 18888.4 587.915   7
   3   6   4 3182.63 235.614  16
   3   6   4 3762.25 264.239   7
   3   6   5 537.741 122.218   7
   3   7 -11 45.8131 59.1604   6
   3   7 -10 2365.09 188.481   6
  -3  -7  10 2534.95 188.211  19
   3   7  -9-45.1759 84.5096   6
  -3  -7   9 25.5764 77.9446  19
  -3  -7   8 2095.02 178.838  19
   3   7  -8 2069.62 200.837   6
   3   7  -7 21159.4 600.594   6
   3   7  -6-25.7322 95.3392   6
   3   7  -5 8633.26 378.031   6
   3   7  -5 9302.96 376.219  28
   3   7  -4 301.890 103.945   6
   3   7  -4 460.259 196.897   7
   3   7  -4 398.832 119.637  28
   3   7  -3 2071.46 214.443  28
   3   7  -3 1958.72 253.072   7
   3   7  -2 3831.50 274.813  17
   3   7  -2 3864.17 317.703   7
   3   7  -2 3744.30 288.047  28
   3   7  -1 57.2504 125.067  16
   3   7  -1 241.904 120.208  28
   3   7  -1-39.1771 140.323   7
   3   7   0 8044.77 405.735  16
   3   7   0 7790.13 407.372   7
   3   7   0 8266.67 412.714  28
   3   7   1 1258.95 179.910  16
   3   7   1 1125.98 180.080   7
   3   7   2-104.542 130.328   7
   3   7   3 1259.80 163.811   7
   3   8 -10 5660.04 249.059   6
   3   8  -9 309.119 90.2826   6
   3   8  -9 215.935 75.9843  17
   3   8  -8 7536.46 335.763   6
   3   8  -8 7499.52 335.832  17
   3   8  -7 1981.81 192.752   6
   3   8  -7 1963.04 204.287  17
   3   8  -6 5028.00 285.455   6
   3   8  -6 5800.15 325.735  17
   3   8  -5 2560.56 205.841   6
   3   8  -5 2696.18 238.106  17
   3   8  -4 443.428 122.681  17
   3   8  -3 89.6209 90.4333  17
   3   8  -3 168.764 144.526   7
   3   8  -2 8077.23 360.971  17
   3   8  -2 8435.13 422.012   7
   3   8  -1 98.6699 135.107   7
   3   8   0 923.176 169.986   7
   3   8   1 6903.26 331.400   7
   3   8   1 6528.10 321.987  27
   3   9  -8 2920.93 181.181   6
   3   9  -8 2357.86 171.502  17
   3   9  -7 4878.79 233.867   6
   3   9  -7 5229.40 262.069  17
   3   9  -6 133.554 65.4561   6
   3   9  -6-25.1222 66.1635  17
   3   9  -5 700.052 121.164  17
   3   9  -4-145.517 71.2620  17
   3   9  -3 76.0673 67.6810  17
   3   9  -2-1.79081 84.0924  27
  -4   8   3 3501.38 229.956  25
  -4   8   3 3201.57 205.771  17
  -4   8   2 4586.34 266.000  17
  -4   8   2 4737.84 271.631  25
  -4   8   1 502.701 121.936  17
  -4   8   1 769.680 124.812  25
  -4   8   0 2923.44 232.609  17
  -4   8  -1 331.796 92.9831   9
  -4   8  -1 356.705 107.548  17
  -4   8  -2 2137.13 196.528  17
  -4   8  -2 1998.36 177.950   9
  -4   8  -3 5036.24 275.115   9
  -4   8  -3 4902.04 265.830  17
  -4   8  -4 2408.18 193.098   9
  -4   8  -5 829.603 114.128   9
  -4   8  -6 5659.99 254.802   9
  -4   7   5 3779.87 234.016   8
  -4   7   5 3235.55 242.829  25
  -4   7   4 1893.90 175.516  17
  -4   7   4 2224.62 201.530   8
  -4   7   4 2094.18 211.592  25
  -4   7   3 480.603 123.948  17
  -4   7   3 629.043 141.002   8
  -4   7   3 543.429 135.817  25
  -4   7   2 3743.29 273.380  17
  -4   7   2 4029.22 268.249   8
  -4   7   2 3456.07 266.357  25
  -4   7   1 44.6635 102.330  17
  -4   7   1 29.1509 88.0973  25
  -4   7   0 215.599 95.1224   9
  -4   7   0 235.804 114.646  17
  -4   7  -1 1130.08 153.911   9
  -4   7  -1 857.887 157.717  17
  -4   7  -2 243.232 98.1679   9
  -4   7  -2 276.868 112.670  17
  -4   7  -3 9829.92 418.194   9
  -4   7  -3 9988.88 397.521  17
  -4   7  -4 1259.64 163.311   9
  -4   7  -5 8177.38 365.076   9
   4  -7   5 7486.16 307.519  13
  -4   7  -6 1032.28 136.075   9
   4  -7   6 868.413 121.467  13
  -4   7  -7 9752.81 335.802   9
  -4   6   7 2762.48 211.134   8
  -4   6   6 238.239 116.773   8
  -4   6   6 100.050 104.706  25
  -4   6   5 233.314 110.204   8
  -4   6   5 143.667 113.468  25
  -4   6   4 1176.36 165.908  17
  -4   6   4 1275.27 187.332   8
  -4   6   4 1049.69 185.121  25
  -4   6   3 273.469 109.616  17
  -4   6   3-18.7488 102.070  25
  -4   6   2 4476.64 302.236  25
  -4   6   2 4760.75 316.600  17
  -4   6   1 23466.0 616.781  25
  -4   6   1 25040.7 632.317   9
  -4   6   1 24252.5 672.826  17
  -4   6   0 23524.2 626.148   9
  -4   6   0 22081.8 631.115  17
  -4   6  -1 392.653 106.490   9
  -4   6  -1 354.176 119.103  17
  -4   6  -2-11.6987 84.0236   9
  -4   6  -2 97.5344 85.9018  17
  -4   6  -3 610.583 135.754   9
  -4   6  -3 790.556 140.377  17
   4  -6   3 661.066 108.697  13
   4  -6   4 5673.72 293.173  13
  -4   6  -4 5702.48 328.148   9
  -4   6  -4 5664.70 299.353  10
  -4   6  -4 5853.48 322.672  14
  -4   6  -5 119.061 80.4520  10
  -4   6  -5 167.150 83.4207   9
  -4   6  -5 107.967 73.9392  14
   4  -6   5 138.630 79.8665  13
   4  -6   6 11123.1 406.529  13
  -4   6  -6 11014.0 414.353  10
  -4   6  -6 11607.9 423.640   9
  -4   6  -6 11948.9 416.607  14
  -4   6  -7 2147.95 183.691  10
  -4   6  -7 1970.13 165.804   9
  -4   6  -7 2095.64 166.392  14
  -4   6  -8 375.927 81.9895  10
  -4   5   8 5352.05 298.393   8
  -4   5   7 4747.08 305.534   8
  -4   5   6 713.944 138.174  21
  -4   5   6 664.867 163.372  25
  -4   5   6 722.457 160.551   8
  -4   5   5 46.7484 101.584  17
  -4   5   5 82.7249 116.621   8
  -4   5   5 128.168 111.797  25
  -4   5   4 10024.2 420.707  17
  -4   5   4 10495.2 461.246  25
  -4   5   3 115.605 77.3022   9
  -4   5   3 326.148 121.268  17
  -4   5   3 115.827 108.438  25
  -4   5   2 3896.23 250.841   9
  -4   5   2 3760.44 273.139  17
  -4   5   2 3658.66 256.552  25
  -4   5   1 2913.83 224.733   9
  -4   5   1 2959.81 240.885  17
  -4   5   1 3084.36 222.169  25
  -4   5   0 137.133 83.8048   9
  -4   5   0 171.576 99.7601  17
  -4   5  -1 8958.31 353.287  20
  -4   5  -1 8968.15 381.513   9
  -4   5  -1 8993.42 384.571  17
  -4   5  -2 9335.27 393.171   9
  -4   5  -2 9259.89 382.954  17
  -4   5  -3 13766.1 462.965  10
   4  -5   3 13645.1 437.815  13
  -4   5  -3 13999.7 486.085   9
  -4   5  -3 14662.5 482.924  14
  -4   5  -4 9147.33 391.640  10
  -4   5  -4 8773.00 387.808   9
  -4   5  -4 9359.14 383.403  14
   4  -5   4 8962.81 383.363  13
  -4   5  -5 3865.17 263.258  10
  -4   5  -5 3678.56 250.470   9
  -4   5  -5 3607.23 238.876  14
   4  -5   5 3512.67 253.942  13
  -4   5  -6 1121.59 152.606  10
  -4   5  -6 1012.89 137.179   9
  -4   5  -6 894.023 121.239  14
   4  -5   6 963.116 155.183  13
  -4   5  -7 995.802 139.557  10
  -4   5  -8-62.5706 59.3817  10
  -4   5  -9 10994.0 345.806  10
  -4   4   9 337.206 98.1916  21
  -4   4   9 157.574 97.2650   8
  -4   4   8 49.5695 86.3641  21
  -4   4   8-85.4244 101.315   8
  -4   4   7 3384.17 261.997  21
  -4   4   7 3173.19 266.081   8
  -4   4   6 1350.85 195.313   8
  -4   4   6 1422.50 201.210  25
  -4   4   5 14511.3 477.290  17
  -4   4   5 15033.9 520.057   8
  -4   4   5 14667.4 535.036  25
  -4   4   4 2023.54 178.319  18
  -4   4   4 1661.47 183.144  17
  -4   4   4 2136.92 210.869  25
  -4   4   3 262.343 95.4570   9
  -4   4   3 267.907 116.463  17
  -4   4   3 109.316 94.6930  25
  -4   4   2 9003.66 782.864   3
  -4   4   2 9846.44 368.135   9
  -4   4   2 9354.50 380.819  17
  -4   4   2 9748.16 369.111  25
  -4   4   1 4220.41 232.502  20
  -4   4   1 3748.77 502.209   3
  -4   4   1 4041.90 243.778   9
  -4   4   1 3816.04 249.605  17
  -4   4   0 125.556 69.6207  20
  -4   4   0 6.40605 162.699   3
  -4   4   0 128.330 74.0423   9
  -4   4   0 209.657 95.6721  17
  -4   4  -1 21770.7 1184.93   3
  -4   4  -1 22720.0 555.920   9
  -4   4  -1 23258.6 575.548  17
  -4   4  -2 143.703 81.1018  10
  -4   4  -2 142.143 79.5558   9
  -4   4  -2 133.838 91.9763  17
  -4   4  -2 48.0798 62.2238  14
   4  -4   2 171.132 82.9956  13
  -4   4  -3 282.929 95.9515  10
  -4   4  -3 234.008 81.5138   9
  -4   4  -3 330.842 90.0493  14
   4  -4   3 261.641 97.8500  13
   4  -4   4 1871.54 192.691  13
  -4   4  -4 2191.16 198.262  10
  -4   4  -4 1904.59 181.199   9
  -4   4  -4 2148.86 180.912  14
  -4   4  -5 383.171 105.605  10
  -4   4  -5 495.050 100.987   9
   4  -4   5 354.443 119.066  13
   4  -4   6 13173.2 482.164  13
  -4   4  -6 13487.2 492.088  10
  -4   4  -7 1188.75 152.638  10
  -4   4  -8 14108.4 461.050  10
  -4   4  -9 7209.47 293.789  10
  -4   3  10 5620.32 290.557  21
  -4   3  10 5476.66 277.437   8
  -4   3   9 59.7490 87.1218  21
  -4   3   9 28.0161 93.0782   8
  -4   3   8 817.796 143.976  11
  -4   3   8 592.744 134.958  21
  -4   3   8 779.183 145.201   8
  -4   3   7 6699.16 337.132  11
  -4   3   7 6207.21 336.909   8
  -4   3   6 1305.64 159.684  11
  -4   3   6 1397.39 175.748   8
  -4   3   6 1288.15 143.414   4
  -4   3   6 1163.66 182.726  25
  -4   3   5 1341.79 153.140  18
  -4   3   5 1238.73 154.484  17
  -4   3   5 1363.63 142.498   4
  -4   3   5 1248.79 179.082  25
  -4   3   4 16760.3 451.004  18
  -4   3   4 15292.3 458.657  17
  -4   3   4 16687.5 438.025   4
  -4   3   4 16436.7 497.924  25
  -4   3   3 734.275 111.946  20
  -4   3   3 914.173 119.600   9
  -4   3   3 944.623 134.451  17
  -4   3   3 911.299 134.156  25
  -4   3   2 1867.29 155.490  20
  -4   3   2 2266.59 367.235   3
  -4   3   2 2229.54 166.113   9
  -4   3   2 2159.56 180.631  17
  -4   3   1 3156.06 192.275  20
  -4   3   1 2924.48 416.007   3
  -4   3   1 2999.07 189.656   9
  -4   3   1 2740.75 199.944  17
  -4   3   0 17478.9 980.349   3
  -4   3   0 17094.7 439.677   9
  -4   3   0 18360.3 483.471  17
  -4   3  -1 2706.92 188.560  10
  -4   3  -1 2276.70 373.349   3
  -4   3  -1 2749.57 186.259   9
  -4   3  -2 40414.4 718.771  10
  -4   3  -2 39742.1 1508.32   3
  -4   3  -2 38520.4 677.372   9
  -4   3  -2 37859.1 620.321  14
   4  -3   2 41092.7 669.362  13
  -4   3  -3 22942.0 568.396  10
   4  -3   3 23526.3 548.947  13
  -4   3  -4 2772.53 215.172  10
  -4   3  -4 2597.32 193.444   9
   4  -3   4 2530.20 211.900  13
  -4   3  -5 3910.41 263.327  10
  -4   3  -6 53.2064 69.7583  10
  -4   3  -7 5343.74 307.421  10
  -4   3  -8 277.573 91.4821  10
  -4   3  -9 15786.7 430.140  10
   4  -3   9 14565.2 448.569  12
  -4   2  11 158.773 76.9212  21
  -4   2  11 111.992 80.3302   8
  -4   2  10-23.1820 92.0143  11
  -4   2  10-53.3962 84.4190  21
  -4   2  10-39.8171 84.8219   8
  -4   2   9 305.212 115.667  11
  -4   2   9 543.149 138.521  21
  -4   2   9 576.119 124.751   8
  -4   2   8 26.0433 92.7916  21
  -4   2   8 45.8488 112.376  11
  -4   2   8 36.3356 88.7430   8
  -4   2   7 3566.97 248.199  11
  -4   2   7 3342.70 231.964   8
  -4   2   7 3366.77 219.901   4
  -4   2   6 12840.2 411.898  18
  -4   2   6 12737.7 409.328   8
  -4   2   6 13282.2 409.385   4
  -4   2   6 13206.2 435.311  11
  -4   2   5 18002.3 459.892  18
  -4   2   5 17391.5 463.776  17
  -4   2   5 18150.5 456.446   4
  -4   2   5 18308.7 525.301  25
  -4   2   4 1709.05 146.775  18
  -4   2   4 1500.85 149.127  17
  -4   2   4 1543.06 145.613   4
  -4   2   4 1576.80 164.199  25
  -4   2   3 5012.83 502.486   3
  -4   2   3 5309.09 236.491   4
  -4   2   2 2051.72 323.191   3
  -4   2   1 46352.2 1456.24   3
  -4   2   0 3791.78 437.846   3
  -4   2  -1 24746.0 1099.65   3
  -4   2  -2 2532.06 177.202  10
   4  -2   2 2090.03 304.308   1
  -4   2  -3 2574.53 189.389  10
   4  -2   3 1971.48 350.576   1
  -4   2  -4 23343.1 578.662  10
  -4   2  -5 32.8159 65.6193  10
  -4   2  -6 357.171 97.8846  10
  -4   2  -7 4558.01 279.425  10
  -4   2  -8 3387.58 224.510  10
   4  -2   8 2895.99 246.161  12
   4  -2   9 331.792 96.7026  12
  -4   1  12 1053.66 124.606  21
  -4   1  11 961.831 143.587  21
  -4   1  11 648.683 131.134  26
  -4   1  11 950.943 140.199  11
  -4   1  10 1073.82 164.390  11
  -4   1  10 885.786 147.482  21
  -4   1  10 817.349 123.340   8
  -4   1   9 15058.5 503.094  11
  -4   1   9 15251.7 508.784  21
  -4   1   9 14715.9 447.318   8
  -4   1   9 13873.1 447.290   4
  -4   1   8 1819.85 193.063  11
  -4   1   8 1962.31 197.048  21
  -4   1   8 1650.72 164.309   8
  -4   1   8 1938.79 184.609   4
  -4   1   7 1572.75 171.860  11
  -4   1   7 1497.13 156.819   4
  -4   1   7 1446.98 146.492   8
  -4   1   6 775.697 115.904   4
  -4   1   6 460.889 95.2205  18
  -4   1   5 1610.94 146.811  18
  -4   1   5 1569.51 143.491   4
  -4   1   4 71633.8 838.664   4
  -4   1   3 1453.11 249.952   3
  -4   1   3 1508.96 131.893   4
  -4   1   2 19052.1 843.150   3
  -4   1   2 18520.5 404.300   4
  -4   1   1 3274.26 360.948   3
  -4   1   0 924.364 212.460   3
   4  -1   1 2134.33 275.788   1
  -4   1  -2-27.8122 45.1672  10
   4  -1   2 164.822 107.836   1
   4  -1   3 6.36291 63.1381  22
  -4   1  -3 38.5909 51.9162  10
   4  -1   3 17.3716 69.9361   1
   4  -1   4 62096.8 892.548  22
  -4   1  -4 63608.0 930.596  10
   4  -1   5 35179.5 715.623  22
  -4   1  -5 36883.0 739.274  10
   4  -1   6 3810.19 251.623  22
  -4   1  -6 3699.01 250.570  10
   4  -1   7 346.076 115.204  12
   4  -1   8 7160.29 367.996  12
   4  -1   9 1529.65 158.848  12
  -4   0  12 1915.85 166.678  21
  -4   0  12 1706.77 169.649  26
  -4   0  11 102.879 103.044  11
  -4   0  11 106.185 81.0423  21
  -4   0  10 2048.66 206.428  11
  -4   0  10 2074.36 196.306  21
  -4   0  10 2040.30 195.432   4
  -4   0   9 3507.21 253.966  11
  -4   0   9 3348.98 241.891  21
  -4   0   9 3456.65 246.106   4
  -4   0   8 5638.57 298.915  11
  -4   0   8 5558.15 285.954  21
  -4   0   8 5739.13 298.572   4
  -4   0   7 4245.71 244.794  11
  -4   0   7 4277.34 249.297   4
  -4   0   6 862.539 111.105  18
  -4   0   6 937.325 122.041   4
  -4   0   5 5460.22 241.962  18
  -4   0   5 5141.21 242.167   4
  -4   0   4 159750. 1204.27   4
  -4   0   3 6593.34 448.645   3
  -4   0   3 6257.98 234.818   4
  -4   0   2 1566.60 242.216   3
  -4   0   2 1513.61 116.950   4
  -4   0   1 5937.70 433.174   3
  -4   0   0 1271.20 212.213   3
   4   0   0 1525.93 223.250   1
   4   0   1-150.668 106.549   1
   4   0   2 353.484 87.2520  22
   4   0   2 200.948 122.836   1
   4   0   2 312.582 77.7970  12
   4   0   3 9347.28 713.661   1
   4   0   3 8866.84 356.915  22
  -4   0  -3 8639.29 311.197  10
   4   0   3 9772.99 363.625  12
   4   0   4 24343.8 620.979  22
   4   0   4 24552.1 632.397  12
   4   0   5 14526.2 507.004  22
   4   0   5 14236.0 519.383  12
   4   0   6 7187.89 366.490  22
   4   0   6 7476.52 394.811  12
   4   0   7 571.615 124.216  22
   4   0   7 482.878 128.482  12
   4   0   8 6592.71 310.097  22
   4   0   8 6608.01 335.128  12
  -4  -1  12 2462.64 184.336  21
  -4  -1  12 2478.21 204.554  26
  -4  -1  11-114.481 114.133  11
  -4  -1  11 21.9867 67.5840  21
  -4  -1  10 235.401 109.261  11
  -4  -1  10 163.222 93.1351  21
  -4  -1  10 307.291 114.769   4
  -4  -1   9 12063.0 433.811  11
  -4  -1   9 13110.6 428.596  21
  -4  -1   9 12392.4 454.158   4
  -4  -1   8 371.317 117.517  24
  -4  -1   8 179.000 89.9974  11
  -4  -1   8 279.098 87.9542  21
  -4  -1   8 246.930 95.5336  19
  -4  -1   8 255.198 101.367   4
  -4  -1   7 34.1777 87.8491  24
  -4  -1   7 18.3519 68.0912  11
  -4  -1   7 71.6552 77.8960  19
  -4  -1   7 74.5982 86.8378   4
  -4  -1   6 1092.15 128.601  19
  -4  -1   6 1044.85 130.391   4
  -4  -1   5 2083.61 153.496   4
  -4  -1   4 1268.45 135.073   4
  -4  -1   3 4266.81 187.318   4
  -4  -1   2 43343.0 550.260   4
   4   1  -1 1323.84 214.964   1
   4   1   0 48213.4 1271.89   1
   4   1   1 8068.18 319.826  22
   4   1   1 7066.25 533.192   1
   4   1   1 7758.47 300.371  12
   4   1   2 26978.6 616.837  22
   4   1   2 26105.0 1120.20   1
   4   1   2 28238.7 589.860  12
   4   1   3 228.122 104.738  22
   4   1   3 138.570 84.8346  12
   4   1   4 4334.41 295.509  22
   4   1   4 4776.16 289.035  12
   4   1   5 499.424 131.679  22
   4   1   5 393.814 117.455  15
   4   1   5 447.220 124.287  12
   4   1   6 4985.15 327.666  22
   4   1   6 4883.32 284.476  15
   4   1   6 5069.45 326.190  12
   4   1   7 9235.68 412.062  22
   4   1   7 8282.71 356.678  15
   4   1   7 8602.89 401.643  12
   4   1   8 1038.54 136.856  22
   4   1   8 986.102 134.208  12
  -4  -2  13 950.682 118.483  26
  -4  -2  12 312.164 98.5055  26
  -4  -2  11 2651.95 218.202  11
  -4  -2  11 2576.47 187.199  21
  -4  -2  10 11376.7 421.291  11
  -4  -2  10 11149.5 380.491  21
  -4  -2  10 10909.9 416.977  19
  -4  -2  10 11169.1 436.848   4
  -4  -2   9 620.249 125.120  11
  -4  -2   9 486.906 119.962  19
  -4  -2   9 480.183 125.172   4
  -4  -2   8 11902.5 387.574  11
  -4  -2   8 11970.5 414.404  19
  -4  -2   8 12204.5 430.534   4
  -4  -2   8 11600.6 426.998  24
  -4  -2   7 1219.06 152.329  24
  -4  -2   7 1358.56 133.640  11
  -4  -2   7 1250.77 146.675  19
  -4  -2   7 1517.54 156.139   4
  -4  -2   6 43772.2 699.726  19
  -4  -2   6 42083.1 614.611  11
  -4  -2   6 42215.1 687.385   4
  -4  -2   5 8962.99 319.924  23
  -4  -2   5 8899.96 302.918  19
  -4  -2   5 9051.78 302.351   4
  -4  -2   4 6768.16 243.498   4
  -4  -2   3 3412.67 160.336   4
  -4  -2   2 10546.0 591.884   2
   4   2  -1 43932.6 1264.91   1
   4   2   0 2092.10 304.503   1
   4   2   0 2234.08 168.020  12
   4   2   1 14086.1 455.105  22
   4   2   1 14198.6 418.561  12
   4   2   1 13402.9 807.723   1
   4   2   2 18532.9 552.878  22
   4   2   2 17534.5 990.494   1
   4   2   2 19007.7 511.734  12
   4   2   3 1203.10 175.424  22
   4   2   3 1086.36 153.846  12
   4   2   4 1975.58 224.425  22
   4   2   4 2219.09 194.223  15
   4   2   4 1932.97 197.069  12
   4   2   5 3488.46 287.621  22
   4   2   5 3753.39 279.431  16
   4   2   5 3825.86 273.963  12
   4   2   6 1611.02 201.992  22
   4   2   6 1318.71 163.619  16
   4   2   6 1477.08 179.273  12
   4   2   7 5324.95 316.734  22
  -4  -3  13 1703.08 141.967  26
  -4  -3  12 814.241 120.627  19
  -4  -3  12 690.939 116.424  26
  -4  -3  11 1805.49 180.978  11
  -4  -3  11 1600.14 180.432  19
  -4  -3  10 2023.03 205.723  19
  -4  -3  10 2056.01 186.081  11
  -4  -3  10 2086.86 202.425   4
  -4  -3   9 692.214 116.119  11
  -4  -3   9 756.578 140.291  19
  -4  -3   9 768.265 129.433   4
  -4  -3   8 227.851 66.5924  11
  -4  -3   8 233.777 114.245  24
  -4  -3   8 215.964 107.232  19
  -4  -3   8 173.641 89.7146   4
  -4  -3   7 14910.9 463.123  24
  -4  -3   7 14554.2 443.472  19
  -4  -3   7 15066.8 441.829   4
  -4  -3   6 15219.1 438.436  19
  -4  -3   6 15752.4 421.250   4
  -4  -3   5 3507.64 208.419  19
  -4  -3   5 3733.52 198.054   4
  -4  -3   4 7643.23 294.577  23
  -4  -3   4 7165.22 275.475  19
  -4  -3   3 2089.88 160.324  23
  -4  -3   3 2103.10 151.842  19
  -4  -3   2 2219.98 159.307  23
  -4  -3   2 1953.17 145.645  19
  -4  -3   2 2111.08 332.383   2
  -4  -3   1 31460.3 536.507  19
   4   3  -1 31438.1 566.136  16
  -4  -3   1 31505.0 1208.17   2
   4   3   0 5666.38 557.858   1
   4   3   0 5371.73 258.980  16
   4   3   0 5485.40 261.488   7
   4   3   0 5840.70 286.688  12
   4   3   1 6215.50 328.756  22
   4   3   1 5748.83 583.769   1
   4   3   1 5983.05 291.156  16
   4   3   1 5857.66 281.051   7
   4   3   1 6336.37 306.482  12
   4   3   2 7390.98 375.279  22
   4   3   2 7283.35 344.975  16
   4   3   2 7067.78 339.208  28
   4   3   2 7323.27 345.152  12
   4   3   3 3763.38 289.040  22
   4   3   3 4157.27 280.737  16
   4   3   3 4516.88 282.161  12
   4   3   4 1593.04 206.351  22
   4   3   4 1765.98 200.619  16
   4   3   4 1599.65 186.701  12
   4   3   5 3131.82 266.356  22
   4   3   5 3131.86 251.917  16
   4   3   5 2974.19 239.828  12
   4   3   6 3113.61 252.094  22
   4   3   6 2713.16 219.838   7
   4   3   7 16712.4 494.177  22
   4   3   7 15644.1 448.288   7
  -4  -4  12 5786.27 276.326  19
  -4  -4  12 4934.68 236.022  26
  -4  -4  11 901.928 142.560  19
  -4  -4  10 1742.58 194.756  19
  -4  -4  10 1805.56 180.039   4
  -4  -4   9 5852.25 320.554  19
  -4  -4   9 5996.67 310.410   4
  -4  -4   8 1118.22 167.238  24
  -4  -4   8 1206.00 161.533  19
  -4  -4   8 1022.81 136.893   4
  -4  -4   7 225.997 105.137  24
  -4  -4   7 216.368 96.4950  19
  -4  -4   7 190.030 79.6831   4
  -4  -4   6 3232.40 226.367  24
  -4  -4   6 3101.74 218.487  19
  -4  -4   5 1945.76 165.670  19
  -4  -4   4 1188.56 134.515  23
  -4  -4   4 1224.74 127.312  19
   4   4  -4 1300.05 160.895   7
  -4  -4   3 30419.3 600.332  23
  -4  -4   3 29403.0 549.361  19
   4   4  -3 31003.1 566.732  16
   4   4  -3 29591.6 632.212   7
  -4  -4   2 615.207 103.107  23
  -4  -4   2 659.861 204.217   2
   4   4  -2 745.747 116.825  16
   4   4  -2 683.261 134.151   7
  -4  -4   1 24355.3 533.194  23
   4   4  -1 23615.7 546.470  16
   4   4  -1 24735.7 594.068   7
  -4  -4   1 23979.0 1189.08   2
   4   4   0-31.4984 85.8071  16
   4   4   0-50.1316 89.8598  28
   4   4   0-12.1174 91.8437   7
   4   4   1 13696.9 468.611  16
   4   4   1 12982.2 458.907   7
   4   4   1 13173.5 490.351  28
   4   4   2 472.564 133.991  22
   4   4   2 509.399 130.329  16
   4   4   2 384.903 124.684  28
   4   4   2 559.945 135.260   7
   4   4   3 9001.30 424.859  22
   4   4   3 9711.86 426.266  16
   4   4   3 9237.35 406.667   7
   4   4   4 8467.39 414.907  22
   4   4   4 8580.36 397.453  16
   4   4   4 8221.57 385.672   7
   4   4   5 163.853 103.810  22
   4   4   5 7.38730 103.517  16
   4   4   5 147.588 99.8767   7
   4   4   6-451.090 114.650   7
  -4  -5  12 356.990 94.5167  19
  -4  -5  11 7586.07 337.492  19
   4   5 -10 222.684 81.8207   6
  -4  -5  10 50.9004 85.1975  19
  -4  -5   9-200.157 94.7331  19
  -4  -5   9-52.3955 65.1575   4
  -4  -5   8 1800.83 190.569  19
  -4  -5   8 1930.24 203.017  24
  -4  -5   7 5066.17 294.489  24
  -4  -5   7 5421.84 290.773  19
  -4  -5   6 3918.37 251.939  24
  -4  -5   6 3597.11 235.951  19
  -4  -5   5 8543.51 334.823  19
  -4  -5   4 19241.6 474.514  19
   4   5  -4 19948.2 596.780   7
   4   5  -3 16907.8 482.594  16
   4   5  -3 16804.6 557.463   7
   4   5  -3 17452.7 531.794  28
   4   5  -2 5701.32 297.190  16
   4   5  -2 6010.67 341.474   7
   4   5  -2 6136.66 337.644  28
   4   5  -1 338.948 117.860  16
   4   5  -1 223.209 123.760  28
   4   5  -1 347.595 136.086   7
   4   5   0 3953.43 272.684  16
   4   5   0 4128.72 287.958   7
   4   5   0 3966.68 295.472  28
   4   5   1 33.4153 101.951  16
   4   5   1 162.780 113.736  28
   4   5   1 105.949 111.363   7
   4   5   2 11052.3 451.763  16
   4   5   2 11265.7 455.180   7
   4   5   2 10681.3 444.337  28
   4   5   3 1331.18 182.687  16
   4   5   3 1362.30 179.408   7
   4   5   4 113.328 103.127  16
   4   5   4 241.088 113.228   7
   4   5   5 5777.61 289.649   7
  -4  -6  12 653.334 95.5446  19
  -4  -6  11 11170.1 380.316  19
   4   6 -10 1906.97 175.420   6
  -4  -6  10 2177.66 192.232  19
   4   6  -9 62.4440 93.1072   6
  -4  -6   9 193.963 91.9632  19
  -4  -6   8 7945.05 353.519  19
  -4  -6   8 7370.90 344.485  24
  -4  -6   7 236.507 97.7815  24
  -4  -6   7 380.222 94.5411  19
  -4  -6   6 2751.15 211.338  24
  -4  -6   6 3159.43 217.904  19
  -4  -6   5-63.3392 84.3757  24
   4   6  -5 102.241 90.7231  28
   4   6  -4 7518.42 347.284  16
   4   6  -4 8206.21 431.211   7
   4   6  -4 8425.69 384.011  28
   4   6  -3 11737.4 440.255  16
   4   6  -3 11458.0 502.020   7
   4   6  -3 12197.6 477.972  28
   4   6  -2 59.2459 102.639  16
   4   6  -2 6.53795 108.291  28
   4   6  -2 85.6697 126.804   7
   4   6  -1 222.510 121.291  16
   4   6  -1 290.127 135.932  28
   4   6  -1 277.313 134.048   7
   4   6   0 1815.37 220.087  28
   4   6   0 2016.96 212.327  16
   4   6   0 1896.17 216.734   7
   4   6   1 245.323 124.596  16
   4   6   1 204.923 124.726  28
   4   6   1 247.192 116.279   7
   4   6   2 3649.81 269.249  16
   4   6   2 3658.63 264.913   7
   4   6   3 4826.17 285.332  16
   4   6   3 5841.31 311.662   7
  -4  -7  11 5169.62 227.400  19
   4   7 -10 1286.83 138.508   6
  -4  -7  10 1327.59 136.780  19
   4   7  -9 763.915 127.837   6
  -4  -7   9 824.401 119.432  19
   4   7  -8 121.499 99.5515   6
  -4  -7   8-84.4339 65.9609  19
   4   7  -7 3709.00 259.145   6
   4   7  -6 9035.71 383.831   6
   4   7  -5 2774.65 219.775   6
   4   7  -5 2814.08 222.849  28
   4   7  -4 395.114 108.199   6
   4   7  -4 251.432 109.622  28
   4   7  -3 1350.14 185.890  28
   4   7  -3 1311.12 205.496   7
   4   7  -2 44.6088 100.801  16
   4   7  -2 165.421 117.274  28
   4   7  -2 313.003 143.613   7
   4   7  -1 51.8257 100.993  16
   4   7  -1 18.5867 102.016  28
   4   7  -1-7.65246 123.578   7
   4   7   0 8027.91 371.971  16
   4   7   0 7776.05 382.046   7
   4   7   0 8503.37 399.669  28
   4   7   1-19.5906 96.4247  16
   4   7   1-237.342 138.354   7
   4   7   2 8959.05 360.158   7
   4   8  -9 357.287 96.3152   6
   4   8  -9 223.731 73.8740  17
   4   8  -8 10232.0 358.588   6
   4   8  -8 9487.02 355.866  17
   4   8  -7-18.1155 77.1671   6
   4   8  -7 3.52881 73.3885  17
   4   8  -6 245.072 85.1665   6
   4   8  -6 399.068 101.675  17
   4   8  -5 177.724 83.1400  17
   4   8  -5 170.090 78.3793  28
   4   8  -4 1325.66 162.111  17
   4   8  -4 1415.46 161.348  28
   4   8  -3 1673.65 173.054  17
   4   8  -3 1975.65 192.299  28
   4   8  -2 7820.78 370.806   7
   4   8  -1 11466.6 419.955   7
  -5   8   1 46.9490 72.2856  17
  -5   8   0 1895.71 171.760  17
  -5   8  -1-85.0059 66.7209   9
  -5   8  -1-46.9267 66.3698  17
  -5   8  -2 4849.48 246.680   9
  -5   8  -2 4766.66 237.440  17
  -5   8  -3 547.581 95.1077   9
  -5   7   4 2082.75 179.884  17
  -5   7   4 2419.66 188.003   8
  -5   7   4 1988.44 182.611  25
  -5   7   3-5.98338 77.4655  17
  -5   7   3 102.073 81.4992  25
  -5   7   2 4592.32 285.547  17
  -5   7   2 4891.58 271.220   8
  -5   7   1 8797.87 359.633   9
  -5   7   1 9126.77 399.557  17
  -5   7   0 369.472 99.4657   9
  -5   7   0 352.488 114.951  17
  -5   7  -1 65.3172 82.0233   9
  -5   7  -1-125.649 88.5242  17
  -5   7  -2 73.7332 63.6194   9
  -5   7  -2 20.6435 81.1042  17
  -5   7  -3 609.439 115.153   9
  -5   7  -4 19.9003 63.2171   9
  -5   7  -5 8089.26 313.745   9
  -5   6   6 2034.14 186.196   8
  -5   6   5 970.057 156.227   8
  -5   6   4 167.345 96.4601  17
  -5   6   4 450.563 126.983   8
  -5   6   4 339.879 126.073  25
  -5   6   3 1363.28 186.216  17
  -5   6   3 1382.40 175.966  25
  -5   6   2 885.181 158.452  17
  -5   6   1 20.9891 79.3318   9
  -5   6   1 79.4775 108.729  17
  -5   6   0 10985.3 456.907   9
  -5   6   0 11365.2 462.908  17
  -5   6  -1 254.010 95.5314   9
  -5   6  -1 375.366 115.143  17
  -5   6  -2 119.696 77.2329  20
  -5   6  -2 49.1667 80.2183   9
  -5   6  -2 66.5988 79.8996  17
  -5   6  -3 4736.32 277.855  20
  -5   6  -3 4938.43 302.181   9
  -5   6  -4 57.6161 67.7062  20
  -5   6  -4 166.488 79.6760   9
  -5   6  -5 1741.07 170.943  20
  -5   6  -5 1845.34 169.129   9
  -5   6  -6 6096.21 264.064   9
  -5   5   8 7260.34 308.123   8
  -5   5   7 79.6823 86.9649  21
  -5   5   7 115.087 96.9571   8
  -5   5   6 660.813 136.415   8
  -5   5   5 27.1749 92.9071  25
  -5   5   5-69.0235 94.3662  17
  -5   5   5 41.9090 109.569   8
  -5   5   4 1920.85 190.816  18
  -5   5   4 1757.30 202.845  17
  -5   5   4 1817.60 211.020  25
  -5   5   3 4824.27 290.245  18
  -5   5   3 4640.99 315.635  17
  -5   5   3 4205.33 285.319  25
  -5   5   2 12801.2 482.425   9
  -5   5   2 12356.0 495.915  17
  -5   5   1 9900.81 424.973   9
  -5   5   1 8999.65 422.857  17
  -5   5   0 6464.06 329.627  20
  -5   5   0 6854.31 360.556   9
  -5   5   0 6313.44 352.221  17
  -5   5  -1-17.8337 58.1659  20
  -5   5  -1 82.8032 96.0850   9
  -5   5  -1-12.7232 87.7257  17
  -5   5  -2 340.654 98.8071  20
  -5   5  -2 460.053 117.920   9
  -5   5  -3 4560.93 288.827   9
  -5   5  -4 1572.06 170.676   9
  -5   5  -5 9101.20 365.039   9
  -5   4   9 1180.52 130.237  21
  -5   4   9 1247.90 146.880   8
  -5   4   8 1287.41 167.174  21
  -5   4   8 1484.30 174.118   8
  -5   4   7-178.171 107.465  21
  -5   4   7 81.9634 97.3076   8
  -5   4   6 41.9371 86.7697  11
  -5   4   6 164.646 110.845   8
  -5   4   5 4790.27 286.253  18
  -5   4   5 4511.93 296.922  17
  -5   4   5 4920.82 326.047  25
  -5   4   4 12.4635 75.2242  18
  -5   4   4 113.231 109.627  17
  -5   4   4-60.8687 100.399  25
  -5   4   3 7898.18 390.915  17
  -5   4   3 7881.90 370.833  25
  -5   4   2 160.927 80.5000  20
  -5   4   2 81.1367 87.6441   9
  -5   4   2 106.694 102.264  17
  -5   4   1 802.476 129.534  20
  -5   4   1 822.737 140.428   9
  -5   4   1 784.481 153.718  17
  -5   4   0 12462.1 456.801  20
  -5   4   0 12175.0 453.271   9
  -5   4   0 12959.5 482.417  17
  -5   4  -1 8039.04 372.735  20
  -5   4  -1 8044.29 369.705   9
  -5   4  -1 8427.99 386.953  17
  -5   4  -2 28490.0 682.601   9
  -5   4  -3 833.823 138.658   9
  -5   4  -4 140.502 81.7213  10
  -5   4  -4 129.437 65.4106   9
  -5   4  -5 145.998 90.6428  10
  -5   4  -6 615.558 117.585  10
  -5   4  -7 77.5013 63.9026  10
   5  -4   7 22.2290 55.6251  12
  -5   3  10 5.27756 64.6014  21
  -5   3  10 105.547 87.0755   8
  -5   3   9 991.759 143.279  11
  -5   3   9 1059.55 155.834  21
  -5   3   9 777.558 127.290   8
  -5   3   8 882.339 140.381  11
  -5   3   8 984.763 159.815  21
  -5   3   8 933.539 149.498   8
  -5   3   7 5423.27 311.510  11
  -5   3   7 5542.51 318.664   8
  -5   3   6 14350.8 491.122  11
  -5   3   6 13480.7 468.592  18
  -5   3   6 13830.1 485.346   8
  -5   3   5 969.037 146.459  18
  -5   3   4 13238.8 454.304  18
  -5   3   4 12336.0 462.735  17
  -5   3   4 12822.4 475.236  25
  -5   3   3 2077.31 188.169  20
  -5   3   3 1929.35 205.977  17
  -5   3   3 1812.16 184.622  25
  -5   3   2 15325.2 480.569  20
  -5   3   2 14531.4 468.443   9
  -5   3   2 14870.4 507.369  17
  -5   3   1 43.8059 70.3073  20
  -5   3   1 31.5045 69.7870   9
  -5   3   1 82.5834 101.927  17
  -5   3   0 29187.6 666.282  20
  -5   3   0 29831.9 715.797  17
  -5   3  -1 5795.94 301.494   9
  -5   3  -2 5833.86 307.877   9
  -5   3  -3 3745.39 260.158  10
  -5   3  -3 3432.46 237.275   9
  -5   3  -4 50.2816 75.1011  10
  -5   3  -5 653.009 123.142  10
  -5   3  -6 9577.65 395.549  10
   5  -3   6 8689.07 385.974  12
  -5   3  -7 4341.69 250.321  10
   5  -3   7 4098.71 255.301  12
   5  -3   8 1789.70 153.360  12
  -5   2  11 881.751 115.411  21
  -5   2  10 5263.39 281.441  11
  -5   2  10 5262.58 288.749  21
  -5   2  10 5073.98 252.762   8
  -5   2   9 1080.32 160.028  11
  -5   2   9 1404.23 178.657  21
  -5   2   9 1322.21 156.338   8
  -5   2   8 744.635 130.038   4
  -5   2   8 808.626 147.067  11
  -5   2   8 465.533 133.097  21
  -5   2   8 866.157 140.020   8
  -5   2   7-98.8319 85.0418   4
  -5   2   7 0.79246 109.750  11
  -5   2   7-278.673 107.891  18
  -5   2   7-32.3944 94.7092   8
  -5   2   6 4110.10 269.501  18
  -5   2   6 4339.17 264.891   4
  -5   2   5 15890.0 490.514  18
  -5   2   5 16041.0 485.623   4
  -5   2   4 13.0786 83.1961   4
  -5   2   4 139.542 81.4658  18
  -5   2   3 2431.59 196.717  20
  -5   2   3 2443.36 220.714  17
  -5   2   2 9802.50 752.057   3
  -5   2   2 9710.18 372.011  20
  -5   2   2 9561.48 360.107   9
  -5   2   2 10383.4 419.339  17
  -5   2   1 280.501 85.5083  20
  -5   2   1 367.115 90.5335   9
  -5   2   1 397.826 116.609  17
  -5   2   0 4275.57 254.656  20
  -5   2   0 4046.50 515.538   3
  -5   2   0 4176.20 244.149   9
  -5   2  -1 4456.13 253.671   9
  -5   2  -1 4047.55 516.088   3
  -5   2  -2 5126.01 287.722  10
   5  -2   2 5049.09 264.736  12
  -5   2  -3 1853.23 185.025  10
   5  -2   3 1916.18 181.645  12
  -5   2  -4 4710.00 287.179  10
   5  -2   4 4681.24 289.579  12
  -5   2  -5 21.3549 64.7803  10
   5  -2   5-1.69066 77.2810  12
  -5   2  -6 3170.58 229.930  10
   5  -2   6 2851.67 242.235  12
  -5   2  -7 1501.38 147.205  10
   5  -2   7 1528.47 170.141  12
   5  -2   8 5270.94 259.443  12
  -5   1  11 406.038 105.284  11
  -5   1  11 364.760 96.1621  21
  -5   1  10 608.746 137.672  11
  -5   1  10 712.222 133.244  21
  -5   1   9 1908.66 186.302   4
  -5   1   9 1893.42 203.310  11
  -5   1   9 2034.53 205.994  21
  -5   1   8 7892.38 376.276  11
  -5   1   8 8182.33 369.650  21
  -5   1   8 7732.05 353.025   4
  -5   1   7 2941.83 233.044  11
  -5   1   7 2874.47 228.301  18
  -5   1   7 2646.64 191.462   8
  -5   1   7 2944.54 224.775   4
  -5   1   6 10905.4 407.811  18
  -5   1   6 10876.9 405.060   4
  -5   1   5 2858.75 216.064  18
  -5   1   5 2863.54 208.864   4
  -5   1   4 6011.29 293.899  20
  -5   1   4 5580.37 251.967  19
  -5   1   4 6421.58 290.866  18
  -5   1   4 6097.94 286.510   4
  -5   1   3 506.680 106.249   4
  -5   1   3 548.669 102.958  20
  -5   1   2 24929.1 1083.80   3
  -5   1   2 24710.5 561.494  20
  -5   1   1 2090.90 175.677  20
  -5   1   1 1943.68 164.114   9
  -5   1   0 9796.35 360.782  20
  -5   1   0 9486.40 706.052   3
  -5   1   0 10331.9 361.317   9
  -5   1  -1 1243.17 287.495   3
   5  -1   1 1573.83 151.121  12
   5  -1   2 113.693 78.9061  12
  -5   1  -3 46362.2 834.271  10
   5  -1   3 47673.0 877.333  12
  -5   1  -4 2544.11 207.277  10
   5  -1   4 2630.51 230.223  12
  -5   1  -5 13707.3 468.987  10
   5  -1   5 13753.3 509.347  12
   5  -1   6 1364.22 183.298  12
   5  -1   7 246.608 100.335  12
  -5   0  12 346.378 89.8815  11
  -5   0  12 217.613 66.0295  21
  -5   0  12 248.666 83.9136  26
  -5   0  11 90.1792 87.9958  11
  -5   0  11 266.477 90.6687  21
  -5   0  10 9605.12 403.611  11
  -5   0  10 8950.06 369.451  21
  -5   0   9 2965.41 239.906  11
  -5   0   9 3158.11 232.464  21
  -5   0   9 2857.96 225.829   4
  -5   0   8 1516.77 171.421   4
  -5   0   8 1558.49 176.712  11
  -5   0   8 1521.72 167.219  21
  -5   0   7 1039.69 148.914   4
  -5   0   7 1047.07 148.745  11
  -5   0   6 928.739 133.878   4
  -5   0   6 836.128 127.730  19
  -5   0   6 734.342 117.167  18
  -5   0   5 4000.26 230.212  19
  -5   0   5 4100.13 241.374  18
  -5   0   5 4112.52 239.692   4
  -5   0   4 9890.61 345.000  23
  -5   0   4 9751.22 337.604  19
  -5   0   4 9883.29 347.909  18
  -5   0   4 10097.1 349.125   4
  -5   0   3 17276.5 439.997  23
  -5   0   3 17645.9 462.207  20
  -5   0   3 17289.3 431.570  19
  -5   0   3 16929.1 431.407  18
  -5   0   3 17267.6 441.316   4
  -5   0   2 15553.0 424.930  20
  -5   0   1 9552.74 332.268  20
   5   0  -1 9827.19 323.702  12
  -5   0   0 4308.05 230.174  20
   5   0   0 4454.25 234.664  12
  -5   0  -1 8987.00 338.171  20
   5   0   1 9348.91 354.327  12
   5   0   2 3768.13 249.606  12
   5   0   3 38089.2 800.211  12
   5   0   4 609.400 136.729  12
   5   0   5 4499.46 307.089  12
   5   0   6 430.137 117.205  12
   5   0   7-303.952 104.056  16
   5   0   7 34.2172 86.3969  12
  -5  -1  12 327.086 101.941  11
  -5  -1  12 70.3752 47.5004  21
  -5  -1  12 215.391 85.3967  26
  -5  -1  11 1955.77 187.199  11
  -5  -1  11 2130.17 173.184  21
  -5  -1  10 2547.38 219.306  11
  -5  -1  10 2587.22 199.664  21
  -5  -1  10 2992.15 233.742   4
  -5  -1   9 4948.97 287.548  11
  -5  -1   9 4491.58 255.372  21
  -5  -1   9 4594.85 284.883   4
  -5  -1   8 4918.64 278.819  11
  -5  -1   8 4747.08 253.585  21
  -5  -1   8 4745.43 273.178  19
  -5  -1   8 4823.53 285.965   4
  -5  -1   7 20611.0 541.060  24
  -5  -1   7 20292.5 524.474  11
  -5  -1   7 20268.5 533.395  19
  -5  -1   7 20461.8 545.592   4
  -5  -1   6 11457.9 392.181  19
  -5  -1   6 11162.0 388.641  18
  -5  -1   6 10758.0 383.962   4
  -5  -1   5 7472.46 321.273  23
  -5  -1   5 7006.97 296.413  19
  -5  -1   5 7317.76 308.043  18
  -5  -1   5 7294.11 303.661   4
  -5  -1   4 478.762 93.0271   4
  -5  -1   4 370.461 93.8755  23
  -5  -1   4 398.261 93.6781  19
  -5  -1   4 384.381 87.9235  18
  -5  -1   3 13206.3 406.005  23
  -5  -1   3 12648.9 378.137  20
  -5  -1   3 13105.8 386.493  19
  -5  -1   3 13091.7 370.809  18
  -5  -1   3 13054.0 368.107   4
  -5  -1   2 11835.2 356.353  20
   5   1  -2 12240.8 383.563  12
  -5  -1   1 1921.01 148.062  20
   5   1  -1 2146.12 172.604  12
   5   1   0 1.48111 63.3869  12
   5   1   1 19511.2 542.780  12
   5   1   2 2719.33 228.410  12
   5   1   3 3033.56 248.318  12
   5   1   4 718.285 147.249  12
   5   1   5 2536.49 235.763  12
   5   1   6 2718.41 223.155  16
   5   1   6 2645.87 222.779  12
   5   1   7 13490.0 419.975  12
  -5  -2  12 482.640 100.749  11
  -5  -2  11 311.508 96.4388  11
  -5  -2  10 7647.22 338.715  11
  -5  -2  10 7196.61 336.897  19
  -5  -2  10 7732.37 358.441   4
  -5  -2   9 255.542 108.711   4
  -5  -2   9 332.109 121.840  24
  -5  -2   9 212.130 90.6469  11
  -5  -2   9 244.185 104.275  19
  -5  -2   8 170.008 99.4601   4
  -5  -2   8 378.237 127.774  24
  -5  -2   8 230.167 88.3642  11
  -5  -2   8 145.577 105.640  19
  -5  -2   7 8832.00 376.852  24
  -5  -2   7 8312.44 322.618  11
  -5  -2   7 8312.05 355.031  19
  -5  -2   7 8745.57 359.032   4
  -5  -2   6 442.657 98.7356   4
  -5  -2   6 604.454 96.2769  11
  -5  -2   6 558.028 111.334  19
  -5  -2   5 1296.58 135.367   4
  -5  -2   5 1240.90 153.971  23
  -5  -2   5 1128.72 140.295  19
  -5  -2   4 5331.71 279.497  23
  -5  -2   4 5789.63 273.368  19
  -5  -2   4 5454.05 242.994   4
  -5  -2   3 1920.68 171.647  23
  -5  -2   3 2043.34 171.814  19
  -5  -2   2 12091.1 379.365  19
   5   2  -1 38425.1 731.124  12
   5   2   0 3981.51 255.229  12
   5   2   1 8587.89 377.691  12
   5   2   2 1557.48 188.891  12
   5   2   3 605.183 134.410  12
   5   2   4 25.8881 95.1018  16
   5   2   4 3.33446 90.6216  12
   5   2   5 41.4211 108.300  16
   5   2   5-94.4175 82.7989  12
   5   2   6 22142.9 541.649  16
   5   2   6 22118.5 563.275  12
  -5  -3  12 1190.92 131.966  26
  -5  -3  11 914.731 122.316  11
  -5  -3  11 525.536 108.501  19
  -5  -3  10 3988.95 233.193  11
  -5  -3  10 4067.29 265.828  19
  -5  -3  10 4051.83 257.939   4
  -5  -3   9 1048.14 167.302  24
  -5  -3   9 1014.47 155.367  19
  -5  -3   9 1152.76 153.905   4
  -5  -3   8 582.262 145.713  24
  -5  -3   8 456.019 116.635  19
  -5  -3   8 524.247 115.050   4
  -5  -3   7 15947.9 511.186  24
  -5  -3   7 15881.3 498.126  19
  -5  -3   7 15989.7 470.097   4
  -5  -3   6 1260.36 135.798   4
  -5  -3   6 1133.99 152.833  19
  -5  -3   5 593.047 120.419  23
  -5  -3   5 570.863 107.804  19
  -5  -3   4 2689.13 211.204  23
  -5  -3   4 2686.92 197.299  19
  -5  -3   3 217.779 89.0679  23
  -5  -3   3 226.227 77.9850  19
  -5  -3   2 10942.2 398.427  23
  -5  -3   2 10233.6 369.772  19
   5   3  -2 10179.4 345.848  16
  -5  -3   1 206.374 77.4388  19
   5   3  -1 117.346 89.5183  16
   5   3   0 13231.2 439.327  16
   5   3   1 11846.3 445.600  16
   5   3   1 11659.7 465.861  12
   5   3   2 5501.06 325.793  16
   5   3   2 5507.68 325.909  12
   5   3   3 2634.31 242.751  16
   5   3   3 2361.44 221.148  12
   5   3   4-19.0772 97.8111  16
   5   3   4-49.0244 84.7274  12
   5   3   5 386.979 110.391  16
  -5  -4  12 1646.50 143.153  19
  -5  -4  12 1523.58 127.938  26
  -5  -4  11 1133.34 147.692  19
  -5  -4  10 175.716 106.690  19
  -5  -4   9 1506.52 190.031  24
  -5  -4   9 1600.45 182.779  19
  -5  -4   9 1442.99 156.507   4
  -5  -4   8 5983.36 335.234  24
  -5  -4   8 6403.11 342.836  19
  -5  -4   7 7085.44 356.929  24
  -5  -4   7 7760.11 355.953  19
  -5  -4   6 1125.39 156.952  19
  -5  -4   5 6734.13 314.294  19
  -5  -4   4 4817.32 284.632  23
  -5  -4   4 4816.78 264.133  19
  -5  -4   3 8659.05 371.727  23
  -5  -4   3 8714.88 344.716  19
  -5  -4   2 8179.14 360.544  23
   5   4  -2 7614.21 328.349  16
  -5  -4   1 3621.36 246.311  23
   5   4  -1 3341.09 235.737  16
  -5  -4   0 4406.70 275.535  23
   5   4   0 4734.99 288.301  16
   5   4   0 4226.29 313.702  28
   5   4   1 1009.86 159.664  16
   5   4   1 1021.16 170.299  28
   5   4   2 103.459 109.778  16
   5   4   2 139.860 87.7836   7
   5   4   3 51.7460 94.6120  16
   5   4   3 47.3107 88.6503   7
   5   4   4 9632.48 388.630  16
   5   4   4 8379.29 334.338   7
  -5  -5  12 2879.48 178.025  19
  -5  -5  11 7118.77 311.783  19
   5   5 -10 3108.51 209.029   6
  -5  -5  10 3215.25 232.687  19
  -5  -5   9 63.0411 78.9434  19
  -5  -5   9 45.8220 103.044  24
  -5  -5   8 2061.36 195.182  19
  -5  -5   8 1969.60 204.654  24
  -5  -5   7 746.020 145.599  24
  -5  -5   7 691.980 126.374  19
  -5  -5   6 44.5124 87.9849  24
  -5  -5   6 18.7562 75.2165  19
  -5  -5   5 973.819 145.302  19
  -5  -5   4 27960.1 615.191  19
   5   5  -3 247.089 101.651  16
   5   5  -3 360.773 129.383  28
  -5  -5   2-58.8023 74.2279  23
   5   5  -2-38.7704 97.6191  16
   5   5  -2-7.95339 104.967  28
   5   5  -2-128.385 127.393   7
   5   5  -1 2668.05 224.881  16
   5   5  -1 2749.73 239.407   7
   5   5  -1 2914.43 263.843  28
   5   5   0 2717.76 225.944  16
   5   5   0 2591.79 230.794   7
   5   5   0 2744.00 257.006  28
   5   5   1 28.2335 99.1503  16
   5   5   1 138.137 112.526  28
   5   5   1 121.422 101.698   7
   5   5   2 10239.5 417.671  16
   5   5   2 9713.77 385.086   7
   5   5   3 5356.65 292.927  16
   5   5   3 4826.00 259.082   7
  -5  -6  11 200.033 74.1014  19
   5   6 -10 557.982 111.216   6
  -5  -6  10 485.756 103.245  19
   5   6  -9 4636.73 264.816   6
  -5  -6   9 4570.28 261.553  19
  -5  -6   8-40.2376 83.4296  24
  -5  -6   8-89.8080 73.1629  19
  -5  -6   7 120.106 79.8614  24
  -5  -6   7 212.867 89.9840  19
  -5  -6   6 4966.16 279.060  24
  -5  -6   6 4486.03 255.470  19
   5   6  -6 4498.29 260.024  28
  -5  -6   5 3168.48 222.668  24
   5   6  -5 3258.13 240.938  28
   5   6  -4 10377.4 432.899  28
   5   6  -3 411.510 111.330  16
   5   6  -3 453.300 138.612  28
   5   6  -3 572.157 146.269   7
   5   6  -2 2359.54 212.164  16
   5   6  -2 2364.45 237.739   7
   5   6  -2 2865.90 255.840  28
   5   6  -1 6353.32 329.170  16
   5   6  -1 6281.19 346.515   7
   5   6  -1 7014.78 379.330  28
   5   6   0 233.539 108.111  16
   5   6   0 343.058 124.570  28
   5   6   0 303.121 119.415   7
   5   6   1 10110.6 396.524  16
   5   6   1 8964.63 369.980   7
   5   6   1 8982.52 373.342  28
   5   6   2 4266.75 251.316  16
   5   7 -10 16.3569 60.2388   6
   5   7  -9 8222.35 317.397   6
  -5  -7   9 8677.56 300.120  19
   5   7  -8-63.8963 82.7354   6
   5   7  -7 1425.08 157.064   6
   5   7  -6-142.321 95.7292   6
   5   7  -6 44.7036 66.8062  28
   5   7  -5 726.683 121.558   6
   5   7  -5 648.563 122.718  28
   5   7  -4 9117.96 381.475  28
   5   7  -3 122.098 101.827  28
   5   7  -2 5896.01 295.969  16
   5   7  -2 6477.28 331.669   7
   5   7  -2 6735.04 341.447  28
   5   7  -1 338.237 99.4689  16
   5   7  -1 518.196 126.417  28
   5   7  -1 734.222 146.885   7
   5   7   0 2811.98 204.797  16
   5   8  -7 1233.23 122.011   6
   5   8  -7 1206.69 132.488  17
   5   8  -6 381.945 81.3014   6
   5   8  -6 614.206 103.711  17
   5   8  -5 134.016 71.2327  17
   5   8  -5 85.7530 54.2409  28
   5   8  -4 726.773 109.006  28
  -6   7   2 803.437 113.765   8
  -6   7   1 1557.48 143.842  18
  -6   7   1 2149.97 179.607  17
  -6   7   0-68.8638 72.0947  17
  -6   7  -1 3296.96 208.621   9
  -6   7  -2 798.570 108.855   9
  -6   6   5 204.283 83.8656   8
  -6   6   4 1348.82 157.407   8
  -6   6   3 4579.66 249.946  18
  -6   6   2 6998.43 324.482  18
  -6   6   2 7497.16 362.102  17
  -6   6   1-12.2383 86.0955  17
  -6   6   0 421.625 106.633   9
  -6   6   0 385.129 112.249  17
  -6   6  -1 300.823 90.6844   9
  -6   6  -1 250.535 94.8105  17
  -6   6  -2 2676.47 194.268  20
  -6   6  -2 2651.01 209.357   9
  -6   6  -3 119.291 68.5251  20
  -6   6  -3 194.373 70.5530   9
  -6   6  -4 5407.52 253.206  20
  -6   6  -4 5049.75 243.196   9
  -6   5   7 305.944 87.9745  21
  -6   5   7 296.649 77.2163   8
  -6   5   6 2032.83 186.590   8
  -6   5   5-268.822 97.4132  18
  -6   5   5 388.745 125.716   8
  -6   5   4 899.438 135.652  18
  -6   5   3 1070.91 156.529  18
  -6   5   2-45.3504 100.593  17
  -6   5   1 9712.99 399.069  20
  -6   5   1 9487.75 423.562   9
  -6   5   1 8890.10 413.595  17
  -6   5   0 2991.81 232.378  20
  -6   5   0 3317.01 259.150   9
  -6   5   0 3116.32 249.159  17
  -6   5  -1 7221.15 352.233  20
  -6   5  -1 6869.02 355.287   9
  -6   5  -2 2904.49 227.754  20
  -6   5  -2 2934.52 231.424   9
  -6   5  -3 93.6042 73.3509  20
  -6   5  -3-18.3604 58.5876   9
  -6   5  -4 190.447 81.0312  20
  -6   5  -4 424.308 87.5318   9
  -6   5  -5 122.029 62.8325  20
  -6   4   8 225.351 85.5599  21
  -6   4   8 123.656 75.2773   8
  -6   4   7 3408.78 221.614  11
  -6   4   7 3376.72 239.099  21
  -6   4   7 3554.12 239.866   8
  -6   4   6 900.651 139.451  11
  -6   4   6 617.134 118.918  18
  -6   4   6 1008.74 156.055   8
  -6   4   5 2124.42 204.685  18
  -6   4   4 6256.36 344.958  18
  -6   4   3 889.186 157.291  18
  -6   4   2 1359.28 174.437  20
  -6   4   2 1350.14 187.354  17
  -6   4   1 1135.58 159.058  20
  -6   4   1 647.524 131.602   9
  -6   4   1 846.817 165.377  17
  -6   4   0-122.935 83.2608  20
  -6   4   0 75.4074 84.6000   9
  -6   4  -1 840.824 147.765  20
  -6   4  -1 805.232 139.259   9
  -6   4  -2 4297.31 284.845  20
  -6   4  -2 4509.59 282.424   9
  -6   4  -3 816.150 138.869  20
  -6   4  -3 852.471 130.967   9
  -6   4  -4 7162.68 343.766  20
  -6   4  -5 640.144 107.821  20
  -6   4  -6 2795.95 187.219  20
  -6   3   9 397.559 94.9486  11
  -6   3   9 268.501 91.2123  21
  -6   3   9 564.677 102.326   8
  -6   3   8 534.389 112.745  11
  -6   3   8 692.264 132.741  21
  -6   3   8 721.148 132.347   8
  -6   3   7 155.636 104.236  11
  -6   3   7-41.3388 87.8920   8
  -6   3   6 8446.20 389.314  18
  -6   3   6 9724.56 399.274   8
  -6   3   5 3592.24 265.572  18
  -6   3   4 459.407 126.846  18
  -6   3   3 2946.20 247.791  20
  -6   3   3 2774.15 238.042  18
  -6   3   2 1643.68 188.360  20
  -6   3   1 211.749 98.6150  20
  -6   3   1 130.512 91.3872   9
  -6   3   0 15924.1 541.832  20
  -6   3   0 15445.3 523.155   9
  -6   3  -1 10068.2 436.516  20
  -6   3  -1 9275.99 399.805   9
  -6   3  -2 15.5687 72.6449  20
  -6   3  -2 170.435 78.8526   9
  -6   3  -3 2148.87 209.971  20
  -6   3  -4 282.057 94.8437  20
  -6   3  -5 6293.09 309.982  20
   6  -3   5 5594.81 273.175  12
  -6   3  -6 314.942 70.3488  20
   6  -3   6 438.011 86.5458  12
  -6   2  10 1.75734 68.1935  11
  -6   2  10 122.657 72.6100  21
  -6   2   9 1536.55 170.651  11
  -6   2   9 1730.10 179.177  21
  -6   2   8 3297.27 252.881  11
  -6   2   8 3204.60 245.823  21
  -6   2   8 3223.86 217.609   8
  -6   2   7 2621.47 233.712  11
  -6   2   7 2677.33 232.658  18
  -6   2   7 2907.44 215.648   8
  -6   2   6 90.4162 96.4025  18
  -6   2   5 1381.56 182.723  18
  -6   2   4 142.621 89.2546  18
  -6   2   3 15943.9 542.902  20
  -6   2   3 16413.7 525.646  18
  -6   2   2 1519.23 183.992  20
  -6   2   1 8193.28 386.531  20
  -6   2   0 4050.20 276.497  20
  -6   2  -1 4747.10 295.512  20
  -6   2  -2 20223.1 600.194  20
  -6   2  -3 131.133 83.8687  20
   6  -2   3 13.7652 56.7129  12
  -6   2  -4 2374.71 207.498  20
   6  -2   4 2265.44 198.711  12
  -6   2  -5 5499.68 287.716  20
   6  -2   5 4869.35 269.269  12
  -6   2  -6 71.1684 51.7512  20
   6  -2   6 31.7201 69.9876  12
  -6   1  11 2114.24 162.584  11
  -6   1  10 969.154 142.107  11
  -6   1  10 945.727 125.948  21
  -6   1   9 707.599 137.025  11
  -6   1   9 642.378 129.377  21
  -6   1   8-62.6358 76.5969   4
  -6   1   8-31.7367 103.233  11
  -6   1   7 375.035 101.724   4
  -6   1   7 436.972 130.739  11
  -6   1   7 381.408 113.385  18
  -6   1   6 29477.3 714.687  18
  -6   1   6 29802.5 699.882   4
  -6   1   5-61.7500 88.1579   4
  -6   1   5-24.6514 81.3989  18
  -6   1   4 6937.39 319.698  19
  -6   1   4 6741.81 337.321  18
  -6   1   3 4217.70 277.352  20
  -6   1   3 4134.88 257.006  19
  -6   1   3 4266.73 263.594  18
  -6   1   2 992.239 148.046  20
  -6   1   2 1049.23 146.425  18
  -6   1   1 2903.34 224.790  20
  -6   1   0 166.202 88.3322  20
  -6   1  -1 141.796 78.2887  20
   6  -1   1-18.8768 70.6987  12
  -6   1  -2 9430.58 398.643  20
   6  -1   2 9330.57 389.612  12
  -6   1  -3 16689.2 520.293  20
   6  -1   3 16489.0 527.024  12
  -6   1  -4 4875.43 281.066  20
   6  -1   4 4684.95 285.447  12
   6  -1   5 511.137 115.648  12
   6  -1   6 844.485 118.088  12
  -6   0  11 1569.73 152.868  11
  -6   0  11 1560.52 136.297  21
  -6   0  10 4224.50 255.907  11
  -6   0  10 3496.40 221.286  21
  -6   0   9 4761.12 285.009  11
  -6   0   9 4886.66 269.367  21
  -6   0   8 83.5315 102.009  11
  -6   0   8-15.2009 67.0457  21
  -6   0   7 2567.26 219.079  11
  -6   0   7 2378.28 212.557   4
  -6   0   6 18148.1 522.087  19
  -6   0   6 18443.4 556.952  18
  -6   0   6 18787.2 547.586   4
  -6   0   5 136.500 91.7380  23
  -6   0   5 200.341 90.2295   4
  -6   0   5 99.9124 83.8159  19
  -6   0   5 30.2640 80.7711  18
  -6   0   4 3237.45 237.355  23
  -6   0   4 3289.18 230.287  19
  -6   0   4 3660.06 243.030  18
  -6   0   3 3593.76 251.097  23
  -6   0   3 3757.86 249.768  20
  -6   0   3 3692.25 245.630  19
  -6   0   3 3633.65 238.099  18
  -6   0   2 3559.78 243.603  20
  -6   0   2 3534.72 230.817  18
  -6   0   1 691.096 117.645  20
  -6   0   0 2686.98 208.116  20
   6   0   0 3039.67 222.675  12
  -6   0  -1 1065.60 140.283  20
   6   0   1 1037.75 148.792  12
   6   0   2 6045.61 335.462  12
   6   0   3 6166.68 334.688  12
   6   0   4 3540.88 259.437  12
   6   0   5 403.012 107.975  12
   6   0   6 3766.03 223.859  12
  -6  -1  11 3404.42 215.216  11
  -6  -1  10 1847.95 176.348  11
  -6  -1   9 611.108 108.617   4
  -6  -1   9 600.172 121.486  11
  -6  -1   8 2921.31 224.344  11
  -6  -1   8 2588.54 217.529  19
  -6  -1   8 2562.26 217.965   4
  -6  -1   7 923.799 158.991  24
  -6  -1   7 903.757 137.123   4
  -6  -1   7 1125.22 154.234  11
  -6  -1   7 941.498 141.271  19
  -6  -1   6 617.708 129.904   4
  -6  -1   6 734.163 142.182  19
  -6  -1   5 2554.96 229.887  23
  -6  -1   5 2552.16 215.682  19
  -6  -1   5 2847.43 216.676  18
  -6  -1   5 2351.24 196.149   4
  -6  -1   4 10185.5 418.218  23
  -6  -1   4 10342.3 398.138  19
  -6  -1   4 10063.6 384.865  18
  -6  -1   3 4547.82 281.396  23
  -6  -1   3 4615.05 270.198  19
  -6  -1   2 10847.1 391.203  20
  -6  -1   2 11252.9 415.210  19
   6   1  -1 2742.49 223.237  12
   6   1   0 16898.3 533.721  12
   6   1   1 1558.32 184.036  12
   6   1   2 1867.53 202.782  12
   6   1   3 2692.55 235.776  12
   6   1   4 10767.4 430.197  12
   6   1   5 5688.82 296.634  16
   6   1   5 5487.87 287.601  12
  -6  -2  11 166.521 71.4864  11
  -6  -2  10 1069.49 131.466  11
  -6  -2  10 1135.59 147.714  19
  -6  -2   9 363.263 114.992  24
  -6  -2   9 288.310 92.9974   4
  -6  -2   9 586.388 109.479  11
  -6  -2   9 539.184 128.309  19
  -6  -2   8 9472.44 408.873  24
  -6  -2   8 9443.92 357.598  11
  -6  -2   8 8968.97 391.506  19
  -6  -2   8 8723.56 371.395   4
  -6  -2   7 6623.87 344.604  24
  -6  -2   7 6809.28 297.066  11
  -6  -2   7 6631.53 340.808  19
  -6  -2   7 6670.44 320.167   4
  -6  -2   6 4075.70 272.394  19
  -6  -2   6 4599.27 264.222   4
  -6  -2   5 956.430 151.258  23
  -6  -2   5 1058.51 147.904  19
  -6  -2   4 6181.97 335.229  23
  -6  -2   4 6225.51 323.639  19
  -6  -2   3 12218.1 458.568  23
  -6  -2   3 12413.9 441.671  19
  -6  -2   2 33.0531 82.5576  23
  -6  -2   2-16.9635 71.8966  19
  -6  -2   1 6468.27 328.549  19
  -6  -2   0 24914.7 638.914  19
  -6  -2  -1-39.8946 83.2715  19
   6   2   1 13.1558 96.5722  12
   6   2   2 2794.33 238.643  16
   6   2   2 2711.19 238.927  12
   6   2   3 616.034 142.792  16
   6   2   3 606.417 128.531  12
   6   2   4-12.4358 94.5812  16
   6   2   4 26.2475 80.5155  12
  -6  -3  11 122.013 73.4142  19
  -6  -3  10 84.0077 85.8303  19
  -6  -3   9 2231.45 208.986  19
  -6  -3   9 2696.96 231.319  24
  -6  -3   8 8791.19 400.242  24
  -6  -3   8 8679.41 385.189  19
  -6  -3   8 7541.88 331.064   4
  -6  -3   7 1754.31 200.044  24
  -6  -3   7 1654.62 189.733  19
  -6  -3   6 6811.79 340.090  19
  -6  -3   5 1446.51 175.929  19
  -6  -3   4 4878.26 307.625  23
  -6  -3   4 5305.93 305.709  19
  -6  -3   3 3667.26 266.353  23
  -6  -3   3 3914.56 258.061  19
  -6  -3   2 118.119 83.7798  23
  -6  -3   2 154.853 82.2197  19
   6   3  -2 352.259 94.0161  16
  -6  -3   1 7187.72 370.304  23
  -6  -3   1 7553.69 351.870  19
   6   3  -1 6894.43 320.034  16
  -6  -3   0 1303.49 174.595  23
   6   3   0 1061.66 152.074  16
  -6  -3  -1 158.572 83.5835  23
   6   3   1 131.789 109.704  16
   6   3   1 103.386 95.7174  28
  -6  -3  -2 134.150 75.4421  23
   6   3   2 38.4821 94.2089  16
   6   3   3 4658.89 284.518  16
   6   3   4 2050.54 184.368  16
  -6  -4  11 494.598 95.0957  19
  -6  -4  10-15.4911 82.8857  19
  -6  -4   9 86.7367 92.5764  24
  -6  -4   9 108.944 90.9849  19
  -6  -4   8 204.083 115.458  24
  -6  -4   8 225.941 96.2956  19
  -6  -4   7 203.062 110.672  24
  -6  -4   7 302.828 101.712  19
  -6  -4   6 749.146 134.474  19
  -6  -4   5 16654.7 520.693  19
  -6  -4   4 745.060 141.008  23
  -6  -4   4 523.462 117.782  19
  -6  -4   3 4669.60 295.760  23
  -6  -4   3 5114.39 285.121  19
  -6  -4   2 566.897 125.419  23
  -6  -4   2 311.400 96.6324  19
   6   4  -2 335.437 96.1948  16
  -6  -4   1 4525.22 287.596  23
   6   4  -1 3896.50 251.868  16
   6   4  -1 4198.57 309.275  28
  -6  -4   0 1846.71 191.036  23
   6   4   0 1749.39 181.087  16
   6   4   0 1752.61 207.790  28
   6   4   1 2659.73 220.068  16
   6   4   2 4047.44 257.467  16
   6   4   3 41.4433 81.3104  16
  -6  -5  11 13.7921 64.0208  19
  -6  -5  10 2896.33 199.736  19
  -6  -5   9 715.842 124.739  24
  -6  -5   9 751.526 124.446  19
  -6  -5   8 1960.77 184.904  19
  -6  -5   8 1972.86 192.552  24
  -6  -5   7 690.160 139.365  24
  -6  -5   7 740.761 131.577  19
  -6  -5   6 5374.36 299.803  24
  -6  -5   6 5202.73 284.792  19
  -6  -5   5 5631.00 298.987  19
  -6  -5   4 6808.06 318.502  19
   6   5  -4 6804.53 355.853  28
   6   5  -3 456.741 134.748  28
   6   5  -2 578.004 118.739  16
   6   5  -2 633.376 145.092  28
   6   5  -1 515.907 115.290  16
   6   5  -1 598.465 143.015  28
   6   5   0 2743.15 210.884  16
   6   5   0 2593.32 225.303  28
   6   5   1 1206.40 147.647  16
   6   6  -9 191.537 82.6407   6
  -6  -6   9 52.8092 55.3691  19
  -6  -6   8 167.222 91.3931  24
  -6  -6   8 463.050 93.7406  19
  -6  -6   7-76.2447 76.9393  24
  -6  -6   7-41.0384 61.5867  19
  -6  -6   6 2265.00 189.573  24
   6   6  -6 2068.56 177.602  28
  -6  -6   5 9056.58 352.730  24
   6   6  -5 9646.22 382.398  28
   6   6  -4 340.127 106.576  28
   6   6  -3-55.1772 83.5878  28
   6   6  -2 1429.00 151.813  16
   6   6  -2 1593.07 182.901  28
   6   6  -1 2299.87 179.330  16
   6   6  -1 2695.49 216.829  28
   6   7  -7-5.66940 71.2992   6
   6   7  -6 389.571 81.7368   6
   6   7  -6 355.143 88.6012  28
   6   7  -5 255.083 77.9751  28
   6   7  -4 101.858 76.1353  28
   6   7  -3 681.478 111.697  28
  -7   6   1 576.844 107.195  18
  -7   6   0 196.435 80.3247  18
  -7   5   5 1515.83 145.635   8
  -7   5   4 1944.10 169.873  18
  -7   5   3 3142.94 218.730  18
  -7   5   2 95.5013 76.6061  18
  -7   5   1 77.1838 75.2049  18
  -7   5   0 78.5392 63.3419  20
  -7   5  -1 2780.02 197.000  20
  -7   5  -2 39.8512 62.7068  20
  -7   4   7 615.633 100.077  21
  -7   4   6 858.615 132.158  11
  -7   4   6 655.215 112.047  18
  -7   4   6 847.454 123.569   8
  -7   4   5 1505.85 163.279  18
  -7   4   4 459.169 117.303  18
  -7   4   3-99.9001 78.2748  18
  -7   4   2 5105.73 303.584  18
  -7   4   1 1483.19 175.775  20
  -7   4   0 8709.93 382.602  20
  -7   4  -1 937.484 136.274  20
  -7   4  -2 586.383 107.697  20
  -7   4  -3 105.320 60.5184  20
  -7   3   8 1082.40 128.795  11
  -7   3   8 1187.24 133.054  21
  -7   3   7 729.746 126.564  11
  -7   3   7 683.428 107.174   8
  -7   3   6 6225.07 319.878  11
  -7   3   6 6140.80 318.767  18
  -7   3   6 6440.86 294.947   8
  -7   3   5 2128.94 201.323  18
  -7   3   4 2522.59 224.052  18
  -7   3   3 39.6223 84.3618  18
  -7   3   2 4312.31 290.578  20
  -7   3   2 4394.06 287.823  18
  -7   3   1 1693.03 193.116  20
  -7   3   1 1742.45 168.633  19
  -7   3   1 1706.82 180.678  18
  -7   3   0 4859.77 302.950  20
  -7   3  -1 4003.21 269.257  20
  -7   3  -2 1482.76 167.714  20
  -7   3  -3 843.323 126.131  20
  -7   3  -4 6612.00 276.272  20
  -7   2   9 88.5765 75.1508  11
  -7   2   9 127.838 71.3704  21
  -7   2   8 1718.86 174.406  11
  -7   2   8 1962.15 175.999  21
  -7   2   7 6082.13 317.726  11
  -7   2   6 960.526 152.084  18
  -7   2   5 467.149 119.029  18
  -7   2   4 6396.19 342.000  18
  -7   2   3 347.441 100.270  19
  -7   2   3 436.113 120.504  18
  -7   2   2 3842.71 284.662  20
  -7   2   2 3865.70 249.616  19
  -7   2   2 3856.52 266.953  18
  -7   2   1 1399.13 179.370  20
  -7   2   1 1392.60 167.129  18
  -7   2   0 1059.80 153.212  20
  -7   2   0 1349.77 155.405  18
  -7   2  -1 1567.05 174.684  20
  -7   2  -2 315.686 84.3192  20
  -7   2  -3 120.547 72.7058  20
  -7   2  -4 1955.32 154.481  20
  -7   1   9 1244.19 148.045  11
  -7   1   9 1146.56 128.956  21
  -7   1   8 1678.88 177.874  11
  -7   1   8 1373.67 149.937  21
  -7   1   7-9.07455 91.3755  11
  -7   1   6 176.782 88.6986  18
  -7   1   5-28.4304 87.0527  18
  -7   1   4 4620.39 281.364  19
  -7   1   4 4597.04 288.566  18
  -7   1   3 5541.72 305.654  19
  -7   1   3 5629.49 314.418  18
  -7   1   2 7573.86 351.708  23
  -7   1   2 7820.33 378.103  20
  -7   1   2 7438.97 358.264  19
  -7   1   2 7704.79 355.919  18
  -7   1   1 119.805 79.4877  23
  -7   1   1 101.709 75.9649  20
  -7   1   0 298.775 90.9942  20
  -7   1  -1 16735.0 520.386  20
  -7   1  -2 1307.97 151.298  20
   7  -1   2 1568.57 156.686  12
   7  -1   3 5405.07 268.917  12
   7  -1   4 1532.07 143.815  12
  -7   0  10 1612.03 149.364  11
  -7   0   9 2482.12 193.239  11
  -7   0   8 697.841 130.215  11
  -7   0   7 234.759 98.9981  11
  -7   0   6 2350.31 205.527  19
  -7   0   5 1699.32 191.619  19
  -7   0   5 1834.94 187.083  18
  -7   0   4 6716.94 345.363  23
  -7   0   4 7038.09 351.987  19
  -7   0   4 7082.51 346.825  18
  -7   0   3 2777.44 231.618  23
  -7   0   3 2847.09 234.430  19
  -7   0   3 2724.19 218.214  18
  -7   0   2 1765.33 195.860  23
  -7   0   2 1835.33 189.372  20
  -7   0   2 1639.79 185.512  19
  -7   0   1 2736.80 233.880  23
  -7   0   1 2927.52 226.018  20
  -7   0   1 3311.94 251.663  19
  -7   0   0 2858.31 224.456  20
   7   0   1 7594.40 341.504  12
   7   0   2 411.880 96.9305  12
   7   0   3 6341.42 297.479  12
   7   0   4 274.285 82.2438  16
  -7  -1  10 1786.21 151.489  11
  -7  -1   9 3026.06 207.329  11
  -7  -1   8 2546.34 196.313  11
  -7  -1   8 2560.56 207.067  19
  -7  -1   7 730.108 119.133  11
  -7  -1   7 977.222 152.507  19
  -7  -1   6-11.1126 83.4542  19
  -7  -1   5 4268.02 283.644  19
  -7  -1   4 4508.49 296.813  23
  -7  -1   4 4774.80 295.584  19
  -7  -1   3 4948.20 306.535  23
  -7  -1   3 4999.69 300.276  19
  -7  -1   2 187.222 108.641  23
  -7  -1   2 130.533 88.9759  19
  -7  -1   1 14489.6 519.259  23
  -7  -1   1 15539.1 518.200  19
  -7  -1   0 52.7171 86.4234  19
  -7  -1  -1 26.2428 77.8026  19
  -7  -1  -2 94.0881 71.7383  19
   7   1   2 308.031 102.927  16
   7   1   3 61.8112 82.4059  16
  -7  -2  10 158.418 77.1987  19
  -7  -2   9 4212.04 245.754  19
  -7  -2   8 100.856 98.6790  24
  -7  -2   8 328.160 103.647  19
  -7  -2   7 1690.27 188.013  24
  -7  -2   7 1651.34 182.345  19
  -7  -2   6 3771.97 266.358  19
  -7  -2   5 151.883 90.8099  19
  -7  -2   4 828.304 146.628  23
  -7  -2   4 987.697 151.269  19
  -7  -2   3 3996.83 286.876  23
  -7  -2   3 3786.29 265.958  19
  -7  -2   2 1337.60 177.491  23
  -7  -2   2 1272.03 165.014  19
  -7  -2   1 1616.53 190.787  23
  -7  -2   1 1765.53 188.622  19
   7   2  -1 1353.56 148.340  16
  -7  -2   0 352.855 111.620  23
  -7  -2   0 88.8519 78.1262  19
   7   2   0 204.819 97.5205  16
  -7  -2  -1 2371.68 208.701  23
  -7  -2  -1 2375.35 199.231  19
   7   2   1 2251.06 191.660  16
  -7  -2  -2 260.959 95.4108  23
   7   2   2 147.335 82.2871  16
  -7  -3  10 49.1215 55.9389  19
  -7  -3   9 2415.04 192.748  19
  -7  -3   9 2274.01 191.047  24
  -7  -3   8 1669.17 183.556  24
  -7  -3   8 1631.63 168.689  19
  -7  -3   7 3271.92 247.029  24
  -7  -3   7 3424.99 244.312  19
  -7  -3   6 979.657 150.969  19
  -7  -3   5 34.8521 89.3292  19
  -7  -3   4 1190.65 169.184  23
  -7  -3   4 1363.10 170.774  19
  -7  -3   3 129.254 95.0508  23
  -7  -3   3 137.936 81.9596  19
  -7  -3   2 4475.89 288.900  23
  -7  -3   2 4755.67 281.888  19
  -7  -3   1 8899.24 399.988  23
  -7  -3   1 9599.73 390.470  19
   7   3  -1 8179.20 324.269  16
  -7  -3   0 1599.10 176.689  23
   7   3   0 1545.48 156.011  16
   7   3   0 1478.65 174.394  28
  -7  -3  -1 1041.97 139.771  23
   7   3   1 796.065 124.173  16
  -7  -4  10 544.125 89.7551  19
  -7  -4   9 2095.78 173.769  19
  -7  -4   9 2008.83 176.375  24
  -7  -4   8 104.672 95.3370  24
  -7  -4   8 49.4852 76.4630  19
  -7  -4   7 1992.27 190.512  24
  -7  -4   7 2304.40 197.145  19
  -7  -4   6 486.675 119.034  24
  -7  -4   6 503.154 110.226  19
  -7  -4   5 4774.65 281.633  19
  -7  -4   4 2116.29 191.712  19
  -7  -4   3 1304.10 155.483  19
  -7  -4   2 4520.24 279.849  23
   7   4  -2 4761.49 301.522  28
  -7  -4   1 104.926 75.0863  23
   7   4  -1-187.267 80.6776  16
   7   4  -1-73.7405 87.8968  28
  -7  -4   0 249.008 83.1979  23
   7   4   0 163.528 76.4511  16
  -7  -5   9 69.2534 57.2393  19
  -7  -5   9 175.913 77.4973  24
  -7  -5   8 226.509 78.2621  24
  -7  -5   8 262.224 76.6502  19
  -7  -5   7 58.6949 80.5745  24
  -7  -5   7 102.583 70.9685  19
   7   5  -7-145.638 67.0540  28
  -7  -5   6 14091.3 433.832  24
  -7  -5   6 14856.1 428.925  19
   7   5  -6 13595.1 410.217  28
  -7  -5   5 394.268 84.6052  19
   7   5  -5 464.600 108.577  28
   7   5  -4 679.797 123.958  28
   7   5  -3 3380.55 237.524  28
   7   5  -2 94.0779 81.0935  28
  -8   4   2-26.0377 55.3291  18
  -8   3   5 2223.75 175.500  18
  -8   3   4 24.2030 59.4806  18
  -8   3   3-18.2736 63.4463  18
  -8   3   2 3135.44 204.917  18
  -8   3   1 1088.56 123.795  18
  -8   3   0 1116.95 126.320  20
  -8   2   7 198.195 80.1228  11
  -8   2   6 84.1955 74.1490  11
  -8   2   5 1819.18 168.798  18
  -8   2   4 862.087 127.622  18
  -8   2   3 2653.64 199.425  18
  -8   2   2 790.388 114.360  19
  -8   2   2 651.967 104.132  18
  -8   2   1 1310.43 141.657  19
  -8   2   0 7286.37 313.875  20
  -8   2   0 7430.35 295.235  19
  -8   2  -1 402.140 84.9914  20
  -8   2  -1 742.203 104.885  19
  -8   1   7 22.1485 63.7384  11
  -8   1   6 568.341 107.914  11
  -8   1   5 1253.62 146.851  18
  -8   1   4 829.140 128.945  19
  -8   1   4 566.800 108.888  18
  -8   1   3 2283.43 190.929  19
  -8   1   3 2194.61 177.107  18
  -8   1   2-1.99572 68.9638  19
  -8   1   1 80.9428 69.1539  23
  -8   1   1 9.28505 75.7899  19
  -8   1   0 288.098 83.4167  23
  -8   1   0 217.514 89.3065  19
  -8   1  -1 3640.73 204.359  23
  -8   1  -1 4073.41 225.638  19
  -8   0   8 2130.91 159.325  11
  -8   0   7 119.025 70.7850  11
  -8   0   6 1458.98 146.631  11
  -8   0   6 1511.75 154.174  19
  -8   0   5 773.064 127.872  19
  -8   0   4 5761.88 298.505  19
  -8   0   3 1685.07 175.309  23
  -8   0   3 1869.83 180.682  19
  -8   0   2 3560.12 236.669  23
  -8   0   2 3638.13 243.224  19
  -8   0   1 33.5053 68.0276  23
  -8   0   1-35.9057 81.0143  19
  -8   0   0 11.7699 71.9568  23
  -8   0   0-38.1234 68.0952  19
  -8   0  -1 2135.12 169.412  23
  -8   0  -1 2157.66 167.975  19
  -8  -1   7 1440.71 147.280  19
  -8  -1   6 545.189 112.679  19
  -8  -1   5 2680.57 207.293  19
  -8  -1   4 776.281 135.610  19
  -8  -1   3 801.810 131.565  23
  -8  -1   3 904.337 134.186  19
  -8  -1   2 2985.86 223.665  23
  -8  -1   2 3119.61 221.427  19
  -8  -1   1 1567.03 166.529  23
  -8  -1   1 1867.07 173.503  19
  -8  -1   0 1954.57 167.984  23
  -8  -1   0 2143.41 173.612  19
  -8  -2   8 3125.79 197.309  19
  -8  -2   7 226.428 81.7377  24
  -8  -2   7 146.863 77.3902  19
  -8  -2   6 492.922 105.319  24
  -8  -2   6 331.139 101.727  19
  -8  -2   5 2640.39 206.740  19
  -8  -2   4 3.22582 75.3693  19
  -8  -2   3 619.269 119.213  23
  -8  -2   3 656.425 120.728  19
  -8  -2   2 10222.9 389.880  23
  -8  -2   2 10404.6 378.518  19
  -8  -2   1 37.5850 67.6811  23
  -8  -2   1 110.517 68.1454  19
  -8  -3   7 1967.98 166.733  24
  -8  -3   7 2056.97 166.143  19
  -8  -3   6 2095.22 176.046  24
  -8  -3   6 2180.07 177.012  19
  -8  -3   5 71.1710 74.5664  19
  -8  -3   4 331.652 88.7155  19
  -8  -3   3 2221.63 174.629  19
  -8  -3   2-21.8954 62.9651  23
   0   0   0    0.00    0.00   0
TITL 1026ns5 in P-1
REM P-1 (#2 in standard setting)
CELL 1.54184   7.583857   8.798116  11.600503 106.9616 107.1260  90.2725
ZERR    2.00   0.000675   0.000590   0.000896   0.0064   0.0073   0.0063
LATT  1
SFAC C H N S Fe
UNIT 36.00 36.00 8.00 8.00 2.00
TREF
HKLF 4
END
;
loop_
_symmetry_equiv_pos_as_xyz
'x, y, z'
'-x, -y, -z'
loop_
_atom_site_label
_atom_site_type_symbol
_atom_site_fract_x
_atom_site_fract_y
_atom_site_fract_z
_atom_site_U_iso_or_equiv
_atom_site_adp_type
_atom_site_occupancy
_atom_site_site_symmetry_order
_atom_site_calc_flag
_atom_site_refinement_flags_posn
_atom_site_refinement_flags_adp
C1 C 1.1288(5) 0.3427(4) 0.4025(3) 0.0324(8) Uani 1 1 d . .
C2 C 1.0510(5) 0.6566(4) 0.2820(3) 0.0327(8) Uani 1 1 d . .
C3 C 0.9407(5) 0.6961(4) 0.1759(3) 0.0341(8) Uani 1 1 d . .
H3 H 0.956444 0.805234 0.180689 0.041 Uiso 1 1 calc R U
C4 C 0.8122(5) 0.6000(4) 0.0649(3) 0.0312(7) Uani 1 1 d . .
C5 C 0.6452(5) 0.2085(4) -0.0964(3) 0.0308(7) Uani 1 1 d . .
C6 C 1.1694(6) 0.7880(5) 0.3939(4) 0.0412(9) Uani 1 1 d . .
H6A H 1.148809 0.890891 0.377934 0.062 Uiso 1 1 calc R U
H6B H 1.136424 0.788934 0.469672 0.062 Uiso 1 1 calc R U
H6C H 1.300315 0.769896 0.407147 0.062 Uiso 1 1 calc R U
C7 C 0.7183(5) 0.6730(4) -0.0367(3) 0.0363(8) Uani 1 1 d . .
H7A H 0.764836 0.785927 -0.009662 0.054 Uiso 1 1 calc R U
H7B H 0.744796 0.616815 -0.115196 0.054 Uiso 1 1 calc R U
H7C H 0.584111 0.663687 -0.051382 0.054 Uiso 1 1 calc R U
C8 C 1.3971(5) 0.4639(5) 0.6377(4) 0.0408(9) Uani 1 1 d . .
H8A H 1.475967 0.443359 0.714166 0.061 Uiso 1 1 calc R U
H8B H 1.474991 0.501506 0.595517 0.061 Uiso 1 1 calc R U
H8C H 1.315654 0.545649 0.661001 0.061 Uiso 1 1 calc R U
C9 C 0.5282(6) -0.0997(5) -0.2594(4) 0.0474(10) Uani 1 1 d . .
H9A H 0.43638 -0.169957 -0.335409 0.071 Uiso 1 1 calc R U
H9B H 0.651224 -0.105679 -0.270804 0.071 Uiso 1 1 calc R U
H9C H 0.529314 -0.13373 -0.185923 0.071 Uiso 1 1 calc R U
N1 N 1.1563(4) 0.4846(4) 0.3982(3) 0.0330(7) Uani 1 1 d . .
N2 N 1.0563(4) 0.5054(3) 0.2827(3) 0.0301(6) Uani 1 1 d . .
N3 N 0.7679(4) 0.4445(3) 0.0467(3) 0.0306(6) Uani 1 1 d . .
N4 N 0.6557(4) 0.3630(4) -0.0728(3) 0.0323(7) Uani 1 1 d . .
S1 S 0.96275(12) 0.19349(10) 0.29010(8) 0.0358(3) Uani 1 1 d . .
S2 S 0.79186(13) 0.11150(10) -0.00243(8) 0.0370(3) Uani 1 1 d . .
S3 S 1.25857(13) 0.28271(11) 0.53178(8) 0.0385(3) Uani 1 1 d . .
S4 S 0.46890(13) 0.10169(11) -0.23389(9) 0.0412(3) Uani 1 1 d . .
Cu1 Cu 0.89724(7) 0.32906(6) 0.15530(4) 0.0299(2) Uani 1 1 d . .
loop_
_atom_site_aniso_label
_atom_site_aniso_U_11
_atom_site_aniso_U_22
_atom_site_aniso_U_33
_atom_site_aniso_U_23
_atom_site_aniso_U_13
_atom_site_aniso_U_12
C1 0.0312(18) 0.036(2) 0.0264(18) 0.0096(15) 0.0037(14) 0.0026(15)
C2 0.0320(18) 0.0314(19) 0.0346(19) 0.0088(15) 0.0116(15) 0.0011(15)
C3 0.038(2) 0.0278(18) 0.0364(19) 0.0105(15) 0.0109(16) 0.0012(15)
C4 0.0332(18) 0.0290(18) 0.0341(18) 0.0132(15) 0.0108(15) 0.0043(14)
C5 0.0327(18) 0.0330(19) 0.0263(17) 0.0112(15) 0.0064(14) 0.0026(14)
C6 0.040(2) 0.037(2) 0.042(2) 0.0119(17) 0.0045(17) -0.0034(16)
C7 0.041(2) 0.0284(18) 0.0354(19) 0.0108(15) 0.0055(16) 0.0013(15)
C8 0.037(2) 0.044(2) 0.0340(19) 0.0108(17) 0.0013(16) 0.0010(17)
C9 0.045(2) 0.034(2) 0.043(2) -0.0017(17) -0.0016(18) 0.0038(18)
N1 0.0312(15) 0.0379(17) 0.0261(14) 0.0118(13) 0.0017(12) 0.0000(13)
N2 0.0281(14) 0.0332(16) 0.0281(15) 0.0125(12) 0.0045(12) 0.0015(12)
N3 0.0292(15) 0.0303(16) 0.0281(15) 0.0081(12) 0.0035(12) 0.0057(12)
N4 0.0328(16) 0.0315(16) 0.0270(15) 0.0080(12) 0.0021(12) 0.0014(12)
S1 0.0376(5) 0.0322(5) 0.0322(5) 0.0137(4) -0.0009(4) -0.0018(4)
S2 0.0412(5) 0.0270(5) 0.0328(5) 0.0091(4) -0.0031(4) 0.0023(4)
S3 0.0405(5) 0.0377(5) 0.0306(5) 0.0135(4) -0.0016(4) 0.0024(4)
S4 0.0419(5) 0.0347(5) 0.0345(5) 0.0104(4) -0.0060(4) 0.0001(4)
Cu1 0.0310(3) 0.0275(3) 0.0271(3) 0.0095(2) 0.0016(2) 0.0011(2)
loop_
_atom_type_symbol
_atom_type_description
_atom_type_scat_dispersion_real
_atom_type_scat_dispersion_imag
_atom_type_scat_source
C C 0.0181 0.0091 'International Tables Vol C Tables 4.2.6.8 and 6.1.1.4'
H H 0 0 'International Tables Vol C Tables 4.2.6.8 and 6.1.1.4'
N N 0.0311 0.018 'International Tables Vol C Tables 4.2.6.8 and 6.1.1.4'
S S 0.3331 0.5567 'International Tables Vol C Tables 4.2.6.8 and 6.1.1.4'
Cu Cu -1.9646 0.5888 'International Tables Vol C Tables 4.2.6.8 and 6.1.1.4'
loop_
_geom_angle_atom_site_label_1
_geom_angle_atom_site_label_2
_geom_angle_atom_site_label_3
_geom_angle
N1 C1 S1 126.0(3)
N1 C1 S3 121.1(3)
S1 C1 S3 112.9(2)
N2 C2 C3 121.2(3)
N2 C2 C6 120.0(3)
C3 C2 C6 118.7(3)
C4 C3 C2 130.0(3)
N3 C4 C3 122.0(3)
N3 C4 C7 119.1(3)
C3 C4 C7 118.9(3)
N4 C5 S2 124.0(3)
N4 C5 S4 114.8(3)
S2 C5 S4 121.2(2)
C1 N1 N2 113.1(3)
C2 N2 N1 115.1(3)
C2 N2 Cu1 124.7(2)
N1 N2 Cu1 118.6(2)
C4 N3 N4 114.5(3)
C4 N3 Cu1 123.8(2)
N4 N3 Cu1 119.6(2)
C5 N4 N3 113.3(3)
C1 S1 Cu1 92.83(12)
C5 S2 Cu1 93.56(12)
C1 S3 C8 102.80(18)
C5 S4 C9 103.19(18)
N3 Cu1 N2 97.30(12)
N3 Cu1 S2 87.88(9)
N2 Cu1 S2 163.03(9)
N3 Cu1 S1 162.18(9)
N2 Cu1 S1 88.66(9)
S2 Cu1 S1 91.25(4)
loop_
_geom_bond_atom_site_label_1
_geom_bond_atom_site_label_2
_geom_bond_distance
C1 N1 1.282(5)
C1 S1 1.740(4)
C1 S3 1.759(4)
C2 N2 1.334(5)
C2 C3 1.408(5)
C2 C6 1.502(5)
C3 C4 1.393(5)
C4 N3 1.347(5)
C4 C7 1.503(5)
C5 N4 1.303(5)
C5 S2 1.730(3)
C5 S4 1.753(4)
C8 S3 1.799(4)
C9 S4 1.792(4)
N1 N2 1.397(4)
N2 Cu1 1.908(3)
N3 N4 1.371(4)
N3 Cu1 1.900(3)
S1 Cu1 2.1797(10)
S2 Cu1 2.1752(10)
loop_
_geom_torsion_atom_site_label_1
_geom_torsion_atom_site_label_2
_geom_torsion_atom_site_label_3
_geom_torsion_atom_site_label_4
_geom_torsion
N2 C2 C3 C4 6.6(6)
C6 C2 C3 C4 -175.7(3)
C2 C3 C4 N3 3.3(6)
C2 C3 C4 C7 -177.5(3)
S1 C1 N1 N2 -8.9(4)
S3 C1 N1 N2 173.1(2)
C3 C2 N2 N1 -173.8(3)
C6 C2 N2 N1 8.5(4)
C3 C2 N2 Cu1 -8.7(5)
C6 C2 N2 Cu1 173.7(2)
C1 N1 N2 C2 167.2(3)
C1 N1 N2 Cu1 1.1(4)
C3 C4 N3 N4 -172.8(3)
C7 C4 N3 N4 8.0(4)
C3 C4 N3 Cu1 -9.6(5)
C7 C4 N3 Cu1 171.3(2)
S2 C5 N4 N3 -12.9(4)
S4 C5 N4 N3 167.5(2)
C4 N3 N4 C5 166.9(3)
Cu1 N3 N4 C5 2.9(4)
N1 C1 S1 Cu1 10.5(3)
S3 C1 S1 Cu1 -171.30(17)
N4 C5 S2 Cu1 14.4(3)
S4 C5 S2 Cu1 -166.11(19)
N1 C1 S3 C8 4.4(3)
S1 C1 S3 C8 -173.92(19)
N4 C5 S4 C9 166.1(3)
S2 C5 S4 C9 -13.4(3)
