#------------------------------------------------------------------------------
#$Date: 2019-11-07 23:03:24 +0200 (Thu, 07 Nov 2019) $
#$Revision: 223921 $
#$URL: file:///home/coder/svn-repositories/cod/cif/7/70/06/7700631.cif $
#------------------------------------------------------------------------------
#
# This file is available in the Crystallography Open Database (COD),
# http://www.crystallography.net/
#
# All data on this site have been placed in the public domain by the
# contributors.
#
data_7700631
loop_
_publ_author_name
'Ito, Hiroaki'
'Miura, Akira'
'Goto, Yosuke'
'Mizuguchi, Yoshikazu'
'Moriyoshi, Chikako'
'Kuroiwa, Yoshihiro'
'Azuma, Masaki'
'Liu, Jinjia'
'Wen, Xiao-Dong'
'Nishioka, Shunta'
'Maeda, Kazuhiko'
'Masubuchi, Yuji'
'Rosero-Navarro, Nataly Carolina'
'Tadanaga, Kiyoharu'
_publ_section_title
;
 An electronic structure governed by the displacement of the indium site
 in In-S<sub>6</sub> octahedra: LnOInS<sub>2</sub> (Ln = La, Ce, and Pr).
;
_journal_issue                   32
_journal_name_full
'Dalton transactions (Cambridge, England : 2003)'
_journal_page_first              12272
_journal_page_last               12278
_journal_paper_doi               10.1039/c9dt01562k
_journal_volume                  48
_journal_year                    2019
_chemical_formula_sum            'Ce In O S2'
_chemical_formula_weight         335.1
_space_group_IT_number           11
_space_group_name_Hall           '-P 2yb'
_space_group_name_H-M_alt        'P 1 21/m 1'
_symmetry_cell_setting           monoclinic
_symmetry_Int_Tables_number      11
_symmetry_space_group_name_Hall  '-P 2yb'
_symmetry_space_group_name_H-M   'P 1 21/m 1'
_audit_update_record
;
2019-01-16 deposited with the CCDC.    2019-07-24 downloaded from the CCDC.
;
_cell_angle_alpha                90
_cell_angle_beta                 90
_cell_angle_gamma                90
_cell_formula_units_Z            2
_cell_length_a                   3.97576(7)
_cell_length_b                   3.98177(7)
_cell_length_c                   12.67618(11)
_cell_measurement_temperature    150
_cell_volume                     200.671(5)
_diffrn_ambient_temperature      150
_diffrn_detector_type
'multiple MYTHEN system (Rev. Sci. Instrum. 88, 85111 (2017))'
_diffrn_measurement_device_type  SPring-8_BL02B2
_diffrn_radiation_probe          x-ray
_diffrn_radiation_type           synchrotron
_diffrn_radiation_wavelength     0.49527
_diffrn_source                   synchrotron
_exptl_absorpt_coefficient_mu    6.695
_exptl_crystal_density_diffrn    5.5452
_exptl_crystal_F_000             294
_pd_instr_location               ' ?'
_pd_meas_2theta_range_inc        0.006
_pd_meas_2theta_range_max        78.216
_pd_meas_2theta_range_min        2.100
_pd_meas_number_of_points        12687
_pd_proc_2theta_range_inc        0.006
_pd_proc_2theta_range_max        69.996
_pd_proc_2theta_range_min        2.1
_pd_proc_ls_background_function  'Manual background'
_pd_proc_ls_pref_orient_corr     none
_pd_proc_ls_profile_function     Pseudo-Voigt
_pd_proc_ls_prof_R_factor        0.0741
_pd_proc_ls_prof_wR_expected     0.0108
_pd_proc_ls_prof_wR_factor       0.1099
_refine_ls_goodness_of_fit_all   10.14
_refine_ls_number_constraints    0
_refine_ls_number_parameters     21
_refine_ls_number_restraints     0
_refine_ls_R_factor_all          0.0695
_refine_ls_R_factor_gt           0.0694
_refine_ls_shift/su_max          0.0463
_refine_ls_shift/su_mean         0.0096
_refine_ls_weighting_scheme      sigma
_refine_ls_wR_factor_all         0.0940
_refine_ls_wR_factor_gt          0.0940
_cod_data_source_file            c9dt01562k2.cif
_cod_data_source_block           I_CCDC2
_cod_depositor_comments
;
The following automatic conversions were performed:

'_diffrn_radiation_probe' value 'X-ray' changed to 'x-ray' according
to
/home/data/users/saulius/crontab/automatic-downloads/rss-feeds/RSC/lib/dictionaries/cif_core.dic
dictionary named 'cif_core.dic' version 2.4.2 from 2011-04-26.

Automatic conversion script
Id: cif_fix_values 4973 2017-02-22 13:04:09Z antanas 

 Adding full bibliography for 7700629--7700637.cif.
;
_cod_original_formula_sum        'Ce1 In1 O1 S2'
_cod_database_code               7700631
loop_
_space_group_symop_id
_space_group_symop_operation_xyz
1 x,y,z
2 -x,y+1/2,-z
3 -x,-y,-z
4 x,-y+1/2,z
loop_
_atom_site_label
_atom_site_type_symbol
_atom_site_fract_x
_atom_site_fract_y
_atom_site_fract_z
_atom_site_adp_type
_atom_site_U_iso_or_equiv
_atom_site_site_symmetry_multiplicity
_atom_site_occupancy
_atom_site_calc_flag
Ce1 Ce 0.25 0.25 0.09877(7) Uiso 0.00230(12) 2 1 d
In1 In 0.25 0.25 0.60793(11) Uani 0.0519(11) 2 1 d
S1 S 0.25 0.25 0.4081(3) Uiso 0.0100(8) 2 1 d
S2 S 0.25 0.25 0.7956(3) Uiso 0.0007(6) 2 1 d
O1 O 0.75 0.25 0 Uiso 0.0177 2 1 d
loop_
_atom_site_aniso_label
_atom_site_aniso_type_symbol
_atom_site_aniso_U_11
_atom_site_aniso_U_22
_atom_site_aniso_U_33
_atom_site_aniso_U_12
_atom_site_aniso_U_13
_atom_site_aniso_U_23
In1 In 0.0244(16) 0.122(3) 0.0090(8) 0 0 0
loop_
_atom_type_symbol
_atom_type_scat_dispersion_real
_atom_type_scat_dispersion_imag
_atom_type_scat_source
Ce -1.1304 1.3720 'International Tables Vol C tables 4.2.6.8 and 6.1.1.1'
In -2.1272 0.6711 'International Tables Vol C tables 4.2.6.8 and 6.1.1.1'
O 0.0007 0.0027 'International Tables Vol C tables 4.2.6.8 and 6.1.1.1'
S 0.0527 0.0607 'International Tables Vol C tables 4.2.6.8 and 6.1.1.1'
loop_
_geom_angle_atom_site_label_1
_geom_angle_atom_site_label_2
_geom_angle_atom_site_label_3
_geom_angle_site_symmetry_1
_geom_angle_site_symmetry_3
_geom_angle
O1 Ce1 O1 1_455 . 115.59(4)
O1 Ce1 O1 1_455 2_645 73.518(17)
O1 Ce1 O1 1_455 2_655 73.518(17)
O1 Ce1 O1 . 2_645 73.518(17)
O1 Ce1 O1 . 2_655 73.518(17)
O1 Ce1 O1 2_645 2_655 115.67(4)
S1 In1 S1 . 2_546 85.87(8)
S1 In1 S1 . 2_556 85.87(8)
S1 In1 S1 . 2_646 85.87(8)
S1 In1 S1 . 2_656 85.87(8)
S1 In1 S2 . . 180.0(5)
S1 In1 S1 2_546 2_556 89.789(9)
S1 In1 S1 2_546 2_646 89.616(9)
S1 In1 S1 2_546 2_656 171.74(12)
S1 In1 S2 2_546 . 94.13(8)
S1 In1 S1 2_556 2_646 171.74(12)
S1 In1 S1 2_556 2_656 89.616(9)
S1 In1 S2 2_556 . 94.13(8)
S1 In1 S1 2_646 2_656 89.789(9)
S1 In1 S2 2_646 . 94.13(8)
S1 In1 S2 2_656 . 94.13(8)
In1 S1 In1 . 2_546 94.13(8)
In1 S1 In1 . 2_556 94.13(8)
In1 S1 In1 . 2_646 94.13(8)
In1 S1 In1 . 2_656 94.13(8)
In1 S1 In1 2_546 2_556 89.789(12)
In1 S1 In1 2_546 2_646 89.616(12)
In1 S1 In1 2_546 2_656 171.74(16)
In1 S1 In1 2_556 2_646 171.74(16)
In1 S1 In1 2_556 2_656 89.616(12)
In1 S1 In1 2_646 2_656 89.789(12)
Ce1 O1 Ce1 . 1_655 115.59(3)
Ce1 O1 Ce1 . 2_645 106.482(12)
Ce1 O1 Ce1 . 2_655 106.482(12)
Ce1 O1 O1 . 2_645 53.282(9)
Ce1 O1 O1 . 2_655 53.282(9)
Ce1 O1 O1 . 2_745 126.718(9)
Ce1 O1 O1 . 2_755 126.718(9)
Ce1 O1 Ce1 1_655 2_645 106.482(12)
Ce1 O1 Ce1 1_655 2_655 106.482(12)
Ce1 O1 O1 1_655 2_645 126.718(9)
Ce1 O1 O1 1_655 2_655 126.718(9)
Ce1 O1 O1 1_655 2_745 53.282(9)
Ce1 O1 O1 1_655 2_755 53.282(9)
Ce1 O1 Ce1 2_645 2_655 115.67(3)
Ce1 O1 O1 2_645 2_645 53.199(9)
Ce1 O1 O1 2_645 2_655 126.801(9)
Ce1 O1 O1 2_645 2_745 53.199(9)
Ce1 O1 O1 2_645 2_755 126.801(9)
Ce1 O1 O1 2_655 2_645 126.801(9)
Ce1 O1 O1 2_655 2_655 53.199(9)
Ce1 O1 O1 2_655 2_745 126.801(9)
Ce1 O1 O1 2_655 2_755 53.199(9)
O1 O1 O1 2_645 2_655 90.0865(14)
O1 O1 O1 2_645 2_745 89.9135(14)
O1 O1 O1 2_645 2_755 180.0(5)
O1 O1 O1 2_655 2_745 180.0(5)
O1 O1 O1 2_655 2_755 89.9135(14)
O1 O1 O1 2_745 2_755 90.0865(14)
loop_
_geom_bond_atom_site_label_1
_geom_bond_atom_site_label_2
_geom_bond_site_symmetry_2
_geom_bond_distance
Ce1 O1 1_455 2.3493(5)
Ce1 O1 . 2.3493(5)
Ce1 O1 2_645 2.3518(5)
Ce1 O1 2_655 2.3518(5)
In1 S1 . 2.533(4)
In1 S1 2_546 2.8207(3)
In1 S1 2_556 2.8207(3)
In1 S1 2_646 2.8207(3)
In1 S1 2_656 2.8207(3)
In1 S2 . 2.379(4)
O1 O1 2_645 2.81341(7)
O1 O1 2_655 2.81341(7)
O1 O1 2_745 2.81341(7)
O1 O1 2_755 2.81341(7)
loop_
_pd_proc_point_id
_pd_proc_2theta_corrected
_pd_proc_intensity_net
_pd_calc_intensity_net
_pd_proc_ls_weight
1 2.1000 7480.00 7850.12 86.00
2 2.1060 7452.00 7851.94 86.00
3 2.1120 7410.00 7853.44 86.00
4 2.1180 7432.00 7855.79 86.00
5 2.1240 7561.00 7859.14 87.00
6 2.1300 7640.00 7863.74 87.00
7 2.1360 7657.00 7870.86 88.00
8 2.1420 7747.00 7878.90 88.00
9 2.1480 7738.00 7889.36 88.00
10 2.1540 7716.00 7902.95 88.00
11 2.1600 7904.00 7921.62 89.00
12 2.1660 8089.00 7944.72 90.00
13 2.1720 8236.00 7975.23 91.00
14 2.1780 8408.00 8016.08 92.00
15 2.1840 8733.00 8072.78 93.00
16 2.1900 9166.00 8150.59 96.00
17 2.1960 9884.00 8263.25 99.00
18 2.2020 10809.00 8444.29 104.00
19 2.2080 12777.00 8880.54 113.00
20 2.2140 17636.00 10684.20 133.00
21 2.2200 30799.00 18090.70 175.00
22 2.2260 61131.00 38652.30 247.00
23 2.2320 107847.00 71559.00 328.00
24 2.2380 136737.00 93223.00 370.00
25 2.2440 124996.00 79288.90 354.00
26 2.2500 84242.00 46128.00 290.00
27 2.2560 44211.00 21667.40 210.00
28 2.2620 22537.00 11697.50 150.00
29 2.2680 14559.00 9073.16 121.00
30 2.2740 11645.00 8467.97 108.00
31 2.2800 10370.00 8248.06 102.00
32 2.2860 9680.00 8115.33 98.00
33 2.2920 9181.00 8022.40 96.00
34 2.2980 8915.00 7954.03 94.00
35 2.3040 8630.00 7903.00 93.00
36 2.3100 8377.00 7862.23 92.00
37 2.3160 8330.00 7829.48 91.00
38 2.3220 8232.00 7802.60 91.00
39 2.3280 8073.00 7781.08 90.00
40 2.3340 7943.00 7761.90 89.00
41 2.3400 7882.00 7745.29 89.00
42 2.3460 7850.00 7730.71 89.00
43 2.3520 7844.00 7718.75 89.00
44 2.3580 7702.00 7707.09 88.00
45 2.3640 7662.00 7696.49 88.00
46 2.3700 7612.00 7686.77 87.00
47 2.3760 7594.00 7677.77 87.00
48 2.3820 7502.00 7670.39 87.00
49 2.3880 7608.00 7662.52 87.00
50 2.3940 7436.00 7655.08 86.00
51 2.4000 7621.00 7648.01 87.00
52 2.4060 7580.00 7606.08 87.00
53 2.4120 7538.00 7602.07 87.00
54 2.4180 7510.00 7598.06 87.00
55 2.4240 7428.00 7594.05 86.00
56 2.4300 7325.00 7591.04 86.00
57 2.4360 7492.00 7587.03 87.00
58 2.4420 7517.00 7583.02 87.00
59 2.4480 7563.00 7579.01 87.00
60 2.4540 7493.00 7576.00 87.00
61 2.4600 7441.00 7571.99 86.00
62 2.4660 7394.00 7567.98 86.00
63 2.4720 7424.00 7568.98 86.00
64 2.4780 7422.00 7569.98 86.00
65 2.4840 7395.00 7571.99 86.00
66 2.4900 7327.00 7572.99 86.00
67 2.4960 7268.00 7574.99 85.00
68 2.5020 7428.00 7576.00 86.00
69 2.5080 7450.00 7578.00 86.00
70 2.5140 7508.00 7579.01 87.00
71 2.5200 7540.00 7581.01 87.00
72 2.5260 7535.00 7582.01 87.00
73 2.5320 7368.00 7584.02 86.00
74 2.5380 7324.00 7585.02 86.00
75 2.5440 7418.00 7587.03 86.00
76 2.5500 7446.00 7588.03 86.00
77 2.5560 7497.00 7590.04 87.00
78 2.5620 7481.00 7591.04 86.00
79 2.5680 7537.00 7593.04 87.00
80 2.5740 7555.00 7594.05 87.00
81 2.5800 7291.00 7596.05 85.00
82 2.5860 7412.00 7597.06 86.00
83 2.5920 7528.00 7599.06 87.00
84 2.5980 7539.00 7600.06 87.00
85 2.6040 7498.00 7602.07 87.00
86 2.6100 7627.00 7603.07 87.00
87 2.6160 7455.00 7605.08 86.00
88 2.6220 7515.00 7606.08 87.00
89 2.6280 7574.00 7608.09 87.00
90 2.6340 7553.00 7610.09 87.00
91 2.6400 7503.00 7611.09 87.00
92 2.6460 7583.00 7613.10 87.00
93 2.6520 7529.00 7614.10 87.00
94 2.6580 7215.00 7616.11 85.00
95 2.6640 7503.00 7617.11 87.00
96 2.6700 7493.00 7619.12 87.00
97 2.6760 7432.00 7620.12 86.00
98 2.6820 7336.00 7622.12 86.00
99 2.6880 7415.00 7623.13 86.00
100 2.6940 7557.00 7625.13 87.00
101 2.7000 7400.00 7626.14 86.00
102 2.7060 7530.00 7628.14 87.00
103 2.7120 7463.00 7629.14 86.00
104 2.7180 7222.00 7631.15 85.00
105 2.7240 7624.00 7632.15 87.00
106 2.7300 7528.00 7634.16 87.00
107 2.7360 7560.00 7635.16 87.00
108 2.7420 7465.00 7637.17 86.00
109 2.7480 7705.00 7638.17 88.00
110 2.7540 7617.00 7640.18 87.00
111 2.7600 7627.00 7641.18 87.00
112 2.7660 7524.00 7643.18 87.00
113 2.7720 7486.00 7644.19 87.00
114 2.7780 7642.00 7646.19 87.00
115 2.7840 7443.00 7647.19 86.00
116 2.7900 7478.00 7649.20 86.00
117 2.7960 7491.00 7650.20 87.00
118 2.8020 7397.00 7652.21 86.00
119 2.8080 7563.00 7653.21 87.00
120 2.8140 7568.00 7655.22 87.00
121 2.8200 7426.00 7656.22 86.00
122 2.8260 7525.00 7658.23 87.00
123 2.8320 7608.00 7659.23 87.00
124 2.8380 7540.00 7661.23 87.00
125 2.8440 7521.00 7662.24 87.00
126 2.8500 7607.00 7664.24 87.00
127 2.8560 7496.00 7665.24 87.00
128 2.8620 7534.00 7667.25 87.00
129 2.8680 7563.00 7668.25 87.00
130 2.8740 7523.00 7670.26 87.00
131 2.8800 7814.00 7671.26 88.00
132 2.8860 7662.00 7673.27 88.00
133 2.8920 7552.00 7674.27 87.00
134 2.8980 7594.00 7676.27 87.00
135 2.9040 7591.00 7677.28 87.00
136 2.9100 7646.00 7679.28 87.00
137 2.9160 7630.00 7680.29 87.00
138 2.9220 7590.00 7682.29 87.00
139 2.9280 7623.00 7684.30 87.00
140 2.9340 7632.00 7688.31 87.00
141 2.9400 7821.00 7691.32 88.00
142 2.9460 7728.00 7695.33 88.00
143 2.9520 7662.00 7698.34 88.00
144 2.9580 7509.00 7702.35 87.00
145 2.9640 7556.00 7705.36 87.00
146 2.9700 7654.00 7709.37 87.00
147 2.9760 7585.00 7712.38 87.00
148 2.9820 7519.00 7716.39 87.00
149 2.9880 7529.00 7719.39 87.00
150 2.9940 7522.00 7723.41 87.00
151 3.0000 7529.00 7726.41 87.00
152 3.0060 7540.00 7730.43 87.00
153 3.0120 7633.00 7733.43 87.00
154 3.0180 7736.00 7737.44 88.00
155 3.0240 7786.00 7740.45 88.00
156 3.0300 7635.00 7744.46 87.00
157 3.0360 7723.00 7747.47 88.00
158 3.0420 7797.00 7751.48 88.00
159 3.0480 7691.00 7754.49 88.00
160 3.0540 7579.00 7758.50 87.00
161 3.0600 7691.00 7761.51 88.00
162 3.0660 7665.00 7765.52 88.00
163 3.0720 7676.00 7768.53 88.00
164 3.0780 7645.00 7772.54 87.00
165 3.0840 7502.00 7775.55 87.00
166 3.0900 7536.00 7779.56 87.00
167 3.0960 7720.00 7782.57 88.00
168 3.1020 7763.00 7786.58 88.00
169 3.1080 7652.00 7789.59 87.00
170 3.1140 7734.00 7793.60 88.00
171 3.1200 7587.00 7796.61 87.00
172 3.1260 7672.00 7800.62 88.00
173 3.1320 7832.00 7803.63 88.00
174 3.1380 7788.00 7807.64 88.00
175 3.1440 7595.00 7810.65 87.00
176 3.1500 7525.00 7814.66 87.00
177 3.1560 7705.00 7817.67 88.00
178 3.1620 7755.00 7821.68 88.00
179 3.1680 7719.00 7824.69 88.00
180 3.1740 7832.00 7828.70 88.00
181 3.1800 7979.00 7831.71 89.00
182 3.1860 7890.00 7835.72 89.00
183 3.1920 7836.00 7838.73 89.00
184 3.1980 7950.00 7842.74 89.00
185 3.2040 8427.00 7845.74 92.00
186 3.2100 9621.00 7849.76 98.00
187 3.2160 11269.00 7852.76 106.00
188 3.2220 12066.00 7856.78 110.00
189 3.2280 11360.00 7859.78 107.00
190 3.2340 9773.00 7863.79 99.00
191 3.2400 8591.00 7866.80 93.00
192 3.2460 8080.00 7870.81 90.00
193 3.2520 8062.00 7873.82 90.00
194 3.2580 7990.00 7877.83 89.00
195 3.2640 7964.00 7880.84 89.00
196 3.2700 7909.00 7884.85 89.00
197 3.2760 7715.00 7887.86 88.00
198 3.2820 7749.00 7891.87 88.00
199 3.2880 7950.00 7894.88 89.00
200 3.2940 8173.00 7898.89 90.00
201 3.3000 8403.00 7902.90 92.00
202 3.3060 8626.00 7905.91 93.00
203 3.3120 8699.00 7909.92 93.00
204 3.3180 8621.00 7912.93 93.00
205 3.3240 8447.00 7916.94 92.00
206 3.3300 8292.00 7919.95 91.00
207 3.3360 8200.00 7923.96 91.00
208 3.3420 8071.00 7926.97 90.00
209 3.3480 8023.00 7930.98 90.00
210 3.3540 7943.00 7933.99 89.00
211 3.3600 7945.00 7938.00 89.00
212 3.3660 7935.00 7941.01 89.00
213 3.3720 8018.00 7945.02 90.00
214 3.3780 8105.00 7948.03 90.00
215 3.3840 8254.00 7952.04 91.00
216 3.3900 8780.00 7955.05 94.00
217 3.3960 10554.00 7959.06 103.00
218 3.4020 13546.00 7962.07 116.00
219 3.4080 15590.00 7966.08 125.00
220 3.4140 14804.00 7969.09 122.00
221 3.4200 12182.00 7973.10 110.00
222 3.4260 9727.00 7976.11 99.00
223 3.4320 8586.00 7980.12 93.00
224 3.4380 8283.00 7983.13 91.00
225 3.4440 8078.00 7987.14 90.00
226 3.4500 8029.00 7990.15 90.00
227 3.4560 8004.00 7994.16 89.00
228 3.4620 8003.00 7997.16 89.00
229 3.4680 7970.00 8001.18 89.00
230 3.4740 7916.00 8004.18 89.00
231 3.4800 7965.00 8008.19 89.00
232 3.4860 7849.00 8011.20 89.00
233 3.4920 7766.00 8015.21 88.00
234 3.4980 7832.00 8018.22 88.00
235 3.5040 7923.00 8022.23 89.00
236 3.5100 7941.00 8025.24 89.00
237 3.5160 7947.00 8029.25 89.00
238 3.5220 7926.00 8032.26 89.00
239 3.5280 7964.00 8036.27 89.00
240 3.5340 8000.00 8039.28 89.00
241 3.5400 7824.00 8043.29 88.00
242 3.5460 7815.00 8046.30 88.00
243 3.5520 7844.00 8050.31 89.00
244 3.5580 7816.00 8053.32 88.00
245 3.5640 7773.00 8057.33 88.00
246 3.5700 7755.00 8060.34 88.00
247 3.5760 7908.00 8064.35 89.00
248 3.5820 7971.00 8067.36 89.00
249 3.5880 7807.00 8071.37 88.00
250 3.5940 7771.00 8074.38 88.00
251 3.6000 7731.00 8078.39 88.00
252 3.6060 7751.00 8081.40 88.00
253 3.6120 7835.00 8085.41 89.00
254 3.6180 7811.00 8088.42 88.00
255 3.6240 7777.00 8092.43 88.00
256 3.6300 7787.00 8095.44 88.00
257 3.6360 7775.00 8099.45 88.00
258 3.6420 7831.00 8102.46 88.00
259 3.6480 7814.00 8106.47 88.00
260 3.6540 7761.00 8109.48 88.00
261 3.6600 7619.00 8113.49 87.00
262 3.6660 7707.00 8116.50 88.00
263 3.6720 7726.00 8120.51 88.00
264 3.6780 7738.00 8123.51 88.00
265 3.6840 7804.00 8127.53 88.00
266 3.6900 7817.00 8130.53 88.00
267 3.6960 7790.00 8134.55 88.00
268 3.7020 7838.00 8137.55 89.00
269 3.7080 7779.00 8141.56 88.00
270 3.7140 7802.00 8144.57 88.00
271 3.7200 7837.00 8148.58 89.00
272 3.7260 7838.00 8151.59 89.00
273 3.7320 7852.00 8155.60 89.00
274 3.7380 7758.00 8158.61 88.00
275 3.7440 7641.00 8162.62 87.00
276 3.7500 7791.00 8165.63 88.00
277 3.7560 7919.00 8169.64 89.00
278 3.7620 8016.00 8173.65 90.00
279 3.7680 7830.00 8176.66 88.00
280 3.7740 7760.00 8180.67 88.00
281 3.7800 7700.00 8183.68 88.00
282 3.7860 7796.00 8187.69 88.00
283 3.7920 7858.00 8190.70 89.00
284 3.7980 7874.00 8194.71 89.00
285 3.8040 7893.00 8197.72 89.00
286 3.8100 7985.00 8201.73 89.00
287 3.8160 7800.00 8204.74 88.00
288 3.8220 7799.00 8208.75 88.00
289 3.8280 7798.00 8211.76 88.00
290 3.8340 7930.00 8215.77 89.00
291 3.8400 7977.00 8218.78 89.00
292 3.8460 7824.00 8222.79 88.00
293 3.8520 7758.00 8225.80 88.00
294 3.8580 7831.00 8229.81 88.00
295 3.8640 7866.00 8232.82 89.00
296 3.8700 7836.00 8237.83 89.00
297 3.8760 7707.00 8242.85 88.00
298 3.8820 7764.00 8247.86 88.00
299 3.8880 7753.00 8252.87 88.00
300 3.8940 7817.00 8257.89 88.00
301 3.9000 7901.00 8262.90 89.00
302 3.9060 7807.00 8266.91 88.00
303 3.9120 7954.00 8271.93 89.00
304 3.9180 7784.00 8276.94 88.00
305 3.9240 7782.00 8281.95 88.00
306 3.9300 7701.00 8286.97 88.00
307 3.9360 7858.00 8291.98 89.00
308 3.9420 7904.00 8297.00 89.00
309 3.9480 7917.00 8302.01 89.00
310 3.9540 7915.00 8307.02 89.00
311 3.9600 7907.00 8312.04 89.00
312 3.9660 8005.00 8317.05 89.00
313 3.9720 8045.00 8321.06 90.00
314 3.9780 7963.00 8326.08 89.00
315 3.9840 7792.00 8331.09 88.00
316 3.9900 7807.00 8336.10 88.00
317 3.9960 7812.00 8341.12 88.00
318 4.0020 8016.00 8346.13 90.00
319 4.0080 8039.00 8351.15 90.00
320 4.0140 8036.00 8356.16 90.00
321 4.0200 7957.00 8361.17 89.00
322 4.0260 7968.00 8366.19 89.00
323 4.0320 8012.00 8371.20 90.00
324 4.0380 7978.00 8375.21 89.00
325 4.0440 7999.00 8380.23 89.00
326 4.0500 7791.00 8385.24 88.00
327 4.0560 7866.00 8390.25 89.00
328 4.0620 7952.00 8395.27 89.00
329 4.0680 8136.00 8400.28 90.00
330 4.0740 8026.00 8405.30 90.00
331 4.0800 7893.00 8410.31 89.00
332 4.0860 7946.00 8415.32 89.00
333 4.0920 8036.00 8420.34 90.00
334 4.0980 7908.00 8424.35 89.00
335 4.1040 8016.00 8429.36 90.00
336 4.1100 7898.00 8434.38 89.00
337 4.1160 8053.00 8439.39 90.00
338 4.1220 7984.00 8444.40 89.00
339 4.1280 8222.00 8449.42 91.00
340 4.1340 8162.00 8454.43 90.00
341 4.1400 8293.00 8459.45 91.00
342 4.1460 8473.00 8464.46 92.00
343 4.1520 9103.00 8469.47 95.00
344 4.1580 9483.00 8474.49 97.00
345 4.1640 9492.00 8478.50 97.00
346 4.1700 8995.00 8483.51 95.00
347 4.1760 8625.00 8488.53 93.00
348 4.1820 8356.00 8493.54 91.00
349 4.1880 8230.00 8498.55 91.00
350 4.1940 8196.00 8503.57 91.00
351 4.2000 8172.00 8508.58 90.00
352 4.2060 8179.00 8513.60 90.00
353 4.2120 7987.00 8518.61 89.00
354 4.2180 8212.00 8523.62 91.00
355 4.2240 8217.00 8528.64 91.00
356 4.2300 8224.00 8532.65 91.00
357 4.2360 8278.00 8537.66 91.00
358 4.2420 8241.00 8542.68 91.00
359 4.2480 8495.00 8547.69 92.00
360 4.2540 8420.00 8552.70 92.00
361 4.2600 8457.00 8557.72 92.00
362 4.2660 8551.00 8562.73 92.00
363 4.2720 8649.00 8567.75 93.00
364 4.2780 9277.00 8572.76 96.00
365 4.2840 9864.00 8577.77 99.00
366 4.2900 10179.00 8747.35 101.00
367 4.2960 9851.00 8763.39 99.00
368 4.3020 9227.00 8780.57 96.00
369 4.3080 8769.00 8799.05 94.00
370 4.3140 8730.00 8819.02 93.00
371 4.3200 8534.00 8840.71 92.00
372 4.3260 8665.00 8864.39 93.00
373 4.3320 8551.00 8890.40 92.00
374 4.3380 8584.00 8919.13 93.00
375 4.3440 8563.00 8951.08 93.00
376 4.3500 8571.00 8986.84 93.00
377 4.3560 8632.00 9026.19 93.00
378 4.3620 8573.00 9072.06 93.00
379 4.3680 8919.00 9124.68 94.00
380 4.3740 8759.00 9185.60 94.00
381 4.3800 8768.00 9256.87 94.00
382 4.3860 8786.00 9341.19 94.00
383 4.3920 9135.00 9442.20 96.00
384 4.3980 9406.00 9564.87 97.00
385 4.4040 9402.00 9716.22 97.00
386 4.4100 9552.00 9906.27 98.00
387 4.4160 9910.00 10149.80 100.00
388 4.4220 10306.00 10468.10 102.00
389 4.4280 10650.00 10898.90 103.00
390 4.4340 11506.00 11506.80 107.00
391 4.4400 12831.00 12473.20 113.00
392 4.4460 14738.00 14546.50 121.00
393 4.4520 19276.00 20621.90 139.00
394 4.4580 30563.00 38319.50 175.00
395 4.4640 62861.00 78013.40 251.00
396 4.4700 127601.00 138113.00 357.00
397 4.4760 182407.00 187386.00 427.00
398 4.4820 178783.00 180101.00 423.00
399 4.4880 125372.00 124205.00 354.00
400 4.4940 66083.00 67107.40 257.00
401 4.5000 33998.00 32889.00 184.00
402 4.5060 21014.00 18685.30 145.00
403 4.5120 16206.00 13958.70 127.00
404 4.5180 13598.00 12273.80 117.00
405 4.5240 12010.00 11427.20 110.00
406 4.5300 11173.00 10877.10 106.00
407 4.5360 10799.00 10485.00 104.00
408 4.5420 10184.00 10194.90 101.00
409 4.5480 9625.00 9973.85 98.00
410 4.5540 9613.00 9803.41 98.00
411 4.5600 9381.00 9669.14 97.00
412 4.5660 9323.00 9561.78 97.00
413 4.5720 9302.00 9474.85 96.00
414 4.5780 9190.00 9403.71 96.00
415 4.5840 8923.00 9344.95 94.00
416 4.5900 8753.00 9296.04 94.00
417 4.5960 9029.00 9255.06 95.00
418 4.6020 8724.00 9220.52 93.00
419 4.6080 8659.00 9191.29 93.00
420 4.6140 8704.00 9165.45 93.00
421 4.6200 8514.00 9144.29 92.00
422 4.6260 8523.00 9126.22 92.00
423 4.6320 8608.00 9110.79 93.00
424 4.6380 8646.00 9097.60 93.00
425 4.6440 8558.00 9086.34 93.00
426 4.6500 8620.00 9076.74 93.00
427 4.6560 8603.00 9068.59 93.00
428 4.6620 8485.00 9061.70 92.00
429 4.6680 8589.00 9055.92 93.00
430 4.6740 8459.00 8897.66 92.00
431 4.6800 8561.00 8901.67 93.00
432 4.6860 8261.00 8906.69 91.00
433 4.6920 8270.00 8911.70 91.00
434 4.6980 8459.00 8916.71 92.00
435 4.7040 8280.00 8921.73 91.00
436 4.7100 8338.00 8926.74 91.00
437 4.7160 8317.00 8931.75 91.00
438 4.7220 8462.00 8923.73 92.00
439 4.7280 8406.00 8916.71 92.00
440 4.7340 8368.00 8908.69 91.00
441 4.7400 8294.00 8901.67 91.00
442 4.7460 8472.00 8893.65 92.00
443 4.7520 8389.00 8885.63 92.00
444 4.7580 8470.00 8878.61 92.00
445 4.7640 8319.00 8870.58 91.00
446 4.7700 8302.00 8863.57 91.00
447 4.7760 8228.00 8855.54 91.00
448 4.7820 8392.00 8848.52 92.00
449 4.7880 8331.00 8840.50 91.00
450 4.7940 8486.00 8832.48 92.00
451 4.8000 8442.00 8825.46 92.00
452 4.8060 8443.00 8817.44 92.00
453 4.8120 8458.00 8810.42 92.00
454 4.8180 8445.00 8802.40 92.00
455 4.8240 8310.00 8795.38 91.00
456 4.8300 8268.00 8787.35 91.00
457 4.8360 8475.00 8779.33 92.00
458 4.8420 8494.00 8772.31 92.00
459 4.8480 8369.00 8764.29 91.00
460 4.8540 8553.00 8757.27 92.00
461 4.8600 8599.00 8749.25 93.00
462 4.8660 8669.00 8742.23 93.00
463 4.8720 8619.00 8734.21 93.00
464 4.8780 8577.00 8726.18 93.00
465 4.8840 8531.00 8719.17 92.00
466 4.8900 8549.00 8711.14 92.00
467 4.8960 8502.00 8704.12 92.00
468 4.9020 8467.00 8696.10 92.00
469 4.9080 8374.00 8689.08 92.00
470 4.9140 8387.00 8681.06 92.00
471 4.9200 8434.00 8673.04 92.00
472 4.9260 8482.00 8666.02 92.00
473 4.9320 8669.00 8658.00 93.00
474 4.9380 8458.00 8650.98 92.00
475 4.9440 8499.00 8642.95 92.00
476 4.9500 8599.00 8635.93 93.00
477 4.9560 8427.00 8627.91 92.00
478 4.9620 8485.00 8619.89 92.00
479 4.9680 8594.00 8612.87 93.00
480 4.9740 8741.00 8615.88 93.00
481 4.9800 8695.00 8623.90 93.00
482 4.9860 8755.00 8631.92 94.00
483 4.9920 8681.00 8639.95 93.00
484 4.9980 8750.00 8648.97 94.00
485 5.0040 8545.00 8656.99 92.00
486 5.0100 8607.00 8665.02 93.00
487 5.0160 8676.00 8673.04 93.00
488 5.0220 8657.00 8681.06 93.00
489 5.0280 8584.00 8690.08 93.00
490 5.0340 8687.00 8698.11 93.00
491 5.0400 8598.00 8706.13 93.00
492 5.0460 8466.00 8714.15 92.00
493 5.0520 8617.00 8722.17 93.00
494 5.0580 8499.00 8731.20 92.00
495 5.0640 8627.00 8739.22 93.00
496 5.0700 8722.00 8747.24 93.00
497 5.0760 8641.00 8755.27 93.00
498 5.0820 8647.00 8763.29 93.00
499 5.0880 8779.00 8772.31 94.00
500 5.0940 8993.00 8780.33 95.00
501 5.1000 9376.00 8788.36 97.00
502 5.1060 10485.00 8796.38 102.00
503 5.1120 11545.00 8805.40 107.00
504 5.1180 11475.00 8813.43 107.00
505 5.1240 10366.00 8821.45 102.00
506 5.1300 9483.00 8829.47 97.00
507 5.1360 8984.00 8837.49 95.00
508 5.1420 8976.00 8846.52 95.00
509 5.1480 8887.00 8854.54 94.00
510 5.1540 9274.00 8862.56 96.00
511 5.1600 10165.00 8870.58 101.00
512 5.1660 10856.00 8878.61 104.00
513 5.1720 10617.00 8887.63 103.00
514 5.1780 9883.00 8895.65 99.00
515 5.1840 9362.00 8903.68 97.00
516 5.1900 9008.00 8911.70 95.00
517 5.1960 8731.00 8919.72 93.00
518 5.2020 8715.00 8928.75 93.00
519 5.2080 8769.00 8936.77 94.00
520 5.2140 8802.00 8944.79 94.00
521 5.2200 8798.00 8952.81 94.00
522 5.2260 8662.00 8960.83 93.00
523 5.2320 8635.00 8969.86 93.00
524 5.2380 8679.00 8977.88 93.00
525 5.2440 8578.00 8985.91 93.00
526 5.2500 8789.00 8993.93 94.00
527 5.2560 8837.00 9002.95 94.00
528 5.2620 8697.00 9010.97 93.00
529 5.2680 8719.00 9019.00 93.00
530 5.2740 8787.00 9027.02 94.00
531 5.2800 8838.00 9035.04 94.00
532 5.2860 8821.00 9044.07 94.00
533 5.2920 8744.00 9052.09 94.00
534 5.2980 8607.00 9060.11 93.00
535 5.3040 8801.00 9068.13 94.00
536 5.3100 8805.00 9077.16 94.00
537 5.3160 8718.00 9086.18 93.00
538 5.3220 8832.00 9095.21 94.00
539 5.3280 8915.00 9103.23 94.00
540 5.3340 8829.00 9112.25 94.00
541 5.3400 8591.00 9121.28 93.00
542 5.3460 8724.00 9130.30 93.00
543 5.3520 8863.00 9138.33 94.00
544 5.3580 8780.00 9147.35 94.00
545 5.3640 8873.00 9156.38 94.00
546 5.3700 8923.00 9165.40 94.00
547 5.3760 8841.00 9173.42 94.00
548 5.3820 8707.00 9182.45 93.00
549 5.3880 8784.00 9191.47 94.00
550 5.3940 8939.00 9200.50 95.00
551 5.4000 9008.00 9208.52 95.00
552 5.4060 9287.00 9217.55 96.00
553 5.4120 9535.00 9226.57 98.00
554 5.4180 10203.00 9235.60 101.00
555 5.4240 10920.00 9243.62 104.00
556 5.4300 11370.00 9252.64 107.00
557 5.4360 11104.00 9261.67 105.00
558 5.4420 10631.00 9270.69 103.00
559 5.4480 9858.00 9278.72 99.00
560 5.4540 9423.00 9287.74 97.00
561 5.4600 9191.00 9296.77 96.00
562 5.4660 9044.00 9305.79 95.00
563 5.4720 9146.00 9313.81 96.00
564 5.4780 9035.00 9322.84 95.00
565 5.4840 8967.00 9331.86 95.00
566 5.4900 9038.00 9340.89 95.00
567 5.4960 9015.00 9348.91 95.00
568 5.5020 9076.00 9357.94 95.00
569 5.5080 9127.00 9366.96 96.00
570 5.5140 9131.00 9375.99 96.00
571 5.5200 9076.00 9384.01 95.00
572 5.5260 8985.00 9393.03 95.00
573 5.5320 8961.00 9402.06 95.00
574 5.5380 9122.00 9411.08 96.00
575 5.5440 9265.00 9419.11 96.00
576 5.5500 9269.00 9428.13 96.00
577 5.5560 9157.00 9437.16 96.00
578 5.5620 9095.00 9446.18 95.00
579 5.5680 9020.00 9454.20 95.00
580 5.5740 9088.00 9463.23 95.00
581 5.5800 9164.00 9472.25 96.00
582 5.5860 9229.00 9481.28 96.00
583 5.5920 9232.00 9489.30 96.00
584 5.5980 9262.00 9498.33 96.00
585 5.6040 9231.00 9507.35 96.00
586 5.6100 9113.00 9516.38 95.00
587 5.6160 9336.00 9524.40 97.00
588 5.6220 9344.00 9535.43 97.00
589 5.6280 9279.00 9545.46 96.00
590 5.6340 9307.00 9556.49 96.00
591 5.6400 9291.00 9566.51 96.00
592 5.6460 9232.00 9577.54 96.00
593 5.6520 9248.00 9587.57 96.00
594 5.6580 9403.00 9598.60 97.00
595 5.6640 9471.00 9608.63 97.00
596 5.6700 9393.00 9619.66 97.00
597 5.6760 9355.00 9629.69 97.00
598 5.6820 9463.00 9640.72 97.00
599 5.6880 9579.00 9650.75 98.00
600 5.6940 9589.00 9661.78 98.00
601 5.7000 9487.00 9671.81 97.00
602 5.7060 9449.00 9682.84 97.00
603 5.7120 9398.00 9692.86 97.00
604 5.7180 9406.00 9703.89 97.00
605 5.7240 9541.00 9713.92 98.00
606 5.7300 9608.00 9724.95 98.00
607 5.7360 9447.00 9734.98 97.00
608 5.7420 9559.00 9746.01 98.00
609 5.7480 9725.00 9756.04 99.00
610 5.7540 9653.00 9767.07 98.00
611 5.7600 9682.00 9777.10 98.00
612 5.7660 9742.00 9788.13 99.00
613 5.7720 9645.00 9798.16 98.00
614 5.7780 9671.00 9809.19 98.00
615 5.7840 9779.00 9819.21 99.00
616 5.7900 9703.00 9830.25 99.00
617 5.7960 9562.00 9840.27 98.00
618 5.8020 9513.00 9851.30 98.00
619 5.8080 9723.00 9861.33 99.00
620 5.8140 9794.00 9872.36 99.00
621 5.8200 9707.00 9882.39 99.00
622 5.8260 9571.00 9893.42 98.00
623 5.8320 9598.00 9903.45 98.00
624 5.8380 9849.00 9914.48 99.00
625 5.8440 9797.00 9924.51 99.00
626 5.8500 9879.00 9935.54 99.00
627 5.8560 9837.00 9945.56 99.00
628 5.8620 9649.00 9956.59 98.00
629 5.8680 9749.00 9966.62 99.00
630 5.8740 9675.00 9977.65 98.00
631 5.8800 9736.00 9987.68 99.00
632 5.8860 9819.00 9998.71 99.00
633 5.8920 9843.00 10008.70 99.00
634 5.8980 9992.00 10019.80 100.00
635 5.9040 9896.00 10029.80 99.00
636 5.9100 9819.00 10040.80 99.00
637 5.9160 10015.00 10050.90 100.00
638 5.9220 9915.00 10061.90 100.00
639 5.9280 9733.00 10071.90 99.00
640 5.9340 9769.00 10082.90 99.00
641 5.9400 9827.00 10093.00 99.00
642 5.9460 9812.00 10105.00 99.00
643 5.9520 9926.00 10127.10 100.00
644 5.9580 9998.00 10148.10 100.00
645 5.9640 10009.00 10170.20 100.00
646 5.9700 10057.00 10191.20 100.00
647 5.9760 10161.00 10213.30 101.00
648 5.9820 10127.00 10234.40 101.00
649 5.9880 10103.00 10256.40 101.00
650 5.9940 10143.00 10277.50 101.00
651 6.0000 10111.00 10299.50 101.00
652 6.0060 10074.00 10321.60 100.00
653 6.0120 10050.00 10342.70 100.00
654 6.0180 10112.00 10364.70 101.00
655 6.0240 10094.00 10385.80 100.00
656 6.0300 10007.00 10407.80 100.00
657 6.0360 10089.00 10428.90 100.00
658 6.0420 10176.00 10451.00 101.00
659 6.0480 10203.00 10472.00 101.00
660 6.0540 9994.00 10494.10 100.00
661 6.0600 9863.00 10515.10 99.00
662 6.0660 10096.00 10537.20 100.00
663 6.0720 10178.00 10558.30 101.00
664 6.0780 10194.00 10580.30 101.00
665 6.0840 10281.00 10601.40 101.00
666 6.0900 10367.00 10623.40 102.00
667 6.0960 10318.00 10644.50 102.00
668 6.1020 10194.00 10666.60 101.00
669 6.1080 10283.00 10687.60 101.00
670 6.1140 10400.00 10709.70 102.00
671 6.1200 10378.00 10730.70 102.00
672 6.1260 10190.00 10752.80 101.00
673 6.1320 10144.00 10773.90 101.00
674 6.1380 10316.00 10795.90 102.00
675 6.1440 10329.00 10817.00 102.00
676 6.1500 10314.00 10839.00 102.00
677 6.1560 10382.00 10860.10 102.00
678 6.1620 10377.00 10882.20 102.00
679 6.1680 10302.00 10903.20 101.00
680 6.1740 10349.00 10925.30 102.00
681 6.1800 10456.00 10946.30 102.00
682 6.1860 10569.00 10968.40 103.00
683 6.1920 10678.00 10990.50 103.00
684 6.1980 10656.00 11011.50 103.00
685 6.2040 10660.00 11033.60 103.00
686 6.2100 10644.00 11054.60 103.00
687 6.2160 10601.00 11069.70 103.00
688 6.2220 10624.00 11081.70 103.00
689 6.2280 10575.00 11093.70 103.00
690 6.2340 10508.00 11105.80 103.00
691 6.2400 10582.00 11117.80 103.00
692 6.2460 10570.00 11129.80 103.00
693 6.2520 10674.00 11140.90 103.00
694 6.2580 10890.00 11152.90 104.00
695 6.2640 10995.00 11164.90 105.00
696 6.2700 10867.00 11177.00 104.00
697 6.2760 10844.00 11189.00 104.00
698 6.2820 11032.00 11201.00 105.00
699 6.2880 11281.00 11213.10 106.00
700 6.2940 11725.00 11225.10 108.00
701 6.3000 12568.00 11236.10 112.00
702 6.3060 12615.00 11248.20 112.00
703 6.3120 12103.00 11260.20 110.00
704 6.3180 11605.00 11272.20 108.00
705 6.3240 11170.00 11284.30 106.00
706 6.3300 11142.00 11296.30 106.00
707 6.3360 10985.00 11308.30 105.00
708 6.3420 10825.00 11320.40 104.00
709 6.3480 10717.00 11331.40 104.00
710 6.3540 10927.00 11343.40 105.00
711 6.3600 10898.00 11355.50 104.00
712 6.3660 10731.00 11367.50 104.00
713 6.3720 10917.00 11379.50 104.00
714 6.3780 10891.00 11391.60 104.00
715 6.3840 10904.00 11403.60 104.00
716 6.3900 11066.00 11415.60 105.00
717 6.3960 10914.00 11427.70 104.00
718 6.4020 10987.00 11438.70 105.00
719 6.4080 11194.00 11450.70 106.00
720 6.4140 11105.00 11462.80 105.00
721 6.4200 10945.00 11474.80 105.00
722 6.4260 11044.00 11486.80 105.00
723 6.4320 11015.00 11498.90 105.00
724 6.4380 10961.00 11510.90 105.00
725 6.4440 11056.00 11522.90 105.00
726 6.4500 11175.00 11534.00 106.00
727 6.4560 11112.00 11546.00 105.00
728 6.4620 11143.00 11558.00 106.00
729 6.4680 11081.00 11570.10 105.00
730 6.4740 10866.00 11582.10 104.00
731 6.4800 11145.00 11594.10 106.00
732 6.4860 11260.00 11606.20 106.00
733 6.4920 11169.00 11618.20 106.00
734 6.4980 11267.00 11628.20 106.00
735 6.5040 11379.00 11630.20 107.00
736 6.5100 11380.00 11632.30 107.00
737 6.5160 11353.00 11634.30 107.00
738 6.5220 11334.00 11635.40 106.00
739 6.5280 11328.00 11637.50 106.00
740 6.5340 11352.00 11639.60 107.00
741 6.5400 11326.00 11640.70 106.00
742 6.5460 11343.00 11642.80 107.00
743 6.5520 11232.00 11643.90 106.00
744 6.5580 11511.00 11646.00 107.00
745 6.5640 11529.00 11648.10 107.00
746 6.5700 11532.00 11649.30 107.00
747 6.5760 11769.00 11651.50 108.00
748 6.5820 12093.00 11653.70 110.00
749 6.5880 13555.00 11654.90 116.00
750 6.5940 15771.00 11657.10 126.00
751 6.6000 17441.00 11658.40 132.00
752 6.6060 17191.00 11660.80 131.00
753 6.6120 15687.00 11663.20 125.00
754 6.6180 13926.00 11664.60 118.00
755 6.6240 12871.00 11667.20 113.00
756 6.6300 12245.00 11669.80 111.00
757 6.6360 11875.00 11671.60 109.00
758 6.6420 11556.00 11674.60 107.00
759 6.6480 11547.00 11677.80 107.00
760 6.6540 11666.00 11680.40 108.00
761 6.6600 11411.00 11684.40 107.00
762 6.6660 11219.00 11688.10 106.00
763 6.6720 11414.00 11693.90 107.00
764 6.6780 11311.00 11701.80 106.00
765 6.6840 11199.00 11714.40 106.00
766 6.6900 11297.00 11743.90 106.00
767 6.6960 11309.00 11811.20 106.00
768 6.7020 11349.00 11943.80 107.00
769 6.7080 11403.00 12149.30 107.00
770 6.7140 11539.00 12366.70 107.00
771 6.7200 11552.00 12462.20 107.00
772 6.7260 11487.00 12348.70 107.00
773 6.7320 11464.00 12128.90 107.00
774 6.7380 11425.00 11934.40 107.00
775 6.7440 11470.00 11813.70 107.00
776 6.7500 11720.00 11755.30 108.00
777 6.7560 11583.00 11732.60 108.00
778 6.7620 11470.00 11723.00 107.00
779 6.7680 11461.00 11719.50 107.00
780 6.7740 11583.00 11717.90 108.00
781 6.7800 11421.00 11716.30 107.00
782 6.7860 11440.00 11716.30 107.00
783 6.7920 11580.00 11716.80 108.00
784 6.7980 11614.00 11716.60 108.00
785 6.8040 11805.00 11717.70 109.00
786 6.8100 11968.00 11718.90 109.00
787 6.8160 12095.00 11719.20 110.00
788 6.8220 12015.00 11720.70 110.00
789 6.8280 11805.00 11721.30 109.00
790 6.8340 11880.00 11722.90 109.00
791 6.8400 11530.00 11724.60 107.00
792 6.8460 11548.00 11725.30 107.00
793 6.8520 11657.00 11727.10 108.00
794 6.8580 11607.00 11728.80 108.00
795 6.8640 11709.00 11729.70 108.00
796 6.8700 11787.00 11731.50 109.00
797 6.8760 12000.00 11732.30 110.00
798 6.8820 12499.00 11734.20 112.00
799 6.8880 12721.00 11736.10 113.00
800 6.8940 13154.00 11737.00 115.00
801 6.9000 12864.00 11738.90 113.00
802 6.9060 12320.00 11740.80 111.00
803 6.9120 11897.00 11741.80 109.00
804 6.9180 11712.00 11743.70 108.00
805 6.9240 11657.00 11745.60 108.00
806 6.9300 11675.00 11746.60 108.00
807 6.9360 11572.00 11748.50 108.00
808 6.9420 11438.00 11748.60 107.00
809 6.9480 11697.00 11750.60 108.00
810 6.9540 11646.00 11752.60 108.00
811 6.9600 11606.00 11753.60 108.00
812 6.9660 11526.00 11755.60 107.00
813 6.9720 11576.00 11757.60 108.00
814 6.9780 11578.00 11758.60 108.00
815 6.9840 11574.00 11760.60 108.00
816 6.9900 11401.00 11761.60 107.00
817 6.9960 11436.00 11763.60 107.00
818 7.0020 11366.00 11765.60 107.00
819 7.0080 11667.00 11766.60 108.00
820 7.0140 11715.00 11768.60 108.00
821 7.0200 11522.00 11770.60 107.00
822 7.0260 11485.00 11771.60 107.00
823 7.0320 11404.00 11773.60 107.00
824 7.0380 11273.00 11775.60 106.00
825 7.0440 11208.00 11776.60 106.00
826 7.0500 11637.00 11778.60 108.00
827 7.0560 11536.00 11779.60 107.00
828 7.0620 11450.00 11781.70 107.00
829 7.0680 11782.00 11783.70 109.00
830 7.0740 11608.00 11784.70 108.00
831 7.0800 11596.00 11786.70 108.00
832 7.0860 11617.00 11788.70 108.00
833 7.0920 11806.00 11789.70 109.00
834 7.0980 11603.00 11791.70 108.00
835 7.1040 11652.00 11792.70 108.00
836 7.1100 11815.00 11794.70 109.00
837 7.1160 11702.00 11796.70 108.00
838 7.1220 11656.00 11797.70 108.00
839 7.1280 11688.00 11799.70 108.00
840 7.1340 11666.00 11801.70 108.00
841 7.1400 11655.00 11802.70 108.00
842 7.1460 11748.00 11804.70 108.00
843 7.1520 11601.00 11805.70 108.00
844 7.1580 11316.00 11807.70 106.00
845 7.1640 11800.00 11809.70 109.00
846 7.1700 11548.00 11810.70 107.00
847 7.1760 11581.00 11812.70 108.00
848 7.1820 11702.00 11814.70 108.00
849 7.1880 11336.00 11815.70 106.00
850 7.1940 11592.00 11811.70 108.00
851 7.2000 11664.00 11805.70 108.00
852 7.2060 11515.00 11800.70 107.00
853 7.2120 11659.00 11794.70 108.00
854 7.2180 11535.00 11789.70 107.00
855 7.2240 11412.00 11783.70 107.00
856 7.2300 11590.00 11778.60 108.00
857 7.2360 11283.00 11772.60 106.00
858 7.2420 11485.00 11767.60 107.00
859 7.2480 11515.00 11761.80 107.00
860 7.2540 11606.00 11756.80 108.00
861 7.2600 11585.00 11751.50 108.00
862 7.2660 11488.00 11745.60 107.00
863 7.2720 11436.00 11740.60 107.00
864 7.2780 11704.00 11734.70 108.00
865 7.2840 11664.00 11729.70 108.00
866 7.2900 11453.00 11723.80 107.00
867 7.2960 11553.00 11718.80 107.00
868 7.3020 11675.00 11712.90 108.00
869 7.3080 11742.00 11708.00 108.00
870 7.3140 11589.00 11702.10 108.00
871 7.3200 11893.00 11697.20 109.00
872 7.3260 11686.00 11691.30 108.00
873 7.3320 11701.00 11685.50 108.00
874 7.3380 11625.00 11680.60 108.00
875 7.3440 11715.00 11674.80 108.00
876 7.3500 11451.00 11670.00 107.00
877 7.3560 11553.00 11664.20 107.00
878 7.3620 11479.00 11659.50 107.00
879 7.3680 11295.00 11653.80 106.00
880 7.3740 11277.00 11649.20 106.00
881 7.3800 11408.00 11643.70 107.00
882 7.3860 11528.00 11639.20 107.00
883 7.3920 11120.00 11633.80 105.00
884 7.3980 11605.00 11629.60 108.00
885 7.4040 11466.00 11624.60 107.00
886 7.4100 11384.00 11619.80 107.00
887 7.4160 11276.00 11616.30 106.00
888 7.4220 11653.00 11612.30 108.00
889 7.4280 11380.00 11610.00 107.00
890 7.4340 11281.00 11607.80 106.00
891 7.4400 11497.00 11609.10 107.00
892 7.4460 11694.00 11615.50 108.00
893 7.4520 11536.00 11637.20 107.00
894 7.4580 11256.00 11686.90 106.00
895 7.4640 11666.00 11783.20 108.00
896 7.4700 11563.00 11927.40 108.00
897 7.4760 11840.00 12088.30 109.00
898 7.4820 11802.00 12192.80 109.00
899 7.4880 11620.00 12165.90 108.00
900 7.4940 11741.00 12014.50 108.00
901 7.5000 11464.00 11832.40 107.00
902 7.5060 11623.00 11690.70 108.00
903 7.5120 11412.00 11603.50 107.00
904 7.5180 11347.00 11558.80 107.00
905 7.5240 11442.00 11535.30 107.00
906 7.5300 11272.00 11522.10 106.00
907 7.5360 11320.00 11511.40 106.00
908 7.5420 11388.00 11503.30 107.00
909 7.5480 11364.00 11495.00 107.00
910 7.5540 11410.00 11487.20 107.00
911 7.5600 11679.00 11480.80 108.00
912 7.5660 11792.00 11473.70 109.00
913 7.5720 12374.00 11467.80 111.00
914 7.5780 12681.00 11461.00 113.00
915 7.5840 12635.00 11455.40 112.00
916 7.5900 12312.00 11448.90 111.00
917 7.5960 11622.00 11443.50 108.00
918 7.6020 11616.00 11437.10 108.00
919 7.6080 11380.00 11431.70 107.00
920 7.6140 10980.00 11425.50 105.00
921 7.6200 11014.00 11420.20 105.00
922 7.6260 11149.00 11414.00 106.00
923 7.6320 11462.00 11407.80 107.00
924 7.6380 11113.00 11402.60 105.00
925 7.6440 11338.00 11396.40 106.00
926 7.6500 11238.00 11391.30 106.00
927 7.6560 11488.00 11385.20 107.00
928 7.6620 11608.00 11380.00 108.00
929 7.6680 11693.00 11373.90 108.00
930 7.6740 11627.00 11368.80 108.00
931 7.6800 11682.00 11362.70 108.00
932 7.6860 11679.00 11357.60 108.00
933 7.6920 11363.00 11351.60 107.00
934 7.6980 11476.00 11346.50 107.00
935 7.7040 11073.00 11340.40 105.00
936 7.7100 10876.00 11334.20 104.00
937 7.7160 10959.00 11329.10 105.00
938 7.7220 10881.00 11322.40 104.00
939 7.7280 10917.00 11317.40 104.00
940 7.7340 11031.00 11311.30 105.00
941 7.7400 11187.00 11306.30 106.00
942 7.7460 10771.00 11300.30 104.00
943 7.7520 10678.00 11295.30 103.00
944 7.7580 10849.00 11289.30 104.00
945 7.7640 10743.00 11284.30 104.00
946 7.7700 10815.00 11278.30 104.00
947 7.7760 10691.00 11272.20 103.00
948 7.7820 10653.00 11267.20 103.00
949 7.7880 10778.00 11261.20 104.00
950 7.7940 10751.00 11256.20 104.00
951 7.8000 10612.00 11250.20 103.00
952 7.8060 10864.00 11242.20 104.00
953 7.8120 10845.00 11233.10 104.00
954 7.8180 10822.00 11224.10 104.00
955 7.8240 10562.00 11215.10 103.00
956 7.8300 10452.00 11207.10 102.00
957 7.8360 10562.00 11198.00 103.00
958 7.8420 10582.00 11189.00 103.00
959 7.8480 10469.00 11180.00 102.00
960 7.8540 10667.00 11172.00 103.00
961 7.8600 10674.00 11162.90 103.00
962 7.8660 10459.00 11153.90 102.00
963 7.8720 10645.00 11144.90 103.00
964 7.8780 10669.00 11136.90 103.00
965 7.8840 10707.00 11127.80 103.00
966 7.8900 10659.00 11118.80 103.00
967 7.8960 10605.00 11109.80 103.00
968 7.9020 10617.00 11101.80 103.00
969 7.9080 10841.00 11092.70 104.00
970 7.9140 10637.00 11083.70 103.00
971 7.9200 10773.00 11074.70 104.00
972 7.9260 10678.00 11066.70 103.00
973 7.9320 10602.00 11057.60 103.00
974 7.9380 10697.00 11048.60 103.00
975 7.9440 10557.00 11039.60 103.00
976 7.9500 10620.00 11031.60 103.00
977 7.9560 10608.00 11022.50 103.00
978 7.9620 10578.00 11013.50 103.00
979 7.9680 10848.00 11004.50 104.00
980 7.9740 10669.00 10996.50 103.00
981 7.9800 10658.00 10987.50 103.00
982 7.9860 10728.00 10978.40 104.00
983 7.9920 10576.00 10969.40 103.00
984 7.9980 10700.00 10961.40 103.00
985 8.0040 10799.00 10952.40 104.00
986 8.0100 10611.00 10943.30 103.00
987 8.0160 10531.00 10934.30 103.00
988 8.0220 10723.00 10926.30 104.00
989 8.0280 10686.00 10917.30 103.00
990 8.0340 10649.00 10908.20 103.00
991 8.0400 10620.00 10899.20 103.00
992 8.0460 10896.00 10891.20 104.00
993 8.0520 11169.00 10882.20 106.00
994 8.0580 11290.00 10873.10 106.00
995 8.0640 11341.00 10864.10 106.00
996 8.0700 12019.00 10856.10 110.00
997 8.0760 12963.00 10847.10 114.00
998 8.0820 14149.00 10838.00 119.00
999 8.0880 15821.00 10829.00 126.00
1000 8.0940 16576.00 10821.00 129.00
1001 8.1000 16149.00 10812.00 127.00
1002 8.1060 14890.00 10802.90 122.00
1003 8.1120 13474.00 10793.90 116.00
1004 8.1180 13387.00 10785.90 116.00
1005 8.1240 14495.00 10776.90 120.00
1006 8.1300 16286.00 10767.80 128.00
1007 8.1360 18408.00 10758.80 136.00
1008 8.1420 19289.00 10750.80 139.00
1009 8.1480 18114.00 10741.80 135.00
1010 8.1540 15773.00 10732.70 126.00
1011 8.1600 13902.00 10723.70 118.00
1012 8.1660 12742.00 10715.70 113.00
1013 8.1720 12101.00 10706.70 110.00
1014 8.1780 11393.00 10697.60 107.00
1015 8.1840 11117.00 11232.50 105.00
1016 8.1900 11004.00 11860.40 105.00
1017 8.1960 10980.00 11912.80 105.00
1018 8.2020 11067.00 11970.00 105.00
1019 8.2080 10972.00 12032.80 105.00
1020 8.2140 10916.00 12102.60 104.00
1021 8.2200 11124.00 12178.20 105.00
1022 8.2260 11171.00 12261.30 106.00
1023 8.2320 10996.00 12353.00 105.00
1024 8.2380 11014.00 12455.20 105.00
1025 8.2440 11135.00 12567.30 106.00
1026 8.2500 11212.00 12691.70 106.00
1027 8.2560 11451.00 12830.10 107.00
1028 8.2620 11450.00 12985.60 107.00
1029 8.2680 11629.00 13158.50 108.00
1030 8.2740 11861.00 13352.80 109.00
1031 8.2800 11990.00 13571.90 109.00
1032 8.2860 12246.00 13821.20 111.00
1033 8.2920 12381.00 14103.50 111.00
1034 8.2980 12466.00 14426.30 112.00
1035 8.3040 12794.00 14797.30 113.00
1036 8.3100 13092.00 15227.50 114.00
1037 8.3160 13484.00 15727.10 116.00
1038 8.3220 13979.00 16313.20 118.00
1039 8.3280 14418.00 17006.10 120.00
1040 8.3340 14863.00 17834.00 122.00
1041 8.3400 15207.00 18831.10 123.00
1042 8.3460 15644.00 20047.20 125.00
1043 8.3520 16607.00 21550.50 129.00
1044 8.3580 18022.00 23437.40 134.00
1045 8.3640 20119.00 25848.90 142.00
1046 8.3700 22805.00 29019.40 151.00
1047 8.3760 26393.00 33424.30 162.00
1048 8.3820 32165.00 40263.70 179.00
1049 8.3880 40886.00 52743.00 202.00
1050 8.3940 57637.00 78416.80 240.00
1051 8.4000 94799.00 131130.00 308.00
1052 8.4060 178033.00 228394.00 422.00
1053 8.4120 334678.00 379372.00 579.00
1054 8.4180 549083.00 564467.00 741.00
1055 8.4240 721934.00 718317.00 850.00
1056 8.4300 754733.00 761990.00 869.00
1057 8.4360 643209.00 670114.00 802.00
1058 8.4420 465248.00 492702.00 682.00
1059 8.4480 303743.00 314718.00 551.00
1060 8.4540 191011.00 183846.00 437.00
1061 8.4600 121447.00 105758.00 348.00
1062 8.4660 80130.00 65733.40 283.00
1063 8.4720 56748.00 46610.40 238.00
1064 8.4780 42552.00 36986.20 206.00
1065 8.4840 34210.00 31336.10 185.00
1066 8.4900 28419.00 27488.70 169.00
1067 8.4960 23971.00 24635.50 155.00
1068 8.5020 21169.00 22434.20 145.00
1069 8.5080 19169.00 20693.60 138.00
1070 8.5140 17763.00 19294.30 133.00
1071 8.5200 16680.00 18152.40 129.00
1072 8.5260 15886.00 17209.80 126.00
1073 8.5320 15016.00 16420.80 123.00
1074 8.5380 14145.00 15754.20 119.00
1075 8.5440 13576.00 15186.00 117.00
1076 8.5500 13157.00 14698.40 115.00
1077 8.5560 12991.00 14275.10 114.00
1078 8.5620 12726.00 13905.80 113.00
1079 8.5680 12485.00 13581.60 112.00
1080 8.5740 12247.00 13296.20 111.00
1081 8.5800 11908.00 13041.80 109.00
1082 8.5860 11708.00 12814.70 108.00
1083 8.5920 11501.00 12611.10 107.00
1084 8.5980 11220.00 12428.60 106.00
1085 8.6040 10978.00 12262.50 105.00
1086 8.6100 10824.00 12111.80 104.00
1087 8.6160 10793.00 11974.30 104.00
1088 8.6220 10683.00 11849.60 103.00
1089 8.6280 10619.00 11734.10 103.00
1090 8.6340 10501.00 11627.90 102.00
1091 8.6400 10556.00 11530.70 103.00
1092 8.6460 10508.00 11439.80 103.00
1093 8.6520 10289.00 11355.40 101.00
1094 8.6580 10297.00 11276.80 101.00
1095 8.6640 10219.00 11204.40 101.00
1096 8.6700 10312.00 10618.40 102.00
1097 8.6760 10223.00 10578.30 101.00
1098 8.6820 10169.00 9960.61 101.00
1099 8.6880 10370.00 9952.58 102.00
1100 8.6940 10160.00 9943.56 101.00
1101 8.7000 10184.00 9934.53 101.00
1102 8.7060 9957.00 9925.51 100.00
1103 8.7120 9826.00 10223.40 99.00
1104 8.7180 9940.00 10229.50 100.00
1105 8.7240 9824.00 10236.70 99.00
1106 8.7300 9747.00 10245.10 99.00
1107 8.7360 9728.00 10256.00 99.00
1108 8.7420 10087.00 10265.30 100.00
1109 8.7480 10280.00 10266.40 101.00
1110 8.7540 10545.00 10270.40 103.00
1111 8.7600 10433.00 10275.50 102.00
1112 8.7660 10252.00 10284.00 101.00
1113 8.7720 10042.00 10294.20 100.00
1114 8.7780 10027.00 10308.50 100.00
1115 8.7840 9841.00 10325.30 99.00
1116 8.7900 9778.00 10346.90 99.00
1117 8.7960 9880.00 10372.10 99.00
1118 8.8020 10054.00 10403.50 100.00
1119 8.8080 9963.00 10439.90 100.00
1120 8.8140 10072.00 10484.20 100.00
1121 8.8200 10273.00 10535.60 101.00
1122 8.8260 10360.00 10597.60 102.00
1123 8.8320 10356.00 10669.80 102.00
1124 8.8380 10296.00 10756.40 101.00
1125 8.8440 10358.00 10858.20 102.00
1126 8.8500 10430.00 10980.40 102.00
1127 8.8560 10405.00 11125.40 102.00
1128 8.8620 10632.00 11300.80 103.00
1129 8.8680 10807.00 11511.90 104.00
1130 8.8740 10961.00 11770.30 105.00
1131 8.8800 10909.00 12087.00 104.00
1132 8.8860 11428.00 12481.00 107.00
1133 8.8920 11811.00 12978.60 109.00
1134 8.8980 12187.00 13613.70 110.00
1135 8.9040 13318.00 14445.80 115.00
1136 8.9100 14352.00 15578.80 120.00
1137 8.9160 16019.00 17266.40 127.00
1138 8.9220 18888.00 20181.80 137.00
1139 8.9280 24555.00 26022.80 157.00
1140 8.9340 33578.00 38217.40 183.00
1141 8.9400 54529.00 61745.30 234.00
1142 8.9460 94536.00 100433.00 307.00
1143 8.9520 149706.00 151625.00 387.00
1144 8.9580 199093.00 200523.00 446.00
1145 8.9640 210905.00 219794.00 459.00
1146 8.9700 175484.00 194098.00 419.00
1147 8.9760 123702.00 143241.00 352.00
1148 8.9820 79083.00 93328.90 281.00
1149 8.9880 51022.00 57007.20 226.00
1150 8.9940 35192.00 35514.20 188.00
1151 9.0000 26796.00 24563.80 164.00
1152 9.0060 22853.00 19309.50 151.00
1153 9.0120 21838.00 16618.30 148.00
1154 9.0180 20921.00 15003.60 145.00
1155 9.0240 18708.00 13886.80 137.00
1156 9.0300 16145.00 13049.10 127.00
1157 9.0360 14255.00 12397.20 119.00
1158 9.0420 13670.00 11876.50 117.00
1159 9.0480 13001.00 11454.70 114.00
1160 9.0540 12229.00 11106.10 111.00
1161 9.0600 11338.00 10815.40 106.00
1162 9.0660 10772.00 10568.50 104.00
1163 9.0720 10373.00 10357.90 102.00
1164 9.0780 10124.00 10174.80 101.00
1165 9.0840 10137.00 10015.70 101.00
1166 9.0900 10131.00 9874.58 101.00
1167 9.0960 10426.00 9750.07 102.00
1168 9.1020 10549.00 9637.59 103.00
1169 9.1080 10183.00 9537.10 101.00
1170 9.1140 9894.00 9444.90 99.00
1171 9.1200 9445.00 9360.61 97.00
1172 9.1260 9159.00 9284.12 96.00
1173 9.1320 9173.00 9212.47 96.00
1174 9.1380 9042.00 9146.90 95.00
1175 9.1440 8984.00 9084.74 95.00
1176 9.1500 8917.00 9027.46 94.00
1177 9.1560 8910.00 8972.56 94.00
1178 9.1620 8946.00 8921.67 95.00
1179 9.1680 9021.00 8872.42 95.00
1180 9.1740 9089.00 8826.54 95.00
1181 9.1800 9125.00 8781.75 96.00
1182 9.1860 9279.00 8739.85 96.00
1183 9.1920 9321.00 8698.64 97.00
1184 9.1980 9271.00 8659.95 96.00
1185 9.2040 9155.00 8621.62 96.00
1186 9.2100 8904.00 8585.53 94.00
1187 9.2160 8685.00 8245.85 93.00
1188 9.2220 8633.00 8225.80 93.00
1189 9.2280 8609.00 8204.74 93.00
1190 9.2340 8492.00 8184.68 92.00
1191 9.2400 8428.00 8163.63 92.00
1192 9.2460 8364.00 8143.57 91.00
1193 9.2520 8334.00 8122.51 91.00
1194 9.2580 8409.00 8102.46 92.00
1195 9.2640 8526.00 8081.40 92.00
1196 9.2700 8513.00 8061.34 92.00
1197 9.2760 8467.00 8040.28 92.00
1198 9.2820 8431.00 8020.23 92.00
1199 9.2880 8414.00 7999.17 92.00
1200 9.2940 8355.00 7979.11 91.00
1201 9.3000 8284.00 7958.06 91.00
1202 9.3060 8250.00 7938.00 91.00
1203 9.3120 8351.00 7916.94 91.00
1204 9.3180 8355.00 7896.89 91.00
1205 9.3240 8233.00 7875.83 91.00
1206 9.3300 8248.00 7855.77 91.00
1207 9.3360 8208.00 7834.71 91.00
1208 9.3420 8145.00 7813.66 90.00
1209 9.3480 8107.00 7793.60 90.00
1210 9.3540 8100.00 7772.54 90.00
1211 9.3600 8227.00 7752.49 91.00
1212 9.3660 8117.00 7731.43 90.00
1213 9.3720 8057.00 7711.37 90.00
1214 9.3780 8221.00 7690.31 91.00
1215 9.3840 8217.00 7695.33 91.00
1216 9.3900 8100.00 7700.34 90.00
1217 9.3960 7998.00 7704.35 89.00
1218 9.4020 8117.00 7709.37 90.00
1219 9.4080 8164.00 7714.38 90.00
1220 9.4140 8119.00 7718.39 90.00
1221 9.4200 8208.00 7723.41 91.00
1222 9.4260 8276.00 7728.42 91.00
1223 9.4320 8226.00 7732.43 91.00
1224 9.4380 8171.00 7737.44 90.00
1225 9.4440 8161.00 7742.46 90.00
1226 9.4500 7986.00 7746.47 89.00
1227 9.4560 8001.00 7751.48 89.00
1228 9.4620 8120.00 7756.50 90.00
1229 9.4680 8085.00 7760.51 90.00
1230 9.4740 8208.00 7765.52 91.00
1231 9.4800 8368.00 7770.54 91.00
1232 9.4860 8232.00 7774.55 91.00
1233 9.4920 8222.00 7779.56 91.00
1234 9.4980 8274.00 7784.58 91.00
1235 9.5040 8623.00 7788.59 93.00
1236 9.5100 9177.00 7793.60 96.00
1237 9.5160 10063.00 7798.61 100.00
1238 9.5220 10991.00 7802.63 105.00
1239 9.5280 11969.00 7807.64 109.00
1240 9.5340 13271.00 7812.65 115.00
1241 9.5400 13940.00 7936.32 118.00
1242 9.5460 13730.00 7946.94 117.00
1243 9.5520 12412.00 8055.03 111.00
1244 9.5580 10943.00 8070.09 105.00
1245 9.5640 9809.00 8086.99 99.00
1246 9.5700 9145.00 8104.79 96.00
1247 9.5760 8558.00 8122.58 93.00
1248 9.5820 8423.00 8142.49 92.00
1249 9.5880 8321.00 8163.62 91.00
1250 9.5940 8165.00 8185.12 90.00
1251 9.6000 8257.00 8209.14 91.00
1252 9.6060 8359.00 8234.87 91.00
1253 9.6120 8388.00 8261.52 92.00
1254 9.6180 8293.00 8291.33 91.00
1255 9.6240 8269.00 8323.58 91.00
1256 9.6300 8302.00 8357.62 91.00
1257 9.6360 8353.00 8395.81 91.00
1258 9.6420 8382.00 8437.64 92.00
1259 9.6480 8600.00 8482.63 93.00
1260 9.6540 8563.00 8533.46 93.00
1261 9.6600 8541.00 8589.89 92.00
1262 9.6660 8616.00 8651.88 93.00
1263 9.6720 8816.00 8722.60 94.00
1264 9.6780 8985.00 8802.48 95.00
1265 9.6840 9441.00 8892.26 97.00
1266 9.6900 9545.00 8996.19 98.00
1267 9.6960 9958.00 9116.08 100.00
1268 9.7020 11008.00 9254.50 105.00
1269 9.7080 11986.00 9418.14 109.00
1270 9.7140 13309.00 9612.12 115.00
1271 9.7200 13196.00 9843.58 115.00
1272 9.7260 12475.00 10125.60 112.00
1273 9.7320 11801.00 10472.40 109.00
1274 9.7380 11362.00 10905.20 107.00
1275 9.7440 11534.00 11460.00 107.00
1276 9.7500 11770.00 12198.10 108.00
1277 9.7560 12423.00 13258.20 111.00
1278 9.7620 13791.00 14983.00 117.00
1279 9.7680 16274.00 18179.00 128.00
1280 9.7740 20195.00 24434.50 142.00
1281 9.7800 29170.00 36148.90 171.00
1282 9.7860 47148.00 55687.70 217.00
1283 9.7920 82335.00 83302.60 287.00
1284 9.7980 133098.00 114380.00 365.00
1285 9.8040 179216.00 137598.00 423.00
1286 9.8100 187277.00 140656.00 433.00
1287 9.8160 156656.00 122040.00 396.00
1288 9.8220 110471.00 91982.80 332.00
1289 9.8280 72950.00 62801.60 270.00
1290 9.8340 48319.00 41849.50 220.00
1291 9.8400 32590.00 28178.50 181.00
1292 9.8460 24867.00 20673.90 158.00
1293 9.8520 19845.00 16838.40 141.00
1294 9.8580 17094.00 14848.30 131.00
1295 9.8640 15523.00 13705.40 125.00
1296 9.8700 14124.00 12961.80 119.00
1297 9.8760 13267.00 12437.70 115.00
1298 9.8820 12623.00 12054.50 112.00
1299 9.8880 11781.00 11771.50 109.00
1300 9.8940 11669.00 11566.80 108.00
1301 9.9000 11491.00 11423.20 107.00
1302 9.9060 11491.00 11328.50 107.00
1303 9.9120 11658.00 11276.90 108.00
1304 9.9180 11676.00 11262.10 108.00
1305 9.9240 11523.00 11279.60 107.00
1306 9.9300 11313.00 11329.20 106.00
1307 9.9360 10858.00 11409.00 104.00
1308 9.9420 10455.00 11518.20 102.00
1309 9.9480 10555.00 11659.80 103.00
1310 9.9540 10375.00 11835.00 102.00
1311 9.9600 10312.00 12045.80 102.00
1312 9.9660 10297.00 12298.70 101.00
1313 9.9720 10399.00 12598.30 102.00
1314 9.9780 10661.00 12951.20 103.00
1315 9.9840 10958.00 13369.10 105.00
1316 9.9900 10735.00 13863.50 104.00
1317 9.9960 11184.00 14450.00 106.00
1318 10.0020 11639.00 15151.90 108.00
1319 10.0080 11982.00 15996.70 109.00
1320 10.0140 12711.00 17021.50 113.00
1321 10.0200 13669.00 18280.80 117.00
1322 10.0260 14735.00 19846.20 121.00
1323 10.0320 15953.00 21822.80 126.00
1324 10.0380 18773.00 24383.80 137.00
1325 10.0440 22351.00 27853.50 150.00
1326 10.0500 28574.00 32993.70 169.00
1327 10.0560 39394.00 41697.80 198.00
1328 10.0620 61231.00 58273.20 247.00
1329 10.0680 100596.00 90733.60 317.00
1330 10.0740 173305.00 150010.00 416.00
1331 10.0800 280181.00 244844.00 529.00
1332 10.0860 399005.00 371427.00 632.00
1333 10.0920 479682.00 501650.00 693.00
1334 10.0980 488847.00 577588.00 699.00
1335 10.1040 437576.00 547127.00 661.00
1336 10.1100 362727.00 433059.00 602.00
1337 10.1160 285167.00 299508.00 534.00
1338 10.1220 218901.00 188528.00 468.00
1339 10.1280 165674.00 113564.00 407.00
1340 10.1340 125326.00 70272.70 354.00
1341 10.1400 90146.00 47698.10 300.00
1342 10.1460 66169.00 36149.70 257.00
1343 10.1520 51256.00 29728.90 226.00
1344 10.1580 40261.00 25634.50 201.00
1345 10.1640 33093.00 22712.70 182.00
1346 10.1700 27921.00 20490.90 167.00
1347 10.1760 25144.00 18745.70 159.00
1348 10.1820 23231.00 17348.80 152.00
1349 10.1880 22061.00 16214.10 149.00
1350 10.1940 19819.00 15279.10 141.00
1351 10.2000 17726.00 14502.00 133.00
1352 10.2060 15500.00 13848.80 124.00
1353 10.2120 14406.00 13293.90 120.00
1354 10.2180 13319.00 12820.30 115.00
1355 10.2240 12813.00 12412.60 113.00
1356 10.2300 11943.00 12058.30 109.00
1357 10.2360 11704.00 11750.10 108.00
1358 10.2420 11189.00 11479.90 106.00
1359 10.2480 10663.00 11240.80 103.00
1360 10.2540 10713.00 11030.10 104.00
1361 10.2600 10350.00 10842.80 102.00
1362 10.2660 10297.00 10674.60 101.00
1363 10.2720 9977.00 10525.00 100.00
1364 10.2780 9810.00 10390.50 99.00
1365 10.2840 9816.00 10242.30 99.00
1366 10.2900 9587.00 10100.90 98.00
1367 10.2960 9431.00 9970.94 97.00
1368 10.3020 9330.00 9849.59 97.00
1369 10.3080 9408.00 9737.45 97.00
1370 10.3140 9709.00 9634.73 99.00
1371 10.3200 9880.00 9542.25 99.00
1372 10.3260 10395.00 9461.52 102.00
1373 10.3320 11856.00 9389.49 109.00
1374 10.3380 13485.00 9322.89 116.00
1375 10.3440 13859.00 9253.33 118.00
1376 10.3500 13511.00 9172.71 116.00
1377 10.3560 13012.00 9084.07 114.00
1378 10.3620 12719.00 8994.08 113.00
1379 10.3680 12013.00 8909.77 110.00
1380 10.3740 11316.00 7984.64 106.00
1381 10.3800 11023.00 7951.80 105.00
1382 10.3860 11212.00 7921.12 106.00
1383 10.3920 12299.00 7892.19 111.00
1384 10.3980 13361.00 7864.09 116.00
1385 10.4040 14758.00 7836.37 121.00
1386 10.4100 15287.00 7809.85 124.00
1387 10.4160 13781.00 7782.43 117.00
1388 10.4220 11799.00 7755.08 109.00
1389 10.4280 10107.00 7727.79 101.00
1390 10.4340 9175.00 7701.55 96.00
1391 10.4400 8526.00 7674.33 92.00
1392 10.4460 8373.00 7647.13 92.00
1393 10.4520 8457.00 7619.96 92.00
1394 10.4580 8209.00 7592.80 91.00
1395 10.4640 7900.00 7566.65 89.00
1396 10.4700 7916.00 7539.51 89.00
1397 10.4760 7736.00 7512.38 88.00
1398 10.4820 7708.00 7485.26 88.00
1399 10.4880 7775.00 7459.15 88.00
1400 10.4940 7531.00 7432.03 87.00
1401 10.5000 7537.00 7404.93 87.00
1402 10.5060 7615.00 7377.82 87.00
1403 10.5120 7697.00 7350.72 88.00
1404 10.5180 7691.00 7324.62 88.00
1405 10.5240 7693.00 7297.53 88.00
1406 10.5300 7516.00 7270.43 87.00
1407 10.5360 7442.00 7243.34 86.00
1408 10.5420 7508.00 7216.25 87.00
1409 10.5480 7394.00 7190.16 86.00
1410 10.5540 7301.00 7163.07 85.00
1411 10.5600 7501.00 7135.99 87.00
1412 10.5660 7531.00 7108.90 87.00
1413 10.5720 7501.00 7082.82 87.00
1414 10.5780 7539.00 7055.73 87.00
1415 10.5840 7500.00 7028.65 87.00
1416 10.5900 7292.00 7001.57 85.00
1417 10.5960 7261.00 6974.48 85.00
1418 10.6020 7211.00 6948.40 85.00
1419 10.6080 7080.00 6921.32 84.00
1420 10.6140 6900.00 6894.24 83.00
1421 10.6200 6989.00 6867.03 84.00
1422 10.6260 7005.00 6840.96 84.00
1423 10.6320 7102.00 6813.88 84.00
1424 10.6380 6950.00 6786.81 83.00
1425 10.6440 6765.00 6759.73 82.00
1426 10.6500 6849.00 6732.66 83.00
1427 10.6560 6812.00 6706.59 83.00
1428 10.6620 6914.00 6679.51 83.00
1429 10.6680 6794.00 6652.44 82.00
1430 10.6740 6744.00 6625.36 82.00
1431 10.6800 6774.00 6598.29 82.00
1432 10.6860 6760.00 6592.27 82.00
1433 10.6920 6645.00 6585.25 82.00
1434 10.6980 6614.00 6578.23 81.00
1435 10.7040 6681.00 6572.22 82.00
1436 10.7100 6646.00 6565.20 82.00
1437 10.7160 6714.00 6558.18 82.00
1438 10.7220 6649.00 6552.16 82.00
1439 10.7280 6590.00 6545.14 81.00
1440 10.7340 6599.00 6538.12 81.00
1441 10.7400 6659.00 6531.10 82.00
1442 10.7460 6633.00 6525.08 81.00
1443 10.7520 6665.00 6518.06 82.00
1444 10.7580 6666.00 6511.05 82.00
1445 10.7640 6750.00 6505.03 82.00
1446 10.7700 6734.00 6516.59 82.00
1447 10.7760 6697.00 6510.38 82.00
1448 10.7820 6690.00 6504.23 82.00
1449 10.7880 6797.00 6499.14 82.00
1450 10.7940 6867.00 6493.11 83.00
1451 10.8000 6924.00 6487.15 83.00
1452 10.8060 7264.00 6482.27 85.00
1453 10.8120 7771.00 6476.48 88.00
1454 10.8180 8754.00 6470.78 94.00
1455 10.8240 10053.00 6465.18 100.00
1456 10.8300 10700.00 6460.70 103.00
1457 10.8360 10271.00 6455.35 101.00
1458 10.8420 9364.00 6450.14 97.00
1459 10.8480 8732.00 6446.10 93.00
1460 10.8540 8517.00 6441.23 92.00
1461 10.8600 8997.00 6436.57 95.00
1462 10.8660 9602.00 6432.13 98.00
1463 10.8720 9860.00 6428.95 99.00
1464 10.8780 9492.00 6425.06 97.00
1465 10.8840 9010.00 6421.51 95.00
1466 10.8900 8183.00 6419.35 90.00
1467 10.8960 7396.00 6416.63 86.00
1468 10.9020 7124.00 6414.43 84.00
1469 10.9080 6937.00 6412.82 83.00
1470 10.9140 6805.00 6412.92 82.00
1471 10.9200 6867.00 6412.85 83.00
1472 10.9260 6883.00 6425.65 83.00
1473 10.9320 6794.00 6429.27 82.00
1474 10.9380 6619.00 6433.34 81.00
1475 10.9440 6487.00 6439.18 81.00
1476 10.9500 6547.00 6447.20 81.00
1477 10.9560 6589.00 6458.92 81.00
1478 10.9620 6477.00 6473.02 80.00
1479 10.9680 6490.00 6491.43 81.00
1480 10.9740 6555.00 6516.41 81.00
1481 10.9800 6484.00 6547.72 81.00
1482 10.9860 6445.00 6589.08 80.00
1483 10.9920 6530.00 6645.22 81.00
1484 10.9980 6627.00 6727.11 81.00
1485 11.0040 6779.00 6855.94 82.00
1486 11.0100 7123.00 7085.47 84.00
1487 11.0160 7547.00 7520.68 87.00
1488 11.0220 8355.00 8324.05 91.00
1489 11.0280 9992.00 9680.87 100.00
1490 11.0340 12274.00 11681.70 111.00
1491 11.0400 14614.00 14153.70 121.00
1492 11.0460 16269.00 16484.20 128.00
1493 11.0520 16291.00 17601.30 128.00
1494 11.0580 15037.00 16760.40 123.00
1495 11.0640 13485.00 14532.20 116.00
1496 11.0700 11923.00 12021.60 109.00
1497 11.0760 10397.00 9920.65 102.00
1498 11.0820 9325.00 8458.03 97.00
1499 11.0880 8641.00 7573.41 93.00
1500 11.0940 8115.00 7087.98 90.00
1501 11.1000 7897.00 6830.90 89.00
1502 11.1060 8099.00 6686.94 90.00
1503 11.1120 8724.00 6598.11 93.00
1504 11.1180 9763.00 6539.36 99.00
1505 11.1240 11075.00 6497.86 105.00
1506 11.1300 12538.00 6470.11 112.00
1507 11.1360 13589.00 6454.19 117.00
1508 11.1420 13570.00 6450.69 116.00
1509 11.1480 12058.00 6458.72 110.00
1510 11.1540 10095.00 6483.17 100.00
1511 11.1600 8705.00 6535.26 93.00
1512 11.1660 7985.00 6637.72 89.00
1513 11.1720 7649.00 6973.62 87.00
1514 11.1780 7791.00 7517.33 88.00
1515 11.1840 8305.00 8235.61 91.00
1516 11.1900 9214.00 9348.28 96.00
1517 11.1960 10905.00 10822.70 104.00
1518 11.2020 12535.00 12396.10 112.00
1519 11.2080 13343.00 13493.70 116.00
1520 11.2140 12871.00 13472.00 113.00
1521 11.2200 11404.00 12349.60 107.00
1522 11.2260 9898.00 10783.00 99.00
1523 11.2320 8762.00 9330.70 94.00
1524 11.2380 7923.00 8245.67 89.00
1525 11.2440 7406.00 7555.24 86.00
1526 11.2500 7090.00 7167.43 84.00
1527 11.2560 6841.00 6968.52 83.00
1528 11.2620 6861.00 6870.77 83.00
1529 11.2680 6892.00 6824.60 83.00
1530 11.2740 6922.00 6803.92 83.00
1531 11.2800 7065.00 6799.54 84.00
1532 11.2860 7092.00 6808.24 84.00
1533 11.2920 7099.00 6826.18 84.00
1534 11.2980 7113.00 6853.55 84.00
1535 11.3040 6981.00 6890.12 84.00
1536 11.3100 6840.00 6937.09 83.00
1537 11.3160 6895.00 6993.00 83.00
1538 11.3220 6923.00 7059.78 83.00
1539 11.3280 6840.00 7139.74 83.00
1540 11.3340 6872.00 7232.52 83.00
1541 11.3400 6995.00 7323.47 84.00
1542 11.3460 7180.00 7451.96 85.00
1543 11.3520 7301.00 7603.97 85.00
1544 11.3580 7432.00 7782.17 86.00
1545 11.3640 7820.00 7993.58 88.00
1546 11.3700 8106.00 8247.07 90.00
1547 11.3760 8271.00 8551.14 91.00
1548 11.3820 8581.00 8920.73 93.00
1549 11.3880 8840.00 9375.16 94.00
1550 11.3940 9190.00 9943.37 96.00
1551 11.4000 9696.00 10667.10 98.00
1552 11.4060 10438.00 11628.90 102.00
1553 11.4120 11507.00 13004.40 107.00
1554 11.4180 13268.00 15186.00 115.00
1555 11.4240 16120.00 19005.60 127.00
1556 11.4300 20861.00 25976.40 144.00
1557 11.4360 29277.00 38281.60 171.00
1558 11.4420 45290.00 58160.80 213.00
1559 11.4480 76914.00 86405.60 277.00
1560 11.4540 125694.00 120283.00 355.00
1561 11.4600 176636.00 151410.00 420.00
1562 11.4660 198283.00 166827.00 445.00
1563 11.4720 175408.00 158132.00 419.00
1564 11.4780 129870.00 130172.00 360.00
1565 11.4840 86427.00 95903.70 294.00
1566 11.4900 55064.00 65491.10 235.00
1567 11.4960 36204.00 43123.30 190.00
1568 11.5020 25679.00 28787.70 160.00
1569 11.5080 19538.00 20500.90 140.00
1570 11.5140 15479.00 15944.20 124.00
1571 11.5200 13128.00 13384.80 115.00
1572 11.5260 11709.00 11816.50 108.00
1573 11.5320 10526.00 10744.20 103.00
1574 11.5380 9596.00 9947.48 98.00
1575 11.5440 8826.00 9324.62 94.00
1576 11.5500 8286.00 8824.62 91.00
1577 11.5560 8002.00 8417.29 89.00
1578 11.5620 7641.00 8079.17 87.00
1579 11.5680 7278.00 7795.98 85.00
1580 11.5740 6979.00 7556.23 84.00
1581 11.5800 6815.00 7352.42 83.00
1582 11.5860 6685.00 7175.89 82.00
1583 11.5920 6524.00 7022.55 81.00
1584 11.5980 6439.00 6889.37 80.00
1585 11.6040 6380.00 6771.14 80.00
1586 11.6100 6271.00 6666.34 79.00
1587 11.6160 6171.00 6572.89 79.00
1588 11.6220 6153.00 6490.12 78.00
1589 11.6280 6176.00 6414.62 79.00
1590 11.6340 6044.00 6346.26 78.00
1591 11.6400 6070.00 6285.08 78.00
1592 11.6460 6113.00 6228.28 78.00
1593 11.6520 6156.00 6176.19 78.00
1594 11.6580 6211.00 6128.23 79.00
1595 11.6640 6193.00 6084.92 79.00
1596 11.6700 6300.00 6043.82 79.00
1597 11.6760 6397.00 6005.60 80.00
1598 11.6820 6513.00 5970.92 81.00
1599 11.6880 6820.00 5937.52 83.00
1600 11.6940 6756.00 5906.17 82.00
1601 11.7000 6543.00 5876.67 81.00
1602 11.7060 6298.00 5849.82 79.00
1603 11.7120 6132.00 5823.47 78.00
1604 11.7180 5974.00 5798.48 77.00
1605 11.7240 6027.00 5775.73 78.00
1606 11.7300 6242.00 5753.11 79.00
1607 11.7360 6630.00 5731.50 81.00
1608 11.7420 6918.00 5710.84 83.00
1609 11.7480 6944.00 5692.04 83.00
1610 11.7540 6745.00 5673.03 82.00
1611 11.7600 6551.00 5529.07 81.00
1612 11.7660 6177.00 5380.91 79.00
1613 11.7720 5987.00 5373.89 77.00
1614 11.7780 5982.00 5366.87 77.00
1615 11.7840 5820.00 5359.85 76.00
1616 11.7900 5697.00 5353.84 75.00
1617 11.7960 5686.00 5346.82 75.00
1618 11.8020 5716.00 5339.80 76.00
1619 11.8080 5641.00 5333.78 75.00
1620 11.8140 5560.00 5326.76 75.00
1621 11.8200 5494.00 5319.74 74.00
1622 11.8260 5507.00 5313.73 74.00
1623 11.8320 5478.00 5306.71 74.00
1624 11.8380 5437.00 5313.78 74.00
1625 11.8440 5492.00 5307.34 74.00
1626 11.8500 5580.00 5301.93 75.00
1627 11.8560 5505.00 5295.56 74.00
1628 11.8620 5502.00 5289.23 74.00
1629 11.8680 5523.00 5283.95 74.00
1630 11.8740 5467.00 5277.72 74.00
1631 11.8800 5443.00 5271.54 74.00
1632 11.8860 5504.00 5265.42 74.00
1633 11.8920 5436.00 5260.37 74.00
1634 11.8980 5246.00 5255.40 72.00
1635 11.9040 5352.00 5258.52 73.00
1636 11.9100 5382.00 5261.73 73.00
1637 11.9160 5380.00 5265.04 73.00
1638 11.9220 5433.00 5268.46 74.00
1639 11.9280 5526.00 5272.00 74.00
1640 11.9340 5468.00 5275.67 74.00
1641 11.9400 5432.00 5279.49 74.00
1642 11.9460 5487.00 5283.48 74.00
1643 11.9520 5403.00 5287.66 74.00
1644 11.9580 5407.00 5292.06 74.00
1645 11.9640 5512.00 5296.70 74.00
1646 11.9700 5562.00 5301.62 75.00
1647 11.9760 5567.00 5306.86 75.00
1648 11.9820 5587.00 5313.47 75.00
1649 11.9880 5780.00 5319.50 76.00
1650 11.9940 6142.00 5326.03 78.00
1651 12.0000 6492.00 5333.13 81.00
1652 12.0060 6763.00 5340.92 82.00
1653 12.0120 6899.00 5349.51 83.00
1654 12.0180 6593.00 5359.07 81.00
1655 12.0240 6050.00 5369.79 78.00
1656 12.0300 5914.00 5381.91 77.00
1657 12.0360 5955.00 5395.75 77.00
1658 12.0420 5656.00 5411.72 75.00
1659 12.0480 5608.00 5430.36 75.00
1660 12.0540 5593.00 5452.38 75.00
1661 12.0600 5498.00 5478.75 74.00
1662 12.0660 5623.00 5510.85 75.00
1663 12.0720 5674.00 5550.83 75.00
1664 12.0780 5513.00 5602.60 74.00
1665 12.0840 5641.00 5674.20 75.00
1666 12.0900 5775.00 5783.59 76.00
1667 12.0960 6042.00 5968.44 78.00
1668 12.1020 6574.00 6297.99 81.00
1669 12.1080 7298.00 6875.37 85.00
1670 12.1140 8575.00 7813.58 93.00
1671 12.1200 10744.00 9171.16 104.00
1672 12.1260 13610.00 10863.30 117.00
1673 12.1320 16370.00 12560.20 128.00
1674 12.1380 17627.00 13632.50 133.00
1675 12.1440 16660.00 13468.90 129.00
1676 12.1500 14858.00 12177.00 122.00
1677 12.1560 12778.00 10437.60 113.00
1678 12.1620 10910.00 8812.76 104.00
1679 12.1680 9697.00 7561.96 98.00
1680 12.1740 8760.00 6726.00 94.00
1681 12.1800 7857.00 6224.57 89.00
1682 12.1860 7245.00 5943.23 85.00
1683 12.1920 6819.00 5786.05 83.00
1684 12.1980 6442.00 5692.55 80.00
1685 12.2040 6326.00 5631.00 80.00
1686 12.2100 6158.00 5586.69 78.00
1687 12.2160 6244.00 5552.93 79.00
1688 12.2220 6576.00 5526.41 81.00
1689 12.2280 7297.00 5505.24 85.00
1690 12.2340 7634.00 5488.14 87.00
1691 12.2400 7438.00 5474.23 86.00
1692 12.2460 6934.00 5462.84 83.00
1693 12.2520 6416.00 5453.47 80.00
1694 12.2580 6143.00 5445.73 78.00
1695 12.2640 5784.00 5439.33 76.00
1696 12.2700 5726.00 5434.04 76.00
1697 12.2760 5628.00 5429.67 75.00
1698 12.2820 5615.00 5426.08 75.00
1699 12.2880 5632.00 5423.13 75.00
1700 12.2940 5682.00 5420.75 75.00
1701 12.3000 5721.00 5418.83 76.00
1702 12.3060 5785.00 5417.33 76.00
1703 12.3120 5718.00 5416.19 76.00
1704 12.3180 5762.00 5415.35 76.00
1705 12.3240 5582.00 5414.79 75.00
1706 12.3300 5469.00 5414.46 74.00
1707 12.3360 5339.00 5414.34 73.00
1708 12.3420 5359.00 5414.40 73.00
1709 12.3480 5304.00 5414.63 73.00
1710 12.3540 5378.00 5415.00 73.00
1711 12.3600 5331.00 5415.51 73.00
1712 12.3660 5354.00 5416.13 73.00
1713 12.3720 5412.00 5416.86 74.00
1714 12.3780 5376.00 5417.68 73.00
1715 12.3840 5416.00 5418.59 74.00
1716 12.3900 5465.00 5419.57 74.00
1717 12.3960 5436.00 5420.63 74.00
1718 12.4020 5563.00 5421.75 75.00
1719 12.4080 5610.00 5422.92 75.00
1720 12.4140 5434.00 5424.15 74.00
1721 12.4200 5384.00 5425.43 73.00
1722 12.4260 5313.00 5426.76 73.00
1723 12.4320 5371.00 5428.13 73.00
1724 12.4380 5348.00 5429.53 73.00
1725 12.4440 5539.00 5417.01 74.00
1726 12.4500 5530.00 5419.02 74.00
1727 12.4560 5415.00 5421.02 74.00
1728 12.4620 5572.00 5423.03 75.00
1729 12.4680 5532.00 5425.04 74.00
1730 12.4740 5525.00 5427.04 74.00
1731 12.4800 5668.00 5429.05 75.00
1732 12.4860 5734.00 5431.05 76.00
1733 12.4920 5867.00 5433.06 77.00
1734 12.4980 6040.00 5435.06 78.00
1735 12.5040 6113.00 5437.07 78.00
1736 12.5100 5997.00 5439.07 77.00
1737 12.5160 5863.00 5441.08 77.00
1738 12.5220 5561.00 5443.09 75.00
1739 12.5280 5476.00 5445.09 74.00
1740 12.5340 5474.00 5447.10 74.00
1741 12.5400 5446.00 5449.10 74.00
1742 12.5460 5258.00 5451.11 73.00
1743 12.5520 5517.00 5453.11 74.00
1744 12.5580 5562.00 5455.12 75.00
1745 12.5640 5621.00 5457.12 75.00
1746 12.5700 5888.00 5459.13 77.00
1747 12.5760 6192.00 5461.14 79.00
1748 12.5820 6620.00 5463.14 81.00
1749 12.5880 6621.00 5465.15 81.00
1750 12.5940 6498.00 5467.15 81.00
1751 12.6000 6181.00 5469.16 79.00
1752 12.6060 6341.00 5471.16 80.00
1753 12.6120 6583.00 5473.17 81.00
1754 12.6180 7156.00 5475.17 85.00
1755 12.6240 8199.00 5477.18 91.00
1756 12.6300 8905.00 5479.19 94.00
1757 12.6360 8962.00 5481.19 95.00
1758 12.6420 8443.00 5483.20 92.00
1759 12.6480 7429.00 5485.20 86.00
1760 12.6540 6532.00 5487.21 81.00
1761 12.6600 5972.00 5489.21 77.00
1762 12.6660 5774.00 5491.22 76.00
1763 12.6720 5461.00 5493.22 74.00
1764 12.6780 5391.00 5495.23 73.00
1765 12.6840 5303.00 5497.24 73.00
1766 12.6900 5292.00 5499.24 73.00
1767 12.6960 5296.00 5501.25 73.00
1768 12.7020 5180.00 5503.25 72.00
1769 12.7080 5343.00 5505.26 73.00
1770 12.7140 5328.00 5507.26 73.00
1771 12.7200 5349.00 5509.27 73.00
1772 12.7260 5237.00 5511.27 72.00
1773 12.7320 5282.00 5513.28 73.00
1774 12.7380 5108.00 5515.29 71.00
1775 12.7440 5173.00 5517.29 72.00
1776 12.7500 5257.00 5519.30 73.00
1777 12.7560 5140.00 5521.30 72.00
1778 12.7620 5198.00 5523.31 72.00
1779 12.7680 5049.00 5525.31 71.00
1780 12.7740 5089.00 5527.32 71.00
1781 12.7800 5194.00 5529.32 72.00
1782 12.7860 5225.00 5531.33 72.00
1783 12.7920 5179.00 5533.34 72.00
1784 12.7980 5259.00 5535.34 73.00
1785 12.8040 5163.00 5537.35 72.00
1786 12.8100 5225.00 5539.35 72.00
1787 12.8160 5153.00 5541.36 72.00
1788 12.8220 5474.00 5543.36 74.00
1789 12.8280 5399.00 5545.37 73.00
1790 12.8340 5297.00 5547.38 73.00
1791 12.8400 5410.00 5548.38 74.00
1792 12.8460 5288.00 5550.38 73.00
1793 12.8520 5215.00 5552.39 72.00
1794 12.8580 5085.00 5553.39 71.00
1795 12.8640 5274.00 5555.40 73.00
1796 12.8700 5233.00 5557.40 72.00
1797 12.8760 5313.00 5558.41 73.00
1798 12.8820 5347.00 5560.41 73.00
1799 12.8880 5395.00 5562.42 73.00
1800 12.8940 5607.00 5563.42 75.00
1801 12.9000 5713.00 5565.42 76.00
1802 12.9060 5796.00 5567.43 76.00
1803 12.9120 5863.00 5568.43 77.00
1804 12.9180 6043.00 5570.44 78.00
1805 12.9240 5927.00 5572.44 77.00
1806 12.9300 5560.00 5573.45 75.00
1807 12.9360 5536.00 5575.45 74.00
1808 12.9420 5530.00 5577.46 74.00
1809 12.9480 5508.00 5578.46 74.00
1810 12.9540 5366.00 5580.47 73.00
1811 12.9600 5372.00 5582.47 73.00
1812 12.9660 5300.00 5583.47 73.00
1813 12.9720 5264.00 5585.48 73.00
1814 12.9780 5316.00 5592.59 73.00
1815 12.9840 5388.00 5599.91 73.00
1816 12.9900 5364.00 5602.36 73.00
1817 12.9960 5342.00 5604.83 73.00
1818 13.0020 5363.00 5606.33 73.00
1819 13.0080 5273.00 5608.86 73.00
1820 13.0140 5220.00 5611.42 72.00
1821 13.0200 5242.00 5613.02 72.00
1822 13.0260 5348.00 5615.66 73.00
1823 13.0320 5186.00 5618.34 72.00
1824 13.0380 5199.00 5620.07 72.00
1825 13.0440 5336.00 5622.85 73.00
1826 13.0500 5329.00 5625.68 73.00
1827 13.0560 5235.00 5627.57 72.00
1828 13.0620 5304.00 5630.53 73.00
1829 13.0680 5294.00 5633.57 73.00
1830 13.0740 5307.00 5635.68 73.00
1831 13.0800 5156.00 5638.89 72.00
1832 13.0860 5279.00 5642.20 73.00
1833 13.0920 5181.00 5644.61 72.00
1834 13.0980 5241.00 5648.16 72.00
1835 13.1040 5229.00 5651.84 72.00
1836 13.1100 5244.00 5654.68 72.00
1837 13.1160 5407.00 5658.70 74.00
1838 13.1220 5259.00 5662.92 73.00
1839 13.1280 5251.00 5666.36 72.00
1840 13.1340 5382.00 5671.07 73.00
1841 13.1400 5399.00 5762.12 73.00
1842 13.1460 5436.00 5769.75 74.00
1843 13.1520 5468.00 5778.98 74.00
1844 13.1580 5343.00 5787.87 73.00
1845 13.1640 5475.00 5798.54 74.00
1846 13.1700 5516.00 5810.09 74.00
1847 13.1760 5727.00 5821.67 76.00
1848 13.1820 5837.00 5835.44 76.00
1849 13.1880 5951.00 5850.63 77.00
1850 13.1940 6098.00 6299.35 78.00
1851 13.2000 6379.00 6334.60 80.00
1852 13.2060 6197.00 6373.24 79.00
1853 13.2120 6117.00 6414.90 78.00
1854 13.2180 6018.00 6462.44 78.00
1855 13.2240 6003.00 6515.97 77.00
1856 13.2300 6135.00 6576.23 78.00
1857 13.2360 6191.00 6648.23 79.00
1858 13.2420 6332.00 6736.73 80.00
1859 13.2480 6418.00 6852.60 80.00
1860 13.2540 6508.00 7021.02 81.00
1861 13.2600 6505.00 7281.60 81.00
1862 13.2660 6753.00 7693.29 82.00
1863 13.2720 6896.00 8327.51 83.00
1864 13.2780 7398.00 9233.21 86.00
1865 13.2840 8440.00 10395.50 92.00
1866 13.2900 10137.00 11683.00 101.00
1867 13.2960 11588.00 12793.70 108.00
1868 13.3020 12115.00 13316.10 110.00
1869 13.3080 10969.00 13024.40 105.00
1870 13.3140 9527.00 12111.10 98.00
1871 13.3200 8435.00 10988.90 92.00
1872 13.3260 7657.00 9978.42 88.00
1873 13.3320 7407.00 9227.60 86.00
1874 13.3380 7335.00 8759.59 86.00
1875 13.3440 7203.00 8532.61 85.00
1876 13.3500 7274.00 8479.58 85.00
1877 13.3560 7374.00 8541.72 86.00
1878 13.3620 7569.00 8683.26 87.00
1879 13.3680 8111.00 8884.26 90.00
1880 13.3740 8523.00 9138.28 92.00
1881 13.3800 9144.00 9450.39 96.00
1882 13.3860 9372.00 9828.84 97.00
1883 13.3920 9308.00 10289.40 96.00
1884 13.3980 9498.00 10863.90 97.00
1885 13.4040 9850.00 11608.90 99.00
1886 13.4100 10571.00 12637.90 103.00
1887 13.4160 11712.00 14169.80 108.00
1888 13.4220 14048.00 16567.40 119.00
1889 13.4280 17526.00 20342.20 132.00
1890 13.4340 23717.00 26045.70 154.00
1891 13.4400 32772.00 34010.10 181.00
1892 13.4460 46403.00 44002.20 215.00
1893 13.4520 59537.00 54824.60 244.00
1894 13.4580 66628.00 64008.40 258.00
1895 13.4640 65340.00 68626.30 256.00
1896 13.4700 59038.00 68486.70 243.00
1897 13.4760 54380.00 67625.10 233.00
1898 13.4820 56870.00 71526.30 238.00
1899 13.4880 68189.00 84852.30 261.00
1900 13.4940 97427.00 110477.00 312.00
1901 13.5000 146841.00 148246.00 383.00
1902 13.5060 209505.00 193415.00 458.00
1903 13.5120 261115.00 234799.00 511.00
1904 13.5180 272332.00 255298.00 522.00
1905 13.5240 246884.00 242946.00 497.00
1906 13.5300 200799.00 204376.00 448.00
1907 13.5360 151977.00 156443.00 390.00
1908 13.5420 107693.00 111936.00 328.00
1909 13.5480 76939.00 76852.80 277.00
1910 13.5540 54738.00 52341.50 234.00
1911 13.5600 39777.00 36751.40 199.00
1912 13.5660 29185.00 27429.10 171.00
1913 13.5720 23121.00 21938.80 152.00
1914 13.5780 18548.00 18573.70 136.00
1915 13.5840 15954.00 16340.00 126.00
1916 13.5900 13754.00 14726.80 117.00
1917 13.5960 12343.00 13485.90 111.00
1918 13.6020 11282.00 12493.10 106.00
1919 13.6080 10350.00 11682.80 102.00
1920 13.6140 9668.00 11010.60 98.00
1921 13.6200 9100.00 10446.20 95.00
1922 13.6260 8760.00 9964.20 94.00
1923 13.6320 8260.00 9551.30 91.00
1924 13.6380 7818.00 9200.40 88.00
1925 13.6440 7530.00 8897.30 87.00
1926 13.6500 7586.00 8633.13 87.00
1927 13.6560 7317.00 8400.55 86.00
1928 13.6620 7133.00 8196.48 84.00
1929 13.6680 6905.00 8015.74 83.00
1930 13.6740 6931.00 7853.97 83.00
1931 13.6800 6687.00 7710.31 82.00
1932 13.6860 6631.00 7581.53 81.00
1933 13.6920 6506.00 7464.60 81.00
1934 13.6980 6317.00 7359.94 79.00
1935 13.7040 6310.00 7265.12 79.00
1936 13.7100 6298.00 7177.99 79.00
1937 13.7160 6172.00 7099.54 79.00
1938 13.7220 6206.00 7027.87 79.00
1939 13.7280 6041.00 6961.28 78.00
1940 13.7340 6126.00 6901.10 78.00
1941 13.7400 6114.00 6845.78 78.00
1942 13.7460 6074.00 6793.81 78.00
1943 13.7520 5898.00 6746.77 77.00
1944 13.7580 6023.00 6703.27 78.00
1945 13.7640 5947.00 6661.99 77.00
1946 13.7700 5932.00 6624.62 77.00
1947 13.7760 5942.00 6589.92 77.00
1948 13.7820 6046.00 6556.64 78.00
1949 13.7880 5993.00 6526.56 77.00
1950 13.7940 5891.00 6417.02 77.00
1951 13.8000 5944.00 6392.69 77.00
1952 13.8060 6074.00 6370.93 78.00
1953 13.8120 6044.00 6350.60 78.00
1954 13.8180 5872.00 6330.59 77.00
1955 13.8240 5864.00 6312.81 77.00
1956 13.8300 5946.00 6296.15 77.00
1957 13.8360 5762.00 6279.53 76.00
1958 13.8420 5886.00 6264.88 77.00
1959 13.8480 5856.00 5829.16 77.00
1960 13.8540 5868.00 5830.16 77.00
1961 13.8600 5771.00 5832.16 76.00
1962 13.8660 5720.00 5834.17 76.00
1963 13.8720 5903.00 5835.17 77.00
1964 13.8780 5827.00 5837.18 76.00
1965 13.8840 5875.00 5839.18 77.00
1966 13.8900 5738.00 5840.19 76.00
1967 13.8960 5753.00 5841.19 76.00
1968 13.9020 5703.00 5842.19 76.00
1969 13.9080 5703.00 5843.19 76.00
1970 13.9140 5780.00 5844.20 76.00
1971 13.9200 5721.00 5846.20 76.00
1972 13.9260 5723.00 5847.21 76.00
1973 13.9320 5788.00 5848.21 76.00
1974 13.9380 5924.00 5849.21 77.00
1975 13.9440 5939.00 5850.21 77.00
1976 13.9500 5840.00 5851.22 76.00
1977 13.9560 5864.00 6005.97 77.00
1978 13.9620 5824.00 6012.58 76.00
1979 13.9680 5943.00 6019.51 77.00
1980 13.9740 5907.00 6220.68 77.00
1981 13.9800 6096.00 6235.34 78.00
1982 13.9860 6270.00 6250.80 79.00
1983 13.9920 6295.00 6268.09 79.00
1984 13.9980 6359.00 6285.30 80.00
1985 14.0040 6398.00 6303.49 80.00
1986 14.0100 6359.00 6322.75 80.00
1987 14.0160 6403.00 6343.17 80.00
1988 14.0220 6508.00 6364.84 81.00
1989 14.0280 6706.00 6388.87 82.00
1990 14.0340 7225.00 6413.40 85.00
1991 14.0400 7825.00 6439.56 88.00
1992 14.0460 8092.00 6467.49 90.00
1993 14.0520 8071.00 6497.37 90.00
1994 14.0580 7774.00 6529.40 88.00
1995 14.0640 7441.00 6563.80 86.00
1996 14.0700 7004.00 6601.80 84.00
1997 14.0760 6666.00 6641.71 82.00
1998 14.0820 6396.00 6684.80 80.00
1999 14.0880 6256.00 6731.47 79.00
2000 14.0940 6139.00 6782.11 78.00
2001 14.1000 6134.00 6837.22 78.00
2002 14.1060 6238.00 6898.34 79.00
2003 14.1120 6240.00 6964.11 79.00
2004 14.1180 6203.00 7036.25 79.00
2005 14.1240 6214.00 7129.15 79.00
2006 14.1300 6318.00 7217.31 79.00
2007 14.1360 6360.00 7314.95 80.00
2008 14.1420 6408.00 7424.55 80.00
2009 14.1480 6424.00 7549.17 80.00
2010 14.1540 6492.00 7685.24 81.00
2011 14.1600 6624.00 7838.49 81.00
2012 14.1660 6788.00 8012.01 82.00
2013 14.1720 6961.00 8209.51 83.00
2014 14.1780 6985.00 8436.70 84.00
2015 14.1840 7179.00 8697.38 85.00
2016 14.1900 7502.00 8999.90 87.00
2017 14.1960 7868.00 9353.83 89.00
2018 14.2020 8176.00 9771.47 90.00
2019 14.2080 8505.00 10269.70 92.00
2020 14.2140 9064.00 10873.50 95.00
2021 14.2200 9775.00 11618.90 99.00
2022 14.2260 10815.00 12573.80 104.00
2023 14.2320 12530.00 13865.70 112.00
2024 14.2380 15157.00 15737.60 123.00
2025 14.2440 19027.00 18626.60 138.00
2026 14.2500 25394.00 23233.30 159.00
2027 14.2560 34461.00 30529.50 186.00
2028 14.2620 46971.00 41611.10 217.00
2029 14.2680 65956.00 57385.50 257.00
2030 14.2740 91572.00 78081.40 303.00
2031 14.2800 120752.00 102501.00 347.00
2032 14.2860 148574.00 127187.00 385.00
2033 14.2920 166880.00 147079.00 409.00
2034 14.2980 170155.00 159254.00 412.00
2035 14.3040 161912.00 163781.00 402.00
2036 14.3100 144843.00 159339.00 381.00
2037 14.3160 123834.00 143643.00 352.00
2038 14.3220 106095.00 119135.00 326.00
2039 14.3280 88845.00 92246.90 298.00
2040 14.3340 73726.00 68137.50 272.00
2041 14.3400 61634.00 49088.20 248.00
2042 14.3460 50879.00 35413.60 226.00
2043 14.3520 42313.00 26324.20 206.00
2044 14.3580 35320.00 20602.50 188.00
2045 14.3640 29258.00 17076.60 171.00
2046 14.3700 24886.00 14857.40 158.00
2047 14.3760 21178.00 13378.70 146.00
2048 14.3820 18047.00 12323.30 134.00
2049 14.3880 15745.00 11526.40 125.00
2050 14.3940 14092.00 10905.00 119.00
2051 14.4000 12782.00 10417.60 113.00
2052 14.4060 11870.00 10041.60 109.00
2053 14.4120 11267.00 9775.27 106.00
2054 14.4180 11005.00 9634.71 105.00
2055 14.4240 10991.00 9658.74 105.00
2056 14.4300 10968.00 9907.62 105.00
2057 14.4360 11305.00 10449.40 106.00
2058 14.4420 12008.00 11332.30 110.00
2059 14.4480 13006.00 12537.30 114.00
2060 14.4540 14159.00 13932.90 119.00
2061 14.4600 15196.00 15213.90 123.00
2062 14.4660 15941.00 15925.50 126.00
2063 14.4720 16079.00 15766.50 127.00
2064 14.4780 15524.00 14891.40 125.00
2065 14.4840 14546.00 13658.00 121.00
2066 14.4900 13406.00 12308.70 116.00
2067 14.4960 12582.00 10994.50 112.00
2068 14.5020 11899.00 9848.77 109.00
2069 14.5080 11185.00 8943.74 106.00
2070 14.5140 10807.00 8279.11 104.00
2071 14.5200 10715.00 7811.69 104.00
2072 14.5260 10603.00 7491.59 103.00
2073 14.5320 10520.00 7272.82 103.00
2074 14.5380 10358.00 7119.45 102.00
2075 14.5440 9904.00 7006.77 100.00
2076 14.5500 9174.00 6920.19 96.00
2077 14.5560 8425.00 6848.68 92.00
2078 14.5620 7783.00 6788.10 88.00
2079 14.5680 7301.00 6735.64 85.00
2080 14.5740 7108.00 6689.49 84.00
2081 14.5800 7008.00 6648.50 84.00
2082 14.5860 6940.00 6611.79 83.00
2083 14.5920 6840.00 6579.72 83.00
2084 14.5980 6714.00 6549.75 82.00
2085 14.6040 6746.00 6522.46 82.00
2086 14.6100 6725.00 6497.51 82.00
2087 14.6160 6676.00 6474.62 82.00
2088 14.6220 6549.00 6453.55 81.00
2089 14.6280 6646.00 6435.08 82.00
2090 14.6340 6756.00 6283.06 82.00
2091 14.6400 6733.00 6271.61 82.00
2092 14.6460 6655.00 6261.10 82.00
2093 14.6520 6720.00 6265.29 82.00
2094 14.6580 6781.00 6071.55 82.00
2095 14.6640 7019.00 6071.12 84.00
2096 14.6700 7178.00 6070.03 85.00
2097 14.6760 7132.00 6069.28 84.00
2098 14.6820 7244.00 6068.82 85.00
2099 14.6880 7208.00 6068.65 85.00
2100 14.6940 7115.00 6068.74 84.00
2101 14.7000 7042.00 6070.08 84.00
2102 14.7060 6936.00 6070.66 83.00
2103 14.7120 6744.00 6071.47 82.00
2104 14.7180 6709.00 6072.51 82.00
2105 14.7240 6902.00 6073.77 83.00
2106 14.7300 6877.00 6075.26 83.00
2107 14.7360 7264.00 6077.97 85.00
2108 14.7420 7631.00 6079.92 87.00
2109 14.7480 7982.00 6082.10 89.00
2110 14.7540 8172.00 6084.53 90.00
2111 14.7600 8394.00 6087.27 92.00
2112 14.7660 8539.00 6090.24 92.00
2113 14.7720 8563.00 6093.50 93.00
2114 14.7780 9154.00 6098.09 96.00
2115 14.7840 9794.00 6102.01 99.00
2116 14.7900 10651.00 6106.30 103.00
2117 14.7960 11696.00 6111.01 108.00
2118 14.8020 12505.00 6116.17 112.00
2119 14.8080 12743.00 6121.83 113.00
2120 14.8140 11383.00 6115.94 107.00
2121 14.8200 9850.00 6123.24 99.00
2122 14.8260 8524.00 6131.26 92.00
2123 14.8320 7837.00 6136.77 89.00
2124 14.8380 7456.00 6146.62 86.00
2125 14.8440 7186.00 6157.54 85.00
2126 14.8500 7000.00 6170.72 84.00
2127 14.8560 6869.00 6184.35 83.00
2128 14.8620 6968.00 6199.71 83.00
2129 14.8680 7349.00 6217.13 86.00
2130 14.8740 7772.00 6237.02 88.00
2131 14.8800 8394.00 6259.90 92.00
2132 14.8860 9052.00 6287.43 95.00
2133 14.8920 9277.00 6318.47 96.00
2134 14.8980 8704.00 6450.13 93.00
2135 14.9040 8160.00 6603.94 90.00
2136 14.9100 7722.00 6665.06 88.00
2137 14.9160 7433.00 6740.97 86.00
2138 14.9220 7324.00 6840.89 86.00
2139 14.9280 7481.00 6978.34 86.00
2140 14.9340 7823.00 7181.64 88.00
2141 14.9400 8427.00 7494.54 92.00
2142 14.9460 9222.00 7978.88 96.00
2143 14.9520 10367.00 8707.66 102.00
2144 14.9580 11548.00 9748.24 107.00
2145 14.9640 13684.00 11134.70 117.00
2146 14.9700 16214.00 12820.80 127.00
2147 14.9760 18988.00 14627.10 138.00
2148 14.9820 21347.00 16228.40 146.00
2149 14.9880 22363.00 17328.80 150.00
2150 14.9940 21622.00 17840.10 147.00
2151 15.0000 20209.00 17702.90 142.00
2152 15.0060 18148.00 16783.60 135.00
2153 15.0120 16332.00 15184.70 128.00
2154 15.0180 14243.00 13313.20 119.00
2155 15.0240 12543.00 11557.50 112.00
2156 15.0300 11542.00 10120.90 107.00
2157 15.0360 10290.00 9058.18 101.00
2158 15.0420 9280.00 8334.21 96.00
2159 15.0480 8626.00 7875.51 93.00
2160 15.0540 8177.00 7601.52 90.00
2161 15.0600 7564.00 7445.11 87.00
2162 15.0660 7394.00 7359.89 86.00
2163 15.0720 7261.00 7319.01 85.00
2164 15.0780 7172.00 7305.52 85.00
2165 15.0840 6974.00 7312.97 84.00
2166 15.0900 6783.00 7337.69 82.00
2167 15.0960 6856.00 7377.72 83.00
2168 15.1020 6964.00 7431.68 83.00
2169 15.1080 6961.00 7499.40 83.00
2170 15.1140 7188.00 7578.43 85.00
2171 15.1200 7115.00 7671.13 84.00
2172 15.1260 7262.00 7780.74 85.00
2173 15.1320 7181.00 7911.26 85.00
2174 15.1380 7471.00 8066.92 86.00
2175 15.1440 7800.00 8252.70 88.00
2176 15.1500 8268.00 8475.54 91.00
2177 15.1560 8842.00 8741.14 94.00
2178 15.1620 9247.00 9060.78 96.00
2179 15.1680 9952.00 9449.52 100.00
2180 15.1740 10774.00 9929.70 104.00
2181 15.1800 11339.00 10540.60 106.00
2182 15.1860 12588.00 11356.00 112.00
2183 15.1920 13673.00 12514.10 117.00
2184 15.1980 14753.00 14276.80 121.00
2185 15.2040 16141.00 17093.70 127.00
2186 15.2100 18575.00 21634.50 136.00
2187 15.2160 23024.00 28751.30 152.00
2188 15.2220 30836.00 39261.70 176.00
2189 15.2280 44976.00 53562.50 212.00
2190 15.2340 67876.00 71140.70 261.00
2191 15.2400 102515.00 89942.80 320.00
2192 15.2460 131730.00 105850.00 363.00
2193 15.2520 139521.00 113353.00 374.00
2194 15.2580 119960.00 109065.00 346.00
2195 15.2640 91442.00 94983.30 302.00
2196 15.2700 66675.00 76480.90 258.00
2197 15.2760 48777.00 58258.80 221.00
2198 15.2820 35300.00 42914.80 188.00
2199 15.2880 27215.00 31338.40 165.00
2200 15.2940 21839.00 23334.70 148.00
2201 15.3000 17900.00 18150.90 134.00
2202 15.3060 15142.00 14921.40 123.00
2203 15.3120 13321.00 12911.80 115.00
2204 15.3180 11289.00 11612.20 106.00
2205 15.3240 10130.00 10714.60 101.00
2206 15.3300 9332.00 10051.00 97.00
2207 15.3360 8621.00 9523.63 93.00
2208 15.3420 8254.00 9105.83 91.00
2209 15.3480 7838.00 8761.27 89.00
2210 15.3540 7649.00 8473.13 87.00
2211 15.3600 7448.00 8219.81 86.00
2212 15.3660 7442.00 8012.83 86.00
2213 15.3720 7264.00 7836.12 85.00
2214 15.3780 7101.00 7682.50 84.00
2215 15.3840 6979.00 7548.87 84.00
2216 15.3900 7041.00 7431.95 84.00
2217 15.3960 6778.00 7329.15 82.00
2218 15.4020 6798.00 7238.26 82.00
2219 15.4080 6717.00 7158.59 82.00
2220 15.4140 6652.00 7086.69 82.00
2221 15.4200 6822.00 7022.31 83.00
2222 15.4260 6687.00 6964.54 82.00
2223 15.4320 6582.00 6912.48 81.00
2224 15.4380 6476.00 6865.43 80.00
2225 15.4440 6296.00 6824.69 79.00
2226 15.4500 6334.00 6785.99 80.00
2227 15.4560 6296.00 6750.73 79.00
2228 15.4620 6135.00 6718.56 78.00
2229 15.4680 6127.00 6689.10 78.00
2230 15.4740 6122.00 6662.14 78.00
2231 15.4800 6113.00 6637.41 78.00
2232 15.4860 6138.00 6615.68 78.00
2233 15.4920 6033.00 6594.76 78.00
2234 15.4980 6068.00 6575.48 78.00
2235 15.5040 6107.00 6557.70 78.00
2236 15.5100 6291.00 6542.30 79.00
2237 15.5160 6398.00 6527.17 80.00
2238 15.5220 6451.00 6513.18 80.00
2239 15.5280 6785.00 6501.28 82.00
2240 15.5340 7286.00 6489.38 85.00
2241 15.5400 7732.00 6478.40 88.00
2242 15.5460 7923.00 6469.31 89.00
2243 15.5520 7969.00 6460.04 89.00
2244 15.5580 7630.00 6451.56 87.00
2245 15.5640 7251.00 6443.83 85.00
2246 15.5700 7016.00 6437.84 84.00
2247 15.5760 6736.00 6431.57 82.00
2248 15.5820 6761.00 6426.01 82.00
2249 15.5880 6726.00 6422.18 82.00
2250 15.5940 6790.00 6418.07 82.00
2251 15.6000 6779.00 6414.74 82.00
2252 15.6060 6781.00 6413.22 82.00
2253 15.6120 6837.00 6321.63 83.00
2254 15.6180 6834.00 6224.02 83.00
2255 15.6240 7089.00 6231.48 84.00
2256 15.6300 7118.00 6238.97 84.00
2257 15.6360 6837.00 6247.80 83.00
2258 15.6420 6707.00 6258.46 82.00
2259 15.6480 6602.00 6272.81 81.00
2260 15.6540 6515.00 6290.43 81.00
2261 15.6600 6630.00 6315.36 81.00
2262 15.6660 6571.00 6354.04 81.00
2263 15.6720 6717.00 6413.30 82.00
2264 15.6780 6861.00 6506.68 83.00
2265 15.6840 6784.00 6649.73 82.00
2266 15.6900 6889.00 6852.86 83.00
2267 15.6960 7079.00 7120.26 84.00
2268 15.7020 7399.00 7438.38 86.00
2269 15.7080 7510.00 7763.50 87.00
2270 15.7140 7462.00 8018.22 86.00
2271 15.7200 7586.00 8106.89 87.00
2272 15.7260 7465.00 7988.94 86.00
2273 15.7320 7037.00 7720.17 84.00
2274 15.7380 6792.00 7398.69 82.00
2275 15.7440 6523.00 7097.31 81.00
2276 15.7500 6455.00 6851.61 80.00
2277 15.7560 6418.00 6674.72 80.00
2278 15.7620 6353.00 6564.99 80.00
2279 15.7680 6282.00 6510.73 79.00
2280 15.7740 6344.00 6501.99 80.00
2281 15.7800 6377.00 6533.89 80.00
2282 15.7860 6578.00 6587.36 81.00
2283 15.7920 6549.00 6655.99 81.00
2284 15.7980 6435.00 6720.81 80.00
2285 15.8040 6475.00 6758.74 80.00
2286 15.8100 6325.00 6747.33 80.00
2287 15.8160 6390.00 6689.80 80.00
2288 15.8220 6476.00 6608.90 80.00
2289 15.8280 6409.00 6524.41 80.00
2290 15.8340 6487.00 6450.41 81.00
2291 15.8400 6440.00 6393.34 80.00
2292 15.8460 6328.00 6351.56 80.00
2293 15.8520 6281.00 6323.50 79.00
2294 15.8580 6272.00 6306.52 79.00
2295 15.8640 6275.00 6295.20 79.00
2296 15.8700 6363.00 6287.98 80.00
2297 15.8760 6370.00 6283.19 80.00
2298 15.8820 6550.00 6280.87 81.00
2299 15.8880 6480.00 6278.50 80.00
2300 15.8940 6415.00 6276.79 80.00
2301 15.9000 6274.00 6276.59 79.00
2302 15.9060 6186.00 6275.78 79.00
2303 15.9120 6092.00 6275.31 78.00
2304 15.9180 6023.00 6276.13 78.00
2305 15.9240 6129.00 6276.19 78.00
2306 15.9300 6166.00 6276.48 79.00
2307 15.9360 6060.00 6277.96 78.00
2308 15.9420 6101.00 6278.63 78.00
2309 15.9480 6070.00 6279.48 78.00
2310 15.9540 6078.00 6280.49 78.00
2311 15.9600 6163.00 6282.67 79.00
2312 15.9660 6215.00 6284.01 79.00
2313 15.9720 6145.00 6289.53 78.00
2314 15.9780 6197.00 6298.23 79.00
2315 15.9840 6213.00 6306.12 79.00
2316 15.9900 6176.00 6315.22 79.00
2317 15.9960 6158.00 6323.53 78.00
2318 16.0020 6285.00 6332.09 79.00
2319 16.0080 6375.00 6341.93 80.00
2320 16.0140 6408.00 6351.08 80.00
2321 16.0200 6428.00 6361.60 80.00
2322 16.0260 6429.00 6371.54 80.00
2323 16.0320 6535.00 6381.97 81.00
2324 16.0380 6526.00 6394.00 81.00
2325 16.0440 6515.00 6405.75 81.00
2326 16.0500 6532.00 6419.36 81.00
2327 16.0560 6654.00 6433.05 82.00
2328 16.0620 6619.00 6449.09 81.00
2329 16.0680 6557.00 6465.91 81.00
2330 16.0740 6544.00 6485.17 81.00
2331 16.0800 6688.00 6509.10 82.00
2332 16.0860 6793.00 6534.52 82.00
2333 16.0920 6906.00 6574.51 83.00
2334 16.0980 7043.00 6630.67 84.00
2335 16.1040 7151.00 6715.06 85.00
2336 16.1100 7347.00 6843.59 86.00
2337 16.1160 7485.00 7030.63 87.00
2338 16.1220 7782.00 7291.19 88.00
2339 16.1280 8264.00 7624.87 91.00
2340 16.1340 8557.00 8013.76 93.00
2341 16.1400 8710.00 8407.40 93.00
2342 16.1460 8840.00 8713.36 94.00
2343 16.1520 8840.00 8830.86 94.00
2344 16.1580 8762.00 8720.49 94.00
2345 16.1640 8475.00 8440.38 92.00
2346 16.1700 8260.00 8081.48 91.00
2347 16.1760 8021.00 7716.79 90.00
2348 16.1820 7764.00 7400.17 88.00
2349 16.1880 7669.00 7151.18 88.00
2350 16.1940 7612.00 6972.07 87.00
2351 16.2000 7632.00 6852.83 87.00
2352 16.2060 7686.00 6776.41 88.00
2353 16.2120 7785.00 6730.53 88.00
2354 16.2180 7793.00 6702.28 88.00
2355 16.2240 7589.00 6685.27 87.00
2356 16.2300 7534.00 6675.99 87.00
2357 16.2360 7430.00 6764.30 86.00
2358 16.2420 7113.00 6764.93 84.00
2359 16.2480 7014.00 6896.75 84.00
2360 16.2540 6992.00 6905.19 84.00
2361 16.2600 6976.00 6914.11 84.00
2362 16.2660 7021.00 6924.32 84.00
2363 16.2720 7004.00 6936.67 84.00
2364 16.2780 6954.00 6949.07 83.00
2365 16.2840 6833.00 6963.45 83.00
2366 16.2900 6828.00 6977.76 83.00
2367 16.2960 6964.00 6992.98 83.00
2368 16.3020 6946.00 7010.09 83.00
2369 16.3080 6914.00 7027.11 83.00
2370 16.3140 7098.00 7046.04 84.00
2371 16.3200 7242.00 7064.92 85.00
2372 16.3260 7285.00 7084.77 85.00
2373 16.3320 7365.00 7106.65 86.00
2374 16.3380 7397.00 7128.61 86.00
2375 16.3440 7266.00 7152.72 85.00
2376 16.3500 7189.00 7177.06 85.00
2377 16.3560 7268.00 7202.72 85.00
2378 16.3620 7327.00 7230.80 86.00
2379 16.3680 7184.00 7259.42 85.00
2380 16.3740 7062.00 7290.72 84.00
2381 16.3800 6979.00 7322.84 84.00
2382 16.3860 7054.00 7356.97 84.00
2383 16.3920 7226.00 7382.27 85.00
2384 16.3980 7230.00 7405.99 85.00
2385 16.4040 7163.00 7433.38 85.00
2386 16.4100 7100.00 7463.76 84.00
2387 16.4160 7144.00 7497.46 85.00
2388 16.4220 7133.00 7534.85 84.00
2389 16.4280 7178.00 7575.36 85.00
2390 16.4340 7171.00 7621.56 85.00
2391 16.4400 7245.00 7673.02 85.00
2392 16.4460 7331.00 7730.43 86.00
2393 16.4520 7477.00 7794.65 86.00
2394 16.4580 7899.00 7865.62 89.00
2395 16.4640 8278.00 7946.52 91.00
2396 16.4700 8405.00 8037.67 92.00
2397 16.4760 8268.00 8329.98 91.00
2398 16.4820 8213.00 8452.08 91.00
2399 16.4880 8012.00 8591.85 90.00
2400 16.4940 7929.00 8751.16 89.00
2401 16.5000 8025.00 8933.80 90.00
2402 16.5060 8145.00 9144.33 90.00
2403 16.5120 8231.00 9442.59 91.00
2404 16.5180 8440.00 9729.59 92.00
2405 16.5240 8645.00 10063.70 93.00
2406 16.5300 8907.00 10548.00 94.00
2407 16.5360 9365.00 11037.70 97.00
2408 16.5420 9878.00 11643.50 99.00
2409 16.5480 11043.00 12426.00 105.00
2410 16.5540 12383.00 13486.60 111.00
2411 16.5600 14364.00 15005.90 120.00
2412 16.5660 17486.00 17283.10 132.00
2413 16.5720 22484.00 20767.90 150.00
2414 16.5780 29994.00 26054.10 173.00
2415 16.5840 40488.00 33815.30 201.00
2416 16.5900 54230.00 44624.80 233.00
2417 16.5960 71348.00 58683.40 267.00
2418 16.6020 90927.00 75428.20 302.00
2419 16.6080 107707.00 93088.80 328.00
2420 16.6140 115773.00 108531.00 340.00
2421 16.6200 115015.00 118253.00 339.00
2422 16.6260 109794.00 119854.00 331.00
2423 16.6320 100131.00 112633.00 316.00
2424 16.6380 88869.00 98275.60 298.00
2425 16.6440 77596.00 80575.50 279.00
2426 16.6500 66268.00 63165.00 257.00
2427 16.6560 56608.00 48220.10 238.00
2428 16.6620 48140.00 36551.10 219.00
2429 16.6680 40771.00 28098.00 202.00
2430 16.6740 34640.00 22328.10 186.00
2431 16.6800 29716.00 18555.10 172.00
2432 16.6860 24925.00 16138.20 158.00
2433 16.6920 21660.00 14579.50 147.00
2434 16.6980 19067.00 13542.40 138.00
2435 16.7040 17365.00 12823.10 132.00
2436 16.7100 16182.00 12306.00 127.00
2437 16.7160 14793.00 11930.20 122.00
2438 16.7220 13451.00 11660.80 116.00
2439 16.7280 12656.00 11478.70 112.00
2440 16.7340 11950.00 11372.00 109.00
2441 16.7400 11241.00 11336.40 106.00
2442 16.7460 10959.00 11368.50 105.00
2443 16.7520 10865.00 11469.00 104.00
2444 16.7580 10822.00 11641.60 104.00
2445 16.7640 10969.00 11893.30 105.00
2446 16.7700 11135.00 12238.80 106.00
2447 16.7760 11480.00 12699.20 107.00
2448 16.7820 11899.00 13313.50 109.00
2449 16.7880 12460.00 14152.50 112.00
2450 16.7940 13428.00 15345.10 116.00
2451 16.8000 14838.00 17120.60 122.00
2452 16.8060 16593.00 19846.20 129.00
2453 16.8120 20059.00 24050.40 142.00
2454 16.8180 24602.00 30385.00 157.00
2455 16.8240 32763.00 39493.40 181.00
2456 16.8300 44679.00 51783.40 211.00
2457 16.8360 65593.00 67111.20 256.00
2458 16.8420 93445.00 84431.00 306.00
2459 16.8480 124053.00 101391.00 352.00
2460 16.8540 144339.00 114184.00 380.00
2461 16.8600 143110.00 119120.00 378.00
2462 16.8660 128565.00 115914.00 359.00
2463 16.8720 111921.00 108192.00 335.00
2464 16.8780 99633.00 100210.00 316.00
2465 16.8840 94506.00 94391.10 307.00
2466 16.8900 93265.00 90994.00 305.00
2467 16.8960 93431.00 88810.10 306.00
2468 16.9020 91356.00 86363.20 302.00
2469 16.9080 83115.00 82359.70 288.00
2470 16.9140 73023.00 75631.70 270.00
2471 16.9200 62532.00 66061.70 250.00
2472 16.9260 52599.00 55052.30 229.00
2473 16.9320 42708.00 44349.60 207.00
2474 16.9380 35832.00 35078.80 189.00
2475 16.9440 29238.00 27688.20 171.00
2476 16.9500 24281.00 22166.90 156.00
2477 16.9560 20693.00 18247.80 144.00
2478 16.9620 17524.00 15555.80 132.00
2479 16.9680 15220.00 13728.60 123.00
2480 16.9740 13259.00 12534.90 115.00
2481 16.9800 12179.00 11632.80 110.00
2482 16.9860 11288.00 10995.70 106.00
2483 16.9920 10522.00 10459.00 103.00
2484 16.9980 10066.00 9926.36 100.00
2485 17.0040 9574.00 9559.94 98.00
2486 17.0100 9162.00 9247.58 96.00
2487 17.0160 8922.00 8850.42 94.00
2488 17.0220 8694.00 8620.49 93.00
2489 17.0280 8538.00 8419.71 92.00
2490 17.0340 8480.00 8243.49 92.00
2491 17.0400 8354.00 8088.10 91.00
2492 17.0460 8320.00 7949.54 91.00
2493 17.0520 8148.00 7827.31 90.00
2494 17.0580 8312.00 7718.41 91.00
2495 17.0640 8390.00 7621.23 92.00
2496 17.0700 8248.00 7533.29 91.00
2497 17.0760 8003.00 7455.54 89.00
2498 17.0820 8108.00 7385.99 90.00
2499 17.0880 7890.00 7323.88 89.00
2500 17.0940 7656.00 7268.51 87.00
2501 17.1000 7417.00 7218.37 86.00
2502 17.1060 7330.00 7175.01 86.00
2503 17.1120 7177.00 7137.10 85.00
2504 17.1180 7214.00 7104.36 85.00
2505 17.1240 7253.00 7076.60 85.00
2506 17.1300 6986.00 7052.73 84.00
2507 17.1360 6859.00 7034.68 83.00
2508 17.1420 6909.00 7021.51 83.00
2509 17.1480 6978.00 7013.32 84.00
2510 17.1540 6963.00 7009.32 83.00
2511 17.1600 6728.00 7011.83 82.00
2512 17.1660 6912.00 7022.27 83.00
2513 17.1720 6878.00 7041.22 83.00
2514 17.1780 6811.00 7066.44 83.00
2515 17.1840 6811.00 7100.96 83.00
2516 17.1900 7000.00 7144.18 84.00
2517 17.1960 7173.00 7200.13 85.00
2518 17.2020 7309.00 7270.07 85.00
2519 17.2080 7558.00 7361.47 87.00
2520 17.2140 7583.00 7481.85 87.00
2521 17.2200 7702.00 7649.74 88.00
2522 17.2260 7859.00 7890.39 89.00
2523 17.2320 7974.00 8245.32 89.00
2524 17.2380 8234.00 8768.98 91.00
2525 17.2440 8739.00 9333.28 93.00
2526 17.2500 9232.00 10365.00 96.00
2527 17.2560 10593.00 11685.90 103.00
2528 17.2620 12367.00 13249.60 111.00
2529 17.2680 15035.00 14908.90 123.00
2530 17.2740 17827.00 16389.80 134.00
2531 17.2800 18394.00 17320.10 136.00
2532 17.2860 17218.00 17392.00 131.00
2533 17.2920 15702.00 16804.30 125.00
2534 17.2980 14474.00 15894.90 120.00
2535 17.3040 13638.00 15023.10 117.00
2536 17.3100 13736.00 14716.10 117.00
2537 17.3160 14747.00 15208.00 121.00
2538 17.3220 16790.00 16792.00 130.00
2539 17.3280 20962.00 19748.50 145.00
2540 17.3340 26187.00 24295.70 162.00
2541 17.3400 32666.00 30501.00 181.00
2542 17.3460 41762.00 38137.60 204.00
2543 17.3520 49604.00 46491.70 223.00
2544 17.3580 57118.00 54204.10 239.00
2545 17.3640 58973.00 59444.20 243.00
2546 17.3700 57570.00 60798.50 240.00
2547 17.3760 52812.00 58031.00 230.00
2548 17.3820 47686.00 51925.90 218.00
2549 17.3880 41741.00 43929.10 204.00
2550 17.3940 35303.00 35634.00 188.00
2551 17.4000 30895.00 28175.80 176.00
2552 17.4060 25753.00 22102.90 160.00
2553 17.4120 22404.00 17510.70 150.00
2554 17.4180 19387.00 14238.70 139.00
2555 17.4240 16557.00 12003.20 129.00
2556 17.4300 14503.00 10515.20 120.00
2557 17.4360 12578.00 9523.01 112.00
2558 17.4420 11635.00 8844.69 108.00
2559 17.4480 10316.00 8360.08 102.00
2560 17.4540 9651.00 7993.92 98.00
2561 17.4600 9130.00 7705.89 96.00
2562 17.4660 8455.00 7469.66 92.00
2563 17.4720 8217.00 7273.15 91.00
2564 17.4780 7904.00 7105.42 89.00
2565 17.4840 7682.00 6962.43 88.00
2566 17.4900 7395.00 6837.68 86.00
2567 17.4960 7204.00 6729.78 85.00
2568 17.5020 7118.00 6634.13 84.00
2569 17.5080 7188.00 6549.60 85.00
2570 17.5140 7114.00 6475.43 84.00
2571 17.5200 7141.00 6408.23 85.00
2572 17.5260 7230.00 6348.89 85.00
2573 17.5320 7199.00 6294.42 85.00
2574 17.5380 7239.00 6246.04 85.00
2575 17.5440 6719.00 6201.09 82.00
2576 17.5500 6702.00 6161.03 82.00
2577 17.5560 6562.00 6123.36 81.00
2578 17.5620 6559.00 6089.67 81.00
2579 17.5680 6224.00 6057.64 79.00
2580 17.5740 6235.00 6027.98 79.00
2581 17.5800 6383.00 6008.84 80.00
2582 17.5860 6213.00 5983.36 79.00
2583 17.5920 6215.00 5960.58 79.00
2584 17.5980 6167.00 5938.32 79.00
2585 17.6040 6504.00 5918.44 81.00
2586 17.6100 6505.00 5898.80 81.00
2587 17.6160 6704.00 5881.29 82.00
2588 17.6220 6885.00 5863.81 83.00
2589 17.6280 7016.00 5848.26 84.00
2590 17.6340 7214.00 5832.57 85.00
2591 17.6400 7291.00 5817.68 85.00
2592 17.6460 7208.00 5804.51 85.00
2593 17.6520 7056.00 5791.00 84.00
2594 17.6580 6657.00 5779.12 82.00
2595 17.6640 6283.00 5766.80 79.00
2596 17.6700 6056.00 5756.02 78.00
2597 17.6760 6031.00 5734.39 78.00
2598 17.6820 6168.00 5717.74 79.00
2599 17.6880 5947.00 5707.84 77.00
2600 17.6940 5922.00 5699.33 77.00
2601 17.7000 6023.00 5690.19 78.00
2602 17.7060 6014.00 5681.38 78.00
2603 17.7120 5745.00 5673.90 76.00
2604 17.7180 5879.00 5665.73 77.00
2605 17.7240 5709.00 5658.86 76.00
2606 17.7300 5960.00 5651.28 77.00
2607 17.7360 5773.00 5644.97 76.00
2608 17.7420 5785.00 5637.93 76.00
2609 17.7480 5676.00 5632.16 75.00
2610 17.7540 5683.00 5625.64 75.00
2611 17.7600 5673.00 5555.60 75.00
2612 17.7660 5727.00 5551.51 76.00
2613 17.7720 5713.00 5547.60 76.00
2614 17.7780 5788.00 5502.62 76.00
2615 17.7840 5741.00 5500.33 76.00
2616 17.7900 5791.00 5499.27 76.00
2617 17.7960 5709.00 5497.31 76.00
2618 17.8020 5788.00 5496.57 76.00
2619 17.8080 5719.00 5496.69 76.00
2620 17.8140 5734.00 5496.48 76.00
2621 17.8200 5487.00 5495.58 74.00
2622 17.8260 5653.00 5496.03 75.00
2623 17.8320 5593.00 5495.88 75.00
2624 17.8380 5421.00 5496.19 74.00
2625 17.8440 5582.00 5498.05 75.00
2626 17.8500 5501.00 5499.55 74.00
2627 17.8560 5508.00 5502.81 74.00
2628 17.8620 5542.00 5505.97 74.00
2629 17.8680 5565.00 5511.20 75.00
2630 17.8740 5443.00 5518.75 74.00
2631 17.8800 5611.00 5526.89 75.00
2632 17.8860 5569.00 5537.03 75.00
2633 17.8920 5595.00 5549.73 75.00
2634 17.8980 5522.00 5565.89 74.00
2635 17.9040 5578.00 5587.00 75.00
2636 17.9100 5789.00 5616.73 76.00
2637 17.9160 5886.00 5657.72 77.00
2638 17.9220 5921.00 5718.88 77.00
2639 17.9280 6081.00 5812.45 78.00
2640 17.9340 6198.00 5955.74 79.00
2641 17.9400 6572.00 6169.74 81.00
2642 17.9460 6944.00 6476.10 83.00
2643 17.9520 7562.00 6930.25 87.00
2644 17.9580 8296.00 7444.35 91.00
2645 17.9640 9148.00 8082.70 96.00
2646 17.9700 9744.00 8672.42 99.00
2647 17.9760 10215.00 9143.05 101.00
2648 17.9820 10242.00 9346.69 101.00
2649 17.9880 9823.00 9202.65 99.00
2650 17.9940 9434.00 8768.89 97.00
2651 18.0000 8753.00 8190.69 94.00
2652 18.0060 7758.00 7597.44 88.00
2653 18.0120 7326.00 7068.03 86.00
2654 18.0180 6736.00 6638.11 82.00
2655 18.0240 6327.00 6315.47 80.00
2656 18.0300 6075.00 6086.65 78.00
2657 18.0360 5816.00 5932.59 76.00
2658 18.0420 5710.00 5831.91 76.00
2659 18.0480 5884.00 5766.64 77.00
2660 18.0540 5922.00 5723.67 77.00
2661 18.0600 5884.00 5695.50 77.00
2662 18.0660 5802.00 5675.01 76.00
2663 18.0720 5872.00 5660.34 77.00
2664 18.0780 6142.00 5649.90 78.00
2665 18.0840 6404.00 5642.78 80.00
2666 18.0900 6607.00 5638.43 81.00
2667 18.0960 6585.00 5636.51 81.00
2668 18.1020 6275.00 5637.82 79.00
2669 18.1080 5925.00 5640.22 77.00
2670 18.1140 5851.00 5644.67 76.00
2671 18.1200 5798.00 5651.20 76.00
2672 18.1260 5565.00 5659.92 75.00
2673 18.1320 5669.00 5671.06 75.00
2674 18.1380 5507.00 5686.07 74.00
2675 18.1440 5568.00 5703.70 75.00
2676 18.1500 5571.00 5726.26 75.00
2677 18.1560 5456.00 5755.81 74.00
2678 18.1620 5431.00 5795.41 74.00
2679 18.1680 5519.00 5849.12 74.00
2680 18.1740 5560.00 5922.72 75.00
2681 18.1800 5636.00 6018.59 75.00
2682 18.1860 5663.00 6140.22 75.00
2683 18.1920 5820.00 6286.09 76.00
2684 18.1980 5878.00 6448.66 77.00
2685 18.2040 5920.00 6612.16 77.00
2686 18.2100 5824.00 6752.07 76.00
2687 18.2160 5945.00 6836.61 77.00
2688 18.2220 6058.00 6851.04 78.00
2689 18.2280 6182.00 6809.67 79.00
2690 18.2340 6108.00 6745.05 78.00
2691 18.2400 6128.00 6686.85 78.00
2692 18.2460 6220.00 6654.17 79.00
2693 18.2520 6224.00 6658.20 79.00
2694 18.2580 6445.00 6701.34 80.00
2695 18.2640 6633.00 6785.95 81.00
2696 18.2700 6771.00 6912.84 82.00
2697 18.2760 6890.00 7084.89 83.00
2698 18.2820 7010.00 7310.37 84.00
2699 18.2880 7277.00 7607.49 85.00
2700 18.2940 7858.00 8007.43 89.00
2701 18.3000 8425.00 8586.09 92.00
2702 18.3060 9238.00 9405.26 96.00
2703 18.3120 10609.00 10623.20 103.00
2704 18.3180 12552.00 12431.00 112.00
2705 18.3240 15649.00 15054.10 125.00
2706 18.3300 20103.00 18710.40 142.00
2707 18.3360 26051.00 23542.30 161.00
2708 18.3420 33623.00 29516.50 183.00
2709 18.3480 42200.00 36306.30 205.00
2710 18.3540 49520.00 43148.70 223.00
2711 18.3600 53289.00 48836.60 231.00
2712 18.3660 53808.00 52079.90 232.00
2713 18.3720 51299.00 52054.50 226.00
2714 18.3780 46562.00 48725.90 216.00
2715 18.3840 41040.00 42927.70 203.00
2716 18.3900 35592.00 36011.70 189.00
2717 18.3960 31016.00 29206.90 176.00
2718 18.4020 26282.00 23252.00 162.00
2719 18.4080 22290.00 18455.70 149.00
2720 18.4140 18687.00 14839.00 137.00
2721 18.4200 15929.00 12250.10 126.00
2722 18.4260 13656.00 10469.20 117.00
2723 18.4320 11760.00 9269.29 108.00
2724 18.4380 10266.00 8459.94 101.00
2725 18.4440 9136.00 7898.98 96.00
2726 18.4500 8506.00 7493.75 92.00
2727 18.4560 7842.00 7186.58 89.00
2728 18.4620 7227.00 6943.35 85.00
2729 18.4680 7021.00 6744.51 84.00
2730 18.4740 6706.00 6579.37 82.00
2731 18.4800 6333.00 6438.56 80.00
2732 18.4860 6170.00 6317.94 79.00
2733 18.4920 6245.00 6213.86 79.00
2734 18.4980 6182.00 6123.58 79.00
2735 18.5040 6073.00 6044.81 78.00
2736 18.5100 6019.00 5975.82 78.00
2737 18.5160 6004.00 5916.21 77.00
2738 18.5220 5904.00 5862.83 77.00
2739 18.5280 5736.00 5815.73 76.00
2740 18.5340 5917.00 5774.16 77.00
2741 18.5400 5929.00 5737.51 77.00
2742 18.5460 5840.00 5705.29 76.00
2743 18.5520 5726.00 5678.08 76.00
2744 18.5580 5746.00 5653.59 76.00
2745 18.5640 5469.00 5632.59 74.00
2746 18.5700 5421.00 5614.90 74.00
2747 18.5760 5329.00 5600.45 73.00
2748 18.5820 5245.00 5589.21 72.00
2749 18.5880 5283.00 5582.24 73.00
2750 18.5940 5237.00 5577.66 72.00
2751 18.6000 5229.00 5576.70 72.00
2752 18.6060 5198.00 5579.69 72.00
2753 18.6120 5200.00 5589.07 72.00
2754 18.6180 5082.00 5604.66 71.00
2755 18.6240 5117.00 5626.41 72.00
2756 18.6300 5038.00 5654.33 71.00
2757 18.6360 5217.00 5694.35 72.00
2758 18.6420 5362.00 5749.51 73.00
2759 18.6480 5380.00 5827.93 73.00
2760 18.6540 5435.00 5943.38 74.00
2761 18.6600 5573.00 6117.81 75.00
2762 18.6660 5777.00 6382.88 76.00
2763 18.6720 6069.00 6779.36 78.00
2764 18.6780 6502.00 7351.66 81.00
2765 18.6840 7107.00 8137.70 84.00
2766 18.6900 7992.00 9151.97 89.00
2767 18.6960 9579.00 10366.40 98.00
2768 18.7020 11671.00 11688.70 108.00
2769 18.7080 13868.00 12933.00 118.00
2770 18.7140 15171.00 13813.20 123.00
2771 18.7200 14935.00 14038.70 122.00
2772 18.7260 13596.00 13519.20 117.00
2773 18.7320 11900.00 12448.00 109.00
2774 18.7380 10096.00 11135.00 100.00
2775 18.7440 8687.00 9829.85 93.00
2776 18.7500 7577.00 8677.91 87.00
2777 18.7560 6957.00 7743.68 83.00
2778 18.7620 6542.00 7035.79 81.00
2779 18.7680 6171.00 6527.98 79.00
2780 18.7740 5790.00 6178.41 76.00
2781 18.7800 5610.00 5900.96 75.00
2782 18.7860 5441.00 5743.33 74.00
2783 18.7920 5331.00 5584.08 73.00
2784 18.7980 5296.00 5506.82 73.00
2785 18.8040 5327.00 5448.43 73.00
2786 18.8100 5179.00 5402.32 72.00
2787 18.8160 5177.00 5364.66 72.00
2788 18.8220 5215.00 5333.21 72.00
2789 18.8280 5165.00 5306.57 72.00
2790 18.8340 5141.00 5283.73 72.00
2791 18.8400 5294.00 5264.02 73.00
2792 18.8460 5240.00 5246.88 72.00
2793 18.8520 5195.00 5231.89 72.00
2794 18.8580 5114.00 5218.70 72.00
2795 18.8640 4982.00 5207.05 71.00
2796 18.8700 5047.00 5196.70 71.00
2797 18.8760 5052.00 5187.48 71.00
2798 18.8820 5115.00 5179.21 72.00
2799 18.8880 5144.00 5171.79 72.00
2800 18.8940 5221.00 5165.09 72.00
2801 18.9000 5249.00 5159.03 72.00
2802 18.9060 5300.00 5153.52 73.00
2803 18.9120 5412.00 5148.51 74.00
2804 18.9180 5448.00 5143.93 74.00
2805 18.9240 5530.00 5139.74 74.00
2806 18.9300 5641.00 5135.90 75.00
2807 18.9360 5678.00 5161.25 75.00
2808 18.9420 5690.00 5191.56 75.00
2809 18.9480 5500.00 5190.33 74.00
2810 18.9540 5314.00 5189.41 73.00
2811 18.9600 5293.00 5188.77 73.00
2812 18.9660 5339.00 5188.40 73.00
2813 18.9720 5472.00 5188.29 74.00
2814 18.9780 5596.00 5188.42 75.00
2815 18.9840 5528.00 5188.80 74.00
2816 18.9900 5420.00 5189.42 74.00
2817 18.9960 5285.00 5190.27 73.00
2818 19.0020 5108.00 5191.35 71.00
2819 19.0080 4991.00 5192.67 71.00
2820 19.0140 5067.00 5194.21 71.00
2821 19.0200 5048.00 5195.99 71.00
2822 19.0260 4953.00 5198.02 70.00
2823 19.0320 4897.00 5200.28 70.00
2824 19.0380 4928.00 5202.80 70.00
2825 19.0440 4925.00 5205.58 70.00
2826 19.0500 4881.00 5208.64 70.00
2827 19.0560 4864.00 5211.98 70.00
2828 19.0620 4823.00 5215.62 69.00
2829 19.0680 4852.00 5219.58 70.00
2830 19.0740 4891.00 5223.87 70.00
2831 19.0800 4917.00 5228.52 70.00
2832 19.0860 4976.00 5233.56 71.00
2833 19.0920 4955.00 5239.00 70.00
2834 19.0980 4977.00 5244.88 71.00
2835 19.1040 5142.00 5251.24 72.00
2836 19.1100 5235.00 5258.11 72.00
2837 19.1160 5246.00 5265.53 72.00
2838 19.1220 5365.00 5273.57 73.00
2839 19.1280 5469.00 5282.27 74.00
2840 19.1340 5454.00 5291.70 74.00
2841 19.1400 5534.00 5286.49 74.00
2842 19.1460 5629.00 5298.09 75.00
2843 19.1520 5675.00 5312.81 75.00
2844 19.1580 5662.00 5326.50 75.00
2845 19.1640 5601.00 5341.37 75.00
2846 19.1700 5496.00 5357.57 74.00
2847 19.1760 5354.00 5375.26 73.00
2848 19.1820 5316.00 5394.63 73.00
2849 19.1880 5252.00 5415.90 72.00
2850 19.1940 5233.00 5439.33 72.00
2851 19.2000 5243.00 5465.20 72.00
2852 19.2060 5128.00 5493.87 72.00
2853 19.2120 5130.00 5525.78 72.00
2854 19.2180 5155.00 5561.38 72.00
2855 19.2240 5145.00 5601.30 72.00
2856 19.2300 5169.00 5646.23 72.00
2857 19.2360 5267.00 5697.06 73.00
2858 19.2420 5347.00 5754.84 73.00
2859 19.2480 5375.00 5853.96 73.00
2860 19.2540 5595.00 5930.85 75.00
2861 19.2600 5795.00 6061.84 76.00
2862 19.2660 5858.00 6166.84 77.00
2863 19.2720 5867.00 6290.67 77.00
2864 19.2780 5955.00 6439.38 77.00
2865 19.2840 6149.00 6622.66 78.00
2866 19.2900 6350.00 6856.76 80.00
2867 19.2960 6628.00 7169.46 81.00
2868 19.3020 7014.00 7606.94 84.00
2869 19.3080 7422.00 8240.74 86.00
2870 19.3140 8170.00 9173.06 90.00
2871 19.3200 9138.00 10535.80 96.00
2872 19.3260 10448.00 12474.10 102.00
2873 19.3320 12927.00 15115.50 114.00
2874 19.3380 16906.00 18521.60 130.00
2875 19.3440 22447.00 22633.50 150.00
2876 19.3500 30644.00 27197.40 175.00
2877 19.3560 39073.00 31679.60 198.00
2878 19.3620 44002.00 35226.20 210.00
2879 19.3680 43479.00 36849.80 209.00
2880 19.3740 37797.00 35983.90 194.00
2881 19.3800 30763.00 32943.40 175.00
2882 19.3860 25186.00 28656.50 159.00
2883 19.3920 20398.00 24058.60 143.00
2884 19.3980 16252.00 19781.50 127.00
2885 19.4040 13662.00 16156.40 117.00
2886 19.4100 11860.00 13293.80 109.00
2887 19.4160 10345.00 11163.60 102.00
2888 19.4220 9342.00 9652.27 97.00
2889 19.4280 8460.00 8617.02 92.00
2890 19.4340 7750.00 7918.79 88.00
2891 19.4400 7306.00 7445.92 85.00
2892 19.4460 6938.00 7117.78 83.00
2893 19.4520 6668.00 6881.22 82.00
2894 19.4580 6389.00 6703.87 80.00
2895 19.4640 6218.00 6566.62 79.00
2896 19.4700 6135.00 6458.41 78.00
2897 19.4760 6124.00 6372.59 78.00
2898 19.4820 6056.00 6305.12 78.00
2899 19.4880 5888.00 6253.42 77.00
2900 19.4940 5794.00 6215.97 76.00
2901 19.5000 5744.00 6192.14 76.00
2902 19.5060 5662.00 6182.39 75.00
2903 19.5120 5540.00 6188.41 74.00
2904 19.5180 5534.00 6213.45 74.00
2905 19.5240 5626.00 6262.45 75.00
2906 19.5300 5674.00 6341.89 75.00
2907 19.5360 5749.00 6458.95 76.00
2908 19.5420 6026.00 6620.15 78.00
2909 19.5480 6255.00 6828.87 79.00
2910 19.5540 6317.00 7082.40 79.00
2911 19.5600 6684.00 7368.22 82.00
2912 19.5660 7073.00 7660.99 84.00
2913 19.5720 7147.00 7922.69 85.00
2914 19.5780 7164.00 8113.98 85.00
2915 19.5840 7189.00 8210.57 85.00
2916 19.5900 7077.00 8217.30 84.00
2917 19.5960 7045.00 8172.60 84.00
2918 19.6020 7123.00 8134.10 84.00
2919 19.6080 7097.00 8160.22 84.00
2920 19.6140 7212.00 8306.66 85.00
2921 19.6200 7683.00 8634.56 88.00
2922 19.6260 8128.00 9220.65 90.00
2923 19.6320 8786.00 10165.20 94.00
2924 19.6380 9975.00 11591.60 100.00
2925 19.6440 11638.00 13632.70 108.00
2926 19.6500 14380.00 16409.50 120.00
2927 19.6560 18600.00 19984.80 136.00
2928 19.6620 24177.00 24307.00 155.00
2929 19.6680 31547.00 29132.70 178.00
2930 19.6740 39724.00 33960.40 199.00
2931 19.6800 46037.00 38048.80 215.00
2932 19.6860 47952.00 40648.40 219.00
2933 19.6920 46117.00 41261.20 215.00
2934 19.6980 42268.00 39718.90 206.00
2935 19.7040 36585.00 36269.80 191.00
2936 19.7100 30529.00 31619.90 175.00
2937 19.7160 24885.00 26620.80 158.00
2938 19.7220 20309.00 21932.10 143.00
2939 19.7280 16444.00 17912.70 128.00
2940 19.7340 13727.00 14691.50 117.00
2941 19.7400 11509.00 12244.40 107.00
2942 19.7460 10044.00 10465.70 100.00
2943 19.7520 8945.00 9213.32 95.00
2944 19.7580 8040.00 8346.38 90.00
2945 19.7640 7463.00 7744.73 86.00
2946 19.7700 6958.00 7318.36 83.00
2947 19.7760 6464.00 7005.15 80.00
2948 19.7820 6405.00 6764.92 80.00
2949 19.7880 6109.00 6573.45 78.00
2950 19.7940 6137.00 6415.97 78.00
2951 19.8000 6019.00 6255.03 78.00
2952 19.8060 5932.00 6111.12 77.00
2953 19.8120 5902.00 6015.16 77.00
2954 19.8180 5783.00 5931.82 76.00
2955 19.8240 5820.00 5858.99 76.00
2956 19.8300 5855.00 5872.57 77.00
2957 19.8360 5726.00 5818.08 76.00
2958 19.8420 5867.00 5770.03 77.00
2959 19.8480 5840.00 5727.49 76.00
2960 19.8540 5896.00 5689.73 77.00
2961 19.8600 5920.00 5656.13 77.00
2962 19.8660 5931.00 5626.19 77.00
2963 19.8720 5796.00 5599.44 76.00
2964 19.8780 5712.00 5575.53 76.00
2965 19.8840 5629.00 5554.13 75.00
2966 19.8900 5689.00 5535.00 75.00
2967 19.8960 5576.00 5517.88 75.00
2968 19.9020 5483.00 5502.59 74.00
2969 19.9080 5458.00 5488.96 74.00
2970 19.9140 5537.00 5476.86 74.00
2971 19.9200 5392.00 5466.14 73.00
2972 19.9260 5345.00 5456.71 73.00
2973 19.9320 5468.00 5448.48 74.00
2974 19.9380 5347.00 5441.38 73.00
2975 19.9440 5269.00 5435.32 73.00
2976 19.9500 5213.00 5430.27 72.00
2977 19.9560 5257.00 5435.37 73.00
2978 19.9620 5360.00 5432.44 73.00
2979 19.9680 5521.00 5430.42 74.00
2980 19.9740 5662.00 5429.28 75.00
2981 19.9800 5627.00 5429.01 75.00
2982 19.9860 5647.00 5429.61 75.00
2983 19.9920 5764.00 5431.07 76.00
2984 19.9980 5925.00 5433.40 77.00
2985 20.0040 5983.00 5436.63 77.00
2986 20.0100 5995.00 5439.48 77.00
2987 20.0160 5716.00 5444.60 76.00
2988 20.0220 5632.00 5448.59 75.00
2989 20.0280 5441.00 5455.78 74.00
2990 20.0340 5449.00 5464.05 74.00
2991 20.0400 5399.00 5473.48 73.00
2992 20.0460 5499.00 5484.13 74.00
2993 20.0520 5448.00 5496.12 74.00
2994 20.0580 5313.00 5509.54 73.00
2995 20.0640 5231.00 5524.53 72.00
2996 20.0700 5469.00 5541.23 74.00
2997 20.0760 5359.00 5559.80 73.00
2998 20.0820 5331.00 5580.46 73.00
2999 20.0880 5205.00 5603.42 72.00
3000 20.0940 5155.00 5628.96 72.00
3001 20.1000 5198.00 5657.39 72.00
3002 20.1060 5381.00 5690.09 73.00
3003 20.1120 5465.00 5726.47 74.00
3004 20.1180 5347.00 5767.06 73.00
3005 20.1240 5536.00 5781.71 74.00
3006 20.1300 5558.00 5833.48 75.00
3007 20.1360 5659.00 5850.85 75.00
3008 20.1420 5478.00 5917.61 74.00
3009 20.1480 5614.00 5993.04 75.00
3010 20.1540 5739.00 6079.74 76.00
3011 20.1600 5844.00 6177.72 76.00
3012 20.1660 6026.00 6290.51 78.00
3013 20.1720 6008.00 6422.48 78.00
3014 20.1780 6233.00 6576.27 79.00
3015 20.1840 6512.00 6759.99 81.00
3016 20.1900 6849.00 6985.76 83.00
3017 20.1960 7109.00 7269.87 84.00
3018 20.2020 7951.00 7645.13 89.00
3019 20.2080 9121.00 8159.36 96.00
3020 20.2140 10535.00 8896.69 103.00
3021 20.2200 12611.00 9954.26 112.00
3022 20.2260 15168.00 11479.50 123.00
3023 20.2320 18579.00 13635.50 136.00
3024 20.2380 22681.00 16576.90 151.00
3025 20.2440 27185.00 20399.70 165.00
3026 20.2500 32491.00 25095.80 180.00
3027 20.2560 35873.00 30471.60 189.00
3028 20.2620 38808.00 36076.40 197.00
3029 20.2680 40369.00 41114.80 201.00
3030 20.2740 39916.00 44463.40 200.00
3031 20.2800 38733.00 45098.30 197.00
3032 20.2860 36588.00 42797.70 191.00
3033 20.2920 33416.00 38327.10 183.00
3034 20.2980 30929.00 32849.40 176.00
3035 20.3040 28390.00 27322.80 168.00
3036 20.3100 25477.00 22336.30 160.00
3037 20.3160 22741.00 18177.50 151.00
3038 20.3220 21109.00 14929.20 145.00
3039 20.3280 18756.00 12523.40 137.00
3040 20.3340 17674.00 10832.20 133.00
3041 20.3400 15808.00 9699.55 126.00
3042 20.3460 14623.00 8985.81 121.00
3043 20.3520 14029.00 8584.85 118.00
3044 20.3580 13361.00 8423.49 116.00
3045 20.3640 13139.00 8460.78 115.00
3046 20.3700 12743.00 8671.32 113.00
3047 20.3760 12811.00 9028.28 113.00
3048 20.3820 12690.00 9497.26 113.00
3049 20.3880 12653.00 10014.10 112.00
3050 20.3940 11942.00 10479.80 109.00
3051 20.4000 11766.00 10761.60 108.00
3052 20.4060 11250.00 10738.30 106.00
3053 20.4120 10568.00 10386.80 103.00
3054 20.4180 9924.00 9797.40 100.00
3055 20.4240 9225.00 9100.39 96.00
3056 20.4300 9079.00 8406.06 95.00
3057 20.4360 8872.00 7779.19 94.00
3058 20.4420 8220.00 7252.77 91.00
3059 20.4480 8250.00 6835.54 91.00
3060 20.4540 8362.00 6517.99 91.00
3061 20.4600 7841.00 6284.82 89.00
3062 20.4660 7712.00 6117.64 88.00
3063 20.4720 7448.00 5996.52 86.00
3064 20.4780 7048.00 5907.84 84.00
3065 20.4840 6851.00 5841.96 83.00
3066 20.4900 6554.00 5789.67 81.00
3067 20.4960 6342.00 5748.47 80.00
3068 20.5020 6145.00 5754.32 78.00
3069 20.5080 6156.00 5726.16 78.00
3070 20.5140 6147.00 5756.75 78.00
3071 20.5200 5924.00 5738.57 77.00
3072 20.5260 5771.00 5723.96 76.00
3073 20.5320 5925.00 5713.60 77.00
3074 20.5380 5843.00 5705.29 76.00
3075 20.5440 5784.00 5699.93 76.00
3076 20.5500 5608.00 5698.51 75.00
3077 20.5560 5794.00 5699.09 76.00
3078 20.5620 5747.00 5703.89 76.00
3079 20.5680 5778.00 5711.26 76.00
3080 20.5740 5610.00 5722.90 75.00
3081 20.5800 5761.00 5740.97 76.00
3082 20.5860 5621.00 5765.48 75.00
3083 20.5920 5751.00 5800.77 76.00
3084 20.5980 5868.00 5853.13 77.00
3085 20.6040 5757.00 5928.33 76.00
3086 20.6100 5624.00 6038.89 75.00
3087 20.6160 5744.00 6195.45 76.00
3088 20.6220 6117.00 6412.27 78.00
3089 20.6280 6297.00 6700.98 79.00
3090 20.6340 6302.00 7063.58 79.00
3091 20.6400 6911.00 7493.37 83.00
3092 20.6460 7647.00 7966.72 87.00
3093 20.6520 8536.00 8431.54 92.00
3094 20.6580 9142.00 8809.85 96.00
3095 20.6640 9391.00 9008.72 97.00
3096 20.6700 8933.00 8966.05 95.00
3097 20.6760 8107.00 8703.67 90.00
3098 20.6820 7773.00 8303.61 88.00
3099 20.6880 7154.00 7858.75 85.00
3100 20.6940 6840.00 7437.39 83.00
3101 20.7000 6444.00 7077.27 80.00
3102 20.7060 6341.00 6799.03 80.00
3103 20.7120 6290.00 6610.71 79.00
3104 20.7180 6385.00 6510.13 80.00
3105 20.7240 6352.00 6495.37 80.00
3106 20.7300 6616.00 6488.38 81.00
3107 20.7360 6801.00 6640.34 82.00
3108 20.7420 7274.00 6872.11 85.00
3109 20.7480 7913.00 7174.70 89.00
3110 20.7540 8079.00 7533.45 90.00
3111 20.7600 8446.00 7918.77 92.00
3112 20.7660 8729.00 8277.16 93.00
3113 20.7720 8308.00 8537.22 91.00
3114 20.7780 8233.00 8629.88 91.00
3115 20.7840 8316.00 8529.11 91.00
3116 20.7900 8137.00 8278.76 90.00
3117 20.7960 7618.00 7951.78 87.00
3118 20.8020 7706.00 7615.69 88.00
3119 20.8080 7457.00 7315.20 86.00
3120 20.8140 7325.00 7071.62 86.00
3121 20.8200 7039.00 6894.50 84.00
3122 20.8260 6858.00 6783.96 83.00
3123 20.8320 6823.00 6731.39 83.00
3124 20.8380 6635.00 6731.48 81.00
3125 20.8440 6551.00 6772.01 81.00
3126 20.8500 6470.00 6847.20 80.00
3127 20.8560 6561.00 6949.45 81.00
3128 20.8620 6719.00 7089.88 82.00
3129 20.8680 6917.00 7266.77 83.00
3130 20.8740 7050.00 7489.92 84.00
3131 20.8800 7241.00 7773.26 85.00
3132 20.8860 7657.00 8145.16 88.00
3133 20.8920 8169.00 8650.70 90.00
3134 20.8980 8778.00 9355.87 94.00
3135 20.9040 9794.00 10359.50 99.00
3136 20.9100 11016.00 11793.60 105.00
3137 20.9160 12856.00 13813.60 113.00
3138 20.9220 15834.00 16583.80 126.00
3139 20.9280 19611.00 20237.00 140.00
3140 20.9340 24895.00 24837.40 158.00
3141 20.9400 32048.00 30308.00 179.00
3142 20.9460 40761.00 36354.30 202.00
3143 20.9520 49156.00 42396.20 222.00
3144 20.9580 55803.00 47537.80 236.00
3145 20.9640 57736.00 50749.50 240.00
3146 20.9700 55665.00 51261.80 236.00
3147 20.9760 50802.00 48921.00 225.00
3148 20.9820 45311.00 44298.20 213.00
3149 20.9880 39054.00 38412.20 198.00
3150 20.9940 32774.00 32260.10 181.00
3151 21.0000 27289.00 26535.10 165.00
3152 21.0060 22667.00 21620.60 151.00
3153 21.0120 18988.00 17649.90 138.00
3154 21.0180 15961.00 14598.00 126.00
3155 21.0240 13430.00 12348.50 116.00
3156 21.0300 11687.00 10747.70 108.00
3157 21.0360 10356.00 9617.90 102.00
3158 21.0420 9326.00 8823.77 97.00
3159 21.0480 8553.00 8257.24 92.00
3160 21.0540 7953.00 7841.65 89.00
3161 21.0600 7494.00 7523.58 87.00
3162 21.0660 7115.00 7271.38 84.00
3163 21.0720 6954.00 7066.11 83.00
3164 21.0780 6657.00 6893.62 82.00
3165 21.0840 6524.00 6746.93 81.00
3166 21.0900 6566.00 6621.83 81.00
3167 21.0960 6420.00 6512.57 80.00
3168 21.1020 6174.00 6418.36 79.00
3169 21.1080 6072.00 6334.94 78.00
3170 21.1140 6069.00 6261.58 78.00
3171 21.1200 6028.00 6197.85 78.00
3172 21.1260 5962.00 6134.11 77.00
3173 21.1320 5914.00 6083.48 77.00
3174 21.1380 5904.00 6039.53 77.00
3175 21.1440 5904.00 5999.61 77.00
3176 21.1500 5945.00 5965.15 77.00
3177 21.1560 5888.00 5935.60 77.00
3178 21.1620 5917.00 5907.82 77.00
3179 21.1680 5879.00 5884.36 77.00
3180 21.1740 5791.00 5862.98 76.00
3181 21.1800 5678.00 5844.49 75.00
3182 21.1860 5706.00 5829.88 76.00
3183 21.1920 5655.00 5816.86 75.00
3184 21.1980 5583.00 5806.54 75.00
3185 21.2040 5591.00 5800.01 75.00
3186 21.2100 5541.00 5795.48 74.00
3187 21.2160 5624.00 5795.36 75.00
3188 21.2220 5786.00 5798.39 76.00
3189 21.2280 5722.00 5806.84 76.00
3190 21.2340 5683.00 5823.78 75.00
3191 21.2400 5899.00 5845.13 77.00
3192 21.2460 6041.00 5887.17 78.00
3193 21.2520 6030.00 5951.69 78.00
3194 21.2580 5964.00 6044.19 77.00
3195 21.2640 5984.00 6173.80 77.00
3196 21.2700 6089.00 6348.72 78.00
3197 21.2760 6272.00 6571.05 79.00
3198 21.2820 6450.00 6841.27 80.00
3199 21.2880 6682.00 7146.30 82.00
3200 21.2940 7047.00 7462.39 84.00
3201 21.3000 7406.00 7750.77 86.00
3202 21.3060 7667.00 7961.70 88.00
3203 21.3120 7907.00 8057.00 89.00
3204 21.3180 7466.00 8021.06 86.00
3205 21.3240 7195.00 7861.70 85.00
3206 21.3300 6910.00 7616.13 83.00
3207 21.3360 6680.00 7332.54 82.00
3208 21.3420 6511.00 7058.28 81.00
3209 21.3480 6313.00 6825.36 79.00
3210 21.3540 6250.00 6647.13 79.00
3211 21.3600 6252.00 6527.39 79.00
3212 21.3660 6147.00 6460.12 78.00
3213 21.3720 6152.00 6428.66 78.00
3214 21.3780 6154.00 6413.72 78.00
3215 21.3840 6099.00 6394.78 78.00
3216 21.3900 5951.00 6355.62 77.00
3217 21.3960 5985.00 6297.66 77.00
3218 21.4020 5811.00 6228.88 76.00
3219 21.4080 5975.00 6162.70 77.00
3220 21.4140 5895.00 6110.50 77.00
3221 21.4200 5901.00 6078.36 77.00
3222 21.4260 6061.00 6034.69 78.00
3223 21.4320 6211.00 6069.27 79.00
3224 21.4380 6122.00 6097.10 78.00
3225 21.4440 6186.00 6235.72 79.00
3226 21.4500 6392.00 6446.24 80.00
3227 21.4560 6356.00 6738.84 80.00
3228 21.4620 6621.00 7123.43 81.00
3229 21.4680 7164.00 7596.21 85.00
3230 21.4740 7828.00 8141.20 88.00
3231 21.4800 8756.00 8719.85 94.00
3232 21.4860 9417.00 9260.75 97.00
3233 21.4920 9940.00 9664.28 100.00
3234 21.4980 9388.00 9837.74 97.00
3235 21.5040 9127.00 9708.16 96.00
3236 21.5100 8261.00 9328.21 91.00
3237 21.5160 7703.00 8796.95 88.00
3238 21.5220 7504.00 8218.42 87.00
3239 21.5280 7109.00 7666.75 84.00
3240 21.5340 6621.00 7205.94 81.00
3241 21.5400 6528.00 6809.40 81.00
3242 21.5460 6495.00 6503.95 81.00
3243 21.5520 6362.00 6280.13 80.00
3244 21.5580 6291.00 6126.86 79.00
3245 21.5640 6514.00 6032.15 81.00
3246 21.5700 6409.00 5982.87 80.00
3247 21.5760 6590.00 5973.11 81.00
3248 21.5820 6591.00 5995.76 81.00
3249 21.5880 6508.00 6048.41 81.00
3250 21.5940 6633.00 6128.75 81.00
3251 21.6000 6786.00 6229.62 82.00
3252 21.6060 6598.00 6343.11 81.00
3253 21.6120 6589.00 6455.32 81.00
3254 21.6180 6701.00 6542.67 82.00
3255 21.6240 6563.00 6582.22 81.00
3256 21.6300 6607.00 6561.15 81.00
3257 21.6360 6426.00 6483.48 80.00
3258 21.6420 6547.00 6371.95 81.00
3259 21.6480 6350.00 6246.58 80.00
3260 21.6540 6328.00 6123.84 80.00
3261 21.6600 6337.00 6013.40 80.00
3262 21.6660 6253.00 5917.60 79.00
3263 21.6720 6032.00 5839.12 78.00
3264 21.6780 6018.00 5778.65 78.00
3265 21.6840 6080.00 5732.28 78.00
3266 21.6900 5987.00 5699.37 77.00
3267 21.6960 5977.00 5675.15 77.00
3268 21.7020 6042.00 5658.15 78.00
3269 21.7080 5873.00 5647.45 77.00
3270 21.7140 5907.00 5639.58 77.00
3271 21.7200 5908.00 5634.53 77.00
3272 21.7260 5729.00 5669.27 76.00
3273 21.7320 5974.00 5668.89 77.00
3274 21.7380 5871.00 5669.88 77.00
3275 21.7440 5914.00 5673.02 77.00
3276 21.7500 6059.00 5676.20 78.00
3277 21.7560 6096.00 5681.35 78.00
3278 21.7620 6054.00 5686.42 78.00
3279 21.7680 6042.00 5692.41 78.00
3280 21.7740 5993.00 5700.32 77.00
3281 21.7800 5959.00 5705.77 77.00
3282 21.7860 6115.00 5714.67 78.00
3283 21.7920 6090.00 5723.07 78.00
3284 21.7980 6062.00 5734.19 78.00
3285 21.8040 6031.00 5746.51 78.00
3286 21.8100 6049.00 5761.15 78.00
3287 21.8160 6017.00 5776.24 78.00
3288 21.8220 5895.00 5793.95 77.00
3289 21.8280 6100.00 5812.45 78.00
3290 21.8340 6033.00 5832.99 78.00
3291 21.8400 6226.00 5856.84 79.00
3292 21.8460 6264.00 5882.33 79.00
3293 21.8520 6202.00 5910.86 79.00
3294 21.8580 6238.00 5942.88 79.00
3295 21.8640 6181.00 5979.14 79.00
3296 21.8700 6156.00 6021.36 78.00
3297 21.8760 6247.00 6068.62 79.00
3298 21.8820 6130.00 6123.48 78.00
3299 21.8880 6192.00 6189.23 79.00
3300 21.8940 6310.00 6267.35 79.00
3301 21.9000 6455.00 6364.28 80.00
3302 21.9060 6577.00 6489.15 81.00
3303 21.9120 6808.00 6651.86 83.00
3304 21.9180 7202.00 6869.84 85.00
3305 21.9240 7733.00 7165.64 88.00
3306 21.9300 8252.00 7563.28 91.00
3307 21.9360 8906.00 8093.34 94.00
3308 21.9420 9654.00 8782.50 98.00
3309 21.9480 11052.00 9656.58 105.00
3310 21.9540 12665.00 10729.80 113.00
3311 21.9600 14442.00 11991.80 120.00
3312 21.9660 16440.00 13399.70 128.00
3313 21.9720 18492.00 14860.10 136.00
3314 21.9780 19831.00 16259.60 141.00
3315 21.9840 20526.00 17515.20 143.00
3316 21.9900 20501.00 18593.10 143.00
3317 21.9960 19993.00 19460.60 141.00
3318 22.0020 19267.00 20007.10 139.00
3319 22.0080 18381.00 20055.50 136.00
3320 22.0140 17262.00 19423.20 131.00
3321 22.0200 16098.00 18178.70 127.00
3322 22.0260 14994.00 16525.10 122.00
3323 22.0320 13971.00 14742.30 118.00
3324 22.0380 13176.00 13038.00 115.00
3325 22.0440 12040.00 11562.80 110.00
3326 22.0500 11182.00 10310.30 106.00
3327 22.0560 10536.00 9318.02 103.00
3328 22.0620 10090.00 8567.58 100.00
3329 22.0680 9690.00 8041.83 98.00
3330 22.0740 9235.00 7661.29 96.00
3331 22.0800 8767.00 7404.12 94.00
3332 22.0860 8312.00 7237.78 91.00
3333 22.0920 8251.00 7134.86 91.00
3334 22.0980 8056.00 7087.17 90.00
3335 22.1040 7894.00 7067.12 89.00
3336 22.1100 7658.00 7079.52 88.00
3337 22.1160 7573.00 7124.26 87.00
3338 22.1220 7738.00 7203.99 88.00
3339 22.1280 7824.00 7330.13 88.00
3340 22.1340 8142.00 7521.66 90.00
3341 22.1400 8539.00 7804.54 92.00
3342 22.1460 8967.00 8219.27 95.00
3343 22.1520 9643.00 8817.14 98.00
3344 22.1580 10656.00 9654.43 103.00
3345 22.1640 11896.00 10789.40 109.00
3346 22.1700 13726.00 12267.40 117.00
3347 22.1760 16138.00 14099.70 127.00
3348 22.1820 18546.00 16250.30 136.00
3349 22.1880 20552.00 18607.00 143.00
3350 22.1940 22009.00 20987.50 148.00
3351 22.2000 22674.00 22983.60 151.00
3352 22.2060 22738.00 24196.60 151.00
3353 22.2120 22143.00 24287.90 149.00
3354 22.2180 20992.00 23228.90 145.00
3355 22.2240 19583.00 21372.80 140.00
3356 22.2300 18321.00 19054.60 135.00
3357 22.2360 16848.00 16680.80 130.00
3358 22.2420 15340.00 14487.30 124.00
3359 22.2480 13972.00 12600.90 118.00
3360 22.2540 13103.00 11065.30 114.00
3361 22.2600 12260.00 9874.95 111.00
3362 22.2660 11249.00 8990.08 106.00
3363 22.2720 10425.00 8352.07 102.00
3364 22.2780 9705.00 7902.42 99.00
3365 22.2840 9323.00 7589.68 97.00
3366 22.2900 8931.00 7370.21 95.00
3367 22.2960 8543.00 7215.56 92.00
3368 22.3020 8098.00 7103.00 90.00
3369 22.3080 7818.00 7026.30 88.00
3370 22.3140 7612.00 6966.35 87.00
3371 22.3200 7446.00 6921.93 86.00
3372 22.3260 7240.00 6890.98 85.00
3373 22.3320 7114.00 6873.79 84.00
3374 22.3380 7095.00 6864.71 84.00
3375 22.3440 7076.00 6865.18 84.00
3376 22.3500 7082.00 6875.76 84.00
3377 22.3560 7045.00 6894.31 84.00
3378 22.3620 7015.00 6922.89 84.00
3379 22.3680 7064.00 6959.83 84.00
3380 22.3740 7158.00 7006.73 85.00
3381 22.3800 7304.00 7065.43 85.00
3382 22.3860 7356.00 7135.23 86.00
3383 22.3920 7377.00 7218.91 86.00
3384 22.3980 7305.00 7320.13 85.00
3385 22.4040 7373.00 7440.75 86.00
3386 22.4100 7693.00 7588.90 88.00
3387 22.4160 7787.00 7771.84 88.00
3388 22.4220 7884.00 8004.74 89.00
3389 22.4280 8005.00 8309.46 89.00
3390 22.4340 8195.00 8713.88 91.00
3391 22.4400 8790.00 9258.15 94.00
3392 22.4460 9391.00 9992.18 97.00
3393 22.4520 10114.00 10970.50 101.00
3394 22.4580 11401.00 12251.80 107.00
3395 22.4640 13312.00 13878.50 115.00
3396 22.4700 15537.00 15902.10 125.00
3397 22.4760 17878.00 18314.50 134.00
3398 22.4820 20974.00 21055.30 145.00
3399 22.4880 24857.00 23986.20 158.00
3400 22.4940 28475.00 26865.40 169.00
3401 22.5000 32140.00 29504.20 179.00
3402 22.5060 35175.00 31726.90 188.00
3403 22.5120 36920.00 33503.40 192.00
3404 22.5180 37743.00 34845.90 194.00
3405 22.5240 37538.00 35699.40 194.00
3406 22.5300 36420.00 35922.70 191.00
3407 22.5360 34159.00 35418.80 185.00
3408 22.5420 32232.00 34264.70 180.00
3409 22.5480 30531.00 32629.60 175.00
3410 22.5540 29153.00 30657.50 171.00
3411 22.5600 27314.00 28456.20 165.00
3412 22.5660 25233.00 26151.10 159.00
3413 22.5720 23302.00 23911.80 153.00
3414 22.5780 21689.00 21850.80 147.00
3415 22.5840 19784.00 19982.90 141.00
3416 22.5900 18034.00 18281.60 134.00
3417 22.5960 16743.00 16738.00 129.00
3418 22.6020 15840.00 15390.60 126.00
3419 22.6080 15202.00 14292.30 123.00
3420 22.6140 14892.00 13484.50 122.00
3421 22.6200 14950.00 13000.10 122.00
3422 22.6260 15210.00 12871.00 123.00
3423 22.6320 15685.00 13133.40 125.00
3424 22.6380 16817.00 13837.70 130.00
3425 22.6440 18561.00 15038.10 136.00
3426 22.6500 20864.00 16788.70 144.00
3427 22.6560 24037.00 19128.90 155.00
3428 22.6620 27266.00 22061.50 165.00
3429 22.6680 31266.00 25518.60 177.00
3430 22.6740 35147.00 29332.50 187.00
3431 22.6800 37885.00 33190.60 195.00
3432 22.6860 40649.00 36689.50 202.00
3433 22.6920 41711.00 39477.90 204.00
3434 22.6980 40992.00 41347.90 202.00
3435 22.7040 39630.00 42302.70 199.00
3436 22.7100 37600.00 42158.10 194.00
3437 22.7160 35632.00 40700.30 189.00
3438 22.7220 33601.00 37912.40 183.00
3439 22.7280 30661.00 34134.70 175.00
3440 22.7340 28109.00 29924.70 168.00
3441 22.7400 25763.00 25790.90 161.00
3442 22.7460 23886.00 22071.60 155.00
3443 22.7520 22024.00 18944.00 148.00
3444 22.7580 20914.00 16469.20 145.00
3445 22.7640 19566.00 14625.30 140.00
3446 22.7700 18310.00 13346.30 135.00
3447 22.7760 16916.00 12531.50 130.00
3448 22.7820 16294.00 12065.90 128.00
3449 22.7880 15512.00 11825.90 125.00
3450 22.7940 14429.00 11681.30 120.00
3451 22.8000 14036.00 11515.90 118.00
3452 22.8060 13317.00 11255.00 115.00
3453 22.8120 12599.00 10883.50 112.00
3454 22.8180 12121.00 10434.00 110.00
3455 22.8240 11448.00 9948.32 107.00
3456 22.8300 11018.00 9454.47 105.00
3457 22.8360 10313.00 8983.86 102.00
3458 22.8420 9809.00 8540.33 99.00
3459 22.8480 9317.00 8146.83 97.00
3460 22.8540 9174.00 7812.25 96.00
3461 22.8600 9017.00 7534.61 95.00
3462 22.8660 8758.00 7320.40 94.00
3463 22.8720 8298.00 7142.14 91.00
3464 22.8780 8147.00 6999.85 90.00
3465 22.8840 8093.00 6886.81 90.00
3466 22.8900 8012.00 6797.46 90.00
3467 22.8960 7849.00 6724.40 89.00
3468 22.9020 7700.00 6665.57 88.00
3469 22.9080 7652.00 6615.97 87.00
3470 22.9140 7457.00 6574.47 86.00
3471 22.9200 7289.00 6540.61 85.00
3472 22.9260 7174.00 6511.42 85.00
3473 22.9320 6970.00 6487.34 83.00
3474 22.9380 6728.00 6469.06 82.00
3475 22.9440 6784.00 6454.53 82.00
3476 22.9500 6760.00 6446.02 82.00
3477 22.9560 6627.00 6442.19 81.00
3478 22.9620 6636.00 6445.25 81.00
3479 22.9680 6784.00 6458.23 82.00
3480 22.9740 6527.00 6482.26 81.00
3481 22.9800 6610.00 6522.86 81.00
3482 22.9860 6550.00 6587.17 81.00
3483 22.9920 6720.00 6663.71 82.00
3484 22.9980 6974.00 6796.52 84.00
3485 23.0040 7146.00 6967.57 85.00
3486 23.0100 7289.00 7201.54 85.00
3487 23.0160 7589.00 7492.36 87.00
3488 23.0220 7989.00 7832.88 89.00
3489 23.0280 8829.00 8177.75 94.00
3490 23.0340 9389.00 8559.88 97.00
3491 23.0400 10267.00 8901.07 101.00
3492 23.0460 10851.00 9149.53 104.00
3493 23.0520 10644.00 9241.95 103.00
3494 23.0580 10044.00 9186.42 100.00
3495 23.0640 9915.00 8976.09 100.00
3496 23.0700 9405.00 8656.74 97.00
3497 23.0760 8874.00 8286.37 94.00
3498 23.0820 8111.00 7912.01 90.00
3499 23.0880 8021.00 7584.00 90.00
3500 23.0940 7594.00 7315.51 87.00
3501 23.1000 7261.00 7116.60 85.00
3502 23.1060 7337.00 6985.91 86.00
3503 23.1120 7277.00 6919.25 85.00
3504 23.1180 7318.00 6908.18 86.00
3505 23.1240 7508.00 6937.94 87.00
3506 23.1300 7557.00 6994.97 87.00
3507 23.1360 7606.00 7060.79 87.00
3508 23.1420 7317.00 7122.44 86.00
3509 23.1480 7421.00 7172.25 86.00
3510 23.1540 7696.00 7200.26 88.00
3511 23.1600 7415.00 7197.12 86.00
3512 23.1660 7376.00 7156.72 86.00
3513 23.1720 7442.00 7077.58 86.00
3514 23.1780 7576.00 6976.28 87.00
3515 23.1840 7395.00 6830.53 86.00
3516 23.1900 7477.00 6724.26 86.00
3517 23.1960 7206.00 6634.95 85.00
3518 23.2020 7236.00 6566.64 85.00
3519 23.2080 7185.00 6517.65 85.00
3520 23.2140 6923.00 6439.67 83.00
3521 23.2200 6786.00 6423.65 82.00
3522 23.2260 6661.00 6415.15 82.00
3523 23.2320 6593.00 6410.39 81.00
3524 23.2380 6629.00 6405.87 81.00
3525 23.2440 6316.00 6404.51 79.00
3526 23.2500 6387.00 6411.13 80.00
3527 23.2560 6302.00 6428.28 79.00
3528 23.2620 6426.00 6463.12 80.00
3529 23.2680 6474.00 6519.95 80.00
3530 23.2740 6600.00 6607.84 81.00
3531 23.2800 6803.00 6738.01 82.00
3532 23.2860 7083.00 6920.75 84.00
3533 23.2920 7498.00 7171.24 87.00
3534 23.2980 7703.00 7504.65 88.00
3535 23.3040 8266.00 7925.95 91.00
3536 23.3100 9008.00 8456.91 95.00
3537 23.3160 9770.00 9089.43 99.00
3538 23.3220 10802.00 9809.22 104.00
3539 23.3280 11755.00 10578.70 108.00
3540 23.3340 12889.00 11336.70 114.00
3541 23.3400 13679.00 12009.70 117.00
3542 23.3460 14155.00 12544.50 119.00
3543 23.3520 14064.00 12920.80 119.00
3544 23.3580 13812.00 13134.30 118.00
3545 23.3640 13228.00 13156.60 115.00
3546 23.3700 12413.00 12935.50 111.00
3547 23.3760 11821.00 12450.00 109.00
3548 23.3820 11217.00 11743.70 106.00
3549 23.3880 10412.00 10916.90 102.00
3550 23.3940 10016.00 10073.20 100.00
3551 23.4000 9309.00 9283.50 96.00
3552 23.4060 8715.00 8590.51 93.00
3553 23.4120 8265.00 8012.03 91.00
3554 23.4180 7835.00 7546.68 89.00
3555 23.4240 7640.00 7185.39 87.00
3556 23.4300 7339.00 6913.75 86.00
3557 23.4360 7054.00 6712.35 84.00
3558 23.4420 6890.00 6566.20 83.00
3559 23.4480 6753.00 6458.59 82.00
3560 23.4540 6695.00 6378.99 82.00
3561 23.4600 6637.00 6319.87 81.00
3562 23.4660 6482.00 6273.19 81.00
3563 23.4720 6610.00 6236.02 81.00
3564 23.4780 6321.00 6206.75 80.00
3565 23.4840 6348.00 6181.72 80.00
3566 23.4900 6444.00 6161.83 80.00
3567 23.4960 6323.00 6144.34 80.00
3568 23.5020 6090.00 6129.73 78.00
3569 23.5080 6243.00 6118.65 79.00
3570 23.5140 6045.00 6108.81 78.00
3571 23.5200 6107.00 6101.00 78.00
3572 23.5260 6023.00 6096.09 78.00
3573 23.5320 5864.00 6091.96 77.00
3574 23.5380 5828.00 6089.57 76.00
3575 23.5440 5643.00 6089.92 75.00
3576 23.5500 5709.00 6088.90 76.00
3577 23.5560 5689.00 6093.00 75.00
3578 23.5620 5851.00 6093.92 76.00
3579 23.5680 5868.00 6101.74 77.00
3580 23.5740 5801.00 6113.65 76.00
3581 23.5800 5966.00 6128.55 77.00
3582 23.5860 5799.00 6148.82 76.00
3583 23.5920 5754.00 6177.48 76.00
3584 23.5980 6065.00 6215.33 78.00
3585 23.6040 5987.00 6267.07 77.00
3586 23.6100 6070.00 6338.34 78.00
3587 23.6160 6275.00 6432.48 79.00
3588 23.6220 6442.00 6557.32 80.00
3589 23.6280 6596.00 6716.31 81.00
3590 23.6340 7135.00 6931.20 84.00
3591 23.6400 7472.00 7192.96 86.00
3592 23.6460 7701.00 7468.46 88.00
3593 23.6520 8016.00 7770.15 90.00
3594 23.6580 8074.00 8079.62 90.00
3595 23.6640 8501.00 8372.51 92.00
3596 23.6700 8816.00 8629.18 94.00
3597 23.6760 8921.00 8832.60 94.00
3598 23.6820 8706.00 8961.09 93.00
3599 23.6880 8827.00 8994.42 94.00
3600 23.6940 9002.00 8923.31 95.00
3601 23.7000 8681.00 8763.60 93.00
3602 23.7060 8596.00 8542.30 93.00
3603 23.7120 8464.00 8279.18 92.00
3604 23.7180 7960.00 7991.06 89.00
3605 23.7240 7620.00 7695.39 87.00
3606 23.7300 7451.00 7408.70 86.00
3607 23.7360 7123.00 7148.51 84.00
3608 23.7420 6889.00 6923.17 83.00
3609 23.7480 6704.00 6736.38 82.00
3610 23.7540 6789.00 6587.49 82.00
3611 23.7600 6520.00 6470.47 81.00
3612 23.7660 6349.00 6381.12 80.00
3613 23.7720 6554.00 6315.07 81.00
3614 23.7780 6335.00 6265.26 80.00
3615 23.7840 6341.00 6228.42 80.00
3616 23.7900 6488.00 6202.23 81.00
3617 23.7960 6309.00 6181.78 79.00
3618 23.8020 6485.00 6167.27 81.00
3619 23.8080 6449.00 6155.35 80.00
3620 23.8140 6538.00 6146.10 81.00
3621 23.8200 6636.00 6140.35 81.00
3622 23.8260 6525.00 6134.82 81.00
3623 23.8320 6401.00 6130.65 80.00
3624 23.8380 6329.00 6128.66 80.00
3625 23.8440 6177.00 6126.69 79.00
3626 23.8500 6016.00 6119.79 78.00
3627 23.8560 6079.00 6119.75 78.00
3628 23.8620 5919.00 6120.48 77.00
3629 23.8680 5844.00 6122.95 76.00
3630 23.8740 5785.00 6125.11 76.00
3631 23.8800 5712.00 6117.69 76.00
3632 23.8860 5823.00 6122.43 76.00
3633 23.8920 5921.00 6150.72 77.00
3634 23.8980 5974.00 6152.39 77.00
3635 23.9040 5760.00 6155.74 76.00
3636 23.9100 5939.00 6182.17 77.00
3637 23.9160 5958.00 6186.53 77.00
3638 23.9220 5742.00 6192.69 76.00
3639 23.9280 5733.00 6198.71 76.00
3640 23.9340 5882.00 6206.65 77.00
3641 23.9400 5824.00 6253.01 76.00
3642 23.9460 5740.00 6263.88 76.00
3643 23.9520 5875.00 6274.95 77.00
3644 23.9580 5712.00 6287.33 76.00
3645 23.9640 5727.00 6302.15 76.00
3646 23.9700 5894.00 6317.56 77.00
3647 23.9760 5869.00 6335.75 77.00
3648 23.9820 5777.00 6354.93 76.00
3649 23.9880 5746.00 6377.33 76.00
3650 23.9940 5959.00 6401.24 77.00
3651 24.0000 5892.00 6428.02 77.00
3652 24.0060 6072.00 6459.06 78.00
3653 24.0120 6088.00 6492.82 78.00
3654 24.0180 6247.00 6531.91 79.00
3655 24.0240 6286.00 6575.03 79.00
3656 24.0300 6311.00 6624.07 79.00
3657 24.0360 6398.00 6681.16 80.00
3658 24.0420 6461.00 6745.89 80.00
3659 24.0480 6598.00 6822.43 81.00
3660 24.0540 6561.00 6912.01 81.00
3661 24.0600 6745.00 7021.52 82.00
3662 24.0660 6954.00 7156.59 83.00
3663 24.0720 6964.00 7329.74 83.00
3664 24.0780 7198.00 7558.78 85.00
3665 24.0840 7324.00 7865.92 86.00
3666 24.0900 7688.00 8285.25 88.00
3667 24.0960 8145.00 8854.82 90.00
3668 24.1020 8778.00 9621.06 94.00
3669 24.1080 9802.00 10631.70 99.00
3670 24.1140 11076.00 11923.30 105.00
3671 24.1200 12977.00 13518.60 114.00
3672 24.1260 15339.00 15404.10 124.00
3673 24.1320 18846.00 17525.00 137.00
3674 24.1380 22603.00 19754.20 150.00
3675 24.1440 26449.00 21884.00 163.00
3676 24.1500 29759.00 23628.60 173.00
3677 24.1560 30786.00 24671.80 175.00
3678 24.1620 29973.00 24792.70 173.00
3679 24.1680 27594.00 23961.00 166.00
3680 24.1740 23907.00 22363.00 155.00
3681 24.1800 21040.00 20302.90 145.00
3682 24.1860 18127.00 18090.40 135.00
3683 24.1920 15933.00 15954.20 126.00
3684 24.1980 13650.00 14032.10 117.00
3685 24.2040 12141.00 12393.10 110.00
3686 24.2100 10860.00 11129.50 104.00
3687 24.2160 9850.00 10090.60 99.00
3688 24.2220 9164.00 9306.97 96.00
3689 24.2280 8563.00 8731.86 93.00
3690 24.2340 8105.00 8319.41 90.00
3691 24.2400 7910.00 8029.37 89.00
3692 24.2460 7651.00 7828.83 87.00
3693 24.2520 7360.00 7690.70 86.00
3694 24.2580 7239.00 7598.38 85.00
3695 24.2640 7200.00 7541.24 85.00
3696 24.2700 7069.00 7510.11 84.00
3697 24.2760 7188.00 7502.82 85.00
3698 24.2820 7072.00 7516.10 84.00
3699 24.2880 7190.00 7548.23 85.00
3700 24.2940 7217.00 7600.89 85.00
3701 24.3000 7449.00 7672.26 86.00
3702 24.3060 7373.00 7764.85 86.00
3703 24.3120 7359.00 7877.60 86.00
3704 24.3180 7499.00 8014.61 87.00
3705 24.3240 7429.00 8178.05 86.00
3706 24.3300 7627.00 8376.12 87.00
3707 24.3360 7694.00 8620.68 88.00
3708 24.3420 8161.00 8928.36 90.00
3709 24.3480 8633.00 9323.26 93.00
3710 24.3540 9049.00 9843.94 95.00
3711 24.3600 9742.00 10542.50 99.00
3712 24.3660 11162.00 11476.60 106.00
3713 24.3720 12768.00 12712.40 113.00
3714 24.3780 14744.00 14312.50 121.00
3715 24.3840 17522.00 16325.30 132.00
3716 24.3900 20541.00 18779.00 143.00
3717 24.3960 23910.00 21659.60 155.00
3718 24.4020 27777.00 24891.70 167.00
3719 24.4080 31327.00 28314.30 177.00
3720 24.4140 34788.00 31675.50 187.00
3721 24.4200 37792.00 34697.00 194.00
3722 24.4260 40419.00 37153.70 201.00
3723 24.4320 42230.00 38934.10 205.00
3724 24.4380 42765.00 40003.60 207.00
3725 24.4440 42241.00 40373.30 206.00
3726 24.4500 41183.00 40075.70 203.00
3727 24.4560 38839.00 39101.00 197.00
3728 24.4620 35407.00 37378.10 188.00
3729 24.4680 32940.00 34867.60 181.00
3730 24.4740 30191.00 31703.40 174.00
3731 24.4800 27176.00 28187.90 165.00
3732 24.4860 24985.00 24652.80 158.00
3733 24.4920 22999.00 21357.30 152.00
3734 24.4980 20797.00 18448.90 144.00
3735 24.5040 18827.00 15989.30 137.00
3736 24.5100 17052.00 13981.70 131.00
3737 24.5160 15619.00 12392.50 125.00
3738 24.5220 14330.00 11168.00 120.00
3739 24.5280 13223.00 10241.70 115.00
3740 24.5340 12113.00 9552.44 110.00
3741 24.5400 11083.00 9040.98 105.00
3742 24.5460 10519.00 8662.10 103.00
3743 24.5520 10044.00 8376.99 100.00
3744 24.5580 9561.00 8160.02 98.00
3745 24.5640 9052.00 7993.63 95.00
3746 24.5700 8674.00 7863.27 93.00
3747 24.5760 8578.00 7762.84 93.00
3748 24.5820 8265.00 7685.19 91.00
3749 24.5880 7975.00 7628.02 89.00
3750 24.5940 7616.00 7590.30 87.00
3751 24.6000 7552.00 7568.91 87.00
3752 24.6060 7584.00 7565.38 87.00
3753 24.6120 7288.00 7577.84 85.00
3754 24.6180 7223.00 7609.01 85.00
3755 24.6240 7210.00 7658.35 85.00
3756 24.6300 7316.00 7729.30 86.00
3757 24.6360 7329.00 7826.92 86.00
3758 24.6420 7355.00 7955.56 86.00
3759 24.6480 7563.00 8127.41 87.00
3760 24.6540 7635.00 8356.04 87.00
3761 24.6600 7954.00 8667.47 89.00
3762 24.6660 8210.00 9094.32 91.00
3763 24.6720 8650.00 9685.41 93.00
3764 24.6780 9269.00 10487.00 96.00
3765 24.6840 9933.00 11604.70 100.00
3766 24.6900 11209.00 13082.30 106.00
3767 24.6960 12708.00 15036.00 113.00
3768 24.7020 14936.00 17501.00 122.00
3769 24.7080 18127.00 20493.20 135.00
3770 24.7140 22598.00 23965.10 150.00
3771 24.7200 29238.00 27779.90 171.00
3772 24.7260 36529.00 31680.90 191.00
3773 24.7320 42947.00 35254.80 207.00
3774 24.7380 46774.00 37940.10 216.00
3775 24.7440 45855.00 39169.50 214.00
3776 24.7500 41059.00 38634.10 203.00
3777 24.7560 34751.00 36472.20 186.00
3778 24.7620 29085.00 33188.60 171.00
3779 24.7680 24553.00 29369.60 157.00
3780 24.7740 20878.00 25497.20 144.00
3781 24.7800 17502.00 21890.70 132.00
3782 24.7860 15497.00 18729.50 124.00
3783 24.7920 13796.00 16090.90 117.00
3784 24.7980 12204.00 13980.10 110.00
3785 24.8040 10960.00 12353.00 105.00
3786 24.8100 10107.00 11133.20 101.00
3787 24.8160 9471.00 10235.70 97.00
3788 24.8220 8979.00 9582.06 95.00
3789 24.8280 8428.00 9109.52 92.00
3790 24.8340 8139.00 8767.47 90.00
3791 24.8400 7994.00 8525.51 89.00
3792 24.8460 8067.00 8361.92 90.00
3793 24.8520 8199.00 8255.25 91.00
3794 24.8580 8155.00 8185.70 90.00
3795 24.8640 8211.00 8132.04 91.00
3796 24.8700 8164.00 8067.70 90.00
3797 24.8760 7993.00 7972.93 89.00
3798 24.8820 7835.00 7836.21 89.00
3799 24.8880 7638.00 7661.89 87.00
3800 24.8940 7399.00 7464.42 86.00
3801 24.9000 7162.00 7257.67 85.00
3802 24.9060 6853.00 7057.41 83.00
3803 24.9120 6497.00 6877.75 81.00
3804 24.9180 6340.00 6713.10 80.00
3805 24.9240 6218.00 6569.91 79.00
3806 24.9300 6112.00 6448.89 78.00
3807 24.9360 5982.00 6349.24 77.00
3808 24.9420 5903.00 6278.47 77.00
3809 24.9480 5937.00 6211.17 77.00
3810 24.9540 5889.00 6128.20 77.00
3811 24.9600 5834.00 6081.00 76.00
3812 24.9660 5740.00 6041.60 76.00
3813 24.9720 5675.00 5983.51 75.00
3814 24.9780 5695.00 5953.81 75.00
3815 24.9840 5717.00 5926.25 76.00
3816 24.9900 5678.00 5902.19 75.00
3817 24.9960 5645.00 5841.85 75.00
3818 25.0020 5627.00 5821.48 75.00
3819 25.0080 5662.00 5803.65 75.00
3820 25.0140 5659.00 5786.14 75.00
3821 25.0200 5633.00 5770.83 75.00
3822 25.0260 5645.00 5755.60 75.00
3823 25.0320 5594.00 5742.34 75.00
3824 25.0380 5614.00 5728.96 75.00
3825 25.0440 5681.00 5716.39 75.00
3826 25.0500 5648.00 5705.57 75.00
3827 25.0560 5620.00 5694.43 75.00
3828 25.0620 5609.00 5684.93 75.00
3829 25.0680 5672.00 5675.02 75.00
3830 25.0740 5668.00 5665.67 75.00
3831 25.0800 5560.00 5657.83 75.00
3832 25.0860 5488.00 5649.49 74.00
3833 25.0920 5625.00 5642.61 75.00
3834 25.0980 5594.00 5635.18 75.00
3835 25.1040 5439.00 5629.17 74.00
3836 25.1100 5429.00 5622.57 74.00
3837 25.1160 5502.00 5616.36 74.00
3838 25.1220 5482.00 5611.54 74.00
3839 25.1280 5385.00 5606.08 73.00
3840 25.1340 5410.00 5602.01 74.00
3841 25.1400 5447.00 5597.30 74.00
3842 25.1460 5559.00 5592.95 75.00
3843 25.1520 5496.00 5589.98 74.00
3844 25.1580 5415.00 5586.38 74.00
3845 25.1640 5477.00 5584.16 74.00
3846 25.1700 5408.00 5581.33 74.00
3847 25.1760 5452.00 5579.90 74.00
3848 25.1820 5572.00 5577.90 75.00
3849 25.1880 5416.00 5577.34 74.00
3850 25.1940 5336.00 5577.24 73.00
3851 25.2000 5387.00 5577.65 73.00
3852 25.2060 5327.00 5581.13 73.00
3853 25.2120 5392.00 5583.71 73.00
3854 25.2180 5421.00 5585.92 74.00
3855 25.2240 5339.00 5588.82 73.00
3856 25.2300 5398.00 5592.49 73.00
3857 25.2360 5463.00 5597.02 74.00
3858 25.2420 5410.00 5603.51 74.00
3859 25.2480 5342.00 5610.10 73.00
3860 25.2540 5367.00 5617.98 73.00
3861 25.2600 5380.00 5627.40 73.00
3862 25.2660 5423.00 5638.69 74.00
3863 25.2720 5471.00 5652.36 74.00
3864 25.2780 5510.00 5670.17 74.00
3865 25.2840 5515.00 5625.34 74.00
3866 25.2900 5551.00 5653.60 75.00
3867 25.2960 5566.00 5689.72 75.00
3868 25.3020 5581.00 5738.10 75.00
3869 25.3080 5722.00 5799.08 76.00
3870 25.3140 5773.00 5879.09 76.00
3871 25.3200 5889.00 5980.14 77.00
3872 25.3260 6052.00 6106.72 78.00
3873 25.3320 6158.00 6261.05 78.00
3874 25.3380 6403.00 6443.15 80.00
3875 25.3440 6673.00 6650.95 82.00
3876 25.3500 6837.00 6874.77 83.00
3877 25.3560 7068.00 7105.84 84.00
3878 25.3620 7219.00 7319.90 85.00
3879 25.3680 7295.00 7487.54 85.00
3880 25.3740 7325.00 7592.72 86.00
3881 25.3800 7315.00 7633.29 86.00
3882 25.3860 7281.00 7625.82 85.00
3883 25.3920 7242.00 7603.69 85.00
3884 25.3980 7401.00 7601.90 86.00
3885 25.4040 7511.00 7652.19 87.00
3886 25.4100 7574.00 7782.05 87.00
3887 25.4160 7856.00 8013.18 89.00
3888 25.4220 8386.00 8364.04 92.00
3889 25.4280 9028.00 8841.01 95.00
3890 25.4340 9796.00 9441.66 99.00
3891 25.4400 10809.00 10145.30 104.00
3892 25.4460 11998.00 10912.40 110.00
3893 25.4520 13164.00 11681.00 115.00
3894 25.4580 13931.00 12383.10 118.00
3895 25.4640 14226.00 12960.80 119.00
3896 25.4700 14291.00 13375.40 120.00
3897 25.4760 13951.00 13585.60 118.00
3898 25.4820 13294.00 13546.90 115.00
3899 25.4880 12478.00 13222.50 112.00
3900 25.4940 11835.00 12625.00 109.00
3901 25.5000 11147.00 11828.70 106.00
3902 25.5060 10344.00 10936.00 102.00
3903 25.5120 9663.00 10040.00 98.00
3904 25.5180 9081.00 9205.11 95.00
3905 25.5240 8559.00 8465.96 93.00
3906 25.5300 8009.00 7839.11 89.00
3907 25.5360 7539.00 7325.92 87.00
3908 25.5420 7155.00 6917.93 85.00
3909 25.5480 6907.00 6602.66 83.00
3910 25.5540 6640.00 6362.06 81.00
3911 25.5600 6430.00 6181.14 80.00
3912 25.5660 6404.00 6045.35 80.00
3913 25.5720 6278.00 5942.74 79.00
3914 25.5780 6082.00 5864.06 78.00
3915 25.5840 5952.00 5803.38 77.00
3916 25.5900 6045.00 5753.87 78.00
3917 25.5960 6087.00 5713.26 78.00
3918 25.6020 6061.00 5679.36 78.00
3919 25.6080 5939.00 5650.68 77.00
3920 25.6140 5966.00 5626.27 77.00
3921 25.6200 5998.00 5606.46 77.00
3922 25.6260 5993.00 5588.78 77.00
3923 25.6320 5921.00 5573.90 77.00
3924 25.6380 5922.00 5561.62 77.00
3925 25.6440 5842.00 5551.83 76.00
3926 25.6500 5729.00 5545.50 76.00
3927 25.6560 5756.00 5540.77 76.00
3928 25.6620 5738.00 5538.93 76.00
3929 25.6680 5617.00 5540.52 75.00
3930 25.6740 5727.00 5546.40 76.00
3931 25.6800 5698.00 5557.83 75.00
3932 25.6860 5606.00 5577.53 75.00
3933 25.6920 5603.00 5605.67 75.00
3934 25.6980 5735.00 5645.83 76.00
3935 25.7040 5822.00 5700.71 76.00
3936 25.7100 5768.00 5772.78 76.00
3937 25.7160 5947.00 5863.83 77.00
3938 25.7220 6061.00 5975.26 78.00
3939 25.7280 6256.00 6103.34 79.00
3940 25.7340 6489.00 6244.48 81.00
3941 25.7400 6622.00 6390.18 81.00
3942 25.7460 6724.00 6526.76 82.00
3943 25.7520 6820.00 6636.71 83.00
3944 25.7580 6838.00 6698.60 83.00
3945 25.7640 6777.00 6711.14 82.00
3946 25.7700 6855.00 6657.74 83.00
3947 25.7760 6876.00 6577.49 83.00
3948 25.7820 6847.00 6465.19 83.00
3949 25.7880 6754.00 6354.36 82.00
3950 25.7940 6625.00 6257.51 81.00
3951 25.8000 6653.00 6185.41 82.00
3952 25.8060 6655.00 6144.11 82.00
3953 25.8120 6623.00 6136.90 81.00
3954 25.8180 6739.00 6165.89 82.00
3955 25.8240 6822.00 6228.44 83.00
3956 25.8300 7049.00 6323.67 84.00
3957 25.8360 7345.00 6448.37 86.00
3958 25.8420 7400.00 6597.92 86.00
3959 25.8480 7478.00 6766.86 86.00
3960 25.8540 7410.00 6951.86 86.00
3961 25.8600 7305.00 7151.95 85.00
3962 25.8660 7509.00 7376.68 87.00
3963 25.8720 7626.00 7639.71 87.00
3964 25.8780 7798.00 7952.05 88.00
3965 25.8840 8234.00 8315.45 91.00
3966 25.8900 8735.00 8718.46 93.00
3967 25.8960 9385.00 9129.46 97.00
3968 25.9020 9968.00 9500.66 100.00
3969 25.9080 10256.00 9789.76 101.00
3970 25.9140 10185.00 9898.27 101.00
3971 25.9200 9763.00 9815.02 99.00
3972 25.9260 9209.00 9545.17 96.00
3973 25.9320 8797.00 9170.34 94.00
3974 25.9380 8110.00 8696.00 90.00
3975 25.9440 7726.00 8206.28 88.00
3976 25.9500 7400.00 7743.21 86.00
3977 25.9560 6947.00 7335.64 83.00
3978 25.9620 6849.00 6996.09 83.00
3979 25.9680 6895.00 6731.94 83.00
3980 25.9740 6916.00 6543.25 83.00
3981 25.9800 6902.00 6425.88 83.00
3982 25.9860 7043.00 6372.93 84.00
3983 25.9920 7073.00 6376.87 84.00
3984 25.9980 7138.00 6425.77 84.00
3985 26.0040 7294.00 6509.19 85.00
3986 26.0100 7373.00 6606.74 86.00
3987 26.0160 7444.00 6714.13 86.00
3988 26.0220 7313.00 6805.37 86.00
3989 26.0280 7208.00 6858.42 85.00
3990 26.0340 7224.00 6860.37 85.00
3991 26.0400 6994.00 6796.02 84.00
3992 26.0460 6971.00 6696.11 83.00
3993 26.0520 6810.00 6562.00 83.00
3994 26.0580 6805.00 6410.91 82.00
3995 26.0640 6766.00 6255.92 82.00
3996 26.0700 6707.00 6109.37 82.00
3997 26.0760 6494.00 5978.44 81.00
3998 26.0820 6447.00 5866.74 80.00
3999 26.0880 6359.00 5775.12 80.00
4000 26.0940 6276.00 5703.59 79.00
4001 26.1000 6278.00 5648.10 79.00
4002 26.1060 6117.00 5607.08 78.00
4003 26.1120 6042.00 5577.88 78.00
4004 26.1180 6029.00 5558.03 78.00
4005 26.1240 5950.00 5546.47 77.00
4006 26.1300 6063.00 5539.58 78.00
4007 26.1360 5927.00 5537.17 77.00
4008 26.1420 5937.00 5538.41 77.00
4009 26.1480 5977.00 5542.79 77.00
4010 26.1540 5794.00 5550.00 76.00
4011 26.1600 5762.00 5560.90 76.00
4012 26.1660 5826.00 5573.49 76.00
4013 26.1720 5813.00 5588.84 76.00
4014 26.1780 5767.00 5614.05 76.00
4015 26.1840 5768.00 5635.67 76.00
4016 26.1900 5891.00 5660.81 77.00
4017 26.1960 5960.00 5690.92 77.00
4018 26.2020 6084.00 5727.17 78.00
4019 26.2080 6268.00 5789.00 79.00
4020 26.2140 6242.00 5835.21 79.00
4021 26.2200 6296.00 5918.13 79.00
4022 26.2260 6481.00 5985.01 81.00
4023 26.2320 6443.00 6065.34 80.00
4024 26.2380 6507.00 6165.48 81.00
4025 26.2440 6608.00 6311.52 81.00
4026 26.2500 6930.00 6477.34 83.00
4027 26.2560 7298.00 6708.97 85.00
4028 26.2620 7633.00 6996.09 87.00
4029 26.2680 8125.00 7370.44 90.00
4030 26.2740 8996.00 7853.83 95.00
4031 26.2800 9783.00 8467.67 99.00
4032 26.2860 11060.00 9223.05 105.00
4033 26.2920 11927.00 10128.10 109.00
4034 26.2980 13360.00 11174.20 116.00
4035 26.3040 14169.00 12328.90 119.00
4036 26.3100 15346.00 13533.40 124.00
4037 26.3160 15636.00 14692.70 125.00
4038 26.3220 15986.00 15689.50 126.00
4039 26.3280 15824.00 16393.70 126.00
4040 26.3340 15683.00 16701.80 125.00
4041 26.3400 15338.00 16568.30 124.00
4042 26.3460 14908.00 16019.50 122.00
4043 26.3520 14044.00 15152.40 119.00
4044 26.3580 13827.00 14102.80 118.00
4045 26.3640 13301.00 13005.20 115.00
4046 26.3700 12604.00 11961.80 112.00
4047 26.3760 12214.00 11042.50 111.00
4048 26.3820 11881.00 10287.80 109.00
4049 26.3880 11324.00 9719.80 106.00
4050 26.3940 11023.00 9349.12 105.00
4051 26.4000 11038.00 9182.20 105.00
4052 26.4060 11153.00 9222.89 106.00
4053 26.4120 11467.00 9480.88 107.00
4054 26.4180 12160.00 9970.39 110.00
4055 26.4240 12807.00 10711.00 113.00
4056 26.4300 14028.00 11721.30 118.00
4057 26.4360 15567.00 13012.80 125.00
4058 26.4420 17809.00 14585.00 133.00
4059 26.4480 19796.00 16414.80 141.00
4060 26.4540 23165.00 18439.20 152.00
4061 26.4600 26391.00 20544.30 162.00
4062 26.4660 28431.00 22566.40 169.00
4063 26.4720 29899.00 24304.50 173.00
4064 26.4780 30655.00 25597.20 175.00
4065 26.4840 30120.00 26318.60 174.00
4066 26.4900 28862.00 26406.20 170.00
4067 26.4960 27030.00 25815.00 164.00
4068 26.5020 25469.00 24567.90 160.00
4069 26.5080 23277.00 22790.30 153.00
4070 26.5140 20983.00 20691.90 145.00
4071 26.5200 19165.00 18495.70 138.00
4072 26.5260 17275.00 16379.40 131.00
4073 26.5320 16097.00 14456.70 127.00
4074 26.5380 14682.00 12785.50 121.00
4075 26.5440 13044.00 11386.10 114.00
4076 26.5500 12162.00 10251.30 110.00
4077 26.5560 10961.00 9355.77 105.00
4078 26.5620 10103.00 8666.28 101.00
4079 26.5680 9391.00 8146.93 97.00
4080 26.5740 8801.00 7760.34 94.00
4081 26.5800 8224.00 7475.97 91.00
4082 26.5860 7995.00 7268.42 89.00
4083 26.5920 7500.00 7115.93 87.00
4084 26.5980 7092.00 7008.62 84.00
4085 26.6040 6971.00 6932.42 83.00
4086 26.6100 6788.00 6880.52 82.00
4087 26.6160 6700.00 6850.49 82.00
4088 26.6220 6732.00 6838.69 82.00
4089 26.6280 6710.00 6843.73 82.00
4090 26.6340 6715.00 6866.16 82.00
4091 26.6400 6625.00 6904.32 81.00
4092 26.6460 6539.00 6960.43 81.00
4093 26.6520 6618.00 7038.38 81.00
4094 26.6580 6622.00 7137.98 81.00
4095 26.6640 6927.00 7265.89 83.00
4096 26.6700 6775.00 7430.22 82.00
4097 26.6760 6961.00 7638.73 83.00
4098 26.6820 7177.00 7905.55 85.00
4099 26.6880 7364.00 8248.21 86.00
4100 26.6940 7650.00 8688.89 87.00
4101 26.7000 8275.00 9256.23 91.00
4102 26.7060 9048.00 9981.20 95.00
4103 26.7120 9427.00 10903.40 97.00
4104 26.7180 10527.00 12064.70 103.00
4105 26.7240 12144.00 13505.30 110.00
4106 26.7300 13570.00 15259.60 116.00
4107 26.7360 15737.00 17348.90 125.00
4108 26.7420 17820.00 19768.10 133.00
4109 26.7480 21344.00 22492.30 146.00
4110 26.7540 25270.00 25480.30 159.00
4111 26.7600 30891.00 28669.90 176.00
4112 26.7660 36872.00 31957.10 192.00
4113 26.7720 43164.00 35163.40 208.00
4114 26.7780 47799.00 38032.40 219.00
4115 26.7840 50924.00 40281.00 226.00
4116 26.7900 49519.00 41685.90 223.00
4117 26.7960 46009.00 42149.90 214.00
4118 26.8020 41391.00 41714.00 203.00
4119 26.8080 38571.00 40496.40 196.00
4120 26.8140 34137.00 38631.30 185.00
4121 26.8200 30369.00 36235.60 174.00
4122 26.8260 26822.00 33430.20 164.00
4123 26.8320 24431.00 30357.10 156.00
4124 26.8380 22009.00 27182.50 148.00
4125 26.8440 20032.00 24068.60 142.00
4126 26.8500 18172.00 21153.90 135.00
4127 26.8560 16459.00 18526.00 128.00
4128 26.8620 14774.00 16226.40 122.00
4129 26.8680 13513.00 14261.90 116.00
4130 26.8740 12598.00 12622.70 112.00
4131 26.8800 11757.00 11279.90 108.00
4132 26.8860 10868.00 10197.40 104.00
4133 26.8920 10102.00 9335.67 101.00
4134 26.8980 9412.00 8652.35 97.00
4135 26.9040 8983.00 8116.87 95.00
4136 26.9100 8458.00 7687.58 92.00
4137 26.9160 7855.00 7350.02 89.00
4138 26.9220 7714.00 7077.96 88.00
4139 26.9280 7232.00 6855.44 85.00
4140 26.9340 7175.00 6670.29 85.00
4141 26.9400 6735.00 6514.80 82.00
4142 26.9460 6550.00 6380.49 81.00
4143 26.9520 6313.00 6263.60 79.00
4144 26.9580 6122.00 6160.76 78.00
4145 26.9640 6009.00 6069.45 78.00
4146 26.9700 5737.00 5987.81 76.00
4147 26.9760 5652.00 5915.36 75.00
4148 26.9820 5650.00 5848.97 75.00
4149 26.9880 5439.00 5788.74 74.00
4150 26.9940 5488.00 5733.92 74.00
4151 27.0000 5465.00 5683.89 74.00
4152 27.0060 5457.00 5639.11 74.00
4153 27.0120 5352.00 5597.18 73.00
4154 27.0180 5373.00 5558.70 73.00
4155 27.0240 5319.00 5523.40 73.00
4156 27.0300 5273.00 5491.02 73.00
4157 27.0360 5255.00 5461.40 72.00
4158 27.0420 5111.00 5435.38 71.00
4159 27.0480 4963.00 5391.54 70.00
4160 27.0540 4980.00 5369.92 71.00
4161 27.0600 4935.00 5350.73 70.00
4162 27.0660 4970.00 5333.93 70.00
4163 27.0720 4946.00 5293.35 70.00
4164 27.0780 4875.00 5282.65 70.00
4165 27.0840 4887.00 5272.95 70.00
4166 27.0900 4923.00 5264.97 70.00
4167 27.0960 4786.00 5258.21 69.00
4168 27.1020 4803.00 5252.04 69.00
4169 27.1080 4814.00 5246.61 69.00
4170 27.1140 4827.00 5239.19 69.00
4171 27.1200 4872.00 5230.44 70.00
4172 27.1260 4788.00 5220.69 69.00
4173 27.1320 4766.00 5214.17 69.00
4174 27.1380 4703.00 5205.80 69.00
4175 27.1440 4783.00 5201.19 69.00
4176 27.1500 4774.00 5203.07 69.00
4177 27.1560 4751.00 5207.45 69.00
4178 27.1620 4736.00 5219.36 69.00
4179 27.1680 4890.00 5240.54 70.00
4180 27.1740 4922.00 5271.61 70.00
4181 27.1800 4845.00 5315.34 70.00
4182 27.1860 5006.00 5370.39 71.00
4183 27.1920 5154.00 5437.49 72.00
4184 27.1980 5201.00 5515.16 72.00
4185 27.2040 5262.00 5600.12 73.00
4186 27.2100 5447.00 5687.73 74.00
4187 27.2160 5515.00 5767.52 74.00
4188 27.2220 5598.00 5829.26 75.00
4189 27.2280 5707.00 5861.31 76.00
4190 27.2340 5713.00 5856.10 76.00
4191 27.2400 5560.00 5814.06 75.00
4192 27.2460 5478.00 5744.37 74.00
4193 27.2520 5432.00 5656.77 74.00
4194 27.2580 5484.00 5563.25 74.00
4195 27.2640 5445.00 5471.94 74.00
4196 27.2700 5327.00 5388.17 73.00
4197 27.2760 5133.00 5314.94 72.00
4198 27.2820 5042.00 5254.52 71.00
4199 27.2880 5031.00 5204.97 71.00
4200 27.2940 4799.00 5166.53 69.00
4201 27.3000 4747.00 5137.93 69.00
4202 27.3060 4846.00 5117.67 70.00
4203 27.3120 4872.00 5105.28 70.00
4204 27.3180 4816.00 5097.46 69.00
4205 27.3240 4787.00 5094.15 69.00
4206 27.3300 4793.00 5087.85 69.00
4207 27.3360 4801.00 5091.67 69.00
4208 27.3420 4806.00 5098.44 69.00
4209 27.3480 4785.00 5109.10 69.00
4210 27.3540 4781.00 5119.23 69.00
4211 27.3600 4717.00 5112.91 69.00
4212 27.3660 4704.00 5133.14 69.00
4213 27.3720 4697.00 5129.98 69.00
4214 27.3780 4726.00 5161.11 69.00
4215 27.3840 4771.00 5198.77 69.00
4216 27.3900 4898.00 5247.54 70.00
4217 27.3960 5002.00 5292.40 71.00
4218 27.4020 5059.00 5374.50 71.00
4219 27.4080 5266.00 5467.60 73.00
4220 27.4140 5576.00 5610.76 75.00
4221 27.4200 5907.00 5799.41 77.00
4222 27.4260 6207.00 6044.47 79.00
4223 27.4320 6540.00 6360.11 81.00
4224 27.4380 7163.00 6754.96 85.00
4225 27.4440 7915.00 7240.14 89.00
4226 27.4500 8568.00 7815.01 93.00
4227 27.4560 9308.00 8474.57 96.00
4228 27.4620 9948.00 9198.73 100.00
4229 27.4680 10585.00 9949.99 103.00
4230 27.4740 11013.00 10694.00 105.00
4231 27.4800 11116.00 11315.90 105.00
4232 27.4860 11085.00 11755.80 105.00
4233 27.4920 10833.00 11947.40 104.00
4234 27.4980 10465.00 11861.70 102.00
4235 27.5040 10175.00 11509.90 101.00
4236 27.5100 9816.00 10945.90 99.00
4237 27.5160 9412.00 10247.20 97.00
4238 27.5220 8904.00 9495.88 94.00
4239 27.5280 8466.00 8754.72 92.00
4240 27.5340 8054.00 8066.51 90.00
4241 27.5400 7700.00 7458.33 88.00
4242 27.5460 7448.00 6940.23 86.00
4243 27.5520 7174.00 6512.70 85.00
4244 27.5580 6820.00 6168.86 83.00
4245 27.5640 6516.00 5900.62 81.00
4246 27.5700 6433.00 5697.75 80.00
4247 27.5760 6162.00 5541.29 78.00
4248 27.5820 5919.00 5425.09 77.00
4249 27.5880 5774.00 5338.67 76.00
4250 27.5940 5618.00 5274.50 75.00
4251 27.6000 5454.00 5231.81 74.00
4252 27.6060 5287.00 5197.19 73.00
4253 27.6120 5198.00 5172.76 72.00
4254 27.6180 5118.00 5156.08 72.00
4255 27.6240 5105.00 5148.67 71.00
4256 27.6300 5019.00 5149.85 71.00
4257 27.6360 4925.00 5160.77 70.00
4258 27.6420 4846.00 5182.37 70.00
4259 27.6480 4809.00 5219.42 69.00
4260 27.6540 4845.00 5274.43 70.00
4261 27.6600 4916.00 5350.67 70.00
4262 27.6660 4984.00 5454.72 71.00
4263 27.6720 5189.00 5590.15 72.00
4264 27.6780 5344.00 5760.82 73.00
4265 27.6840 5442.00 5968.25 74.00
4266 27.6900 5742.00 6214.30 76.00
4267 27.6960 6052.00 6493.83 78.00
4268 27.7020 6391.00 6796.21 80.00
4269 27.7080 6858.00 7106.84 83.00
4270 27.7140 7102.00 7400.88 84.00
4271 27.7200 7235.00 7651.42 85.00
4272 27.7260 7390.00 7833.90 86.00
4273 27.7320 7609.00 7934.93 87.00
4274 27.7380 7575.00 7945.96 87.00
4275 27.7440 7299.00 7864.21 85.00
4276 27.7500 7155.00 7693.65 85.00
4277 27.7560 7073.00 7451.41 84.00
4278 27.7620 6823.00 7160.25 83.00
4279 27.7680 6457.00 6845.40 80.00
4280 27.7740 6218.00 6532.48 79.00
4281 27.7800 5862.00 6238.22 77.00
4282 27.7860 5582.00 5974.01 75.00
4283 27.7920 5443.00 5744.33 74.00
4284 27.7980 5237.00 5552.53 72.00
4285 27.8040 5005.00 5396.02 71.00
4286 27.8100 4952.00 5270.22 70.00
4287 27.8160 4916.00 5170.89 70.00
4288 27.8220 4788.00 5095.84 69.00
4289 27.8280 4643.00 5038.83 68.00
4290 27.8340 4574.00 4994.87 68.00
4291 27.8400 4558.00 4962.68 68.00
4292 27.8460 4589.00 4938.68 68.00
4293 27.8520 4532.00 4919.91 67.00
4294 27.8580 4546.00 4906.94 67.00
4295 27.8640 4497.00 4897.78 67.00
4296 27.8700 4403.00 4891.77 66.00
4297 27.8760 4446.00 4887.47 67.00
4298 27.8820 4536.00 4886.62 67.00
4299 27.8880 4518.00 4888.06 67.00
4300 27.8940 4506.00 4890.72 67.00
4301 27.9000 4453.00 4896.62 67.00
4302 27.9060 4488.00 4904.83 67.00
4303 27.9120 4567.00 4915.46 68.00
4304 27.9180 4498.00 4927.67 67.00
4305 27.9240 4505.00 4943.73 67.00
4306 27.9300 4506.00 4962.93 67.00
4307 27.9360 4601.00 4984.74 68.00
4308 27.9420 4527.00 5011.70 67.00
4309 27.9480 4619.00 5043.68 68.00
4310 27.9540 4764.00 5081.84 69.00
4311 27.9600 4860.00 5126.89 70.00
4312 27.9660 4901.00 5183.37 70.00
4313 27.9720 4908.00 5253.94 70.00
4314 27.9780 5169.00 5343.81 72.00
4315 27.9840 5354.00 5459.16 73.00
4316 27.9900 5476.00 5611.65 74.00
4317 27.9960 5566.00 5812.41 75.00
4318 28.0020 5821.00 6074.96 76.00
4319 28.0080 6087.00 6417.37 78.00
4320 28.0140 6380.00 6855.35 80.00
4321 28.0200 6871.00 7403.07 83.00
4322 28.0260 7799.00 8069.31 88.00
4323 28.0320 8797.00 8858.43 94.00
4324 28.0380 10275.00 9759.66 101.00
4325 28.0440 12267.00 10746.40 111.00
4326 28.0500 14282.00 11773.00 120.00
4327 28.0560 15675.00 12764.10 125.00
4328 28.0620 16825.00 13614.70 130.00
4329 28.0680 16968.00 14201.50 130.00
4330 28.0740 15629.00 14422.20 125.00
4331 28.0800 14479.00 14228.30 120.00
4332 28.0860 13430.00 13678.60 116.00
4333 28.0920 12027.00 12869.00 110.00
4334 28.0980 10810.00 11940.50 104.00
4335 28.1040 10103.00 10993.40 101.00
4336 28.1100 9148.00 10105.80 96.00
4337 28.1160 8443.00 9331.98 92.00
4338 28.1220 8085.00 8701.34 90.00
4339 28.1280 7783.00 8227.60 88.00
4340 28.1340 7541.00 7914.65 87.00
4341 28.1400 7559.00 7755.08 87.00
4342 28.1460 7659.00 7729.42 88.00
4343 28.1520 8055.00 7816.18 90.00
4344 28.1580 8417.00 7985.09 92.00
4345 28.1640 8881.00 8200.38 94.00
4346 28.1700 9519.00 8422.54 98.00
4347 28.1760 9880.00 8617.15 99.00
4348 28.1820 9715.00 8752.85 99.00
4349 28.1880 9319.00 8804.82 97.00
4350 28.1940 9148.00 8757.43 96.00
4351 28.2000 8840.00 8591.35 94.00
4352 28.2060 8437.00 8312.94 92.00
4353 28.2120 7795.00 7951.09 88.00
4354 28.2180 7374.00 7542.30 86.00
4355 28.2240 7017.00 7124.49 84.00
4356 28.2300 6600.00 6724.40 81.00
4357 28.2360 6381.00 6358.15 80.00
4358 28.2420 5916.00 6047.32 77.00
4359 28.2480 5662.00 5774.34 75.00
4360 28.2540 5568.00 5548.18 75.00
4361 28.2600 5341.00 5364.38 73.00
4362 28.2660 5228.00 5219.85 72.00
4363 28.2720 5158.00 5107.81 72.00
4364 28.2780 5102.00 5021.41 71.00
4365 28.2840 5009.00 4959.92 71.00
4366 28.2900 4897.00 4912.70 70.00
4367 28.2960 4783.00 4878.44 69.00
4368 28.3020 4689.00 4852.89 68.00
4369 28.3080 4734.00 4835.35 69.00
4370 28.3140 4595.00 4822.32 68.00
4371 28.3200 4654.00 4807.31 68.00
4372 28.3260 4646.00 4797.06 68.00
4373 28.3320 4619.00 4784.01 68.00
4374 28.3380 4501.00 4767.51 67.00
4375 28.3440 4503.00 4742.86 67.00
4376 28.3500 4533.00 4718.92 67.00
4377 28.3560 4425.00 4692.51 67.00
4378 28.3620 4356.00 4665.03 66.00
4379 28.3680 4360.00 4639.17 66.00
4380 28.3740 4433.00 4614.85 67.00
4381 28.3800 4264.00 4592.61 65.00
4382 28.3860 4372.00 4571.83 66.00
4383 28.3920 4451.00 4554.34 67.00
4384 28.3980 4443.00 4539.14 67.00
4385 28.4040 4467.00 4525.02 67.00
4386 28.4100 4403.00 4513.76 66.00
4387 28.4160 4398.00 4504.06 66.00
4388 28.4220 4414.00 4495.68 66.00
4389 28.4280 4319.00 4487.38 66.00
4390 28.4340 4429.00 4480.98 67.00
4391 28.4400 4324.00 4475.31 66.00
4392 28.4460 4468.00 4469.25 67.00
4393 28.4520 4506.00 4464.72 67.00
4394 28.4580 4336.00 4460.66 66.00
4395 28.4640 4353.00 4457.01 66.00
4396 28.4700 4309.00 4452.74 66.00
4397 28.4760 4293.00 4449.83 66.00
4398 28.4820 4277.00 4447.45 65.00
4399 28.4880 4350.00 4445.23 66.00
4400 28.4940 4398.00 4442.34 66.00
4401 28.5000 4371.00 4441.86 66.00
4402 28.5060 4310.00 4441.64 66.00
4403 28.5120 4341.00 4443.76 66.00
4404 28.5180 4383.00 4446.23 66.00
4405 28.5240 4444.00 4449.03 67.00
4406 28.5300 4373.00 4452.19 66.00
4407 28.5360 4365.00 4455.72 66.00
4408 28.5420 4262.00 4459.65 65.00
4409 28.5480 4351.00 4464.33 66.00
4410 28.5540 4361.00 4469.10 66.00
4411 28.5600 4319.00 4474.33 66.00
4412 28.5660 4332.00 4480.06 66.00
4413 28.5720 4309.00 4486.32 66.00
4414 28.5780 4413.00 4493.16 66.00
4415 28.5840 4367.00 4500.63 66.00
4416 28.5900 4447.00 4508.41 67.00
4417 28.5960 4295.00 4517.34 66.00
4418 28.6020 4446.00 4527.10 67.00
4419 28.6080 4318.00 4537.80 66.00
4420 28.6140 4247.00 4549.56 65.00
4421 28.6200 4277.00 4562.50 65.00
4422 28.6260 4329.00 4576.80 66.00
4423 28.6320 4426.00 4592.70 67.00
4424 28.6380 4471.00 4610.50 67.00
4425 28.6440 4340.00 4630.58 66.00
4426 28.6500 4219.00 4653.51 65.00
4427 28.6560 4536.00 4680.03 67.00
4428 28.6620 4461.00 4711.12 67.00
4429 28.6680 4596.00 4748.09 68.00
4430 28.6740 4676.00 4783.27 68.00
4431 28.6800 4665.00 4827.29 68.00
4432 28.6860 4727.00 4894.00 69.00
4433 28.6920 4744.00 4974.52 69.00
4434 28.6980 4834.00 5080.93 70.00
4435 28.7040 4933.00 5201.52 70.00
4436 28.7100 5052.00 5346.11 71.00
4437 28.7160 5285.00 5526.44 73.00
4438 28.7220 5391.00 5726.56 73.00
4439 28.7280 5727.00 5956.33 76.00
4440 28.7340 6025.00 6214.86 78.00
4441 28.7400 6504.00 6499.38 81.00
4442 28.7460 6983.00 6804.47 84.00
4443 28.7520 7426.00 7124.39 86.00
4444 28.7580 7882.00 7456.28 89.00
4445 28.7640 8173.00 7803.16 90.00
4446 28.7700 8897.00 8174.03 94.00
4447 28.7760 9342.00 8580.21 97.00
4448 28.7820 9744.00 9026.38 99.00
4449 28.7880 10029.00 9515.74 100.00
4450 28.7940 10676.00 10027.00 103.00
4451 28.8000 11592.00 10529.00 108.00
4452 28.8060 12801.00 10974.00 113.00
4453 28.8120 12741.00 11338.00 113.00
4454 28.8180 12935.00 11602.70 114.00
4455 28.8240 12970.00 11780.40 114.00
4456 28.8300 12663.00 11894.00 113.00
4457 28.8360 12313.00 11956.50 111.00
4458 28.8420 12014.00 11958.60 110.00
4459 28.8480 11564.00 11871.60 108.00
4460 28.8540 11027.00 11664.40 105.00
4461 28.8600 10845.00 11326.80 104.00
4462 28.8660 10500.00 10880.90 102.00
4463 28.8720 10220.00 10370.30 101.00
4464 28.8780 9586.00 9841.71 98.00
4465 28.8840 9172.00 9328.15 96.00
4466 28.8900 8925.00 8845.37 94.00
4467 28.8960 8975.00 8394.42 95.00
4468 28.9020 8550.00 7973.68 92.00
4469 28.9080 8126.00 7580.40 90.00
4470 28.9140 8070.00 7217.48 90.00
4471 28.9200 7760.00 6889.97 88.00
4472 28.9260 7583.00 6600.93 87.00
4473 28.9320 7293.00 6349.47 85.00
4474 28.9380 6980.00 6130.45 84.00
4475 28.9440 6821.00 5937.97 83.00
4476 28.9500 6652.00 5766.36 82.00
4477 28.9560 6383.00 5613.01 80.00
4478 28.9620 6102.00 5476.80 78.00
4479 28.9680 5881.00 5357.61 77.00
4480 28.9740 5689.00 5255.07 75.00
4481 28.9800 5833.00 5168.16 76.00
4482 28.9860 5673.00 5095.85 75.00
4483 28.9920 5547.00 5035.05 74.00
4484 28.9980 5366.00 4984.28 73.00
4485 29.0040 5258.00 4940.61 73.00
4486 29.0100 5094.00 4904.69 71.00
4487 29.0160 5078.00 4874.75 71.00
4488 29.0220 4984.00 4850.57 71.00
4489 29.0280 4844.00 4832.33 70.00
4490 29.0340 5003.00 4820.10 71.00
4491 29.0400 4888.00 4814.72 70.00
4492 29.0460 4980.00 4815.94 71.00
4493 29.0520 4790.00 4824.71 69.00
4494 29.0580 4750.00 4841.60 69.00
4495 29.0640 4830.00 4867.09 69.00
4496 29.0700 4883.00 4901.41 70.00
4497 29.0760 4943.00 4945.83 70.00
4498 29.0820 4914.00 4996.61 70.00
4499 29.0880 4995.00 5053.58 71.00
4500 29.0940 5157.00 5114.16 72.00
4501 29.1000 5158.00 5175.98 72.00
4502 29.1060 5288.00 5231.39 73.00
4503 29.1120 5200.00 5278.51 72.00
4504 29.1180 5338.00 5311.53 73.00
4505 29.1240 5261.00 5327.21 73.00
4506 29.1300 5139.00 5325.79 72.00
4507 29.1360 5300.00 5311.16 73.00
4508 29.1420 5423.00 5289.32 74.00
4509 29.1480 5375.00 5266.08 73.00
4510 29.1540 5369.00 5245.62 73.00
4511 29.1600 5405.00 5230.06 74.00
4512 29.1660 5423.00 5219.97 74.00
4513 29.1720 5386.00 5216.59 73.00
4514 29.1780 5372.00 5216.91 73.00
4515 29.1840 5382.00 5222.64 73.00
4516 29.1900 5242.00 5234.00 72.00
4517 29.1960 5423.00 5250.42 74.00
4518 29.2020 5261.00 5270.37 73.00
4519 29.2080 5270.00 5290.62 73.00
4520 29.2140 5306.00 5311.90 73.00
4521 29.2200 5238.00 5333.06 72.00
4522 29.2260 5269.00 5357.99 73.00
4523 29.2320 5417.00 5393.08 74.00
4524 29.2380 5445.00 5446.60 74.00
4525 29.2440 5554.00 5527.91 75.00
4526 29.2500 5772.00 5647.30 76.00
4527 29.2560 5940.00 5815.72 77.00
4528 29.2620 6266.00 6044.05 79.00
4529 29.2680 6604.00 6343.47 81.00
4530 29.2740 7154.00 6723.16 85.00
4531 29.2800 7773.00 7189.33 88.00
4532 29.2860 8424.00 7743.16 92.00
4533 29.2920 9074.00 8378.49 95.00
4534 29.2980 10057.00 9078.95 100.00
4535 29.3040 10736.00 9814.74 104.00
4536 29.3100 11278.00 10538.20 106.00
4537 29.3160 11580.00 11189.60 108.00
4538 29.3220 11592.00 11694.80 108.00
4539 29.3280 11691.00 11986.40 108.00
4540 29.3340 11438.00 12020.20 107.00
4541 29.3400 11258.00 11789.40 106.00
4542 29.3460 10905.00 11327.90 104.00
4543 29.3520 10420.00 10699.90 102.00
4544 29.3580 9918.00 9979.91 100.00
4545 29.3640 9583.00 9234.81 98.00
4546 29.3700 8981.00 8513.45 95.00
4547 29.3760 8544.00 7852.43 92.00
4548 29.3820 8190.00 7266.82 90.00
4549 29.3880 7749.00 6766.92 88.00
4550 29.3940 7339.00 6351.27 86.00
4551 29.4000 7136.00 6014.02 84.00
4552 29.4060 6905.00 5745.91 83.00
4553 29.4120 6457.00 5534.92 80.00
4554 29.4180 6266.00 5371.78 79.00
4555 29.4240 6034.00 5245.00 78.00
4556 29.4300 5859.00 5141.06 77.00
4557 29.4360 5751.00 5062.36 76.00
4558 29.4420 5686.00 4998.84 75.00
4559 29.4480 5503.00 4946.65 74.00
4560 29.4540 5253.00 4903.16 72.00
4561 29.4600 5116.00 4866.48 72.00
4562 29.4660 5224.00 4835.26 72.00
4563 29.4720 5185.00 4807.83 72.00
4564 29.4780 5109.00 4785.30 71.00
4565 29.4840 4972.00 4766.06 71.00
4566 29.4900 4992.00 4749.70 71.00
4567 29.4960 4973.00 4735.93 71.00
4568 29.5020 4958.00 4724.51 70.00
4569 29.5080 4910.00 4715.26 70.00
4570 29.5140 4921.00 4707.10 70.00
4571 29.5200 4933.00 4699.52 70.00
4572 29.5260 4903.00 4696.64 70.00
4573 29.5320 4897.00 4696.10 70.00
4574 29.5380 4924.00 4698.14 70.00
4575 29.5440 4992.00 4703.10 71.00
4576 29.5500 5031.00 4711.35 71.00
4577 29.5560 4972.00 4723.29 71.00
4578 29.5620 4860.00 4739.31 70.00
4579 29.5680 4782.00 4758.96 69.00
4580 29.5740 4824.00 4783.81 69.00
4581 29.5800 4932.00 4813.06 70.00
4582 29.5860 4912.00 4849.14 70.00
4583 29.5920 4986.00 4885.62 71.00
4584 29.5980 5215.00 4923.89 72.00
4585 29.6040 5159.00 4961.98 72.00
4586 29.6100 5189.00 4997.70 72.00
4587 29.6160 5241.00 5028.42 72.00
4588 29.6220 5210.00 5056.13 72.00
4589 29.6280 5255.00 5087.58 72.00
4590 29.6340 5375.00 5114.47 73.00
4591 29.6400 5465.00 5146.00 74.00
4592 29.6460 5502.00 5184.92 74.00
4593 29.6520 5559.00 5232.68 75.00
4594 29.6580 5714.00 5289.47 76.00
4595 29.6640 5775.00 5354.50 76.00
4596 29.6700 5808.00 5434.82 76.00
4597 29.6760 5814.00 5512.79 76.00
4598 29.6820 5830.00 5595.24 76.00
4599 29.6880 5992.00 5680.21 77.00
4600 29.6940 6165.00 5763.75 79.00
4601 29.7000 6236.00 5839.40 79.00
4602 29.7060 6272.00 5899.41 79.00
4603 29.7120 6220.00 5937.11 79.00
4604 29.7180 6226.00 5947.86 79.00
4605 29.7240 6376.00 5933.42 80.00
4606 29.7300 6297.00 5895.59 79.00
4607 29.7360 6215.00 5838.53 79.00
4608 29.7420 6202.00 5768.75 79.00
4609 29.7480 6068.00 5693.70 78.00
4610 29.7540 5991.00 5624.28 77.00
4611 29.7600 5905.00 5566.82 77.00
4612 29.7660 5899.00 5526.23 77.00
4613 29.7720 5903.00 5504.51 77.00
4614 29.7780 5979.00 5500.87 77.00
4615 29.7840 6027.00 5511.97 78.00
4616 29.7900 5954.00 5531.82 77.00
4617 29.7960 5970.00 5551.85 77.00
4618 29.8020 6027.00 5563.60 78.00
4619 29.8080 6048.00 5559.11 78.00
4620 29.8140 6085.00 5535.01 78.00
4621 29.8200 6090.00 5501.18 78.00
4622 29.8260 6116.00 5445.30 78.00
4623 29.8320 6066.00 5389.08 78.00
4624 29.8380 5995.00 5324.03 77.00
4625 29.8440 6103.00 5282.46 78.00
4626 29.8500 6131.00 5218.98 78.00
4627 29.8560 6094.00 5170.69 78.00
4628 29.8620 5919.00 5114.77 77.00
4629 29.8680 5772.00 5064.77 76.00
4630 29.8740 5645.00 5021.72 75.00
4631 29.8800 5506.00 4986.03 74.00
4632 29.8860 5480.00 4957.59 74.00
4633 29.8920 5422.00 4942.72 74.00
4634 29.8980 5358.00 4927.41 73.00
4635 29.9040 5367.00 4917.63 73.00
4636 29.9100 5284.00 4912.72 73.00
4637 29.9160 5281.00 4912.11 73.00
4638 29.9220 5325.00 4915.31 73.00
4639 29.9280 5299.00 4920.98 73.00
4640 29.9340 5259.00 4930.88 73.00
4641 29.9400 5146.00 4943.95 72.00
4642 29.9460 5154.00 4962.77 72.00
4643 29.9520 5272.00 4975.73 73.00
4644 29.9580 5358.00 4999.77 73.00
4645 29.9640 5313.00 5029.23 73.00
4646 29.9700 5285.00 5064.51 73.00
4647 29.9760 5439.00 5107.42 74.00
4648 29.9820 5658.00 5160.13 75.00
4649 29.9880 5716.00 5225.43 76.00
4650 29.9940 5695.00 5306.70 75.00
4651 30.0000 5791.00 5407.97 76.00
4652 30.0060 6014.00 5533.77 78.00
4653 30.0120 6323.00 5688.88 80.00
4654 30.0180 6582.00 5878.46 81.00
4655 30.0240 6873.00 6107.07 83.00
4656 30.0300 7260.00 6377.50 85.00
4657 30.0360 7814.00 6693.91 88.00
4658 30.0420 8372.00 7054.62 91.00
4659 30.0480 8719.00 7454.69 93.00
4660 30.0540 9308.00 7885.52 96.00
4661 30.0600 9954.00 8326.10 100.00
4662 30.0660 10380.00 8758.18 102.00
4663 30.0720 10678.00 9163.31 103.00
4664 30.0780 10801.00 9529.46 104.00
4665 30.0840 10835.00 9850.87 104.00
4666 30.0900 10632.00 10119.30 103.00
4667 30.0960 10306.00 10317.20 102.00
4668 30.1020 10077.00 10415.90 100.00
4669 30.1080 9955.00 10385.00 100.00
4670 30.1140 9917.00 10208.50 100.00
4671 30.1200 9576.00 9897.48 98.00
4672 30.1260 9076.00 9487.50 95.00
4673 30.1320 8756.00 9023.59 94.00
4674 30.1380 8566.00 8551.89 93.00
4675 30.1440 8283.00 8105.09 91.00
4676 30.1500 8093.00 7705.97 90.00
4677 30.1560 8118.00 7369.29 90.00
4678 30.1620 7958.00 7103.15 89.00
4679 30.1680 7684.00 6911.13 88.00
4680 30.1740 7673.00 6793.53 88.00
4681 30.1800 7772.00 6748.41 88.00
4682 30.1860 7820.00 6772.37 88.00
4683 30.1920 7939.00 6860.96 89.00
4684 30.1980 8119.00 7008.88 90.00
4685 30.2040 8328.00 7209.64 91.00
4686 30.2100 8473.00 7454.76 92.00
4687 30.2160 8941.00 7733.85 95.00
4688 30.2220 9310.00 8034.33 96.00
4689 30.2280 9483.00 8344.58 97.00
4690 30.2340 9713.00 8656.69 99.00
4691 30.2400 9835.00 8972.44 99.00
4692 30.2460 9883.00 9294.48 99.00
4693 30.2520 9931.00 9623.37 100.00
4694 30.2580 9824.00 9952.92 99.00
4695 30.2640 9649.00 10266.80 98.00
4696 30.2700 9680.00 10544.10 98.00
4697 30.2760 9901.00 10770.30 100.00
4698 30.2820 10002.00 10943.20 100.00
4699 30.2880 10153.00 11069.90 101.00
4700 30.2940 10447.00 11156.80 102.00
4701 30.3000 10678.00 11199.20 103.00
4702 30.3060 10494.00 11178.80 102.00
4703 30.3120 10258.00 11069.20 101.00
4704 30.3180 9982.00 10853.50 100.00
4705 30.3240 9574.00 10534.20 98.00
4706 30.3300 9161.00 10136.30 96.00
4707 30.3360 8799.00 9697.05 94.00
4708 30.3420 8507.00 9258.24 92.00
4709 30.3480 8203.00 8846.29 91.00
4710 30.3540 7866.00 8487.00 89.00
4711 30.3600 7705.00 8193.41 88.00
4712 30.3660 7697.00 7975.12 88.00
4713 30.3720 7604.00 7837.88 87.00
4714 30.3780 7678.00 7789.97 88.00
4715 30.3840 7824.00 7836.92 88.00
4716 30.3900 8088.00 7987.23 90.00
4717 30.3960 8468.00 8252.59 92.00
4718 30.4020 8840.00 8648.17 94.00
4719 30.4080 9544.00 9191.76 98.00
4720 30.4140 10225.00 9903.77 101.00
4721 30.4200 11000.00 10806.20 105.00
4722 30.4260 12207.00 11918.00 110.00
4723 30.4320 13562.00 13252.10 116.00
4724 30.4380 15302.00 14809.40 124.00
4725 30.4440 17184.00 16579.00 131.00
4726 30.4500 19140.00 18516.90 138.00
4727 30.4560 21438.00 20558.40 146.00
4728 30.4620 23688.00 22614.90 154.00
4729 30.4680 25807.00 24576.30 161.00
4730 30.4740 28256.00 26324.40 168.00
4731 30.4800 29799.00 27737.90 173.00
4732 30.4860 30801.00 28686.10 176.00
4733 30.4920 30655.00 29072.30 175.00
4734 30.4980 30067.00 28848.30 173.00
4735 30.5040 28969.00 28047.00 170.00
4736 30.5100 27337.00 26781.30 165.00
4737 30.5160 25748.00 25211.30 160.00
4738 30.5220 24043.00 23500.20 155.00
4739 30.5280 22065.00 21775.70 149.00
4740 30.5340 20136.00 20123.00 142.00
4741 30.5400 18540.00 18586.40 136.00
4742 30.5460 17283.00 17191.90 131.00
4743 30.5520 16529.00 15957.60 129.00
4744 30.5580 15613.00 14903.50 125.00
4745 30.5640 15037.00 14046.40 123.00
4746 30.5700 14966.00 13392.40 122.00
4747 30.5760 14417.00 12932.60 120.00
4748 30.5820 13936.00 12643.40 118.00
4749 30.5880 13604.00 12489.70 117.00
4750 30.5940 13699.00 12429.10 117.00
4751 30.6000 13493.00 12415.90 116.00
4752 30.6060 13076.00 12402.70 114.00
4753 30.6120 12654.00 12341.30 112.00
4754 30.6180 12220.00 12187.30 111.00
4755 30.6240 11886.00 11911.10 109.00
4756 30.6300 11509.00 11510.10 107.00
4757 30.6360 10875.00 11009.80 104.00
4758 30.6420 10685.00 10453.00 103.00
4759 30.6480 10332.00 9883.41 102.00
4760 30.6540 10039.00 9339.89 100.00
4761 30.6600 9694.00 8846.14 98.00
4762 30.6660 9403.00 8417.23 97.00
4763 30.6720 9258.00 8059.17 96.00
4764 30.6780 9053.00 7770.88 95.00
4765 30.6840 8785.00 7545.23 94.00
4766 30.6900 8448.00 7370.02 92.00
4767 30.6960 8087.00 7229.11 90.00
4768 30.7020 8031.00 7104.79 90.00
4769 30.7080 7784.00 6980.95 88.00
4770 30.7140 7511.00 6843.89 87.00
4771 30.7200 7287.00 6701.05 85.00
4772 30.7260 6990.00 6549.95 84.00
4773 30.7320 6938.00 6398.74 83.00
4774 30.7380 6827.00 6253.97 83.00
4775 30.7440 6612.00 6120.40 81.00
4776 30.7500 6499.00 5999.81 81.00
4777 30.7560 6331.00 5886.25 80.00
4778 30.7620 6226.00 5796.22 79.00
4779 30.7680 6137.00 5718.62 78.00
4780 30.7740 6099.00 5650.87 78.00
4781 30.7800 6135.00 5589.89 78.00
4782 30.7860 5962.00 5533.14 77.00
4783 30.7920 5790.00 5478.95 76.00
4784 30.7980 5626.00 5426.87 75.00
4785 30.8040 5558.00 5377.17 75.00
4786 30.8100 5498.00 5330.45 74.00
4787 30.8160 5353.00 5287.28 73.00
4788 30.8220 5291.00 5248.06 73.00
4789 30.8280 5312.00 5212.97 73.00
4790 30.8340 5295.00 5181.98 73.00
4791 30.8400 5264.00 5155.04 73.00
4792 30.8460 5244.00 5131.92 72.00
4793 30.8520 5217.00 5111.39 72.00
4794 30.8580 5180.00 5095.14 72.00
4795 30.8640 5085.00 5081.92 71.00
4796 30.8700 5062.00 5071.51 71.00
4797 30.8760 5123.00 5060.94 72.00
4798 30.8820 5080.00 5055.76 71.00
4799 30.8880 5034.00 5053.14 71.00
4800 30.8940 5152.00 5053.15 72.00
4801 30.9000 5215.00 5055.97 72.00
4802 30.9060 5034.00 5061.84 71.00
4803 30.9120 5052.00 5071.07 71.00
4804 30.9180 5223.00 5083.95 72.00
4805 30.9240 5287.00 5094.96 73.00
4806 30.9300 5428.00 5116.10 74.00
4807 30.9360 5422.00 5141.48 74.00
4808 30.9420 5449.00 5170.96 74.00
4809 30.9480 5502.00 5204.04 74.00
4810 30.9540 5458.00 5238.85 74.00
4811 30.9600 5373.00 5276.31 73.00
4812 30.9660 5315.00 5313.98 73.00
4813 30.9720 5433.00 5362.20 74.00
4814 30.9780 5484.00 5399.72 74.00
4815 30.9840 5517.00 5435.52 74.00
4816 30.9900 5404.00 5468.36 74.00
4817 30.9960 5479.00 5496.60 74.00
4818 31.0020 5498.00 5519.25 74.00
4819 31.0080 5637.00 5537.09 75.00
4820 31.0140 5625.00 5553.29 75.00
4821 31.0200 5710.00 5573.11 76.00
4822 31.0260 5779.00 5602.71 76.00
4823 31.0320 5703.00 5648.32 76.00
4824 31.0380 5736.00 5715.59 76.00
4825 31.0440 5883.00 5809.45 77.00
4826 31.0500 6004.00 5933.72 77.00
4827 31.0560 6112.00 6090.45 78.00
4828 31.0620 6541.00 6286.37 81.00
4829 31.0680 6860.00 6513.09 83.00
4830 31.0740 7073.00 6777.28 84.00
4831 31.0800 7446.00 7057.63 86.00
4832 31.0860 7808.00 7348.74 88.00
4833 31.0920 8170.00 7633.92 90.00
4834 31.0980 8183.00 7895.52 90.00
4835 31.1040 8340.00 8118.57 91.00
4836 31.1100 8505.00 8295.23 92.00
4837 31.1160 8432.00 8415.56 92.00
4838 31.1220 8254.00 8494.74 91.00
4839 31.1280 8208.00 8518.82 91.00
4840 31.1340 8071.00 8471.20 90.00
4841 31.1400 7828.00 8353.46 88.00
4842 31.1460 7659.00 8134.06 88.00
4843 31.1520 7446.00 7873.18 86.00
4844 31.1580 7274.00 7555.04 85.00
4845 31.1640 7005.00 7230.90 84.00
4846 31.1700 6832.00 6908.58 83.00
4847 31.1760 6621.00 6603.82 81.00
4848 31.1820 6397.00 6326.38 80.00
4849 31.1880 6408.00 6081.29 80.00
4850 31.1940 6159.00 5870.33 78.00
4851 31.2000 6095.00 5686.20 78.00
4852 31.2060 5903.00 5540.01 77.00
4853 31.2120 5762.00 5421.71 76.00
4854 31.2180 5616.00 5327.64 75.00
4855 31.2240 5563.00 5253.57 75.00
4856 31.2300 5482.00 5195.93 74.00
4857 31.2360 5350.00 5151.33 73.00
4858 31.2420 5227.00 5116.99 72.00
4859 31.2480 5191.00 5091.18 72.00
4860 31.2540 5219.00 5071.14 72.00
4861 31.2600 5246.00 5055.05 72.00
4862 31.2660 5216.00 5044.03 72.00
4863 31.2720 5043.00 5036.00 71.00
4864 31.2780 4941.00 5022.79 70.00
4865 31.2840 4997.00 5026.79 71.00
4866 31.2900 4986.00 5036.13 71.00
4867 31.2960 4986.00 5040.97 71.00
4868 31.3020 4997.00 5050.21 71.00
4869 31.3080 5072.00 5064.50 71.00
4870 31.3140 5177.00 5084.51 72.00
4871 31.3200 5097.00 5110.89 71.00
4872 31.3260 5107.00 5144.16 71.00
4873 31.3320 5105.00 5184.56 71.00
4874 31.3380 5180.00 5231.94 72.00
4875 31.3440 5317.00 5285.61 73.00
4876 31.3500 5394.00 5344.11 73.00
4877 31.3560 5364.00 5405.11 73.00
4878 31.3620 5513.00 5465.16 74.00
4879 31.3680 5600.00 5517.68 75.00
4880 31.3740 5645.00 5561.73 75.00
4881 31.3800 5609.00 5589.78 75.00
4882 31.3860 5636.00 5597.85 75.00
4883 31.3920 5554.00 5584.83 75.00
4884 31.3980 5526.00 5553.12 74.00
4885 31.4040 5445.00 5507.79 74.00
4886 31.4100 5512.00 5454.71 74.00
4887 31.4160 5451.00 5399.36 74.00
4888 31.4220 5556.00 5345.85 75.00
4889 31.4280 5627.00 5297.05 75.00
4890 31.4340 5505.00 5254.69 74.00
4891 31.4400 5551.00 5219.46 75.00
4892 31.4460 5537.00 5192.27 74.00
4893 31.4520 5477.00 5172.58 74.00
4894 31.4580 5387.00 5160.31 73.00
4895 31.4640 5466.00 5154.76 74.00
4896 31.4700 5260.00 5155.32 73.00
4897 31.4760 5333.00 5162.40 73.00
4898 31.4820 5310.00 5173.58 73.00
4899 31.4880 5163.00 5189.53 72.00
4900 31.4940 5124.00 5210.16 72.00
4901 31.5000 5156.00 5235.65 72.00
4902 31.5060 5117.00 5280.45 72.00
4903 31.5120 5228.00 5317.67 72.00
4904 31.5180 5075.00 5362.38 71.00
4905 31.5240 5161.00 5435.61 72.00
4906 31.5300 5259.00 5502.34 73.00
4907 31.5360 5400.00 5585.01 73.00
4908 31.5420 5481.00 5688.73 74.00
4909 31.5480 5387.00 5819.88 73.00
4910 31.5540 5582.00 5986.08 75.00
4911 31.5600 5722.00 6196.28 76.00
4912 31.5660 6064.00 6460.64 78.00
4913 31.5720 6312.00 6791.29 79.00
4914 31.5780 6791.00 7193.57 82.00
4915 31.5840 7365.00 7676.97 86.00
4916 31.5900 7962.00 8245.46 89.00
4917 31.5960 8842.00 8897.88 94.00
4918 31.6020 9670.00 9625.48 98.00
4919 31.6080 11297.00 10411.30 106.00
4920 31.6140 12873.00 11224.70 113.00
4921 31.6200 15066.00 12028.00 123.00
4922 31.6260 16885.00 12744.10 130.00
4923 31.6320 18243.00 13310.10 135.00
4924 31.6380 18316.00 13657.30 135.00
4925 31.6440 17556.00 13742.80 132.00
4926 31.6500 15732.00 13575.90 125.00
4927 31.6560 14412.00 13182.40 120.00
4928 31.6620 13049.00 12644.80 114.00
4929 31.6680 12053.00 12043.60 110.00
4930 31.6740 11204.00 11448.40 106.00
4931 31.6800 10648.00 10913.60 103.00
4932 31.6860 10371.00 10476.10 102.00
4933 31.6920 9894.00 10157.50 99.00
4934 31.6980 10024.00 9966.10 100.00
4935 31.7040 10213.00 9901.36 101.00
4936 31.7100 10569.00 9942.11 103.00
4937 31.7160 10850.00 10065.40 104.00
4938 31.7220 11031.00 10234.20 105.00
4939 31.7280 11144.00 10402.80 106.00
4940 31.7340 11129.00 10523.40 105.00
4941 31.7400 10707.00 10547.60 103.00
4942 31.7460 10442.00 10447.60 102.00
4943 31.7520 9998.00 10217.10 100.00
4944 31.7580 9937.00 9873.63 100.00
4945 31.7640 9173.00 9450.33 96.00
4946 31.7700 8512.00 8981.65 92.00
4947 31.7760 8293.00 8508.73 91.00
4948 31.7820 7963.00 8053.78 89.00
4949 31.7880 7538.00 7634.38 87.00
4950 31.7940 7330.00 7261.21 86.00
4951 31.8000 6986.00 6939.77 84.00
4952 31.8060 6595.00 6665.83 81.00
4953 31.8120 6467.00 6448.81 80.00
4954 31.8180 6275.00 6280.14 79.00
4955 31.8240 6129.00 6155.72 78.00
4956 31.8300 6050.00 6071.26 78.00
4957 31.8360 5939.00 6022.93 77.00
4958 31.8420 5821.00 6007.75 76.00
4959 31.8480 5845.00 6023.86 76.00
4960 31.8540 5849.00 6070.64 76.00
4961 31.8600 5911.00 6149.69 77.00
4962 31.8660 6197.00 6260.57 79.00
4963 31.8720 6358.00 6406.82 80.00
4964 31.8780 6509.00 6591.14 81.00
4965 31.8840 6714.00 6817.29 82.00
4966 31.8900 7114.00 7086.08 84.00
4967 31.8960 7649.00 7396.86 87.00
4968 31.9020 8045.00 7748.91 90.00
4969 31.9080 8690.00 8136.90 93.00
4970 31.9140 9187.00 8551.59 96.00
4971 31.9200 9599.00 8980.90 98.00
4972 31.9260 10191.00 9412.45 101.00
4973 31.9320 10375.00 9835.41 102.00
4974 31.9380 10595.00 10240.40 103.00
4975 31.9440 10635.00 10613.70 103.00
4976 31.9500 10666.00 10931.50 103.00
4977 31.9560 10771.00 11160.50 104.00
4978 31.9620 10496.00 11262.60 102.00
4979 31.9680 10103.00 11208.80 101.00
4980 31.9740 9881.00 10990.90 99.00
4981 31.9800 9597.00 10629.50 98.00
4982 31.9860 9322.00 10165.00 97.00
4983 31.9920 8864.00 9644.18 94.00
4984 31.9980 8687.00 9109.16 93.00
4985 32.0040 8399.00 8590.84 92.00
4986 32.0100 8195.00 8113.21 91.00
4987 32.0160 7701.00 7685.93 88.00
4988 32.0220 7488.00 7317.13 87.00
4989 32.0280 7049.00 7008.60 84.00
4990 32.0340 7200.00 6758.70 85.00
4991 32.0400 6936.00 6563.36 83.00
4992 32.0460 7030.00 6417.65 84.00
4993 32.0520 6520.00 6316.77 81.00
4994 32.0580 6490.00 6255.47 81.00
4995 32.0640 6399.00 6225.90 80.00
4996 32.0700 6518.00 6227.08 81.00
4997 32.0760 6464.00 6257.59 80.00
4998 32.0820 6326.00 6318.00 80.00
4999 32.0880 6203.00 6411.08 79.00
5000 32.0940 6396.00 6542.02 80.00
5001 32.1000 6534.00 6724.85 81.00
5002 32.1060 6360.00 6957.31 80.00
5003 32.1120 6560.00 7258.23 81.00
5004 32.1180 6992.00 7642.21 84.00
5005 32.1240 7340.00 8125.26 86.00
5006 32.1300 7851.00 8722.54 89.00
5007 32.1360 8485.00 9448.35 92.00
5008 32.1420 9183.00 10312.60 96.00
5009 32.1480 10134.00 11320.40 101.00
5010 32.1540 11701.00 12466.50 108.00
5011 32.1600 13238.00 13733.10 115.00
5012 32.1660 15044.00 15085.60 123.00
5013 32.1720 17399.00 16468.40 132.00
5014 32.1780 19440.00 17804.60 139.00
5015 32.1840 21473.00 18999.80 147.00
5016 32.1900 22368.00 19958.50 150.00
5017 32.1960 22074.00 20596.80 149.00
5018 32.2020 22160.00 20859.30 149.00
5019 32.2080 21300.00 20727.40 146.00
5020 32.2140 20866.00 20226.30 144.00
5021 32.2200 19148.00 19425.10 138.00
5022 32.2260 17816.00 18424.70 133.00
5023 32.2320 17079.00 17334.70 131.00
5024 32.2380 16351.00 16250.00 128.00
5025 32.2440 15373.00 15244.20 124.00
5026 32.2500 14352.00 14362.80 120.00
5027 32.2560 14114.00 13634.30 119.00
5028 32.2620 13481.00 13072.80 116.00
5029 32.2680 13508.00 12684.40 116.00
5030 32.2740 13525.00 12466.60 116.00
5031 32.2800 13745.00 12407.60 117.00
5032 32.2860 13636.00 12485.40 117.00
5033 32.2920 13663.00 12664.70 117.00
5034 32.2980 13702.00 12901.80 117.00
5035 32.3040 13835.00 13148.50 118.00
5036 32.3100 13768.00 13361.00 117.00
5037 32.3160 13171.00 13499.10 115.00
5038 32.3220 13036.00 13547.20 114.00
5039 32.3280 13098.00 13501.60 114.00
5040 32.3340 12739.00 13342.30 113.00
5041 32.3400 12547.00 13065.50 112.00
5042 32.3460 12605.00 12685.40 112.00
5043 32.3520 12021.00 12231.50 110.00
5044 32.3580 11902.00 11742.00 109.00
5045 32.3640 11780.00 11252.70 109.00
5046 32.3700 11553.00 10786.60 107.00
5047 32.3760 11644.00 10355.10 108.00
5048 32.3820 11146.00 9957.98 106.00
5049 32.3880 10675.00 9588.21 103.00
5050 32.3940 10332.00 9237.42 102.00
5051 32.4000 10057.00 8899.97 100.00
5052 32.4060 9568.00 8573.83 98.00
5053 32.4120 9262.00 8252.83 96.00
5054 32.4180 8895.00 7944.62 94.00
5055 32.4240 8769.00 7634.62 94.00
5056 32.4300 8323.00 7342.80 91.00
5057 32.4360 8056.00 7061.15 90.00
5058 32.4420 7740.00 6797.44 88.00
5059 32.4480 7587.00 6556.19 87.00
5060 32.4540 7302.00 6340.44 85.00
5061 32.4600 7132.00 6151.27 84.00
5062 32.4660 6865.00 5988.83 83.00
5063 32.4720 6683.00 5852.31 82.00
5064 32.4780 6455.00 5740.38 80.00
5065 32.4840 6427.00 5651.51 80.00
5066 32.4900 6206.00 5584.23 79.00
5067 32.4960 6134.00 5537.21 78.00
5068 32.5020 6068.00 5509.32 78.00
5069 32.5080 5811.00 5499.72 76.00
5070 32.5140 5847.00 5507.77 76.00
5071 32.5200 5703.00 5532.85 76.00
5072 32.5260 5566.00 5574.27 75.00
5073 32.5320 5701.00 5631.00 76.00
5074 32.5380 5800.00 5701.39 76.00
5075 32.5440 6053.00 5783.14 78.00
5076 32.5500 6026.00 5872.52 78.00
5077 32.5560 6052.00 5964.29 78.00
5078 32.5620 6094.00 6051.20 78.00
5079 32.5680 6161.00 6124.62 78.00
5080 32.5740 6251.00 6175.64 79.00
5081 32.5800 5977.00 6198.30 77.00
5082 32.5860 5948.00 6191.08 77.00
5083 32.5920 6017.00 6158.25 78.00
5084 32.5980 5994.00 6107.99 77.00
5085 32.6040 5972.00 6049.60 77.00
5086 32.6100 5953.00 5988.26 77.00
5087 32.6160 5816.00 5935.84 76.00
5088 32.6220 5718.00 5893.97 76.00
5089 32.6280 5756.00 5862.50 76.00
5090 32.6340 5839.00 5843.12 76.00
5091 32.6400 5954.00 5836.09 77.00
5092 32.6460 6256.00 5836.87 79.00
5093 32.6520 6035.00 5848.44 78.00
5094 32.6580 6240.00 5878.78 79.00
5095 32.6640 6269.00 5921.32 79.00
5096 32.6700 6326.00 5976.50 80.00
5097 32.6760 6296.00 6045.54 79.00
5098 32.6820 6401.00 6129.76 80.00
5099 32.6880 6420.00 6237.70 80.00
5100 32.6940 6353.00 6353.91 80.00
5101 32.7000 6547.00 6485.13 81.00
5102 32.7060 6753.00 6631.16 82.00
5103 32.7120 6907.00 6793.30 83.00
5104 32.7180 7109.00 6974.30 84.00
5105 32.7240 7314.00 7177.20 86.00
5106 32.7300 7646.00 7402.49 87.00
5107 32.7360 7954.00 7646.37 89.00
5108 32.7420 8316.00 7899.83 91.00
5109 32.7480 8489.00 8149.64 92.00
5110 32.7540 8670.00 8381.19 93.00
5111 32.7600 8915.00 8581.93 94.00
5112 32.7660 8862.00 8743.37 94.00
5113 32.7720 8636.00 8858.42 93.00
5114 32.7780 8703.00 8918.12 93.00
5115 32.7840 8474.00 8909.97 92.00
5116 32.7900 8295.00 8821.33 91.00
5117 32.7960 7883.00 8646.40 89.00
5118 32.8020 7612.00 8391.99 87.00
5119 32.8080 7478.00 8076.58 86.00
5120 32.8140 7298.00 7726.37 85.00
5121 32.8200 7026.00 7363.89 84.00
5122 32.8260 6743.00 7009.84 82.00
5123 32.8320 6654.00 6677.77 82.00
5124 32.8380 6372.00 6376.46 80.00
5125 32.8440 6340.00 6109.92 80.00
5126 32.8500 6109.00 5879.42 78.00
5127 32.8560 5887.00 5683.67 77.00
5128 32.8620 5856.00 5520.31 77.00
5129 32.8680 5650.00 5386.03 75.00
5130 32.8740 5476.00 5283.50 74.00
5131 32.8800 5299.00 5186.17 73.00
5132 32.8860 5280.00 5117.69 73.00
5133 32.8920 5223.00 5064.50 72.00
5134 32.8980 5161.00 5005.09 72.00
5135 32.9040 4978.00 4975.60 71.00
5136 32.9100 4991.00 4960.43 71.00
5137 32.9160 5016.00 4948.31 71.00
5138 32.9220 5003.00 4943.62 71.00
5139 32.9280 4943.00 4945.97 70.00
5140 32.9340 4946.00 4955.17 70.00
5141 32.9400 4925.00 4971.12 70.00
5142 32.9460 4911.00 4991.72 70.00
5143 32.9520 4890.00 5027.64 70.00
5144 32.9580 5018.00 5068.75 71.00
5145 32.9640 5053.00 5109.57 71.00
5146 32.9700 5035.00 5154.57 71.00
5147 32.9760 5020.00 5202.32 71.00
5148 32.9820 5101.00 5251.27 71.00
5149 32.9880 5132.00 5300.63 72.00
5150 32.9940 5213.00 5349.98 72.00
5151 33.0000 5334.00 5392.33 73.00
5152 33.0060 5320.00 5442.92 73.00
5153 33.0120 5251.00 5491.56 72.00
5154 33.0180 5323.00 5537.47 73.00
5155 33.0240 5315.00 5578.45 73.00
5156 33.0300 5298.00 5603.69 73.00
5157 33.0360 5376.00 5631.30 73.00
5158 33.0420 5386.00 5653.38 73.00
5159 33.0480 5438.00 5672.92 74.00
5160 33.0540 5352.00 5693.67 73.00
5161 33.0600 5233.00 5719.26 72.00
5162 33.0660 5312.00 5752.71 73.00
5163 33.0720 5438.00 5796.25 74.00
5164 33.0780 5602.00 5857.73 75.00
5165 33.0840 5783.00 5922.30 76.00
5166 33.0900 5925.00 6001.23 77.00
5167 33.0960 5932.00 6088.30 77.00
5168 33.1020 6006.00 6177.76 77.00
5169 33.1080 6242.00 6264.05 79.00
5170 33.1140 6318.00 6328.69 79.00
5171 33.1200 6259.00 6366.99 79.00
5172 33.1260 6232.00 6367.84 79.00
5173 33.1320 6158.00 6326.81 78.00
5174 33.1380 6019.00 6245.67 78.00
5175 33.1440 5787.00 6131.71 76.00
5176 33.1500 5622.00 5995.43 75.00
5177 33.1560 5483.00 5849.48 74.00
5178 33.1620 5325.00 5700.41 73.00
5179 33.1680 5302.00 5557.10 73.00
5180 33.1740 5303.00 5425.47 73.00
5181 33.1800 5186.00 5306.68 72.00
5182 33.1860 5060.00 5203.16 71.00
5183 33.1920 5002.00 5115.21 71.00
5184 33.1980 4930.00 5043.33 70.00
5185 33.2040 4873.00 4984.43 70.00
5186 33.2100 4864.00 4938.00 70.00
5187 33.2160 4771.00 4902.49 69.00
5188 33.2220 4694.00 4876.28 69.00
5189 33.2280 4726.00 4857.91 69.00
5190 33.2340 4663.00 4846.10 68.00
5191 33.2400 4657.00 4839.84 68.00
5192 33.2460 4689.00 4838.37 68.00
5193 33.2520 4660.00 4841.21 68.00
5194 33.2580 4712.00 4848.18 69.00
5195 33.2640 4677.00 4859.39 68.00
5196 33.2700 4626.00 4875.28 68.00
5197 33.2760 4679.00 4894.34 68.00
5198 33.2820 4646.00 4921.31 68.00
5199 33.2880 4625.00 4957.53 68.00
5200 33.2940 4728.00 5004.16 69.00
5201 33.3000 4782.00 5063.84 69.00
5202 33.3060 4829.00 5139.73 69.00
5203 33.3120 4866.00 5235.36 70.00
5204 33.3180 4906.00 5354.48 70.00
5205 33.3240 5080.00 5499.75 71.00
5206 33.3300 5279.00 5676.02 73.00
5207 33.3360 5449.00 5885.22 74.00
5208 33.3420 5629.00 6128.03 75.00
5209 33.3480 6006.00 6403.17 77.00
5210 33.3540 6458.00 6706.73 80.00
5211 33.3600 7078.00 7030.68 84.00
5212 33.3660 8032.00 7362.95 90.00
5213 33.3720 8783.00 7687.54 94.00
5214 33.3780 9145.00 7978.71 96.00
5215 33.3840 9139.00 8208.77 96.00
5216 33.3900 8874.00 8349.77 94.00
5217 33.3960 8613.00 8382.62 93.00
5218 33.4020 8173.00 8301.85 90.00
5219 33.4080 7813.00 8125.88 88.00
5220 33.4140 7396.00 7878.39 86.00
5221 33.4200 7033.00 7588.69 84.00
5222 33.4260 6724.00 7282.64 82.00
5223 33.4320 6426.00 6980.82 80.00
5224 33.4380 6242.00 6697.73 79.00
5225 33.4440 6114.00 6441.98 78.00
5226 33.4500 5968.00 6221.23 77.00
5227 33.4560 5901.00 6034.00 77.00
5228 33.4620 5751.00 5888.11 76.00
5229 33.4680 5646.00 5779.68 75.00
5230 33.4740 5618.00 5707.51 75.00
5231 33.4800 5666.00 5669.91 75.00
5232 33.4860 5676.00 5667.32 75.00
5233 33.4920 5753.00 5692.94 76.00
5234 33.4980 5953.00 5760.57 77.00
5235 33.5040 6167.00 5866.07 79.00
5236 33.5100 6297.00 6012.66 79.00
5237 33.5160 6456.00 6204.59 80.00
5238 33.5220 6780.00 6445.22 82.00
5239 33.5280 7231.00 6740.82 85.00
5240 33.5340 7646.00 7093.81 87.00
5241 33.5400 8068.00 7506.04 90.00
5242 33.5460 8640.00 7977.12 93.00
5243 33.5520 9021.00 8501.58 95.00
5244 33.5580 9522.00 9070.89 98.00
5245 33.5640 9927.00 9670.04 100.00
5246 33.5700 10317.00 10276.30 102.00
5247 33.5760 10812.00 10858.70 104.00
5248 33.5820 11041.00 11387.50 105.00
5249 33.5880 10934.00 11838.20 105.00
5250 33.5940 11114.00 12199.80 105.00
5251 33.6000 11090.00 12475.50 105.00
5252 33.6060 11235.00 12681.60 106.00
5253 33.6120 11286.00 12834.40 106.00
5254 33.6180 11207.00 12947.40 106.00
5255 33.6240 11238.00 13029.80 106.00
5256 33.6300 11338.00 13088.70 106.00
5257 33.6360 11730.00 13129.30 108.00
5258 33.6420 12044.00 13150.80 110.00
5259 33.6480 12315.00 13145.50 111.00
5260 33.6540 12837.00 13089.90 113.00
5261 33.6600 12822.00 12953.40 113.00
5262 33.6660 12337.00 12707.70 111.00
5263 33.6720 11765.00 12339.50 108.00
5264 33.6780 10889.00 11856.60 104.00
5265 33.6840 10296.00 11290.50 101.00
5266 33.6900 9488.00 10679.30 97.00
5267 33.6960 8973.00 10064.50 95.00
5268 33.7020 8564.00 9479.52 93.00
5269 33.7080 8171.00 8950.42 90.00
5270 33.7140 7817.00 8494.48 88.00
5271 33.7200 7563.00 8121.77 87.00
5272 33.7260 7422.00 7839.78 86.00
5273 33.7320 7365.00 7650.46 86.00
5274 33.7380 7307.00 7551.49 85.00
5275 33.7440 7287.00 7537.59 85.00
5276 33.7500 7457.00 7602.61 86.00
5277 33.7560 7554.00 7734.21 87.00
5278 33.7620 7737.00 7920.42 88.00
5279 33.7680 7997.00 8142.23 89.00
5280 33.7740 8261.00 8376.73 91.00
5281 33.7800 8536.00 8599.14 92.00
5282 33.7860 8626.00 8782.60 93.00
5283 33.7920 8676.00 8905.88 93.00
5284 33.7980 8500.00 8957.13 92.00
5285 33.8040 8645.00 8939.81 93.00
5286 33.8100 8395.00 8862.38 92.00
5287 33.8160 8044.00 8736.70 90.00
5288 33.8220 7947.00 8573.07 89.00
5289 33.8280 7647.00 8377.88 87.00
5290 33.8340 7450.00 8162.28 86.00
5291 33.8400 7390.00 7934.91 86.00
5292 33.8460 7119.00 7709.12 84.00
5293 33.8520 6948.00 7492.13 83.00
5294 33.8580 6881.00 7288.95 83.00
5295 33.8640 6910.00 7101.18 83.00
5296 33.8700 6613.00 6922.89 81.00
5297 33.8760 6486.00 6749.31 81.00
5298 33.8820 6315.00 6577.91 79.00
5299 33.8880 5962.00 6405.04 77.00
5300 33.8940 6009.00 6230.24 78.00
5301 33.9000 5837.00 6055.13 76.00
5302 33.9060 5498.00 5882.84 74.00
5303 33.9120 5630.00 5716.80 75.00
5304 33.9180 5483.00 5559.45 74.00
5305 33.9240 5241.00 5415.34 72.00
5306 33.9300 4921.00 5284.98 70.00
5307 33.9360 4783.00 5168.97 69.00
5308 33.9420 4768.00 5067.16 69.00
5309 33.9480 4846.00 4978.90 70.00
5310 33.9540 4784.00 4902.24 69.00
5311 33.9600 4718.00 4837.88 69.00
5312 33.9660 4530.00 4783.56 67.00
5313 33.9720 4494.00 4737.95 67.00
5314 33.9780 4545.00 4699.78 67.00
5315 33.9840 4587.00 4667.96 68.00
5316 33.9900 4545.00 4641.47 67.00
5317 33.9960 4530.00 4618.52 67.00
5318 34.0020 4549.00 4600.45 67.00
5319 34.0080 4564.00 4585.80 68.00
5320 34.0140 4506.00 4574.22 67.00
5321 34.0200 4585.00 4565.49 68.00
5322 34.0260 4579.00 4559.48 68.00
5323 34.0320 4512.00 4555.04 67.00
5324 34.0380 4465.00 4554.11 67.00
5325 34.0440 4489.00 4555.53 67.00
5326 34.0500 4543.00 4559.11 67.00
5327 34.0560 4480.00 4564.54 67.00
5328 34.0620 4602.00 4571.37 68.00
5329 34.0680 4584.00 4578.95 68.00
5330 34.0740 4549.00 4585.43 67.00
5331 34.0800 4556.00 4591.75 67.00
5332 34.0860 4673.00 4595.76 68.00
5333 34.0920 4673.00 4596.46 68.00
5334 34.0980 4744.00 4593.33 69.00
5335 34.1040 4625.00 4586.53 68.00
5336 34.1100 4613.00 4569.40 68.00
5337 34.1160 4424.00 4557.39 67.00
5338 34.1220 4437.00 4546.80 67.00
5339 34.1280 4433.00 4539.11 67.00
5340 34.1340 4584.00 4531.05 68.00
5341 34.1400 4375.00 4525.65 66.00
5342 34.1460 4460.00 4523.28 67.00
5343 34.1520 4468.00 4526.35 67.00
5344 34.1580 4482.00 4530.28 67.00
5345 34.1640 4622.00 4536.99 68.00
5346 34.1700 4585.00 4546.01 68.00
5347 34.1760 4580.00 4556.80 68.00
5348 34.1820 4657.00 4568.69 68.00
5349 34.1880 4615.00 4580.83 68.00
5350 34.1940 4571.00 4591.22 68.00
5351 34.2000 4671.00 4600.80 68.00
5352 34.2060 4664.00 4607.74 68.00
5353 34.2120 4592.00 4613.59 68.00
5354 34.2180 4620.00 4615.57 68.00
5355 34.2240 4672.00 4616.87 68.00
5356 34.2300 4726.00 4620.17 69.00
5357 34.2360 4830.00 4628.47 69.00
5358 34.2420 4780.00 4638.54 69.00
5359 34.2480 4838.00 4657.52 70.00
5360 34.2540 4919.00 4679.18 70.00
5361 34.2600 4967.00 4706.69 70.00
5362 34.2660 4991.00 4739.27 71.00
5363 34.2720 5028.00 4774.36 71.00
5364 34.2780 5017.00 4811.49 71.00
5365 34.2840 5000.00 4846.42 71.00
5366 34.2900 4983.00 4875.29 71.00
5367 34.2960 4894.00 4894.39 70.00
5368 34.3020 4871.00 4894.80 70.00
5369 34.3080 4902.00 4887.16 70.00
5370 34.3140 4797.00 4864.49 69.00
5371 34.3200 4758.00 4834.47 69.00
5372 34.3260 4611.00 4796.01 68.00
5373 34.3320 4488.00 4751.54 67.00
5374 34.3380 4560.00 4703.48 68.00
5375 34.3440 4563.00 4649.13 68.00
5376 34.3500 4493.00 4599.77 67.00
5377 34.3560 4585.00 4553.93 68.00
5378 34.3620 4511.00 4511.80 67.00
5379 34.3680 4315.00 4474.06 66.00
5380 34.3740 4507.00 4440.98 67.00
5381 34.3800 4396.00 4412.54 66.00
5382 34.3860 4405.00 4381.93 66.00
5383 34.3920 4306.00 4355.40 66.00
5384 34.3980 4370.00 4342.91 66.00
5385 34.4040 4331.00 4329.73 66.00
5386 34.4100 4295.00 4319.15 66.00
5387 34.4160 4232.00 4310.74 65.00
5388 34.4220 4232.00 4304.13 65.00
5389 34.4280 4125.00 4302.84 64.00
5390 34.4340 4024.00 4299.00 63.00
5391 34.4400 4120.00 4296.18 64.00
5392 34.4460 4169.00 4294.23 65.00
5393 34.4520 4202.00 4293.06 65.00
5394 34.4580 4244.00 4292.63 65.00
5395 34.4640 4056.00 4293.94 64.00
5396 34.4700 4232.00 4296.02 65.00
5397 34.4760 4156.00 4299.97 64.00
5398 34.4820 4094.00 4303.94 64.00
5399 34.4880 4118.00 4310.15 64.00
5400 34.4940 4101.00 4316.86 64.00
5401 34.5000 4154.00 4325.44 64.00
5402 34.5060 4182.00 4337.30 65.00
5403 34.5120 4189.00 4344.81 65.00
5404 34.5180 4182.00 4362.80 65.00
5405 34.5240 4331.00 4383.56 66.00
5406 34.5300 4388.00 4408.61 66.00
5407 34.5360 4423.00 4439.33 67.00
5408 34.5420 4436.00 4473.94 67.00
5409 34.5480 4444.00 4511.51 67.00
5410 34.5540 4571.00 4555.67 68.00
5411 34.5600 4488.00 4603.66 67.00
5412 34.5660 4494.00 4655.23 67.00
5413 34.5720 4611.00 4706.39 68.00
5414 34.5780 4588.00 4756.45 68.00
5415 34.5840 4641.00 4799.83 68.00
5416 34.5900 4538.00 4833.49 67.00
5417 34.5960 4457.00 4853.28 67.00
5418 34.6020 4534.00 4857.80 67.00
5419 34.6080 4528.00 4847.46 67.00
5420 34.6140 4468.00 4822.38 67.00
5421 34.6200 4396.00 4786.14 66.00
5422 34.6260 4574.00 4745.54 68.00
5423 34.6320 4572.00 4701.20 68.00
5424 34.6380 4593.00 4657.98 68.00
5425 34.6440 4364.00 4615.98 66.00
5426 34.6500 4431.00 4577.64 67.00
5427 34.6560 4542.00 4544.89 67.00
5428 34.6620 4420.00 4516.14 66.00
5429 34.6680 4370.00 4492.55 66.00
5430 34.6740 4305.00 4475.00 66.00
5431 34.6800 4314.00 4461.19 66.00
5432 34.6860 4395.00 4452.70 66.00
5433 34.6920 4348.00 4447.10 66.00
5434 34.6980 4458.00 4444.96 67.00
5435 34.7040 4345.00 4446.87 66.00
5436 34.7100 4407.00 4450.50 66.00
5437 34.7160 4346.00 4457.64 66.00
5438 34.7220 4349.00 4467.39 66.00
5439 34.7280 4286.00 4478.31 65.00
5440 34.7340 4271.00 4492.74 65.00
5441 34.7400 4271.00 4508.97 65.00
5442 34.7460 4388.00 4529.45 66.00
5443 34.7520 4384.00 4552.86 66.00
5444 34.7580 4230.00 4581.41 65.00
5445 34.7640 4344.00 4616.62 66.00
5446 34.7700 4600.00 4658.26 68.00
5447 34.7760 4527.00 4710.08 67.00
5448 34.7820 4463.00 4772.09 67.00
5449 34.7880 4534.00 4847.51 67.00
5450 34.7940 4528.00 4939.83 67.00
5451 34.8000 4551.00 5049.40 67.00
5452 34.8060 4879.00 5180.43 70.00
5453 34.8120 5032.00 5332.78 71.00
5454 34.8180 5228.00 5508.56 72.00
5455 34.8240 5374.00 5708.57 73.00
5456 34.8300 5621.00 5930.29 75.00
5457 34.8360 6151.00 6171.69 78.00
5458 34.8420 6428.00 6426.03 80.00
5459 34.8480 6792.00 6685.50 82.00
5460 34.8540 7364.00 6940.41 86.00
5461 34.8600 7739.00 7176.36 88.00
5462 34.8660 8120.00 7382.39 90.00
5463 34.8720 8269.00 7550.15 91.00
5464 34.8780 8281.00 7672.83 91.00
5465 34.8840 8242.00 7751.99 91.00
5466 34.8900 8113.00 7790.51 90.00
5467 34.8960 7738.00 7799.83 88.00
5468 34.9020 7550.00 7795.76 87.00
5469 34.9080 7576.00 7793.34 87.00
5470 34.9140 7499.00 7810.85 87.00
5471 34.9200 7677.00 7858.94 88.00
5472 34.9260 7886.00 7946.08 89.00
5473 34.9320 8131.00 8074.59 90.00
5474 34.9380 8387.00 8237.21 92.00
5475 34.9440 8807.00 8426.05 94.00
5476 34.9500 9285.00 8623.03 96.00
5477 34.9560 9576.00 8809.90 98.00
5478 34.9620 9749.00 8966.58 99.00
5479 34.9680 9615.00 9070.01 98.00
5480 34.9740 9168.00 9103.67 96.00
5481 34.9800 8945.00 9054.01 95.00
5482 34.9860 8469.00 8915.64 92.00
5483 34.9920 8108.00 8694.24 90.00
5484 34.9980 7670.00 8404.87 88.00
5485 35.0040 7421.00 8071.21 86.00
5486 35.0100 7278.00 7714.65 85.00
5487 35.0160 6800.00 7356.64 82.00
5488 35.0220 6672.00 7015.01 82.00
5489 35.0280 6450.00 6699.80 80.00
5490 35.0340 6143.00 6420.17 78.00
5491 35.0400 5783.00 6181.09 76.00
5492 35.0460 5684.00 5985.38 75.00
5493 35.0520 5773.00 5835.34 76.00
5494 35.0580 5842.00 5728.70 76.00
5495 35.0640 5677.00 5667.85 75.00
5496 35.0700 5685.00 5649.82 75.00
5497 35.0760 5777.00 5674.87 76.00
5498 35.0820 5884.00 5743.20 77.00
5499 35.0880 6076.00 5851.84 78.00
5500 35.0940 6240.00 6000.46 79.00
5501 35.1000 6432.00 6187.85 80.00
5502 35.1060 6820.00 6408.84 83.00
5503 35.1120 7113.00 6660.02 84.00
5504 35.1180 7355.00 6931.40 86.00
5505 35.1240 7505.00 7212.82 87.00
5506 35.1300 7736.00 7490.19 88.00
5507 35.1360 7688.00 7744.42 88.00
5508 35.1420 7783.00 7959.85 88.00
5509 35.1480 7810.00 8119.54 88.00
5510 35.1540 7637.00 8213.18 87.00
5511 35.1600 7553.00 8234.72 87.00
5512 35.1660 7400.00 8178.69 86.00
5513 35.1720 7303.00 8047.98 85.00
5514 35.1780 7235.00 7847.49 85.00
5515 35.1840 6889.00 7591.76 83.00
5516 35.1900 6714.00 7299.52 82.00
5517 35.1960 6659.00 6987.94 82.00
5518 35.2020 6391.00 6675.89 80.00
5519 35.2080 6175.00 6374.40 79.00
5520 35.2140 5994.00 6093.46 77.00
5521 35.2200 5916.00 5839.52 77.00
5522 35.2260 5717.00 5613.25 76.00
5523 35.2320 5593.00 5417.37 75.00
5524 35.2380 5422.00 5248.75 74.00
5525 35.2440 5381.00 5106.50 73.00
5526 35.2500 5260.00 4989.04 73.00
5527 35.2560 5120.00 4891.40 72.00
5528 35.2620 5021.00 4812.56 71.00
5529 35.2680 4921.00 4747.54 70.00
5530 35.2740 4786.00 4694.79 69.00
5531 35.2800 4838.00 4652.77 70.00
5532 35.2860 4771.00 4617.61 69.00
5533 35.2920 4715.00 4588.65 69.00
5534 35.2980 4688.00 4565.59 68.00
5535 35.3040 4601.00 4545.42 68.00
5536 35.3100 4553.00 4529.37 67.00
5537 35.3160 4547.00 4514.90 67.00
5538 35.3220 4532.00 4502.60 67.00
5539 35.3280 4453.00 4493.18 67.00
5540 35.3340 4414.00 4484.47 66.00
5541 35.3400 4457.00 4477.24 67.00
5542 35.3460 4362.00 4471.79 66.00
5543 35.3520 4295.00 4468.68 66.00
5544 35.3580 4353.00 4467.76 66.00
5545 35.3640 4446.00 4467.84 67.00
5546 35.3700 4440.00 4471.32 67.00
5547 35.3760 4326.00 4476.51 66.00
5548 35.3820 4340.00 4485.53 66.00
5549 35.3880 4405.00 4498.56 66.00
5550 35.3940 4385.00 4514.75 66.00
5551 35.4000 4382.00 4536.62 66.00
5552 35.4060 4455.00 4562.58 67.00
5553 35.4120 4467.00 4593.97 67.00
5554 35.4180 4429.00 4631.94 67.00
5555 35.4240 4482.00 4674.28 67.00
5556 35.4300 4555.00 4722.58 67.00
5557 35.4360 4642.00 4773.73 68.00
5558 35.4420 4709.00 4827.19 69.00
5559 35.4480 4699.00 4881.62 69.00
5560 35.4540 4805.00 4931.81 69.00
5561 35.4600 4827.00 4977.21 69.00
5562 35.4660 4783.00 5009.51 69.00
5563 35.4720 4933.00 5027.83 70.00
5564 35.4780 4976.00 5031.79 71.00
5565 35.4840 4953.00 5020.08 70.00
5566 35.4900 4857.00 4996.95 70.00
5567 35.4960 4782.00 4964.27 69.00
5568 35.5020 4830.00 4923.84 69.00
5569 35.5080 4780.00 4879.99 69.00
5570 35.5140 4725.00 4832.77 69.00
5571 35.5200 4745.00 4785.11 69.00
5572 35.5260 4685.00 4739.87 68.00
5573 35.5320 4575.00 4696.74 68.00
5574 35.5380 4527.00 4659.43 67.00
5575 35.5440 4478.00 4626.21 67.00
5576 35.5500 4450.00 4599.04 67.00
5577 35.5560 4493.00 4579.77 67.00
5578 35.5620 4462.00 4565.32 67.00
5579 35.5680 4379.00 4558.13 66.00
5580 35.5740 4376.00 4556.44 66.00
5581 35.5800 4341.00 4559.98 66.00
5582 35.5860 4361.00 4569.75 66.00
5583 35.5920 4443.00 4583.34 67.00
5584 35.5980 4453.00 4601.96 67.00
5585 35.6040 4422.00 4622.33 66.00
5586 35.6100 4494.00 4645.00 67.00
5587 35.6160 4540.00 4668.92 67.00
5588 35.6220 4483.00 4693.61 67.00
5589 35.6280 4533.00 4718.20 67.00
5590 35.6340 4600.00 4736.84 68.00
5591 35.6400 4615.00 4757.11 68.00
5592 35.6460 4551.00 4777.86 67.00
5593 35.6520 4562.00 4799.04 68.00
5594 35.6580 4603.00 4826.26 68.00
5595 35.6640 4584.00 4857.97 68.00
5596 35.6700 4630.00 4898.69 68.00
5597 35.6760 4731.00 4951.52 69.00
5598 35.6820 4867.00 5015.83 70.00
5599 35.6880 4911.00 5094.23 70.00
5600 35.6940 4993.00 5184.35 71.00
5601 35.7000 5174.00 5284.02 72.00
5602 35.7060 5280.00 5394.61 73.00
5603 35.7120 5551.00 5507.82 75.00
5604 35.7180 5668.00 5616.26 75.00
5605 35.7240 5869.00 5713.41 77.00
5606 35.7300 5939.00 5791.28 77.00
5607 35.7360 5822.00 5836.32 76.00
5608 35.7420 5740.00 5846.38 76.00
5609 35.7480 5613.00 5816.90 75.00
5610 35.7540 5372.00 5752.75 73.00
5611 35.7600 5156.00 5657.88 72.00
5612 35.7660 5051.00 5544.25 71.00
5613 35.7720 4913.00 5419.14 70.00
5614 35.7780 4777.00 5292.94 69.00
5615 35.7840 4673.00 5169.29 68.00
5616 35.7900 4632.00 5053.90 68.00
5617 35.7960 4540.00 4947.49 67.00
5618 35.8020 4485.00 4851.53 67.00
5619 35.8080 4396.00 4769.21 66.00
5620 35.8140 4337.00 4698.04 66.00
5621 35.8200 4276.00 4637.07 65.00
5622 35.8260 4408.00 4587.34 66.00
5623 35.8320 4415.00 4545.65 66.00
5624 35.8380 4362.00 4511.72 66.00
5625 35.8440 4397.00 4485.34 66.00
5626 35.8500 4317.00 4463.33 66.00
5627 35.8560 4244.00 4446.64 65.00
5628 35.8620 4241.00 4432.38 65.00
5629 35.8680 4297.00 4420.85 66.00
5630 35.8740 4320.00 4412.46 66.00
5631 35.8800 4354.00 4404.76 66.00
5632 35.8860 4367.00 4399.41 66.00
5633 35.8920 4356.00 4390.38 66.00
5634 35.8980 4322.00 4386.10 66.00
5635 35.9040 4320.00 4382.61 66.00
5636 35.9100 4421.00 4379.81 66.00
5637 35.9160 4352.00 4378.64 66.00
5638 35.9220 4327.00 4372.31 66.00
5639 35.9280 4306.00 4371.37 66.00
5640 35.9340 4286.00 4370.96 65.00
5641 35.9400 4423.00 4372.07 67.00
5642 35.9460 4420.00 4372.70 66.00
5643 35.9520 4286.00 4373.82 65.00
5644 35.9580 4225.00 4378.02 65.00
5645 35.9640 4215.00 4380.11 65.00
5646 35.9700 4294.00 4383.64 66.00
5647 35.9760 4416.00 4388.39 66.00
5648 35.9820 4279.00 4391.68 65.00
5649 35.9880 4324.00 4395.28 66.00
5650 35.9940 4311.00 4399.20 66.00
5651 36.0000 4308.00 4404.49 66.00
5652 36.0060 4325.00 4409.29 66.00
5653 36.0120 4374.00 4414.84 66.00
5654 36.0180 4438.00 4421.49 67.00
5655 36.0240 4356.00 4429.66 66.00
5656 36.0300 4360.00 4440.81 66.00
5657 36.0360 4430.00 4453.42 67.00
5658 36.0420 4448.00 4468.99 67.00
5659 36.0480 4389.00 4488.00 66.00
5660 36.0540 4359.00 4510.92 66.00
5661 36.0600 4393.00 4539.12 66.00
5662 36.0660 4588.00 4570.89 68.00
5663 36.0720 4697.00 4607.34 69.00
5664 36.0780 4610.00 4648.41 68.00
5665 36.0840 4561.00 4694.71 68.00
5666 36.0900 4684.00 4743.45 68.00
5667 36.0960 4711.00 4798.04 69.00
5668 36.1020 4744.00 4849.55 69.00
5669 36.1080 4927.00 4899.38 70.00
5670 36.1140 4957.00 4948.82 70.00
5671 36.1200 4860.00 4988.49 70.00
5672 36.1260 4863.00 5020.49 70.00
5673 36.1320 4794.00 5054.62 69.00
5674 36.1380 4945.00 5070.13 70.00
5675 36.1440 5000.00 5079.14 71.00
5676 36.1500 4813.00 5085.71 69.00
5677 36.1560 4853.00 5084.08 70.00
5678 36.1620 4881.00 5081.66 70.00
5679 36.1680 4928.00 5083.11 70.00
5680 36.1740 4961.00 5089.36 70.00
5681 36.1800 5233.00 5102.10 72.00
5682 36.1860 5006.00 5123.71 71.00
5683 36.1920 5057.00 5154.63 71.00
5684 36.1980 5212.00 5198.57 72.00
5685 36.2040 5305.00 5245.81 73.00
5686 36.2100 5418.00 5299.41 74.00
5687 36.2160 5525.00 5353.62 74.00
5688 36.2220 5670.00 5405.85 75.00
5689 36.2280 5668.00 5452.13 75.00
5690 36.2340 5661.00 5490.01 75.00
5691 36.2400 5740.00 5517.75 76.00
5692 36.2460 5632.00 5539.85 75.00
5693 36.2520 5654.00 5547.68 75.00
5694 36.2580 5638.00 5547.64 75.00
5695 36.2640 5712.00 5538.37 76.00
5696 36.2700 5599.00 5524.38 75.00
5697 36.2760 5690.00 5504.64 75.00
5698 36.2820 5617.00 5483.15 75.00
5699 36.2880 5701.00 5463.43 76.00
5700 36.2940 5737.00 5445.16 76.00
5701 36.3000 5679.00 5429.98 75.00
5702 36.3060 5737.00 5417.42 76.00
5703 36.3120 5771.00 5407.23 76.00
5704 36.3180 5634.00 5396.29 75.00
5705 36.3240 5689.00 5382.69 75.00
5706 36.3300 5587.00 5365.57 75.00
5707 36.3360 5381.00 5344.31 73.00
5708 36.3420 5364.00 5319.67 73.00
5709 36.3480 5421.00 5290.93 74.00
5710 36.3540 5340.00 5260.86 73.00
5711 36.3600 5389.00 5231.79 73.00
5712 36.3660 5397.00 5206.08 73.00
5713 36.3720 5411.00 5186.77 74.00
5714 36.3780 5390.00 5175.95 73.00
5715 36.3840 5412.00 5173.21 74.00
5716 36.3900 5342.00 5175.49 73.00
5717 36.3960 5347.00 5184.64 73.00
5718 36.4020 5483.00 5200.66 74.00
5719 36.4080 5440.00 5219.28 74.00
5720 36.4140 5334.00 5238.39 73.00
5721 36.4200 5454.00 5254.80 74.00
5722 36.4260 5504.00 5267.16 74.00
5723 36.4320 5409.00 5272.03 74.00
5724 36.4380 5356.00 5271.17 73.00
5725 36.4440 5259.00 5267.18 73.00
5726 36.4500 5299.00 5263.86 73.00
5727 36.4560 5278.00 5266.74 73.00
5728 36.4620 5279.00 5277.44 73.00
5729 36.4680 5542.00 5300.86 74.00
5730 36.4740 5497.00 5340.11 74.00
5731 36.4800 5570.00 5397.75 75.00
5732 36.4860 5869.00 5476.45 77.00
5733 36.4920 5906.00 5575.34 77.00
5734 36.4980 6159.00 5695.54 78.00
5735 36.5040 6332.00 5834.39 80.00
5736 36.5100 6527.00 5991.13 81.00
5737 36.5160 6674.00 6164.41 82.00
5738 36.5220 6818.00 6345.01 83.00
5739 36.5280 7063.00 6526.93 84.00
5740 36.5340 7041.00 6702.25 84.00
5741 36.5400 7092.00 6862.89 84.00
5742 36.5460 7254.00 6998.17 85.00
5743 36.5520 7140.00 7100.81 84.00
5744 36.5580 6997.00 7164.34 84.00
5745 36.5640 6824.00 7184.50 83.00
5746 36.5700 6781.00 7161.01 82.00
5747 36.5760 6901.00 7093.58 83.00
5748 36.5820 6785.00 6987.61 82.00
5749 36.5880 6621.00 6849.74 81.00
5750 36.5940 6635.00 6688.42 81.00
5751 36.6000 6280.00 6514.31 79.00
5752 36.6060 6236.00 6334.84 79.00
5753 36.6120 6138.00 6160.57 78.00
5754 36.6180 6049.00 5997.06 78.00
5755 36.6240 6044.00 5850.33 78.00
5756 36.6300 6044.00 5726.65 78.00
5757 36.6360 5975.00 5623.21 77.00
5758 36.6420 5863.00 5545.75 77.00
5759 36.6480 5864.00 5491.58 77.00
5760 36.6540 5851.00 5462.76 76.00
5761 36.6600 5911.00 5460.34 77.00
5762 36.6660 5643.00 5483.27 75.00
5763 36.6720 5689.00 5529.93 75.00
5764 36.6780 5651.00 5601.09 75.00
5765 36.6840 5663.00 5696.12 75.00
5766 36.6900 5743.00 5811.90 76.00
5767 36.6960 5911.00 5947.20 77.00
5768 36.7020 6044.00 6098.84 78.00
5769 36.7080 6076.00 6262.09 78.00
5770 36.7140 6297.00 6431.81 79.00
5771 36.7200 6667.00 6597.95 82.00
5772 36.7260 6836.00 6751.91 83.00
5773 36.7320 6909.00 6883.46 83.00
5774 36.7380 7074.00 6983.71 84.00
5775 36.7440 6858.00 7047.42 83.00
5776 36.7500 6901.00 7070.53 83.00
5777 36.7560 6823.00 7056.44 83.00
5778 36.7620 6771.00 7011.55 82.00
5779 36.7680 6724.00 6945.35 82.00
5780 36.7740 6477.00 6870.46 80.00
5781 36.7800 6537.00 6796.93 81.00
5782 36.7860 6366.00 6737.47 80.00
5783 36.7920 6500.00 6702.70 81.00
5784 36.7980 6491.00 6702.98 81.00
5785 36.8040 6726.00 6744.59 82.00
5786 36.8100 6897.00 6835.88 83.00
5787 36.8160 7080.00 6983.41 84.00
5788 36.8220 7619.00 7192.84 87.00
5789 36.8280 8036.00 7470.23 90.00
5790 36.8340 8520.00 7817.77 92.00
5791 36.8400 8911.00 8237.23 94.00
5792 36.8460 9880.00 8728.28 99.00
5793 36.8520 10828.00 9287.22 104.00
5794 36.8580 11675.00 9907.08 108.00
5795 36.8640 12170.00 10572.60 110.00
5796 36.8700 13162.00 11268.00 115.00
5797 36.8760 14134.00 11971.00 119.00
5798 36.8820 14482.00 12658.10 120.00
5799 36.8880 14884.00 13304.00 122.00
5800 36.8940 15662.00 13883.30 125.00
5801 36.9000 15164.00 14371.30 123.00
5802 36.9060 15427.00 14743.20 124.00
5803 36.9120 14806.00 14979.40 122.00
5804 36.9180 14715.00 15063.80 121.00
5805 36.9240 14614.00 14998.70 121.00
5806 36.9300 14483.00 14797.00 120.00
5807 36.9360 13676.00 14484.70 117.00
5808 36.9420 13652.00 14095.00 117.00
5809 36.9480 13385.00 13658.90 116.00
5810 36.9540 13152.00 13207.10 115.00
5811 36.9600 13232.00 12761.70 115.00
5812 36.9660 12867.00 12338.20 113.00
5813 36.9720 12487.00 11945.30 112.00
5814 36.9780 12048.00 11583.30 110.00
5815 36.9840 12287.00 11252.80 111.00
5816 36.9900 11715.00 10953.50 108.00
5817 36.9960 11499.00 10685.30 107.00
5818 37.0020 11551.00 10447.60 107.00
5819 37.0080 10874.00 10239.30 104.00
5820 37.0140 10594.00 10054.30 103.00
5821 37.0200 10204.00 9882.79 101.00
5822 37.0260 10136.00 9712.92 101.00
5823 37.0320 9836.00 9529.69 99.00
5824 37.0380 9541.00 9323.85 98.00
5825 37.0440 9323.00 9093.73 97.00
5826 37.0500 8937.00 8842.03 95.00
5827 37.0560 8748.00 8577.17 94.00
5828 37.0620 8532.00 8311.43 92.00
5829 37.0680 8068.00 8051.71 90.00
5830 37.0740 8029.00 7814.42 90.00
5831 37.0800 7933.00 7602.36 89.00
5832 37.0860 8028.00 7425.26 90.00
5833 37.0920 7866.00 7289.20 89.00
5834 37.0980 7848.00 7188.21 89.00
5835 37.1040 7856.00 7125.40 89.00
5836 37.1100 7753.00 7100.38 88.00
5837 37.1160 8033.00 7111.19 90.00
5838 37.1220 8113.00 7152.17 90.00
5839 37.1280 8640.00 7220.74 93.00
5840 37.1340 8856.00 7310.66 94.00
5841 37.1400 8994.00 7414.51 95.00
5842 37.1460 9324.00 7519.54 97.00
5843 37.1520 9344.00 7613.05 97.00
5844 37.1580 9043.00 7681.91 95.00
5845 37.1640 8887.00 7706.75 94.00
5846 37.1700 8581.00 7680.03 93.00
5847 37.1760 8493.00 7596.03 92.00
5848 37.1820 8019.00 7460.24 90.00
5849 37.1880 7547.00 7283.52 87.00
5850 37.1940 7219.00 7079.81 85.00
5851 37.2000 7124.00 6863.78 84.00
5852 37.2060 6755.00 6643.82 82.00
5853 37.2120 6342.00 6431.69 80.00
5854 37.2180 6182.00 6232.27 79.00
5855 37.2240 6060.00 6048.91 78.00
5856 37.2300 5933.00 5884.56 77.00
5857 37.2360 5881.00 5737.68 77.00
5858 37.2420 5601.00 5608.81 75.00
5859 37.2480 5497.00 5496.91 74.00
5860 37.2540 5430.00 5400.68 74.00
5861 37.2600 5481.00 5319.82 74.00
5862 37.2660 5443.00 5250.89 74.00
5863 37.2720 5344.00 5193.73 73.00
5864 37.2780 5214.00 5147.18 72.00
5865 37.2840 5318.00 5111.38 73.00
5866 37.2900 5212.00 5083.55 72.00
5867 37.2960 5062.00 5064.09 71.00
5868 37.3020 5244.00 5052.63 72.00
5869 37.3080 5145.00 5048.21 72.00
5870 37.3140 5109.00 5053.31 71.00
5871 37.3200 5226.00 5067.56 72.00
5872 37.3260 5073.00 5088.43 71.00
5873 37.3320 5174.00 5117.37 72.00
5874 37.3380 5381.00 5158.88 73.00
5875 37.3440 5363.00 5211.80 73.00
5876 37.3500 5460.00 5279.43 74.00
5877 37.3560 5539.00 5362.01 74.00
5878 37.3620 5625.00 5460.20 75.00
5879 37.3680 5816.00 5575.93 76.00
5880 37.3740 5857.00 5705.72 77.00
5881 37.3800 6118.00 5847.49 78.00
5882 37.3860 6285.00 5999.04 79.00
5883 37.3920 6214.00 6155.77 79.00
5884 37.3980 6460.00 6313.02 80.00
5885 37.4040 6353.00 6461.94 80.00
5886 37.4100 6555.00 6596.15 81.00
5887 37.4160 6525.00 6708.36 81.00
5888 37.4220 6574.00 6791.67 81.00
5889 37.4280 6456.00 6841.84 80.00
5890 37.4340 6380.00 6853.63 80.00
5891 37.4400 6464.00 6827.39 80.00
5892 37.4460 6303.00 6764.93 79.00
5893 37.4520 6372.00 6670.21 80.00
5894 37.4580 6095.00 6549.62 78.00
5895 37.4640 6077.00 6407.53 78.00
5896 37.4700 5835.00 6251.67 76.00
5897 37.4760 5866.00 6088.77 77.00
5898 37.4820 5799.00 5925.10 76.00
5899 37.4880 5727.00 5766.80 76.00
5900 37.4940 5593.00 5616.16 75.00
5901 37.5000 5644.00 5477.22 75.00
5902 37.5060 5402.00 5351.95 73.00
5903 37.5120 5410.00 5242.32 74.00
5904 37.5180 5443.00 5146.58 74.00
5905 37.5240 5209.00 5062.89 72.00
5906 37.5300 5161.00 4995.62 72.00
5907 37.5360 5213.00 4947.10 72.00
5908 37.5420 5096.00 4903.97 71.00
5909 37.5480 5123.00 4872.56 72.00
5910 37.5540 5123.00 4850.98 72.00
5911 37.5600 4993.00 4838.32 71.00
5912 37.5660 5067.00 4833.67 71.00
5913 37.5720 5018.00 4837.86 71.00
5914 37.5780 5009.00 4846.79 71.00
5915 37.5840 4797.00 4861.29 69.00
5916 37.5900 4900.00 4880.48 70.00
5917 37.5960 4988.00 4903.33 71.00
5918 37.6020 4889.00 4929.99 70.00
5919 37.6080 4817.00 4956.10 69.00
5920 37.6140 4845.00 4982.89 70.00
5921 37.6200 4907.00 5005.10 70.00
5922 37.6260 5003.00 5023.57 71.00
5923 37.6320 4943.00 5035.07 70.00
5924 37.6380 4949.00 5041.20 70.00
5925 37.6440 4897.00 5040.54 70.00
5926 37.6500 5054.00 5035.12 71.00
5927 37.6560 4936.00 5027.21 70.00
5928 37.6620 4799.00 5015.82 69.00
5929 37.6680 4879.00 4999.09 70.00
5930 37.6740 4818.00 4984.52 69.00
5931 37.6800 4845.00 4966.02 70.00
5932 37.6860 4750.00 4950.20 69.00
5933 37.6920 4919.00 4932.90 70.00
5934 37.6980 4786.00 4915.94 69.00
5935 37.7040 4845.00 4890.06 70.00
5936 37.7100 4760.00 4877.01 69.00
5937 37.7160 4739.00 4868.29 69.00
5938 37.7220 4725.00 4858.27 69.00
5939 37.7280 4788.00 4857.60 69.00
5940 37.7340 4671.00 4862.51 68.00
5941 37.7400 4695.00 4873.31 69.00
5942 37.7460 4691.00 4891.86 68.00
5943 37.7520 4791.00 4918.82 69.00
5944 37.7580 4740.00 4955.59 69.00
5945 37.7640 4941.00 5003.85 70.00
5946 37.7700 4803.00 5063.51 69.00
5947 37.7760 4959.00 5141.13 70.00
5948 37.7820 5027.00 5235.91 71.00
5949 37.7880 5172.00 5352.97 72.00
5950 37.7940 5186.00 5493.96 72.00
5951 37.8000 5384.00 5662.44 73.00
5952 37.8060 5669.00 5858.62 75.00
5953 37.8120 5858.00 6085.01 77.00
5954 37.8180 6196.00 6342.12 79.00
5955 37.8240 6618.00 6624.41 81.00
5956 37.8300 7064.00 6939.31 84.00
5957 37.8360 7898.00 7274.64 89.00
5958 37.8420 8128.00 7622.12 90.00
5959 37.8480 8651.00 7973.75 93.00
5960 37.8540 9235.00 8312.07 96.00
5961 37.8600 9805.00 8622.35 99.00
5962 37.8660 9958.00 8886.39 100.00
5963 37.8720 10101.00 9089.29 101.00
5964 37.8780 10246.00 9220.67 101.00
5965 37.8840 10036.00 9275.92 100.00
5966 37.8900 9636.00 9252.70 98.00
5967 37.8960 9337.00 9156.51 97.00
5968 37.9020 8817.00 8998.49 94.00
5969 37.9080 8450.00 8792.15 92.00
5970 37.9140 8132.00 8554.96 90.00
5971 37.9200 7843.00 8301.39 89.00
5972 37.9260 7608.00 8046.61 87.00
5973 37.9320 7625.00 7800.92 87.00
5974 37.9380 7388.00 7570.90 86.00
5975 37.9440 7315.00 7357.13 86.00
5976 37.9500 7109.00 7156.50 84.00
5977 37.9560 7048.00 6966.01 84.00
5978 37.9620 6973.00 6776.04 84.00
5979 37.9680 6677.00 6595.27 82.00
5980 37.9740 6285.00 6417.91 79.00
5981 37.9800 6031.00 6244.22 78.00
5982 37.9860 5919.00 6078.32 77.00
5983 37.9920 5641.00 5923.02 75.00
5984 37.9980 5571.00 5782.71 75.00
5985 38.0040 5438.00 5655.72 74.00
5986 38.0100 5420.00 5544.78 74.00
5987 38.0160 5257.00 5452.00 73.00
5988 38.0220 5156.00 5374.55 72.00
5989 38.0280 5077.00 5316.73 71.00
5990 38.0340 5041.00 5272.98 71.00
5991 38.0400 5022.00 5245.69 71.00
5992 38.0460 5221.00 5236.55 72.00
5993 38.0520 5260.00 5242.53 73.00
5994 38.0580 5298.00 5265.83 73.00
5995 38.0640 5409.00 5304.22 74.00
5996 38.0700 5346.00 5358.64 73.00
5997 38.0760 5474.00 5428.67 74.00
5998 38.0820 5571.00 5513.79 75.00
5999 38.0880 5798.00 5614.09 76.00
6000 38.0940 6030.00 5726.09 78.00
6001 38.1000 6127.00 5848.45 78.00
6002 38.1060 6272.00 5978.05 79.00
6003 38.1120 6468.00 6111.53 80.00
6004 38.1180 6634.00 6241.75 81.00
6005 38.1240 6729.00 6365.06 82.00
6006 38.1300 6723.00 6477.51 82.00
6007 38.1360 6826.00 6576.89 83.00
6008 38.1420 6819.00 6663.84 83.00
6009 38.1480 6809.00 6736.73 83.00
6010 38.1540 6789.00 6796.04 82.00
6011 38.1600 6725.00 6839.42 82.00
6012 38.1660 6606.00 6862.37 81.00
6013 38.1720 6588.00 6860.16 81.00
6014 38.1780 6521.00 6825.69 81.00
6015 38.1840 6388.00 6757.77 80.00
6016 38.1900 6280.00 6658.27 79.00
6017 38.1960 6251.00 6533.26 79.00
6018 38.2020 6076.00 6391.61 78.00
6019 38.2080 6098.00 6242.05 78.00
6020 38.2140 5915.00 6093.21 77.00
6021 38.2200 5770.00 5950.39 76.00
6022 38.2260 5827.00 5823.00 76.00
6023 38.2320 5856.00 5711.42 77.00
6024 38.2380 5792.00 5617.75 76.00
6025 38.2440 5703.00 5547.67 76.00
6026 38.2500 5812.00 5501.17 76.00
6027 38.2560 5873.00 5479.51 77.00
6028 38.2620 5784.00 5484.13 76.00
6029 38.2680 5712.00 5515.59 76.00
6030 38.2740 5683.00 5574.23 75.00
6031 38.2800 5843.00 5661.19 76.00
6032 38.2860 6065.00 5776.98 78.00
6033 38.2920 6134.00 5919.02 78.00
6034 38.2980 6281.00 6087.05 79.00
6035 38.3040 6574.00 6278.70 81.00
6036 38.3100 6789.00 6490.41 82.00
6037 38.3160 6973.00 6717.84 84.00
6038 38.3220 7324.00 6951.39 86.00
6039 38.3280 7369.00 7182.30 86.00
6040 38.3340 7477.00 7397.90 86.00
6041 38.3400 7613.00 7584.04 87.00
6042 38.3460 7827.00 7728.11 88.00
6043 38.3520 7654.00 7818.10 87.00
6044 38.3580 7517.00 7851.37 87.00
6045 38.3640 7599.00 7831.57 87.00
6046 38.3700 7558.00 7769.15 87.00
6047 38.3760 7625.00 7674.42 87.00
6048 38.3820 7576.00 7561.16 87.00
6049 38.3880 7555.00 7438.98 87.00
6050 38.3940 7540.00 7316.23 87.00
6051 38.4000 7478.00 7199.00 86.00
6052 38.4060 7432.00 7087.63 86.00
6053 38.4120 7476.00 6982.64 86.00
6054 38.4180 7274.00 6881.54 85.00
6055 38.4240 7213.00 6780.99 85.00
6056 38.4300 7134.00 6677.06 84.00
6057 38.4360 6987.00 6566.51 84.00
6058 38.4420 6709.00 6448.31 82.00
6059 38.4480 6384.00 6322.49 80.00
6060 38.4540 6158.00 6190.34 78.00
6061 38.4600 6085.00 6054.62 78.00
6062 38.4660 6010.00 5915.94 78.00
6063 38.4720 5887.00 5778.29 77.00
6064 38.4780 5790.00 5644.65 76.00
6065 38.4840 5689.00 5519.76 75.00
6066 38.4900 5412.00 5403.06 74.00
6067 38.4960 5273.00 5295.09 73.00
6068 38.5020 5214.00 5197.93 72.00
6069 38.5080 5183.00 5111.83 72.00
6070 38.5140 4983.00 5037.60 71.00
6071 38.5200 4998.00 4972.75 71.00
6072 38.5260 5056.00 4917.57 71.00
6073 38.5320 5058.00 4871.28 71.00
6074 38.5380 4988.00 4834.67 71.00
6075 38.5440 4854.00 4804.69 70.00
6076 38.5500 4830.00 4780.18 69.00
6077 38.5560 4884.00 4764.32 70.00
6078 38.5620 4811.00 4750.95 69.00
6079 38.5680 4774.00 4742.46 69.00
6080 38.5740 4733.00 4739.58 69.00
6081 38.5800 4783.00 4739.15 69.00
6082 38.5860 4702.00 4744.16 69.00
6083 38.5920 4716.00 4752.59 69.00
6084 38.5980 4771.00 4765.53 69.00
6085 38.6040 4633.00 4783.07 68.00
6086 38.6100 4647.00 4805.26 68.00
6087 38.6160 4744.00 4832.09 69.00
6088 38.6220 4807.00 4863.41 69.00
6089 38.6280 4818.00 4900.59 69.00
6090 38.6340 4936.00 4939.75 70.00
6091 38.6400 4987.00 4981.71 71.00
6092 38.6460 5060.00 5025.29 71.00
6093 38.6520 5155.00 5068.94 72.00
6094 38.6580 5176.00 5111.53 72.00
6095 38.6640 5254.00 5149.51 72.00
6096 38.6700 5263.00 5181.08 73.00
6097 38.6760 5331.00 5205.97 73.00
6098 38.6820 5300.00 5229.22 73.00
6099 38.6880 5275.00 5241.79 73.00
6100 38.6940 5240.00 5253.50 72.00
6101 38.7000 5268.00 5263.78 73.00
6102 38.7060 5239.00 5271.22 72.00
6103 38.7120 5229.00 5286.64 72.00
6104 38.7180 5324.00 5308.21 73.00
6105 38.7240 5423.00 5337.72 74.00
6106 38.7300 5474.00 5376.27 74.00
6107 38.7360 5501.00 5427.56 74.00
6108 38.7420 5610.00 5484.74 75.00
6109 38.7480 5798.00 5550.24 76.00
6110 38.7540 5789.00 5622.93 76.00
6111 38.7600 5895.00 5701.76 77.00
6112 38.7660 6115.00 5786.34 78.00
6113 38.7720 6174.00 5878.09 79.00
6114 38.7780 6184.00 5974.94 79.00
6115 38.7840 6321.00 6081.78 80.00
6116 38.7900 6559.00 6192.14 81.00
6117 38.7960 6696.00 6308.10 82.00
6118 38.8020 6744.00 6427.44 82.00
6119 38.8080 6766.00 6547.09 82.00
6120 38.8140 6787.00 6662.71 82.00
6121 38.8200 6947.00 6769.19 83.00
6122 38.8260 6993.00 6860.84 84.00
6123 38.8320 6875.00 6930.76 83.00
6124 38.8380 6795.00 6975.37 82.00
6125 38.8440 6691.00 6988.97 82.00
6126 38.8500 6645.00 6968.56 82.00
6127 38.8560 6504.00 6913.11 81.00
6128 38.8620 6301.00 6824.03 79.00
6129 38.8680 6108.00 6704.77 78.00
6130 38.8740 5982.00 6562.06 77.00
6131 38.8800 5798.00 6399.36 76.00
6132 38.8860 5713.00 6225.26 76.00
6133 38.8920 5954.00 6049.68 77.00
6134 38.8980 6012.00 5873.17 78.00
6135 38.9040 5882.00 5708.59 77.00
6136 38.9100 5743.00 5552.42 76.00
6137 38.9160 5671.00 5410.57 75.00
6138 38.9220 5594.00 5279.65 75.00
6139 38.9280 5447.00 5170.39 74.00
6140 38.9340 5362.00 5069.15 73.00
6141 38.9400 5261.00 4979.69 73.00
6142 38.9460 5213.00 4905.16 72.00
6143 38.9520 5192.00 4842.22 72.00
6144 38.9580 5146.00 4789.53 72.00
6145 38.9640 5063.00 4749.26 71.00
6146 38.9700 4967.00 4713.16 70.00
6147 38.9760 4927.00 4683.51 70.00
6148 38.9820 4918.00 4659.29 70.00
6149 38.9880 4952.00 4638.55 70.00
6150 38.9940 4999.00 4619.00 71.00
6151 39.0000 5017.00 4606.21 71.00
6152 39.0060 4856.00 4596.08 70.00
6153 39.0120 4746.00 4588.22 69.00
6154 39.0180 4733.00 4582.33 69.00
6155 39.0240 4774.00 4578.20 69.00
6156 39.0300 4761.00 4575.64 69.00
6157 39.0360 4721.00 4574.51 69.00
6158 39.0420 4835.00 4574.69 70.00
6159 39.0480 4852.00 4576.05 70.00
6160 39.0540 4810.00 4578.48 69.00
6161 39.0600 4679.00 4581.81 68.00
6162 39.0660 4599.00 4585.87 68.00
6163 39.0720 4662.00 4590.44 68.00
6164 39.0780 4683.00 4595.29 68.00
6165 39.0840 4665.00 4600.17 68.00
6166 39.0900 4661.00 4604.86 68.00
6167 39.0960 4660.00 4609.28 68.00
6168 39.1020 4637.00 4613.49 68.00
6169 39.1080 4715.00 4617.73 69.00
6170 39.1140 4748.00 4622.34 69.00
6171 39.1200 4722.00 4627.76 69.00
6172 39.1260 4760.00 4634.52 69.00
6173 39.1320 4750.00 4643.15 69.00
6174 39.1380 4723.00 4653.52 69.00
6175 39.1440 4742.00 4665.27 69.00
6176 39.1500 4812.00 4680.69 69.00
6177 39.1560 4914.00 4698.98 70.00
6178 39.1620 4888.00 4722.92 70.00
6179 39.1680 4891.00 4744.88 70.00
6180 39.1740 4923.00 4772.50 70.00
6181 39.1800 5037.00 4802.99 71.00
6182 39.1860 5107.00 4836.06 71.00
6183 39.1920 5004.00 4871.27 71.00
6184 39.1980 4991.00 4908.13 71.00
6185 39.2040 5077.00 4945.50 71.00
6186 39.2100 5114.00 4984.44 72.00
6187 39.2160 5117.00 5024.51 72.00
6188 39.2220 5139.00 5066.46 72.00
6189 39.2280 5163.00 5111.55 72.00
6190 39.2340 5114.00 5161.38 72.00
6191 39.2400 5202.00 5217.19 72.00
6192 39.2460 5359.00 5281.25 73.00
6193 39.2520 5353.00 5352.86 73.00
6194 39.2580 5264.00 5436.47 73.00
6195 39.2640 5415.00 5531.29 74.00
6196 39.2700 5665.00 5638.04 75.00
6197 39.2760 5754.00 5756.17 76.00
6198 39.2820 5897.00 5887.17 77.00
6199 39.2880 6161.00 6028.82 78.00
6200 39.2940 6395.00 6178.88 80.00
6201 39.3000 6616.00 6333.65 81.00
6202 39.3060 6692.00 6487.44 82.00
6203 39.3120 6751.00 6637.24 82.00
6204 39.3180 6652.00 6777.71 82.00
6205 39.3240 6709.00 6906.35 82.00
6206 39.3300 6863.00 7023.13 83.00
6207 39.3360 7020.00 7131.62 84.00
6208 39.3420 7211.00 7232.50 85.00
6209 39.3480 7330.00 7330.09 86.00
6210 39.3540 7625.00 7425.71 87.00
6211 39.3600 8000.00 7518.24 89.00
6212 39.3660 8138.00 7604.13 90.00
6213 39.3720 8323.00 7678.10 91.00
6214 39.3780 8409.00 7734.28 92.00
6215 39.3840 8418.00 7768.88 92.00
6216 39.3900 8266.00 7776.93 91.00
6217 39.3960 8036.00 7759.67 90.00
6218 39.4020 7909.00 7720.20 89.00
6219 39.4080 7836.00 7663.84 89.00
6220 39.4140 7776.00 7596.93 88.00
6221 39.4200 7456.00 7526.09 86.00
6222 39.4260 7351.00 7458.33 86.00
6223 39.4320 7229.00 7396.23 85.00
6224 39.4380 7059.00 7344.88 84.00
6225 39.4440 7048.00 7306.58 84.00
6226 39.4500 7096.00 7282.05 84.00
6227 39.4560 6982.00 7270.62 84.00
6228 39.4620 7055.00 7270.07 84.00
6229 39.4680 7224.00 7281.35 85.00
6230 39.4740 7264.00 7303.21 85.00
6231 39.4800 7324.00 7336.17 86.00
6232 39.4860 7521.00 7380.97 87.00
6233 39.4920 7658.00 7437.44 88.00
6234 39.4980 7764.00 7506.35 88.00
6235 39.5040 7994.00 7585.89 89.00
6236 39.5100 8118.00 7674.11 90.00
6237 39.5160 8252.00 7768.56 91.00
6238 39.5220 8371.00 7868.88 91.00
6239 39.5280 8413.00 7974.44 92.00
6240 39.5340 8434.00 8086.67 92.00
6241 39.5400 8351.00 8207.87 91.00
6242 39.5460 8482.00 8339.99 92.00
6243 39.5520 8514.00 8483.73 92.00
6244 39.5580 8667.00 8635.96 93.00
6245 39.5640 8698.00 8792.74 93.00
6246 39.5700 8564.00 8948.17 93.00
6247 39.5760 8914.00 9096.77 94.00
6248 39.5820 9009.00 9234.11 95.00
6249 39.5880 9136.00 9355.91 96.00
6250 39.5940 9294.00 9460.62 96.00
6251 39.6000 9532.00 9543.19 98.00
6252 39.6060 9625.00 9596.30 98.00
6253 39.6120 9491.00 9613.75 97.00
6254 39.6180 9958.00 9590.85 100.00
6255 39.6240 9850.00 9526.34 99.00
6256 39.6300 9437.00 9429.45 97.00
6257 39.6360 9175.00 9311.53 96.00
6258 39.6420 9247.00 9189.45 96.00
6259 39.6480 9176.00 9081.60 96.00
6260 39.6540 9284.00 9007.33 96.00
6261 39.6600 9428.00 8981.88 97.00
6262 39.6660 9427.00 9016.81 97.00
6263 39.6720 9860.00 9125.15 99.00
6264 39.6780 9992.00 9312.20 100.00
6265 39.6840 10445.00 9579.65 102.00
6266 39.6900 10994.00 9931.40 105.00
6267 39.6960 11594.00 10361.80 108.00
6268 39.7020 12406.00 10861.60 111.00
6269 39.7080 12788.00 11421.20 113.00
6270 39.7140 13465.00 12021.50 116.00
6271 39.7200 13870.00 12640.90 118.00
6272 39.7260 14623.00 13253.60 121.00
6273 39.7320 14979.00 13830.00 122.00
6274 39.7380 15097.00 14340.00 123.00
6275 39.7440 15448.00 14753.20 124.00
6276 39.7500 15482.00 15043.80 124.00
6277 39.7560 15361.00 15192.80 124.00
6278 39.7620 14936.00 15190.40 122.00
6279 39.7680 14646.00 15037.30 121.00
6280 39.7740 14106.00 14743.90 119.00
6281 39.7800 13609.00 14327.50 117.00
6282 39.7860 13160.00 13814.50 115.00
6283 39.7920 12682.00 13229.50 113.00
6284 39.7980 12371.00 12597.70 111.00
6285 39.8040 11587.00 11937.30 108.00
6286 39.8100 10975.00 11267.50 105.00
6287 39.8160 10491.00 10603.10 102.00
6288 39.8220 10168.00 9958.61 101.00
6289 39.8280 9500.00 9347.92 97.00
6290 39.8340 9053.00 8776.46 95.00
6291 39.8400 8804.00 8253.57 94.00
6292 39.8460 8557.00 7782.93 93.00
6293 39.8520 8062.00 7366.32 90.00
6294 39.8580 7949.00 7002.58 89.00
6295 39.8640 7620.00 6689.50 87.00
6296 39.8700 7440.00 6423.81 86.00
6297 39.8760 6928.00 6201.21 83.00
6298 39.8820 6645.00 6018.28 82.00
6299 39.8880 6700.00 5872.21 82.00
6300 39.8940 6583.00 5758.10 81.00
6301 39.9000 6325.00 5674.98 80.00
6302 39.9060 6111.00 5618.73 78.00
6303 39.9120 6118.00 5588.58 78.00
6304 39.9180 5973.00 5584.16 77.00
6305 39.9240 5921.00 5603.18 77.00
6306 39.9300 5774.00 5645.79 76.00
6307 39.9360 6109.00 5710.83 78.00
6308 39.9420 5905.00 5799.70 77.00
6309 39.9480 6167.00 5910.56 79.00
6310 39.9540 6363.00 6041.99 80.00
6311 39.9600 6556.00 6192.00 81.00
6312 39.9660 6970.00 6357.48 83.00
6313 39.9720 7134.00 6534.23 84.00
6314 39.9780 7581.00 6716.82 87.00
6315 39.9840 8333.00 6898.42 91.00
6316 39.9900 8806.00 7070.26 94.00
6317 39.9960 9176.00 7221.98 96.00
6318 40.0020 9380.00 7342.11 97.00
6319 40.0080 9308.00 7418.91 96.00
6320 40.0140 9069.00 7442.95 95.00
6321 40.0200 8467.00 7409.41 92.00
6322 40.0260 7959.00 7319.53 89.00
6323 40.0320 7727.00 7180.49 88.00
6324 40.0380 7170.00 7003.63 85.00
6325 40.0440 6804.00 6801.57 82.00
6326 40.0500 6467.00 6586.20 80.00
6327 40.0560 6169.00 6368.84 79.00
6328 40.0620 5904.00 6157.25 77.00
6329 40.0680 5702.00 5957.48 76.00
6330 40.0740 5663.00 5773.79 75.00
6331 40.0800 5511.00 5608.96 74.00
6332 40.0860 5352.00 5464.72 73.00
6333 40.0920 5230.00 5341.64 72.00
6334 40.0980 5219.00 5238.64 72.00
6335 40.1040 5143.00 5157.68 72.00
6336 40.1100 5179.00 5096.66 72.00
6337 40.1160 5077.00 5054.47 71.00
6338 40.1220 5032.00 5029.78 71.00
6339 40.1280 4910.00 5021.22 70.00
6340 40.1340 4946.00 5027.30 70.00
6341 40.1400 5021.00 5046.53 71.00
6342 40.1460 5120.00 5077.25 72.00
6343 40.1520 5154.00 5117.67 72.00
6344 40.1580 5197.00 5164.34 72.00
6345 40.1640 5374.00 5216.14 73.00
6346 40.1700 5426.00 5271.73 74.00
6347 40.1760 5376.00 5326.59 73.00
6348 40.1820 5445.00 5377.65 74.00
6349 40.1880 5416.00 5422.46 74.00
6350 40.1940 5289.00 5459.64 73.00
6351 40.2000 5377.00 5489.10 73.00
6352 40.2060 5367.00 5511.77 73.00
6353 40.2120 5390.00 5529.02 73.00
6354 40.2180 5335.00 5540.35 73.00
6355 40.2240 5351.00 5549.33 73.00
6356 40.2300 5316.00 5554.04 73.00
6357 40.2360 5290.00 5550.96 73.00
6358 40.2420 5301.00 5544.95 73.00
6359 40.2480 5259.00 5532.79 73.00
6360 40.2540 5171.00 5513.47 72.00
6361 40.2600 5126.00 5488.00 72.00
6362 40.2660 5208.00 5457.13 72.00
6363 40.2720 5167.00 5419.17 72.00
6364 40.2780 5132.00 5373.28 72.00
6365 40.2840 5107.00 5319.08 71.00
6366 40.2900 5059.00 5257.97 71.00
6367 40.2960 4982.00 5189.69 71.00
6368 40.3020 4958.00 5117.81 70.00
6369 40.3080 4915.00 5043.13 70.00
6370 40.3140 4922.00 4972.70 70.00
6371 40.3200 4907.00 4905.64 70.00
6372 40.3260 4890.00 4844.49 70.00
6373 40.3320 4884.00 4790.48 70.00
6374 40.3380 4824.00 4744.03 69.00
6375 40.3440 4736.00 4705.97 69.00
6376 40.3500 4706.00 4678.72 69.00
6377 40.3560 4750.00 4657.60 69.00
6378 40.3620 4739.00 4644.29 69.00
6379 40.3680 4678.00 4635.79 68.00
6380 40.3740 4698.00 4635.97 69.00
6381 40.3800 4717.00 4641.32 69.00
6382 40.3860 4711.00 4650.48 69.00
6383 40.3920 4754.00 4661.90 69.00
6384 40.3980 4713.00 4673.94 69.00
6385 40.4040 4735.00 4685.06 69.00
6386 40.4100 4630.00 4693.03 68.00
6387 40.4160 4617.00 4700.12 68.00
6388 40.4220 4631.00 4699.81 68.00
6389 40.4280 4677.00 4699.64 68.00
6390 40.4340 4716.00 4696.40 69.00
6391 40.4400 4637.00 4690.01 68.00
6392 40.4460 4649.00 4680.19 68.00
6393 40.4520 4543.00 4667.12 67.00
6394 40.4580 4534.00 4649.39 67.00
6395 40.4640 4582.00 4624.15 68.00
6396 40.4700 4503.00 4596.23 67.00
6397 40.4760 4412.00 4569.01 66.00
6398 40.4820 4429.00 4540.61 67.00
6399 40.4880 4358.00 4512.29 66.00
6400 40.4940 4358.00 4485.14 66.00
6401 40.5000 4340.00 4460.01 66.00
6402 40.5060 4323.00 4437.52 66.00
6403 40.5120 4325.00 4418.14 66.00
6404 40.5180 4244.00 4402.20 65.00
6405 40.5240 4308.00 4389.96 66.00
6406 40.5300 4309.00 4381.63 66.00
6407 40.5360 4376.00 4377.43 66.00
6408 40.5420 4184.00 4377.60 65.00
6409 40.5480 4274.00 4382.45 65.00
6410 40.5540 4272.00 4393.22 65.00
6411 40.5600 4379.00 4409.51 66.00
6412 40.5660 4264.00 4429.59 65.00
6413 40.5720 4314.00 4456.91 66.00
6414 40.5780 4305.00 4492.84 66.00
6415 40.5840 4393.00 4534.18 66.00
6416 40.5900 4529.00 4587.46 67.00
6417 40.5960 4524.00 4645.77 67.00
6418 40.6020 4688.00 4717.14 68.00
6419 40.6080 4761.00 4802.03 69.00
6420 40.6140 4859.00 4894.66 70.00
6421 40.6200 5009.00 5001.31 71.00
6422 40.6260 5112.00 5113.17 71.00
6423 40.6320 5411.00 5240.16 74.00
6424 40.6380 5723.00 5374.09 76.00
6425 40.6440 5902.00 5511.95 77.00
6426 40.6500 5998.00 5649.94 77.00
6427 40.6560 6224.00 5781.33 79.00
6428 40.6620 6481.00 5905.74 81.00
6429 40.6680 6774.00 6018.63 82.00
6430 40.6740 6626.00 6114.68 81.00
6431 40.6800 6544.00 6191.62 81.00
6432 40.6860 6495.00 6247.57 81.00
6433 40.6920 6688.00 6282.84 82.00
6434 40.6980 6599.00 6296.27 81.00
6435 40.7040 6608.00 6291.43 81.00
6436 40.7100 6515.00 6272.19 81.00
6437 40.7160 6538.00 6242.88 81.00
6438 40.7220 6424.00 6207.31 80.00
6439 40.7280 6238.00 6167.03 79.00
6440 40.7340 6154.00 6126.54 78.00
6441 40.7400 6149.00 6081.57 78.00
6442 40.7460 6128.00 6032.17 78.00
6443 40.7520 5873.00 5976.35 77.00
6444 40.7580 5980.00 5912.19 77.00
6445 40.7640 5815.00 5838.29 76.00
6446 40.7700 5735.00 5753.81 76.00
6447 40.7760 5637.00 5659.14 75.00
6448 40.7820 5368.00 5555.54 73.00
6449 40.7880 5250.00 5445.16 72.00
6450 40.7940 5235.00 5330.52 72.00
6451 40.8000 5314.00 5214.60 73.00
6452 40.8060 5025.00 5100.28 71.00
6453 40.8120 4960.00 4990.08 70.00
6454 40.8180 4943.00 4885.97 70.00
6455 40.8240 4790.00 4789.36 69.00
6456 40.8300 4833.00 4700.96 70.00
6457 40.8360 4714.00 4621.13 69.00
6458 40.8420 4600.00 4550.24 68.00
6459 40.8480 4688.00 4487.78 68.00
6460 40.8540 4468.00 4433.22 67.00
6461 40.8600 4461.00 4386.03 67.00
6462 40.8660 4530.00 4342.84 67.00
6463 40.8720 4503.00 4304.88 67.00
6464 40.8780 4490.00 4275.37 67.00
6465 40.8840 4448.00 4249.23 67.00
6466 40.8900 4348.00 4227.80 66.00
6467 40.8960 4105.00 4209.49 64.00
6468 40.9020 4299.00 4193.80 66.00
6469 40.9080 4304.00 4180.31 66.00
6470 40.9140 4235.00 4168.66 65.00
6471 40.9200 4120.00 4158.60 64.00
6472 40.9260 4177.00 4149.87 65.00
6473 40.9320 4098.00 4142.57 64.00
6474 40.9380 4167.00 4136.03 65.00
6475 40.9440 4058.00 4130.40 64.00
6476 40.9500 4043.00 4125.59 64.00
6477 40.9560 3990.00 4122.67 63.00
6478 40.9620 4184.00 4119.33 65.00
6479 40.9680 3999.00 4116.93 63.00
6480 40.9740 3984.00 4114.89 63.00
6481 40.9800 4065.00 4113.48 64.00
6482 40.9860 4083.00 4113.26 64.00
6483 40.9920 3966.00 4113.12 63.00
6484 40.9980 3951.00 4114.18 63.00
6485 41.0040 3983.00 4115.41 63.00
6486 41.0100 3957.00 4117.41 63.00
6487 41.0160 4134.00 4120.49 64.00
6488 41.0220 4001.00 4124.31 63.00
6489 41.0280 3870.00 4130.25 62.00
6490 41.0340 3966.00 4137.50 63.00
6491 41.0400 4014.00 4146.28 63.00
6492 41.0460 4053.00 4155.51 64.00
6493 41.0520 4094.00 4167.30 64.00
6494 41.0580 4000.00 4182.65 63.00
6495 41.0640 4001.00 4201.03 63.00
6496 41.0700 4183.00 4222.92 65.00
6497 41.0760 4130.00 4247.87 64.00
6498 41.0820 4293.00 4278.44 66.00
6499 41.0880 4301.00 4314.22 66.00
6500 41.0940 4386.00 4355.76 66.00
6501 41.1000 4413.00 4401.48 66.00
6502 41.1060 4495.00 4456.02 67.00
6503 41.1120 4577.00 4517.56 68.00
6504 41.1180 4705.00 4586.23 69.00
6505 41.1240 4767.00 4661.85 69.00
6506 41.1300 4859.00 4742.99 70.00
6507 41.1360 5032.00 4830.60 71.00
6508 41.1420 5227.00 4920.90 72.00
6509 41.1480 5354.00 5016.63 73.00
6510 41.1540 5305.00 5109.16 73.00
6511 41.1600 5462.00 5199.93 74.00
6512 41.1660 5558.00 5285.63 75.00
6513 41.1720 5518.00 5364.47 74.00
6514 41.1780 5551.00 5435.32 75.00
6515 41.1840 5613.00 5496.64 75.00
6516 41.1900 5583.00 5550.50 75.00
6517 41.1960 5653.00 5596.02 75.00
6518 41.2020 5614.00 5633.26 75.00
6519 41.2080 5589.00 5660.79 75.00
6520 41.2140 5511.00 5679.57 74.00
6521 41.2200 5498.00 5687.17 74.00
6522 41.2260 5635.00 5682.28 75.00
6523 41.2320 5607.00 5663.56 75.00
6524 41.2380 5545.00 5634.10 74.00
6525 41.2440 5413.00 5595.49 74.00
6526 41.2500 5489.00 5551.30 74.00
6527 41.2560 5490.00 5505.24 74.00
6528 41.2620 5431.00 5459.45 74.00
6529 41.2680 5299.00 5418.02 73.00
6530 41.2740 5286.00 5380.28 73.00
6531 41.2800 5304.00 5347.05 73.00
6532 41.2860 5267.00 5315.74 73.00
6533 41.2920 5273.00 5286.99 73.00
6534 41.2980 5231.00 5258.54 72.00
6535 41.3040 5191.00 5229.57 72.00
6536 41.3100 5188.00 5199.70 72.00
6537 41.3160 5136.00 5169.86 72.00
6538 41.3220 5062.00 5138.36 71.00
6539 41.3280 5072.00 5107.03 71.00
6540 41.3340 5076.00 5075.46 71.00
6541 41.3400 5019.00 5042.96 71.00
6542 41.3460 5002.00 5012.19 71.00
6543 41.3520 4934.00 4983.20 70.00
6544 41.3580 4904.00 4957.34 70.00
6545 41.3640 4877.00 4935.14 70.00
6546 41.3700 4751.00 4920.00 69.00
6547 41.3760 4846.00 4912.09 70.00
6548 41.3820 4734.00 4913.18 69.00
6549 41.3880 4771.00 4921.34 69.00
6550 41.3940 4799.00 4936.18 69.00
6551 41.4000 4961.00 4958.63 70.00
6552 41.4060 5065.00 4985.91 71.00
6553 41.4120 4978.00 5018.42 71.00
6554 41.4180 5012.00 5046.66 71.00
6555 41.4240 5063.00 5072.10 71.00
6556 41.4300 5122.00 5090.62 72.00
6557 41.4360 5128.00 5099.81 72.00
6558 41.4420 5117.00 5099.56 72.00
6559 41.4480 4983.00 5088.06 71.00
6560 41.4540 4723.00 5068.09 69.00
6561 41.4600 4477.00 5042.32 67.00
6562 41.4660 4434.00 5013.94 67.00
6563 41.4720 4532.00 4985.12 67.00
6564 41.4780 4613.00 4960.67 68.00
6565 41.4840 4618.00 4941.89 68.00
6566 41.4900 4608.00 4930.51 68.00
6567 41.4960 4571.00 4926.76 68.00
6568 41.5020 4553.00 4933.36 67.00
6569 41.5080 4659.00 4949.55 68.00
6570 41.5140 4746.00 4975.02 69.00
6571 41.5200 4733.00 5011.04 69.00
6572 41.5260 4846.00 5050.86 70.00
6573 41.5320 4902.00 5095.44 70.00
6574 41.5380 4872.00 5143.82 70.00
6575 41.5440 4958.00 5192.00 70.00
6576 41.5500 5025.00 5236.93 71.00
6577 41.5560 5027.00 5278.26 71.00
6578 41.5620 5030.00 5312.35 71.00
6579 41.5680 5037.00 5339.74 71.00
6580 41.5740 5054.00 5357.60 71.00
6581 41.5800 4966.00 5367.55 70.00
6582 41.5860 4849.00 5368.54 70.00
6583 41.5920 4783.00 5360.67 69.00
6584 41.5980 4859.00 5343.85 70.00
6585 41.6040 4871.00 5316.56 70.00
6586 41.6100 4779.00 5280.42 69.00
6587 41.6160 4782.00 5234.79 69.00
6588 41.6220 4747.00 5177.17 69.00
6589 41.6280 4660.00 5110.34 68.00
6590 41.6340 4615.00 5037.45 68.00
6591 41.6400 4517.00 4960.72 67.00
6592 41.6460 4492.00 4881.70 67.00
6593 41.6520 4570.00 4803.41 68.00
6594 41.6580 4498.00 4726.07 67.00
6595 41.6640 4381.00 4655.15 66.00
6596 41.6700 4361.00 4591.02 66.00
6597 41.6760 4370.00 4531.26 66.00
6598 41.6820 4287.00 4477.03 65.00
6599 41.6880 4243.00 4430.54 65.00
6600 41.6940 4264.00 4390.79 65.00
6601 41.7000 4285.00 4358.42 65.00
6602 41.7060 4232.00 4330.73 65.00
6603 41.7120 4219.00 4310.28 65.00
6604 41.7180 4245.00 4295.88 65.00
6605 41.7240 4196.00 4287.34 65.00
6606 41.7300 4251.00 4285.18 65.00
6607 41.7360 4276.00 4287.15 65.00
6608 41.7420 4254.00 4295.90 65.00
6609 41.7480 4253.00 4310.56 65.00
6610 41.7540 4199.00 4331.31 65.00
6611 41.7600 4198.00 4357.47 65.00
6612 41.7660 4251.00 4391.03 65.00
6613 41.7720 4384.00 4431.29 66.00
6614 41.7780 4436.00 4478.33 67.00
6615 41.7840 4536.00 4532.88 67.00
6616 41.7900 4695.00 4592.15 69.00
6617 41.7960 4664.00 4658.36 68.00
6618 41.8020 4644.00 4730.78 68.00
6619 41.8080 4747.00 4805.80 69.00
6620 41.8140 4925.00 4881.79 70.00
6621 41.8200 5023.00 4958.54 71.00
6622 41.8260 4939.00 5032.51 70.00
6623 41.8320 5053.00 5100.91 71.00
6624 41.8380 5233.00 5159.98 72.00
6625 41.8440 5273.00 5209.35 73.00
6626 41.8500 5144.00 5246.13 72.00
6627 41.8560 5000.00 5269.44 71.00
6628 41.8620 5095.00 5278.94 71.00
6629 41.8680 5133.00 5273.93 72.00
6630 41.8740 5099.00 5257.05 71.00
6631 41.8800 5002.00 5228.17 71.00
6632 41.8860 4878.00 5188.44 70.00
6633 41.8920 4877.00 5138.37 70.00
6634 41.8980 4793.00 5081.72 69.00
6635 41.9040 4796.00 5019.73 69.00
6636 41.9100 4763.00 4954.84 69.00
6637 41.9160 4606.00 4888.57 68.00
6638 41.9220 4463.00 4825.38 67.00
6639 41.9280 4390.00 4766.38 66.00
6640 41.9340 4407.00 4713.53 66.00
6641 41.9400 4423.00 4668.31 67.00
6642 41.9460 4425.00 4631.33 67.00
6643 41.9520 4396.00 4604.65 66.00
6644 41.9580 4415.00 4588.19 66.00
6645 41.9640 4434.00 4582.22 67.00
6646 41.9700 4400.00 4585.75 66.00
6647 41.9760 4397.00 4600.55 66.00
6648 41.9820 4331.00 4625.11 66.00
6649 41.9880 4401.00 4658.72 66.00
6650 41.9940 4577.00 4700.32 68.00
6651 42.0000 4550.00 4747.45 67.00
6652 42.0060 4587.00 4800.29 68.00
6653 42.0120 4691.00 4855.50 68.00
6654 42.0180 4779.00 4910.13 69.00
6655 42.0240 4911.00 4959.69 70.00
6656 42.0300 4983.00 5002.41 71.00
6657 42.0360 4974.00 5033.47 71.00
6658 42.0420 4889.00 5048.85 70.00
6659 42.0480 4852.00 5047.71 70.00
6660 42.0540 4785.00 5031.06 69.00
6661 42.0600 4674.00 5000.04 68.00
6662 42.0660 4541.00 4957.79 67.00
6663 42.0720 4490.00 4907.05 67.00
6664 42.0780 4430.00 4852.11 67.00
6665 42.0840 4359.00 4797.59 66.00
6666 42.0900 4261.00 4745.26 65.00
6667 42.0960 4221.00 4697.33 65.00
6668 42.1020 4201.00 4654.49 65.00
6669 42.1080 4152.00 4620.06 64.00
6670 42.1140 4069.00 4591.93 64.00
6671 42.1200 4163.00 4574.92 65.00
6672 42.1260 4182.00 4567.38 65.00
6673 42.1320 4131.00 4568.56 64.00
6674 42.1380 4151.00 4580.51 64.00
6675 42.1440 4096.00 4602.09 64.00
6676 42.1500 4100.00 4633.05 64.00
6677 42.1560 4128.00 4671.91 64.00
6678 42.1620 4177.00 4720.13 65.00
6679 42.1680 4248.00 4775.88 65.00
6680 42.1740 4326.00 4838.11 66.00
6681 42.1800 4380.00 4903.49 66.00
6682 42.1860 4355.00 4974.37 66.00
6683 42.1920 4454.00 5046.86 67.00
6684 42.1980 4409.00 5118.96 66.00
6685 42.2040 4407.00 5189.29 66.00
6686 42.2100 4518.00 5255.31 67.00
6687 42.2160 4566.00 5318.89 68.00
6688 42.2220 4701.00 5381.58 69.00
6689 42.2280 4693.00 5445.13 69.00
6690 42.2340 4696.00 5511.44 69.00
6691 42.2400 4738.00 5585.09 69.00
6692 42.2460 4733.00 5667.36 69.00
6693 42.2520 4957.00 5759.40 70.00
6694 42.2580 5115.00 5861.17 72.00
6695 42.2640 5304.00 5970.50 73.00
6696 42.2700 5354.00 6087.21 73.00
6697 42.2760 5400.00 6207.32 73.00
6698 42.2820 5651.00 6327.12 75.00
6699 42.2880 5836.00 6441.66 76.00
6700 42.2940 5953.00 6548.83 77.00
6701 42.3000 6169.00 6643.12 79.00
6702 42.3060 6468.00 6720.15 80.00
6703 42.3120 6491.00 6775.11 81.00
6704 42.3180 6434.00 6806.59 80.00
6705 42.3240 6558.00 6814.31 81.00
6706 42.3300 6669.00 6797.29 82.00
6707 42.3360 6462.00 6759.31 80.00
6708 42.3420 6374.00 6701.81 80.00
6709 42.3480 6255.00 6631.09 79.00
6710 42.3540 6121.00 6551.63 78.00
6711 42.3600 6215.00 6469.20 79.00
6712 42.3660 6069.00 6388.66 78.00
6713 42.3720 6126.00 6317.25 78.00
6714 42.3780 6018.00 6258.07 78.00
6715 42.3840 6023.00 6213.55 78.00
6716 42.3900 6063.00 6185.00 78.00
6717 42.3960 6146.00 6170.60 78.00
6718 42.4020 6162.00 6170.49 78.00
6719 42.4080 6257.00 6180.18 79.00
6720 42.4140 6148.00 6195.85 78.00
6721 42.4200 6252.00 6214.31 79.00
6722 42.4260 6271.00 6230.76 79.00
6723 42.4320 6325.00 6243.64 80.00
6724 42.4380 6275.00 6254.54 79.00
6725 42.4440 6238.00 6259.65 79.00
6726 42.4500 6413.00 6263.27 80.00
6727 42.4560 6338.00 6265.30 80.00
6728 42.4620 6318.00 6266.14 79.00
6729 42.4680 6317.00 6267.97 79.00
6730 42.4740 6385.00 6270.09 80.00
6731 42.4800 6541.00 6276.58 81.00
6732 42.4860 6429.00 6288.29 80.00
6733 42.4920 6603.00 6306.75 81.00
6734 42.4980 6629.00 6331.62 81.00
6735 42.5040 6615.00 6366.08 81.00
6736 42.5100 6637.00 6403.06 81.00
6737 42.5160 6713.00 6444.66 82.00
6738 42.5220 6705.00 6485.45 82.00
6739 42.5280 6833.00 6524.31 83.00
6740 42.5340 6766.00 6557.22 82.00
6741 42.5400 6650.00 6581.44 82.00
6742 42.5460 6751.00 6595.04 82.00
6743 42.5520 6616.00 6595.38 81.00
6744 42.5580 6394.00 6583.40 80.00
6745 42.5640 6510.00 6557.43 81.00
6746 42.5700 6509.00 6517.32 81.00
6747 42.5760 6560.00 6462.65 81.00
6748 42.5820 6361.00 6396.85 80.00
6749 42.5880 6313.00 6321.25 79.00
6750 42.5940 6317.00 6238.71 79.00
6751 42.6000 6219.00 6152.30 79.00
6752 42.6060 6148.00 6063.74 78.00
6753 42.6120 6003.00 5977.50 77.00
6754 42.6180 5827.00 5894.62 76.00
6755 42.6240 5703.00 5816.72 76.00
6756 42.6300 5727.00 5744.02 76.00
6757 42.6360 5770.00 5681.60 76.00
6758 42.6420 5830.00 5624.50 76.00
6759 42.6480 5801.00 5575.17 76.00
6760 42.6540 5891.00 5532.50 77.00
6761 42.6600 5975.00 5498.12 77.00
6762 42.6660 5882.00 5470.15 77.00
6763 42.6720 6065.00 5448.29 78.00
6764 42.6780 6215.00 5428.05 79.00
6765 42.6840 6175.00 5407.01 79.00
6766 42.6900 6212.00 5384.25 79.00
6767 42.6960 6135.00 5355.94 78.00
6768 42.7020 6130.00 5319.69 78.00
6769 42.7080 5914.00 5272.91 77.00
6770 42.7140 5782.00 5217.26 76.00
6771 42.7200 5556.00 5152.21 75.00
6772 42.7260 5365.00 5080.10 73.00
6773 42.7320 5274.00 5003.18 73.00
6774 42.7380 5063.00 4922.54 71.00
6775 42.7440 4877.00 4843.31 70.00
6776 42.7500 4792.00 4767.28 69.00
6777 42.7560 4856.00 4695.29 70.00
6778 42.7620 4731.00 4628.12 69.00
6779 42.7680 4642.00 4568.30 68.00
6780 42.7740 4600.00 4514.73 68.00
6781 42.7800 4610.00 4468.66 68.00
6782 42.7860 4522.00 4427.90 67.00
6783 42.7920 4442.00 4395.27 67.00
6784 42.7980 4385.00 4368.78 66.00
6785 42.8040 4504.00 4350.40 67.00
6786 42.8100 4418.00 4334.25 66.00
6787 42.8160 4493.00 4321.57 67.00
6788 42.8220 4431.00 4313.33 67.00
6789 42.8280 4347.00 4307.70 66.00
6790 42.8340 4179.00 4303.75 65.00
6791 42.8400 4299.00 4299.56 66.00
6792 42.8460 4395.00 4296.15 66.00
6793 42.8520 4190.00 4295.19 65.00
6794 42.8580 4259.00 4288.90 65.00
6795 42.8640 4218.00 4280.40 65.00
6796 42.8700 4205.00 4268.46 65.00
6797 42.8760 4214.00 4255.59 65.00
6798 42.8820 4171.00 4240.96 65.00
6799 42.8880 4123.00 4226.15 64.00
6800 42.8940 4117.00 4209.39 64.00
6801 42.9000 4211.00 4194.02 65.00
6802 42.9060 4059.00 4179.53 64.00
6803 42.9120 4185.00 4166.28 65.00
6804 42.9180 4230.00 4153.53 65.00
6805 42.9240 3999.00 4143.44 63.00
6806 42.9300 3994.00 4135.06 63.00
6807 42.9360 3972.00 4128.37 63.00
6808 42.9420 4074.00 4123.27 64.00
6809 42.9480 4176.00 4117.08 65.00
6810 42.9540 4175.00 4115.62 65.00
6811 42.9600 4119.00 4114.04 64.00
6812 42.9660 4056.00 4112.98 64.00
6813 42.9720 4066.00 4111.09 64.00
6814 42.9780 4050.00 4110.05 64.00
6815 42.9840 3992.00 4108.63 63.00
6816 42.9900 4052.00 4106.75 64.00
6817 42.9960 4163.00 4104.49 65.00
6818 43.0020 4139.00 4101.04 64.00
6819 43.0080 4036.00 4098.72 64.00
6820 43.0140 3996.00 4097.07 63.00
6821 43.0200 4086.00 4096.01 64.00
6822 43.0260 3987.00 4096.06 63.00
6823 43.0320 4038.00 4096.47 64.00
6824 43.0380 4108.00 4099.48 64.00
6825 43.0440 3991.00 4104.28 63.00
6826 43.0500 4070.00 4111.00 64.00
6827 43.0560 4176.00 4119.72 65.00
6828 43.0620 3984.00 4130.47 63.00
6829 43.0680 4066.00 4142.22 64.00
6830 43.0740 4150.00 4156.86 64.00
6831 43.0800 4078.00 4173.16 64.00
6832 43.0860 4146.00 4190.82 64.00
6833 43.0920 4223.00 4209.40 65.00
6834 43.0980 4120.00 4228.97 64.00
6835 43.1040 4244.00 4247.55 65.00
6836 43.1100 4062.00 4263.15 64.00
6837 43.1160 4203.00 4278.14 65.00
6838 43.1220 4124.00 4291.15 64.00
6839 43.1280 4147.00 4301.67 64.00
6840 43.1340 4207.00 4308.24 65.00
6841 43.1400 4125.00 4311.33 64.00
6842 43.1460 4059.00 4310.06 64.00
6843 43.1520 4193.00 4306.74 65.00
6844 43.1580 4161.00 4300.83 65.00
6845 43.1640 4125.00 4292.95 64.00
6846 43.1700 3988.00 4283.89 63.00
6847 43.1760 4211.00 4274.48 65.00
6848 43.1820 4050.00 4265.59 64.00
6849 43.1880 4053.00 4255.98 64.00
6850 43.1940 4015.00 4251.00 63.00
6851 43.2000 4119.00 4248.29 64.00
6852 43.2060 4046.00 4248.89 64.00
6853 43.2120 4071.00 4253.97 64.00
6854 43.2180 4111.00 4260.33 64.00
6855 43.2240 4140.00 4274.04 64.00
6856 43.2300 4062.00 4294.25 64.00
6857 43.2360 4144.00 4321.03 64.00
6858 43.2420 4044.00 4355.15 64.00
6859 43.2480 4092.00 4395.36 64.00
6860 43.2540 4275.00 4446.60 65.00
6861 43.2600 4176.00 4507.55 65.00
6862 43.2660 4319.00 4578.00 66.00
6863 43.2720 4364.00 4661.51 66.00
6864 43.2780 4340.00 4755.57 66.00
6865 43.2840 4639.00 4861.38 68.00
6866 43.2900 4616.00 4978.62 68.00
6867 43.2960 4848.00 5106.72 70.00
6868 43.3020 4997.00 5243.41 71.00
6869 43.3080 5113.00 5389.02 72.00
6870 43.3140 5501.00 5540.01 74.00
6871 43.3200 5787.00 5692.69 76.00
6872 43.3260 6024.00 5842.92 78.00
6873 43.3320 6323.00 5983.58 80.00
6874 43.3380 6415.00 6113.56 80.00
6875 43.3440 6449.00 6224.32 80.00
6876 43.3500 6659.00 6313.34 82.00
6877 43.3560 6444.00 6376.69 80.00
6878 43.3620 6513.00 6413.19 81.00
6879 43.3680 6449.00 6423.64 80.00
6880 43.3740 6194.00 6409.00 79.00
6881 43.3800 6069.00 6374.66 78.00
6882 43.3860 5941.00 6324.88 77.00
6883 43.3920 5858.00 6262.24 77.00
6884 43.3980 5838.00 6189.71 76.00
6885 43.4040 5701.00 6109.64 76.00
6886 43.4100 5639.00 6023.65 75.00
6887 43.4160 5560.00 5932.46 75.00
6888 43.4220 5435.00 5836.15 74.00
6889 43.4280 5456.00 5737.28 74.00
6890 43.4340 4950.00 5635.40 70.00
6891 43.4400 5199.00 5533.74 72.00
6892 43.4460 5070.00 5434.03 71.00
6893 43.4520 5034.00 5337.76 71.00
6894 43.4580 5005.00 5249.88 71.00
6895 43.4640 4980.00 5173.39 71.00
6896 43.4700 5012.00 5109.41 71.00
6897 43.4760 5024.00 5059.40 71.00
6898 43.4820 4832.00 5024.13 70.00
6899 43.4880 5044.00 5003.95 71.00
6900 43.4940 5107.00 5001.45 71.00
6901 43.5000 5198.00 5013.01 72.00
6902 43.5060 5143.00 5040.88 72.00
6903 43.5120 5041.00 5083.50 71.00
6904 43.5180 5237.00 5137.99 72.00
6905 43.5240 5245.00 5204.36 72.00
6906 43.5300 5171.00 5279.43 72.00
6907 43.5360 5448.00 5358.99 74.00
6908 43.5420 5334.00 5441.14 73.00
6909 43.5480 5511.00 5520.72 74.00
6910 43.5540 5378.00 5591.56 73.00
6911 43.5600 5340.00 5650.61 73.00
6912 43.5660 5346.00 5693.33 73.00
6913 43.5720 5294.00 5717.48 73.00
6914 43.5780 5355.00 5720.67 73.00
6915 43.5840 5335.00 5705.49 73.00
6916 43.5900 5383.00 5672.88 73.00
6917 43.5960 5139.00 5625.11 72.00
6918 43.6020 5168.00 5565.21 72.00
6919 43.6080 5054.00 5495.96 71.00
6920 43.6140 5165.00 5421.85 72.00
6921 43.6200 5204.00 5348.14 72.00
6922 43.6260 5130.00 5276.66 72.00
6923 43.6320 4924.00 5213.46 70.00
6924 43.6380 5084.00 5160.57 71.00
6925 43.6440 4926.00 5120.43 70.00
6926 43.6500 4936.00 5095.19 70.00
6927 43.6560 4897.00 5085.45 70.00
6928 43.6620 5094.00 5094.39 71.00
6929 43.6680 5070.00 5121.75 71.00
6930 43.6740 5240.00 5167.94 72.00
6931 43.6800 5189.00 5232.93 72.00
6932 43.6860 5313.00 5316.27 73.00
6933 43.6920 5454.00 5415.98 74.00
6934 43.6980 5409.00 5532.46 74.00
6935 43.7040 5810.00 5662.31 76.00
6936 43.7100 5946.00 5802.51 77.00
6937 43.7160 6188.00 5949.02 79.00
6938 43.7220 6278.00 6097.01 79.00
6939 43.7280 6480.00 6241.50 80.00
6940 43.7340 6686.00 6377.46 82.00
6941 43.7400 6747.00 6501.44 82.00
6942 43.7460 6741.00 6610.34 82.00
6943 43.7520 6650.00 6702.98 82.00
6944 43.7580 6680.00 6776.97 82.00
6945 43.7640 6774.00 6831.29 82.00
6946 43.7700 6690.00 6862.91 82.00
6947 43.7760 7001.00 6871.57 84.00
6948 43.7820 6746.00 6854.02 82.00
6949 43.7880 6721.00 6810.62 82.00
6950 43.7940 6622.00 6742.31 81.00
6951 43.8000 6379.00 6652.42 80.00
6952 43.8060 6290.00 6545.55 79.00
6953 43.8120 6176.00 6425.87 79.00
6954 43.8180 6198.00 6301.50 79.00
6955 43.8240 6059.00 6174.55 78.00
6956 43.8300 5984.00 6049.13 77.00
6957 43.8360 5915.00 5929.12 77.00
6958 43.8420 5938.00 5817.17 77.00
6959 43.8480 5775.00 5713.56 76.00
6960 43.8540 5762.00 5621.17 76.00
6961 43.8600 5637.00 5538.73 75.00
6962 43.8660 5498.00 5466.47 74.00
6963 43.8720 5330.00 5399.28 73.00
6964 43.8780 5308.00 5336.29 73.00
6965 43.8840 5471.00 5275.02 74.00
6966 43.8900 5141.00 5212.83 72.00
6967 43.8960 5152.00 5151.57 72.00
6968 43.9020 5181.00 5087.63 72.00
6969 43.9080 5175.00 5023.35 72.00
6970 43.9140 5033.00 4959.81 71.00
6971 43.9200 4999.00 4898.44 71.00
6972 43.9260 4819.00 4839.38 69.00
6973 43.9320 4714.00 4786.26 69.00
6974 43.9380 4745.00 4737.50 69.00
6975 43.9440 4734.00 4694.10 69.00
6976 43.9500 4629.00 4656.32 68.00
6977 43.9560 4648.00 4624.33 68.00
6978 43.9620 4571.00 4598.29 68.00
6979 43.9680 4514.00 4577.42 67.00
6980 43.9740 4519.00 4563.88 67.00
6981 43.9800 4586.00 4556.80 68.00
6982 43.9860 4566.00 4556.16 68.00
6983 43.9920 4593.00 4561.80 68.00
6984 43.9980 4487.00 4573.28 67.00
6985 44.0040 4641.00 4589.00 68.00
6986 44.0100 4725.00 4610.07 69.00
6987 44.0160 4777.00 4634.38 69.00
6988 44.0220 4756.00 4660.61 69.00
6989 44.0280 4900.00 4687.30 70.00
6990 44.0340 4772.00 4713.01 69.00
6991 44.0400 4760.00 4736.50 69.00
6992 44.0460 4870.00 4755.49 70.00
6993 44.0520 4858.00 4772.11 70.00
6994 44.0580 4939.00 4786.84 70.00
6995 44.0640 4994.00 4796.09 71.00
6996 44.0700 4920.00 4802.41 70.00
6997 44.0760 4886.00 4806.47 70.00
6998 44.0820 4886.00 4809.04 70.00
6999 44.0880 4865.00 4813.68 70.00
7000 44.0940 4942.00 4819.61 70.00
7001 44.1000 4825.00 4828.25 69.00
7002 44.1060 4822.00 4840.16 69.00
7003 44.1120 4796.00 4855.34 69.00
7004 44.1180 4916.00 4873.30 70.00
7005 44.1240 4817.00 4893.38 69.00
7006 44.1300 4820.00 4914.03 69.00
7007 44.1360 4875.00 4933.37 70.00
7008 44.1420 4886.00 4950.26 70.00
7009 44.1480 4874.00 4963.49 70.00
7010 44.1540 4865.00 4972.09 70.00
7011 44.1600 4770.00 4975.59 69.00
7012 44.1660 4675.00 4972.96 68.00
7013 44.1720 4642.00 4966.60 68.00
7014 44.1780 4750.00 4956.16 69.00
7015 44.1840 4626.00 4942.34 68.00
7016 44.1900 4709.00 4925.60 69.00
7017 44.1960 4631.00 4906.05 68.00
7018 44.2020 4656.00 4882.42 68.00
7019 44.2080 4708.00 4856.24 69.00
7020 44.2140 4684.00 4825.98 68.00
7021 44.2200 4546.00 4791.45 67.00
7022 44.2260 4448.00 4752.93 67.00
7023 44.2320 4380.00 4711.18 66.00
7024 44.2380 4357.00 4667.25 66.00
7025 44.2440 4360.00 4621.51 66.00
7026 44.2500 4287.00 4576.77 65.00
7027 44.2560 4250.00 4533.41 65.00
7028 44.2620 4294.00 4492.12 66.00
7029 44.2680 4224.00 4453.56 65.00
7030 44.2740 4096.00 4416.56 64.00
7031 44.2800 4147.00 4384.07 64.00
7032 44.2860 4160.00 4357.69 64.00
7033 44.2920 4097.00 4333.05 64.00
7034 44.2980 4060.00 4316.42 64.00
7035 44.3040 4128.00 4303.74 64.00
7036 44.3100 4162.00 4296.44 65.00
7037 44.3160 4108.00 4294.12 64.00
7038 44.3220 4138.00 4297.05 64.00
7039 44.3280 4187.00 4306.51 65.00
7040 44.3340 4111.00 4322.14 64.00
7041 44.3400 4136.00 4343.66 64.00
7042 44.3460 4180.00 4371.01 65.00
7043 44.3520 4196.00 4404.00 65.00
7044 44.3580 4241.00 4439.83 65.00
7045 44.3640 4284.00 4483.16 65.00
7046 44.3700 4308.00 4530.93 66.00
7047 44.3760 4335.00 4582.49 66.00
7048 44.3820 4432.00 4637.14 67.00
7049 44.3880 4495.00 4694.23 67.00
7050 44.3940 4773.00 4753.06 69.00
7051 44.4000 4884.00 4811.88 70.00
7052 44.4060 4929.00 4871.86 70.00
7053 44.4120 4959.00 4930.37 70.00
7054 44.4180 5080.00 4985.74 71.00
7055 44.4240 5119.00 5035.74 72.00
7056 44.4300 5123.00 5077.89 72.00
7057 44.4360 5137.00 5108.68 72.00
7058 44.4420 5157.00 5128.64 72.00
7059 44.4480 5170.00 5134.74 72.00
7060 44.4540 4993.00 5128.10 71.00
7061 44.4600 5021.00 5108.39 71.00
7062 44.4660 4955.00 5078.08 70.00
7063 44.4720 4825.00 5038.43 69.00
7064 44.4780 4836.00 4994.18 70.00
7065 44.4840 4769.00 4945.20 69.00
7066 44.4900 4738.00 4893.64 69.00
7067 44.4960 4763.00 4839.46 69.00
7068 44.5020 4631.00 4784.97 68.00
7069 44.5080 4581.00 4731.58 68.00
7070 44.5140 4577.00 4678.02 68.00
7071 44.5200 4547.00 4626.86 67.00
7072 44.5260 4490.00 4577.76 67.00
7073 44.5320 4443.00 4530.20 67.00
7074 44.5380 4322.00 4487.21 66.00
7075 44.5440 4317.00 4448.85 66.00
7076 44.5500 4340.00 4413.08 66.00
7077 44.5560 4320.00 4382.93 66.00
7078 44.5620 4211.00 4357.56 65.00
7079 44.5680 4202.00 4337.01 65.00
7080 44.5740 4183.00 4321.25 65.00
7081 44.5800 4238.00 4310.18 65.00
7082 44.5860 4280.00 4303.74 65.00
7083 44.5920 4322.00 4300.90 66.00
7084 44.5980 4268.00 4303.68 65.00
7085 44.6040 4324.00 4311.17 66.00
7086 44.6100 4313.00 4323.52 66.00
7087 44.6160 4281.00 4340.84 65.00
7088 44.6220 4268.00 4363.23 65.00
7089 44.6280 4296.00 4389.73 66.00
7090 44.6340 4345.00 4422.30 66.00
7091 44.6400 4323.00 4459.77 66.00
7092 44.6460 4422.00 4502.13 66.00
7093 44.6520 4642.00 4548.30 68.00
7094 44.6580 4740.00 4597.87 69.00
7095 44.6640 4733.00 4649.93 69.00
7096 44.6700 4684.00 4702.30 68.00
7097 44.6760 4801.00 4753.61 69.00
7098 44.6820 4893.00 4805.97 70.00
7099 44.6880 5031.00 4856.12 71.00
7100 44.6940 5084.00 4903.44 71.00
7101 44.7000 4995.00 4947.87 71.00
7102 44.7060 5050.00 4988.99 71.00
7103 44.7120 5061.00 5029.87 71.00
7104 44.7180 5063.00 5071.01 71.00
7105 44.7240 5163.00 5110.62 72.00
7106 44.7300 5196.00 5157.31 72.00
7107 44.7360 5222.00 5208.73 72.00
7108 44.7420 5177.00 5265.51 72.00
7109 44.7480 5229.00 5326.57 72.00
7110 44.7540 5208.00 5393.44 72.00
7111 44.7600 5291.00 5462.77 73.00
7112 44.7660 5498.00 5534.15 74.00
7113 44.7720 5624.00 5604.74 75.00
7114 44.7780 5632.00 5672.54 75.00
7115 44.7840 5601.00 5734.95 75.00
7116 44.7900 5699.00 5792.75 75.00
7117 44.7960 5833.00 5844.00 76.00
7118 44.8020 5806.00 5887.77 76.00
7119 44.8080 5828.00 5923.02 76.00
7120 44.8140 5853.00 5948.44 77.00
7121 44.8200 5789.00 5962.67 76.00
7122 44.8260 5753.00 5963.07 76.00
7123 44.8320 5675.00 5950.66 75.00
7124 44.8380 5753.00 5925.69 76.00
7125 44.8440 5742.00 5887.29 76.00
7126 44.8500 5614.00 5836.19 75.00
7127 44.8560 5523.00 5773.87 74.00
7128 44.8620 5426.00 5700.35 74.00
7129 44.8680 5346.00 5620.22 73.00
7130 44.8740 5301.00 5535.49 73.00
7131 44.8800 5235.00 5447.28 72.00
7132 44.8860 5188.00 5359.01 72.00
7133 44.8920 5229.00 5271.33 72.00
7134 44.8980 5250.00 5185.68 72.00
7135 44.9040 5183.00 5107.06 72.00
7136 44.9100 5141.00 5034.84 72.00
7137 44.9160 5085.00 4971.33 71.00
7138 44.9220 5088.00 4918.01 71.00
7139 44.9280 5087.00 4876.07 71.00
7140 44.9340 5045.00 4846.37 71.00
7141 44.9400 4998.00 4828.40 71.00
7142 44.9460 5046.00 4824.88 71.00
7143 44.9520 4989.00 4833.88 71.00
7144 44.9580 5045.00 4855.50 71.00
7145 44.9640 5173.00 4889.81 72.00
7146 44.9700 5202.00 4934.48 72.00
7147 44.9760 5253.00 4987.88 72.00
7148 44.9820 5291.00 5049.63 73.00
7149 44.9880 5343.00 5117.85 73.00
7150 44.9940 5388.00 5189.14 73.00
7151 45.0000 5377.00 5260.39 73.00
7152 45.0060 5507.00 5328.15 74.00
7153 45.0120 5670.00 5389.34 75.00
7154 45.0180 5743.00 5440.12 76.00
7155 45.0240 5698.00 5480.91 75.00
7156 45.0300 5576.00 5510.09 75.00
7157 45.0360 5530.00 5527.96 74.00
7158 45.0420 5550.00 5535.38 74.00
7159 45.0480 5541.00 5533.41 74.00
7160 45.0540 5605.00 5521.91 75.00
7161 45.0600 5541.00 5503.40 74.00
7162 45.0660 5321.00 5477.44 73.00
7163 45.0720 5184.00 5442.92 72.00
7164 45.0780 5158.00 5399.87 72.00
7165 45.0840 5088.00 5347.58 71.00
7166 45.0900 4992.00 5287.34 71.00
7167 45.0960 4963.00 5218.81 70.00
7168 45.1020 4883.00 5145.42 70.00
7169 45.1080 4763.00 5069.19 69.00
7170 45.1140 4656.00 4992.17 68.00
7171 45.1200 4701.00 4917.35 69.00
7172 45.1260 4657.00 4846.77 68.00
7173 45.1320 4534.00 4781.91 67.00
7174 45.1380 4554.00 4725.01 67.00
7175 45.1440 4543.00 4676.83 67.00
7176 45.1500 4561.00 4638.12 68.00
7177 45.1560 4482.00 4609.42 67.00
7178 45.1620 4442.00 4590.48 67.00
7179 45.1680 4580.00 4581.86 68.00
7180 45.1740 4558.00 4582.91 68.00
7181 45.1800 4508.00 4594.81 67.00
7182 45.1860 4523.00 4616.01 67.00
7183 45.1920 4489.00 4645.73 67.00
7184 45.1980 4560.00 4682.97 68.00
7185 45.2040 4700.00 4726.53 69.00
7186 45.2100 4760.00 4773.91 69.00
7187 45.2160 4904.00 4825.75 70.00
7188 45.2220 5039.00 4879.06 71.00
7189 45.2280 5165.00 4931.66 72.00
7190 45.2340 5365.00 4981.03 73.00
7191 45.2400 5421.00 5024.45 74.00
7192 45.2460 5415.00 5057.95 74.00
7193 45.2520 5440.00 5080.83 74.00
7194 45.2580 5439.00 5089.96 74.00
7195 45.2640 5430.00 5084.29 74.00
7196 45.2700 5268.00 5064.07 73.00
7197 45.2760 5183.00 5030.88 72.00
7198 45.2820 5018.00 4987.26 71.00
7199 45.2880 4907.00 4935.50 70.00
7200 45.2940 4767.00 4880.70 69.00
7201 45.3000 4634.00 4825.06 68.00
7202 45.3060 4634.00 4771.19 68.00
7203 45.3120 4460.00 4721.25 67.00
7204 45.3180 4323.00 4676.96 66.00
7205 45.3240 4419.00 4638.66 66.00
7206 45.3300 4297.00 4609.10 66.00
7207 45.3360 4243.00 4587.70 65.00
7208 45.3420 4410.00 4576.14 66.00
7209 45.3480 4478.00 4572.28 67.00
7210 45.3540 4557.00 4576.73 68.00
7211 45.3600 4455.00 4589.59 67.00
7212 45.3660 4453.00 4607.71 67.00
7213 45.3720 4383.00 4632.66 66.00
7214 45.3780 4586.00 4662.31 68.00
7215 45.3840 4613.00 4695.25 68.00
7216 45.3900 4631.00 4729.86 68.00
7217 45.3960 4733.00 4765.19 69.00
7218 45.4020 4684.00 4797.08 68.00
7219 45.4080 4703.00 4826.67 69.00
7220 45.4140 4713.00 4850.85 69.00
7221 45.4200 4745.00 4869.06 69.00
7222 45.4260 4744.00 4880.03 69.00
7223 45.4320 4645.00 4883.35 68.00
7224 45.4380 4609.00 4879.12 68.00
7225 45.4440 4657.00 4866.88 68.00
7226 45.4500 4608.00 4849.56 68.00
7227 45.4560 4623.00 4827.42 68.00
7228 45.4620 4611.00 4801.73 68.00
7229 45.4680 4505.00 4774.20 67.00
7230 45.4740 4405.00 4745.38 66.00
7231 45.4800 4485.00 4715.34 67.00
7232 45.4860 4499.00 4687.07 67.00
7233 45.4920 4471.00 4659.43 67.00
7234 45.4980 4422.00 4632.15 66.00
7235 45.5040 4359.00 4604.73 66.00
7236 45.5100 4289.00 4576.56 65.00
7237 45.5160 4258.00 4547.20 65.00
7238 45.5220 4119.00 4515.59 64.00
7239 45.5280 4150.00 4484.04 64.00
7240 45.5340 4340.00 4452.21 66.00
7241 45.5400 4186.00 4420.96 65.00
7242 45.5460 4188.00 4391.08 65.00
7243 45.5520 4178.00 4363.60 65.00
7244 45.5580 4083.00 4338.02 64.00
7245 45.5640 4102.00 4316.82 64.00
7246 45.5700 4057.00 4299.20 64.00
7247 45.5760 4063.00 4285.31 64.00
7248 45.5820 4138.00 4274.93 64.00
7249 45.5880 4153.00 4267.83 64.00
7250 45.5940 4162.00 4263.59 65.00
7251 45.6000 4120.00 4260.64 64.00
7252 45.6060 4129.00 4260.28 64.00
7253 45.6120 4084.00 4260.81 64.00
7254 45.6180 4048.00 4261.31 64.00
7255 45.6240 4054.00 4261.08 64.00
7256 45.6300 4002.00 4259.53 63.00
7257 45.6360 4064.00 4255.22 64.00
7258 45.6420 3993.00 4249.76 63.00
7259 45.6480 3872.00 4241.33 62.00
7260 45.6540 3916.00 4231.52 63.00
7261 45.6600 3922.00 4219.82 63.00
7262 45.6660 4079.00 4206.66 64.00
7263 45.6720 3942.00 4191.59 63.00
7264 45.6780 3997.00 4177.23 63.00
7265 45.6840 3897.00 4163.21 62.00
7266 45.6900 3830.00 4150.11 62.00
7267 45.6960 3947.00 4138.46 63.00
7268 45.7020 3933.00 4129.35 63.00
7269 45.7080 3949.00 4122.64 63.00
7270 45.7140 4024.00 4116.98 63.00
7271 45.7200 4006.00 4115.40 63.00
7272 45.7260 3905.00 4118.08 62.00
7273 45.7320 3839.00 4123.65 62.00
7274 45.7380 3940.00 4132.33 63.00
7275 45.7440 3975.00 4144.97 63.00
7276 45.7500 4032.00 4163.86 63.00
7277 45.7560 4000.00 4187.87 63.00
7278 45.7620 3985.00 4217.13 63.00
7279 45.7680 4113.00 4251.37 64.00
7280 45.7740 4092.00 4292.59 64.00
7281 45.7800 4142.00 4340.01 64.00
7282 45.7860 4290.00 4392.14 65.00
7283 45.7920 4362.00 4451.98 66.00
7284 45.7980 4410.00 4516.70 66.00
7285 45.8040 4452.00 4587.79 67.00
7286 45.8100 4616.00 4663.26 68.00
7287 45.8160 4719.00 4741.06 69.00
7288 45.8220 4811.00 4821.07 69.00
7289 45.8280 4865.00 4902.32 70.00
7290 45.8340 4964.00 4981.38 70.00
7291 45.8400 5117.00 5056.00 72.00
7292 45.8460 5043.00 5123.77 71.00
7293 45.8520 5173.00 5180.86 72.00
7294 45.8580 5306.00 5228.61 73.00
7295 45.8640 5251.00 5264.23 72.00
7296 45.8700 5077.00 5287.49 71.00
7297 45.8760 5193.00 5297.44 72.00
7298 45.8820 5175.00 5297.39 72.00
7299 45.8880 5060.00 5288.07 71.00
7300 45.8940 5274.00 5271.60 73.00
7301 45.9000 5113.00 5249.90 72.00
7302 45.9060 5046.00 5223.76 71.00
7303 45.9120 4945.00 5196.89 70.00
7304 45.9180 4955.00 5168.76 70.00
7305 45.9240 4973.00 5140.50 71.00
7306 45.9300 4995.00 5110.42 71.00
7307 45.9360 5201.00 5080.94 72.00
7308 45.9420 5048.00 5050.99 71.00
7309 45.9480 4968.00 5020.64 70.00
7310 45.9540 4892.00 4990.14 70.00
7311 45.9600 4803.00 4958.85 69.00
7312 45.9660 4879.00 4929.26 70.00
7313 45.9720 4822.00 4900.74 69.00
7314 45.9780 4916.00 4873.50 70.00
7315 45.9840 4677.00 4845.62 68.00
7316 45.9900 4731.00 4819.71 69.00
7317 45.9960 4775.00 4795.70 69.00
7318 46.0020 4564.00 4772.39 68.00
7319 46.0080 4572.00 4749.92 68.00
7320 46.0140 4753.00 4727.73 69.00
7321 46.0200 4641.00 4707.34 68.00
7322 46.0260 4537.00 4689.21 67.00
7323 46.0320 4476.00 4673.13 67.00
7324 46.0380 4408.00 4658.75 66.00
7325 46.0440 4486.00 4644.96 67.00
7326 46.0500 4421.00 4633.49 66.00
7327 46.0560 4490.00 4621.73 67.00
7328 46.0620 4423.00 4611.66 67.00
7329 46.0680 4482.00 4601.40 67.00
7330 46.0740 4464.00 4592.32 67.00
7331 46.0800 4487.00 4583.48 67.00
7332 46.0860 4424.00 4573.35 67.00
7333 46.0920 4263.00 4561.75 65.00
7334 46.0980 4274.00 4546.96 65.00
7335 46.1040 4235.00 4530.33 65.00
7336 46.1100 4149.00 4510.92 64.00
7337 46.1160 4237.00 4487.46 65.00
7338 46.1220 4146.00 4459.62 64.00
7339 46.1280 4163.00 4429.93 65.00
7340 46.1340 4180.00 4398.12 65.00
7341 46.1400 4143.00 4365.17 64.00
7342 46.1460 4070.00 4332.03 64.00
7343 46.1520 4078.00 4298.68 64.00
7344 46.1580 4038.00 4267.89 64.00
7345 46.1640 3953.00 4239.31 63.00
7346 46.1700 4093.00 4213.44 64.00
7347 46.1760 3965.00 4189.66 63.00
7348 46.1820 4107.00 4170.08 64.00
7349 46.1880 4047.00 4154.75 64.00
7350 46.1940 4128.00 4142.82 64.00
7351 46.2000 4128.00 4134.89 64.00
7352 46.2060 4205.00 4132.64 65.00
7353 46.2120 4183.00 4133.20 65.00
7354 46.2180 4244.00 4138.34 65.00
7355 46.2240 4091.00 4148.23 64.00
7356 46.2300 4218.00 4161.16 65.00
7357 46.2360 4262.00 4180.05 65.00
7358 46.2420 4373.00 4206.33 66.00
7359 46.2480 4452.00 4238.19 67.00
7360 46.2540 4481.00 4275.48 67.00
7361 46.2600 4539.00 4317.90 67.00
7362 46.2660 4620.00 4367.66 68.00
7363 46.2720 4719.00 4423.76 69.00
7364 46.2780 4858.00 4486.62 70.00
7365 46.2840 5044.00 4553.98 71.00
7366 46.2900 5114.00 4627.70 72.00
7367 46.2960 5103.00 4706.09 71.00
7368 46.3020 5287.00 4787.89 73.00
7369 46.3080 5281.00 4871.72 73.00
7370 46.3140 5453.00 4954.69 74.00
7371 46.3200 5479.00 5036.74 74.00
7372 46.3260 5335.00 5115.55 73.00
7373 46.3320 5423.00 5188.35 74.00
7374 46.3380 5522.00 5251.89 74.00
7375 46.3440 5609.00 5309.37 75.00
7376 46.3500 5718.00 5356.22 76.00
7377 46.3560 5599.00 5395.10 75.00
7378 46.3620 5593.00 5423.50 75.00
7379 46.3680 5443.00 5441.56 74.00
7380 46.3740 5477.00 5451.53 74.00
7381 46.3800 5528.00 5450.72 74.00
7382 46.3860 5518.00 5438.67 74.00
7383 46.3920 5469.00 5416.09 74.00
7384 46.3980 5457.00 5381.89 74.00
7385 46.4040 5373.00 5338.58 73.00
7386 46.4100 5290.00 5288.31 73.00
7387 46.4160 5311.00 5232.55 73.00
7388 46.4220 5246.00 5173.50 72.00
7389 46.4280 5200.00 5112.04 72.00
7390 46.4340 5057.00 5050.71 71.00
7391 46.4400 5073.00 4989.34 71.00
7392 46.4460 5044.00 4928.23 71.00
7393 46.4520 5123.00 4866.28 72.00
7394 46.4580 4868.00 4805.41 70.00
7395 46.4640 4938.00 4744.72 70.00
7396 46.4700 4900.00 4686.38 70.00
7397 46.4760 4812.00 4626.32 69.00
7398 46.4820 4621.00 4570.54 68.00
7399 46.4880 4627.00 4516.69 68.00
7400 46.4940 4569.00 4464.66 68.00
7401 46.5000 4524.00 4418.61 67.00
7402 46.5060 4582.00 4374.50 68.00
7403 46.5120 4547.00 4335.97 67.00
7404 46.5180 4513.00 4302.26 67.00
7405 46.5240 4422.00 4273.29 66.00
7406 46.5300 4447.00 4248.65 67.00
7407 46.5360 4420.00 4229.23 66.00
7408 46.5420 4289.00 4214.50 65.00
7409 46.5480 4384.00 4204.35 66.00
7410 46.5540 4428.00 4198.67 67.00
7411 46.5600 4360.00 4196.80 66.00
7412 46.5660 4443.00 4199.79 67.00
7413 46.5720 4461.00 4206.99 67.00
7414 46.5780 4485.00 4218.40 67.00
7415 46.5840 4457.00 4233.01 67.00
7416 46.5900 4409.00 4252.85 66.00
7417 46.5960 4309.00 4276.92 66.00
7418 46.6020 4385.00 4304.95 66.00
7419 46.6080 4359.00 4337.52 66.00
7420 46.6140 4311.00 4373.21 66.00
7421 46.6200 4428.00 4413.96 67.00
7422 46.6260 4561.00 4458.50 68.00
7423 46.6320 4547.00 4506.50 67.00
7424 46.6380 4410.00 4556.15 66.00
7425 46.6440 4517.00 4609.67 67.00
7426 46.6500 4707.00 4664.31 69.00
7427 46.6560 4726.00 4719.35 69.00
7428 46.6620 4559.00 4773.97 68.00
7429 46.6680 4688.00 4825.65 68.00
7430 46.6740 4708.00 4876.01 69.00
7431 46.6800 4853.00 4921.66 70.00
7432 46.6860 4869.00 4961.80 70.00
7433 46.6920 4960.00 4993.87 70.00
7434 46.6980 4802.00 5019.25 69.00
7435 46.7040 4744.00 5033.24 69.00
7436 46.7100 4590.00 5035.57 68.00
7437 46.7160 4836.00 5025.50 70.00
7438 46.7220 4615.00 5002.01 68.00
7439 46.7280 4668.00 4967.88 68.00
7440 46.7340 4551.00 4923.62 67.00
7441 46.7400 4412.00 4871.26 66.00
7442 46.7460 4457.00 4812.21 67.00
7443 46.7520 4432.00 4750.82 67.00
7444 46.7580 4353.00 4688.44 66.00
7445 46.7640 4357.00 4627.10 66.00
7446 46.7700 4383.00 4568.39 66.00
7447 46.7760 4261.00 4512.62 65.00
7448 46.7820 4286.00 4462.75 65.00
7449 46.7880 4374.00 4418.46 66.00
7450 46.7940 4225.00 4380.06 65.00
7451 46.8000 4166.00 4348.06 65.00
7452 46.8060 4185.00 4320.88 65.00
7453 46.8120 4271.00 4300.66 65.00
7454 46.8180 4164.00 4286.08 65.00
7455 46.8240 4095.00 4276.51 64.00
7456 46.8300 4052.00 4271.12 64.00
7457 46.8360 3940.00 4271.11 63.00
7458 46.8420 4307.00 4274.33 66.00
7459 46.8480 4206.00 4281.47 65.00
7460 46.8540 4133.00 4290.99 64.00
7461 46.8600 4175.00 4302.44 65.00
7462 46.8660 4211.00 4316.61 65.00
7463 46.8720 4256.00 4331.26 65.00
7464 46.8780 4190.00 4346.98 65.00
7465 46.8840 4348.00 4361.97 66.00
7466 46.8900 4458.00 4376.67 67.00
7467 46.8960 4354.00 4389.86 66.00
7468 46.9020 4316.00 4401.37 66.00
7469 46.9080 4417.00 4409.68 66.00
7470 46.9140 4384.00 4413.47 66.00
7471 46.9200 4516.00 4415.00 67.00
7472 46.9260 4451.00 4412.91 67.00
7473 46.9320 4449.00 4407.39 67.00
7474 46.9380 4465.00 4397.21 67.00
7475 46.9440 4328.00 4386.51 66.00
7476 46.9500 4346.00 4374.49 66.00
7477 46.9560 4405.00 4362.15 66.00
7478 46.9620 4315.00 4350.41 66.00
7479 46.9680 4289.00 4339.16 65.00
7480 46.9740 4226.00 4331.09 65.00
7481 46.9800 4245.00 4325.77 65.00
7482 46.9860 4098.00 4322.90 64.00
7483 46.9920 4139.00 4323.06 64.00
7484 46.9980 4236.00 4327.65 65.00
7485 47.0040 4215.00 4335.57 65.00
7486 47.0100 4326.00 4346.64 66.00
7487 47.0160 4332.00 4360.61 66.00
7488 47.0220 4443.00 4376.17 67.00
7489 47.0280 4342.00 4395.04 66.00
7490 47.0340 4300.00 4415.98 66.00
7491 47.0400 4357.00 4438.43 66.00
7492 47.0460 4359.00 4462.15 66.00
7493 47.0520 4470.00 4488.67 67.00
7494 47.0580 4404.00 4516.95 66.00
7495 47.0640 4426.00 4546.88 67.00
7496 47.0700 4441.00 4578.24 67.00
7497 47.0760 4589.00 4609.73 68.00
7498 47.0820 4676.00 4642.78 68.00
7499 47.0880 4714.00 4676.36 69.00
7500 47.0940 4740.00 4710.26 69.00
7501 47.1000 4685.00 4743.30 68.00
7502 47.1060 4664.00 4777.73 68.00
7503 47.1120 4700.00 4812.39 69.00
7504 47.1180 4717.00 4849.17 69.00
7505 47.1240 4665.00 4888.39 68.00
7506 47.1300 4716.00 4930.17 69.00
7507 47.1360 4733.00 4977.77 69.00
7508 47.1420 4804.00 5031.29 69.00
7509 47.1480 4851.00 5092.02 70.00
7510 47.1540 5015.00 5159.60 71.00
7511 47.1600 4911.00 5236.44 70.00
7512 47.1660 5069.00 5321.43 71.00
7513 47.1720 5121.00 5413.86 72.00
7514 47.1780 5199.00 5512.36 72.00
7515 47.1840 5405.00 5613.86 74.00
7516 47.1900 5477.00 5717.79 74.00
7517 47.1960 5513.00 5819.87 74.00
7518 47.2020 5562.00 5916.58 75.00
7519 47.2080 5536.00 6003.45 74.00
7520 47.2140 5592.00 6079.58 75.00
7521 47.2200 5542.00 6141.98 74.00
7522 47.2260 5511.00 6189.96 74.00
7523 47.2320 5596.00 6224.56 75.00
7524 47.2380 5644.00 6245.46 75.00
7525 47.2440 5579.00 6257.44 75.00
7526 47.2500 5595.00 6262.09 75.00
7527 47.2560 5616.00 6262.10 75.00
7528 47.2620 5718.00 6260.16 76.00
7529 47.2680 5753.00 6259.58 76.00
7530 47.2740 5721.00 6261.46 76.00
7531 47.2800 5734.00 6268.77 76.00
7532 47.2860 5832.00 6283.83 76.00
7533 47.2920 5819.00 6306.52 76.00
7534 47.2980 5901.00 6340.19 77.00
7535 47.3040 6051.00 6384.29 78.00
7536 47.3100 6218.00 6438.45 79.00
7537 47.3160 6340.00 6501.72 80.00
7538 47.3220 6428.00 6570.91 80.00
7539 47.3280 6523.00 6644.08 81.00
7540 47.3340 6614.00 6718.47 81.00
7541 47.3400 6755.00 6788.67 82.00
7542 47.3460 6739.00 6849.15 82.00
7543 47.3520 6822.00 6898.27 83.00
7544 47.3580 6855.00 6931.94 83.00
7545 47.3640 6893.00 6948.69 83.00
7546 47.3700 6752.00 6948.72 82.00
7547 47.3760 6730.00 6933.67 82.00
7548 47.3820 6821.00 6907.99 83.00
7549 47.3880 6833.00 6872.38 83.00
7550 47.3940 6875.00 6834.35 83.00
7551 47.4000 6840.00 6797.46 83.00
7552 47.4060 6854.00 6766.89 83.00
7553 47.4120 6936.00 6744.93 83.00
7554 47.4180 6966.00 6733.80 83.00
7555 47.4240 7057.00 6734.66 84.00
7556 47.4300 7144.00 6747.42 85.00
7557 47.4360 7199.00 6772.18 85.00
7558 47.4420 7308.00 6807.51 85.00
7559 47.4480 7276.00 6851.84 85.00
7560 47.4540 7298.00 6901.69 85.00
7561 47.4600 7325.00 6957.60 86.00
7562 47.4660 7332.00 7014.80 86.00
7563 47.4720 7341.00 7069.25 86.00
7564 47.4780 7243.00 7116.22 85.00
7565 47.4840 7280.00 7150.39 85.00
7566 47.4900 7139.00 7167.32 84.00
7567 47.4960 7038.00 7162.73 84.00
7568 47.5020 7031.00 7133.94 84.00
7569 47.5080 7029.00 7079.00 84.00
7570 47.5140 6954.00 7000.75 83.00
7571 47.5200 6773.00 6900.53 82.00
7572 47.5260 6586.00 6781.86 81.00
7573 47.5320 6555.00 6648.85 81.00
7574 47.5380 6563.00 6504.86 81.00
7575 47.5440 6422.00 6355.77 80.00
7576 47.5500 6146.00 6204.25 78.00
7577 47.5560 5965.00 6053.39 77.00
7578 47.5620 5885.00 5904.77 77.00
7579 47.5680 5751.00 5762.46 76.00
7580 47.5740 5660.00 5627.38 75.00
7581 47.5800 5602.00 5500.99 75.00
7582 47.5860 5508.00 5384.56 74.00
7583 47.5920 5504.00 5277.96 74.00
7584 47.5980 5390.00 5184.10 73.00
7585 47.6040 5295.00 5102.56 73.00
7586 47.6100 5289.00 5033.65 73.00
7587 47.6160 5200.00 4976.35 72.00
7588 47.6220 5153.00 4933.97 72.00
7589 47.6280 5177.00 4902.11 72.00
7590 47.6340 5144.00 4881.33 72.00
7591 47.6400 5020.00 4870.51 71.00
7592 47.6460 5004.00 4869.03 71.00
7593 47.6520 5148.00 4874.26 72.00
7594 47.6580 5197.00 4885.05 72.00
7595 47.6640 5191.00 4899.63 72.00
7596 47.6700 5173.00 4915.62 72.00
7597 47.6760 5400.00 4931.94 73.00
7598 47.6820 5565.00 4946.88 75.00
7599 47.6880 5479.00 4958.42 74.00
7600 47.6940 5584.00 4965.07 75.00
7601 47.7000 5496.00 4964.53 74.00
7602 47.7060 5153.00 4957.86 72.00
7603 47.7120 4919.00 4942.85 70.00
7604 47.7180 4999.00 4919.91 71.00
7605 47.7240 5114.00 4889.98 72.00
7606 47.7300 5072.00 4852.25 71.00
7607 47.7360 5039.00 4809.14 71.00
7608 47.7420 4960.00 4763.07 70.00
7609 47.7480 4817.00 4714.64 69.00
7610 47.7540 4722.00 4664.72 69.00
7611 47.7600 4646.00 4616.85 68.00
7612 47.7660 4559.00 4571.24 68.00
7613 47.7720 4570.00 4528.91 68.00
7614 47.7780 4587.00 4490.53 68.00
7615 47.7840 4538.00 4455.54 67.00
7616 47.7900 4565.00 4426.13 68.00
7617 47.7960 4567.00 4401.32 68.00
7618 47.8020 4521.00 4380.98 67.00
7619 47.8080 4538.00 4363.82 67.00
7620 47.8140 4477.00 4351.54 67.00
7621 47.8200 4384.00 4342.80 66.00
7622 47.8260 4447.00 4337.27 67.00
7623 47.8320 4447.00 4334.75 67.00
7624 47.8380 4461.00 4334.06 67.00
7625 47.8440 4385.00 4337.02 66.00
7626 47.8500 4388.00 4342.74 66.00
7627 47.8560 4460.00 4350.98 67.00
7628 47.8620 4422.00 4360.49 66.00
7629 47.8680 4437.00 4372.91 67.00
7630 47.8740 4401.00 4386.88 66.00
7631 47.8800 4388.00 4401.38 66.00
7632 47.8860 4408.00 4415.64 66.00
7633 47.8920 4336.00 4428.47 66.00
7634 47.8980 4308.00 4440.00 66.00
7635 47.9040 4335.00 4448.98 66.00
7636 47.9100 4293.00 4453.56 66.00
7637 47.9160 4389.00 4452.44 66.00
7638 47.9220 4376.00 4447.21 66.00
7639 47.9280 4226.00 4435.94 65.00
7640 47.9340 4308.00 4419.32 66.00
7641 47.9400 4313.00 4397.57 66.00
7642 47.9460 4327.00 4370.00 66.00
7643 47.9520 4293.00 4340.40 66.00
7644 47.9580 4225.00 4308.38 65.00
7645 47.9640 4145.00 4274.93 64.00
7646 47.9700 4113.00 4240.00 64.00
7647 47.9760 4173.00 4206.56 65.00
7648 47.9820 4183.00 4173.88 65.00
7649 47.9880 4067.00 4142.61 64.00
7650 47.9940 4079.00 4113.12 64.00
7651 48.0000 4091.00 4084.65 64.00
7652 48.0060 4051.00 4059.58 64.00
7653 48.0120 3982.00 4036.62 63.00
7654 48.0180 3958.00 4015.98 63.00
7655 48.0240 3962.00 3997.05 63.00
7656 48.0300 3973.00 3980.92 63.00
7657 48.0360 3970.00 3966.95 63.00
7658 48.0420 3919.00 3955.38 63.00
7659 48.0480 3848.00 3945.22 62.00
7660 48.0540 3906.00 3935.87 62.00
7661 48.0600 3937.00 3928.99 63.00
7662 48.0660 3929.00 3923.53 63.00
7663 48.0720 3952.00 3919.37 63.00
7664 48.0780 3876.00 3916.40 62.00
7665 48.0840 3793.00 3913.53 62.00
7666 48.0900 3787.00 3912.70 62.00
7667 48.0960 3897.00 3912.84 62.00
7668 48.1020 3938.00 3913.95 63.00
7669 48.1080 3862.00 3914.54 62.00
7670 48.1140 3880.00 3917.61 62.00
7671 48.1200 3902.00 3921.73 62.00
7672 48.1260 3932.00 3927.00 63.00
7673 48.1320 3813.00 3932.51 62.00
7674 48.1380 3746.00 3939.88 61.00
7675 48.1440 3818.00 3948.38 62.00
7676 48.1500 3778.00 3959.66 61.00
7677 48.1560 3892.00 3971.95 62.00
7678 48.1620 3909.00 3986.55 63.00
7679 48.1680 3862.00 4004.89 62.00
7680 48.1740 3824.00 4024.98 62.00
7681 48.1800 3895.00 4049.30 62.00
7682 48.1860 4018.00 4076.18 63.00
7683 48.1920 4062.00 4106.94 64.00
7684 48.1980 4151.00 4142.88 64.00
7685 48.2040 4149.00 4182.22 64.00
7686 48.2100 4120.00 4227.20 64.00
7687 48.2160 4124.00 4275.92 64.00
7688 48.2220 4294.00 4329.08 66.00
7689 48.2280 4373.00 4388.08 66.00
7690 48.2340 4354.00 4450.32 66.00
7691 48.2400 4450.00 4514.80 67.00
7692 48.2460 4658.00 4584.08 68.00
7693 48.2520 4658.00 4655.75 68.00
7694 48.2580 4794.00 4728.77 69.00
7695 48.2640 4880.00 4800.52 70.00
7696 48.2700 4889.00 4870.98 70.00
7697 48.2760 5031.00 4938.14 71.00
7698 48.2820 5092.00 5001.36 71.00
7699 48.2880 5183.00 5058.10 72.00
7700 48.2940 5197.00 5107.63 72.00
7701 48.3000 5219.00 5149.71 72.00
7702 48.3060 5181.00 5181.73 72.00
7703 48.3120 5237.00 5205.39 72.00
7704 48.3180 5217.00 5220.21 72.00
7705 48.3240 5226.00 5228.55 72.00
7706 48.3300 5058.00 5233.22 71.00
7707 48.3360 5058.00 5234.65 71.00
7708 48.3420 5294.00 5237.07 73.00
7709 48.3480 5172.00 5240.40 72.00
7710 48.3540 5183.00 5247.06 72.00
7711 48.3600 5243.00 5258.92 72.00
7712 48.3660 5237.00 5273.41 72.00
7713 48.3720 5416.00 5293.06 74.00
7714 48.3780 5354.00 5313.89 73.00
7715 48.3840 5394.00 5337.91 73.00
7716 48.3900 5535.00 5362.85 74.00
7717 48.3960 5517.00 5383.36 74.00
7718 48.4020 5421.00 5402.32 74.00
7719 48.4080 5384.00 5414.68 73.00
7720 48.4140 5427.00 5419.72 74.00
7721 48.4200 5279.00 5417.82 73.00
7722 48.4260 5189.00 5406.88 72.00
7723 48.4320 5214.00 5390.30 72.00
7724 48.4380 5212.00 5365.62 72.00
7725 48.4440 5097.00 5337.02 71.00
7726 48.4500 4982.00 5304.18 71.00
7727 48.4560 5091.00 5268.67 71.00
7728 48.4620 4995.00 5231.54 71.00
7729 48.4680 5095.00 5193.85 71.00
7730 48.4740 5041.00 5156.82 71.00
7731 48.4800 4950.00 5118.80 70.00
7732 48.4860 4929.00 5081.06 70.00
7733 48.4920 4895.00 5045.65 70.00
7734 48.4980 4829.00 5008.60 69.00
7735 48.5040 4776.00 4972.66 69.00
7736 48.5100 4723.00 4933.68 69.00
7737 48.5160 4686.00 4895.90 68.00
7738 48.5220 4733.00 4856.89 69.00
7739 48.5280 4638.00 4816.74 68.00
7740 48.5340 4700.00 4777.96 69.00
7741 48.5400 4590.00 4737.65 68.00
7742 48.5460 4572.00 4700.17 68.00
7743 48.5520 4483.00 4666.86 67.00
7744 48.5580 4559.00 4636.12 68.00
7745 48.5640 4409.00 4611.84 66.00
7746 48.5700 4474.00 4593.37 67.00
7747 48.5760 4464.00 4582.42 67.00
7748 48.5820 4416.00 4581.16 66.00
7749 48.5880 4567.00 4587.94 68.00
7750 48.5940 4609.00 4605.13 68.00
7751 48.6000 4571.00 4630.83 68.00
7752 48.6060 4713.00 4666.92 69.00
7753 48.6120 4679.00 4711.15 68.00
7754 48.6180 4661.00 4763.81 68.00
7755 48.6240 4819.00 4825.08 69.00
7756 48.6300 4946.00 4891.27 70.00
7757 48.6360 4919.00 4962.78 70.00
7758 48.6420 4850.00 5035.37 70.00
7759 48.6480 4970.00 5108.77 70.00
7760 48.6540 5032.00 5178.74 71.00
7761 48.6600 5167.00 5241.55 72.00
7762 48.6660 5078.00 5296.41 71.00
7763 48.6720 4954.00 5338.88 70.00
7764 48.6780 4976.00 5367.99 71.00
7765 48.6840 5032.00 5384.40 71.00
7766 48.6900 4999.00 5383.36 71.00
7767 48.6960 5073.00 5367.48 71.00
7768 48.7020 4931.00 5335.92 70.00
7769 48.7080 4926.00 5290.54 70.00
7770 48.7140 5020.00 5233.80 71.00
7771 48.7200 4881.00 5166.15 70.00
7772 48.7260 4870.00 5091.07 70.00
7773 48.7320 4809.00 5010.07 69.00
7774 48.7380 4615.00 4925.80 68.00
7775 48.7440 4565.00 4841.48 68.00
7776 48.7500 4666.00 4756.61 68.00
7777 48.7560 4601.00 4676.46 68.00
7778 48.7620 4602.00 4598.09 68.00
7779 48.7680 4540.00 4524.27 67.00
7780 48.7740 4383.00 4458.54 66.00
7781 48.7800 4378.00 4395.30 66.00
7782 48.7860 4222.00 4338.65 65.00
7783 48.7920 4281.00 4286.61 65.00
7784 48.7980 4317.00 4241.14 66.00
7785 48.8040 4347.00 4200.48 66.00
7786 48.8100 4151.00 4165.82 64.00
7787 48.8160 4202.00 4136.58 65.00
7788 48.8220 4064.00 4112.50 64.00
7789 48.8280 4166.00 4093.83 65.00
7790 48.8340 4043.00 4078.82 64.00
7791 48.8400 4124.00 4068.60 64.00
7792 48.8460 4118.00 4064.02 64.00
7793 48.8520 4128.00 4062.91 64.00
7794 48.8580 4034.00 4066.84 64.00
7795 48.8640 3995.00 4074.17 63.00
7796 48.8700 4108.00 4085.43 64.00
7797 48.8760 4119.00 4101.39 64.00
7798 48.8820 3984.00 4119.74 63.00
7799 48.8880 4223.00 4142.17 65.00
7800 48.8940 4138.00 4166.21 64.00
7801 48.9000 4290.00 4192.36 65.00
7802 48.9060 4268.00 4220.96 65.00
7803 48.9120 4258.00 4249.26 65.00
7804 48.9180 4236.00 4278.26 65.00
7805 48.9240 4403.00 4305.31 66.00
7806 48.9300 4405.00 4330.33 66.00
7807 48.9360 4327.00 4353.43 66.00
7808 48.9420 4516.00 4371.88 67.00
7809 48.9480 4351.00 4386.80 66.00
7810 48.9540 4369.00 4396.90 66.00
7811 48.9600 4313.00 4403.93 66.00
7812 48.9660 4497.00 4406.01 67.00
7813 48.9720 4435.00 4405.73 67.00
7814 48.9780 4415.00 4404.50 66.00
7815 48.9840 4369.00 4401.65 66.00
7816 48.9900 4633.00 4400.03 68.00
7817 48.9960 4450.00 4398.52 67.00
7818 49.0020 4356.00 4398.83 66.00
7819 49.0080 4316.00 4402.43 66.00
7820 49.0140 4459.00 4407.57 67.00
7821 49.0200 4405.00 4416.31 66.00
7822 49.0260 4255.00 4426.46 65.00
7823 49.0320 4383.00 4438.79 66.00
7824 49.0380 4354.00 4453.79 66.00
7825 49.0440 4356.00 4468.88 66.00
7826 49.0500 4352.00 4485.33 66.00
7827 49.0560 4369.00 4500.25 66.00
7828 49.0620 4274.00 4513.68 65.00
7829 49.0680 4333.00 4525.43 66.00
7830 49.0740 4308.00 4532.42 66.00
7831 49.0800 4289.00 4535.55 65.00
7832 49.0860 4023.00 4531.93 63.00
7833 49.0920 4197.00 4521.97 65.00
7834 49.0980 4269.00 4506.46 65.00
7835 49.1040 4157.00 4483.66 64.00
7836 49.1100 4152.00 4456.24 64.00
7837 49.1160 4128.00 4423.25 64.00
7838 49.1220 4057.00 4387.95 64.00
7839 49.1280 4078.00 4349.99 64.00
7840 49.1340 4066.00 4311.12 64.00
7841 49.1400 4058.00 4273.84 64.00
7842 49.1460 3952.00 4237.15 63.00
7843 49.1520 4123.00 4203.95 64.00
7844 49.1580 3986.00 4172.88 63.00
7845 49.1640 4015.00 4145.79 63.00
7846 49.1700 3820.00 4123.35 62.00
7847 49.1760 3968.00 4104.12 63.00
7848 49.1820 3881.00 4090.24 62.00
7849 49.1880 3988.00 4079.74 63.00
7850 49.1940 3996.00 4073.57 63.00
7851 49.2000 4126.00 4072.59 64.00
7852 49.2060 4032.00 4074.62 63.00
7853 49.2120 3981.00 4081.78 63.00
7854 49.2180 3963.00 4091.05 63.00
7855 49.2240 4115.00 4103.53 64.00
7856 49.2300 4129.00 4119.95 64.00
7857 49.2360 4030.00 4138.07 63.00
7858 49.2420 4086.00 4159.64 64.00
7859 49.2480 4213.00 4182.39 65.00
7860 49.2540 4057.00 4206.97 64.00
7861 49.2600 4304.00 4233.94 66.00
7862 49.2660 4326.00 4260.77 66.00
7863 49.2720 4327.00 4288.73 66.00
7864 49.2780 4488.00 4314.99 67.00
7865 49.2840 4323.00 4340.61 66.00
7866 49.2900 4440.00 4362.61 67.00
7867 49.2960 4647.00 4381.06 68.00
7868 49.3020 4595.00 4396.17 68.00
7869 49.3080 4516.00 4405.00 67.00
7870 49.3140 4318.00 4410.40 66.00
7871 49.3200 4516.00 4410.16 67.00
7872 49.3260 4399.00 4405.97 66.00
7873 49.3320 4378.00 4399.82 66.00
7874 49.3380 4323.00 4390.79 66.00
7875 49.3440 4325.00 4382.01 66.00
7876 49.3500 4285.00 4370.78 65.00
7877 49.3560 4282.00 4362.32 65.00
7878 49.3620 4298.00 4356.61 66.00
7879 49.3680 4331.00 4351.81 66.00
7880 49.3740 4208.00 4351.00 65.00
7881 49.3800 4259.00 4352.19 65.00
7882 49.3860 4306.00 4356.75 66.00
7883 49.3920 4311.00 4366.05 66.00
7884 49.3980 4295.00 4378.42 66.00
7885 49.4040 4362.00 4396.21 66.00
7886 49.4100 4355.00 4417.67 66.00
7887 49.4160 4385.00 4443.92 66.00
7888 49.4220 4431.00 4475.96 67.00
7889 49.4280 4327.00 4511.58 66.00
7890 49.4340 4423.00 4551.76 67.00
7891 49.4400 4466.00 4595.11 67.00
7892 49.4460 4542.00 4642.19 67.00
7893 49.4520 4742.00 4689.99 69.00
7894 49.4580 4779.00 4737.48 69.00
7895 49.4640 4680.00 4785.11 68.00
7896 49.4700 4858.00 4830.69 70.00
7897 49.4760 4954.00 4874.05 70.00
7898 49.4820 4855.00 4912.19 70.00
7899 49.4880 4906.00 4945.43 70.00
7900 49.4940 4784.00 4974.78 69.00
7901 49.5000 4955.00 4998.30 70.00
7902 49.5060 4968.00 5018.54 70.00
7903 49.5120 4776.00 5034.31 69.00
7904 49.5180 4875.00 5046.89 70.00
7905 49.5240 4991.00 5059.56 71.00
7906 49.5300 4901.00 5070.42 70.00
7907 49.5360 4797.00 5082.08 69.00
7908 49.5420 4853.00 5092.88 70.00
7909 49.5480 4850.00 5103.84 70.00
7910 49.5540 4926.00 5115.96 70.00
7911 49.5600 4796.00 5126.84 69.00
7912 49.5660 4894.00 5139.19 70.00
7913 49.5720 4945.00 5150.71 70.00
7914 49.5780 4907.00 5161.79 70.00
7915 49.5840 4827.00 5175.01 69.00
7916 49.5900 4918.00 5187.69 70.00
7917 49.5960 4722.00 5200.90 69.00
7918 49.6020 4792.00 5212.56 69.00
7919 49.6080 4822.00 5223.44 69.00
7920 49.6140 4772.00 5231.25 69.00
7921 49.6200 4800.00 5236.70 69.00
7922 49.6260 4919.00 5240.92 70.00
7923 49.6320 4889.00 5242.42 70.00
7924 49.6380 4875.00 5243.97 70.00
7925 49.6440 5009.00 5244.54 71.00
7926 49.6500 4954.00 5246.07 70.00
7927 49.6560 4950.00 5251.72 70.00
7928 49.6620 4926.00 5257.46 70.00
7929 49.6680 5174.00 5266.94 72.00
7930 49.6740 5147.00 5278.41 72.00
7931 49.6800 5212.00 5292.50 72.00
7932 49.6860 5331.00 5309.62 73.00
7933 49.6920 5343.00 5327.37 73.00
7934 49.6980 5295.00 5347.13 73.00
7935 49.7040 5311.00 5366.20 73.00
7936 49.7100 5418.00 5385.02 74.00
7937 49.7160 5640.00 5402.78 75.00
7938 49.7220 5537.00 5420.17 74.00
7939 49.7280 5632.00 5437.92 75.00
7940 49.7340 5675.00 5454.48 75.00
7941 49.7400 5691.00 5471.49 75.00
7942 49.7460 5721.00 5489.19 76.00
7943 49.7520 5638.00 5509.62 75.00
7944 49.7580 5737.00 5534.23 76.00
7945 49.7640 5729.00 5562.13 76.00
7946 49.7700 5937.00 5595.43 77.00
7947 49.7760 5996.00 5635.38 77.00
7948 49.7820 6110.00 5681.97 78.00
7949 49.7880 6232.00 5736.53 79.00
7950 49.7940 6320.00 5796.57 79.00
7951 49.8000 6409.00 5862.75 80.00
7952 49.8060 6382.00 5931.05 80.00
7953 49.8120 6426.00 5999.83 80.00
7954 49.8180 6375.00 6067.02 80.00
7955 49.8240 6522.00 6127.33 81.00
7956 49.8300 6418.00 6179.60 80.00
7957 49.8360 6504.00 6219.01 81.00
7958 49.8420 6506.00 6244.27 81.00
7959 49.8480 6387.00 6255.15 80.00
7960 49.8540 6365.00 6248.72 80.00
7961 49.8600 6216.00 6226.84 79.00
7962 49.8660 5968.00 6187.76 77.00
7963 49.8720 5900.00 6132.97 77.00
7964 49.8780 5830.00 6064.16 76.00
7965 49.8840 5742.00 5980.04 76.00
7966 49.8900 5731.00 5883.70 76.00
7967 49.8960 5513.00 5774.60 74.00
7968 49.9020 5374.00 5655.64 73.00
7969 49.9080 5304.00 5530.36 73.00
7970 49.9140 5335.00 5399.05 73.00
7971 49.9200 5209.00 5266.69 72.00
7972 49.9260 5091.00 5133.75 71.00
7973 49.9320 4947.00 5003.63 70.00
7974 49.9380 4886.00 4879.28 70.00
7975 49.9440 4780.00 4760.64 69.00
7976 49.9500 4628.00 4649.90 68.00
7977 49.9560 4648.00 4546.22 68.00
7978 49.9620 4494.00 4451.90 67.00
7979 49.9680 4568.00 4365.23 68.00
7980 49.9740 4400.00 4286.74 66.00
7981 49.9800 4437.00 4217.34 67.00
7982 49.9860 4439.00 4154.42 67.00
7983 49.9920 4282.00 4099.89 65.00
7984 49.9980 4199.00 4051.29 65.00
7985 50.0040 4160.00 4008.04 64.00
7986 50.0100 4087.00 3971.69 64.00
7987 50.0160 4027.00 3938.74 63.00
7988 50.0220 4057.00 3911.44 64.00
7989 50.0280 4100.00 3886.83 64.00
7990 50.0340 4090.00 3865.21 64.00
7991 50.0400 4011.00 3847.47 63.00
7992 50.0460 3964.00 3831.02 63.00
7993 50.0520 3985.00 3817.55 63.00
7994 50.0580 3986.00 3805.06 63.00
7995 50.0640 3831.00 3793.78 62.00
7996 50.0700 3831.00 3784.85 62.00
7997 50.0760 3865.00 3776.29 62.00
7998 50.0820 3787.00 3769.93 62.00
7999 50.0880 3864.00 3763.76 62.00
8000 50.0940 3806.00 3758.68 62.00
8001 50.1000 3775.00 3756.19 61.00
8002 50.1060 3735.00 3753.77 61.00
8003 50.1120 3639.00 3753.64 60.00
8004 50.1180 3744.00 3753.83 61.00
8005 50.1240 3765.00 3756.19 61.00
8006 50.1300 3795.00 3759.09 62.00
8007 50.1360 3746.00 3763.39 61.00
8008 50.1420 3699.00 3769.96 61.00
8009 50.1480 3632.00 3777.06 60.00
8010 50.1540 3769.00 3786.35 61.00
8011 50.1600 3823.00 3795.74 62.00
8012 50.1660 3779.00 3806.86 61.00
8013 50.1720 3684.00 3820.19 61.00
8014 50.1780 3669.00 3833.47 61.00
8015 50.1840 3705.00 3848.49 61.00
8016 50.1900 3796.00 3862.97 62.00
8017 50.1960 3826.00 3877.53 62.00
8018 50.2020 3744.00 3892.79 61.00
8019 50.2080 3844.00 3906.34 62.00
8020 50.2140 3894.00 3919.81 62.00
8021 50.2200 3784.00 3930.88 62.00
8022 50.2260 3729.00 3940.23 61.00
8023 50.2320 3862.00 3948.65 62.00
8024 50.2380 3859.00 3954.13 62.00
8025 50.2440 3842.00 3958.13 62.00
8026 50.2500 3827.00 3958.75 62.00
8027 50.2560 3798.00 3957.21 62.00
8028 50.2620 3785.00 3954.10 62.00
8029 50.2680 3772.00 3948.02 61.00
8030 50.2740 3739.00 3940.41 61.00
8031 50.2800 3855.00 3929.64 62.00
8032 50.2860 3804.00 3917.77 62.00
8033 50.2920 3682.00 3903.01 61.00
8034 50.2980 3645.00 3886.23 60.00
8035 50.3040 3619.00 3869.14 60.00
8036 50.3100 3678.00 3849.77 61.00
8037 50.3160 3777.00 3830.12 61.00
8038 50.3220 3755.00 3809.00 61.00
8039 50.3280 3694.00 3787.83 61.00
8040 50.3340 3682.00 3768.00 61.00
8041 50.3400 3631.00 3747.82 60.00
8042 50.3460 3600.00 3729.62 60.00
8043 50.3520 3586.00 3711.29 60.00
8044 50.3580 3630.00 3694.32 60.00
8045 50.3640 3615.00 3680.46 60.00
8046 50.3700 3556.00 3665.70 60.00
8047 50.3760 3564.00 3653.59 60.00
8048 50.3820 3533.00 3641.09 59.00
8049 50.3880 3565.00 3630.42 60.00
8050 50.3940 3574.00 3621.87 60.00
8051 50.4000 3533.00 3613.36 59.00
8052 50.4060 3527.00 3606.83 59.00
8053 50.4120 3480.00 3600.18 59.00
8054 50.4180 3523.00 3594.35 59.00
8055 50.4240 3543.00 3590.25 60.00
8056 50.4300 3618.00 3585.82 60.00
8057 50.4360 3588.00 3582.99 60.00
8058 50.4420 3491.00 3579.51 59.00
8059 50.4480 3523.00 3577.73 59.00
8060 50.4540 3533.00 3575.40 59.00
8061 50.4600 3503.00 3573.37 59.00
8062 50.4660 3501.00 3572.91 59.00
8063 50.4720 3525.00 3571.78 59.00
8064 50.4780 3519.00 3572.02 59.00
8065 50.4840 3550.00 3572.89 60.00
8066 50.4900 3564.00 3573.88 60.00
8067 50.4960 3572.00 3574.26 60.00
8068 50.5020 3546.00 3576.05 60.00
8069 50.5080 3535.00 3578.51 59.00
8070 50.5140 3503.00 3581.21 59.00
8071 50.5200 3578.00 3584.61 60.00
8072 50.5260 3584.00 3588.40 60.00
8073 50.5320 3511.00 3592.80 59.00
8074 50.5380 3486.00 3598.07 59.00
8075 50.5440 3501.00 3603.18 59.00
8076 50.5500 3577.00 3609.93 60.00
8077 50.5560 3526.00 3616.56 59.00
8078 50.5620 3543.00 3625.21 60.00
8079 50.5680 3593.00 3634.21 60.00
8080 50.5740 3607.00 3645.22 60.00
8081 50.5800 3562.00 3657.55 60.00
8082 50.5860 3538.00 3671.01 59.00
8083 50.5920 3540.00 3686.34 59.00
8084 50.5980 3621.00 3703.34 60.00
8085 50.6040 3638.00 3722.11 60.00
8086 50.6100 3666.00 3742.76 61.00
8087 50.6160 3616.00 3765.40 60.00
8088 50.6220 3703.00 3789.15 61.00
8089 50.6280 3743.00 3815.45 61.00
8090 50.6340 3777.00 3844.34 61.00
8091 50.6400 3785.00 3875.83 62.00
8092 50.6460 3783.00 3909.57 62.00
8093 50.6520 3792.00 3945.44 62.00
8094 50.6580 3808.00 3983.24 62.00
8095 50.6640 3872.00 4022.62 62.00
8096 50.6700 3860.00 4063.14 62.00
8097 50.6760 3901.00 4104.34 62.00
8098 50.6820 3854.00 4144.22 62.00
8099 50.6880 3865.00 4184.67 62.00
8100 50.6940 4024.00 4223.86 63.00
8101 50.7000 4105.00 4262.15 64.00
8102 50.7060 4121.00 4298.40 64.00
8103 50.7120 4150.00 4332.07 64.00
8104 50.7180 4199.00 4362.20 65.00
8105 50.7240 4355.00 4388.49 66.00
8106 50.7300 4500.00 4409.63 67.00
8107 50.7360 4471.00 4424.56 67.00
8108 50.7420 4374.00 4432.19 66.00
8109 50.7480 4328.00 4430.63 66.00
8110 50.7540 4212.00 4421.02 65.00
8111 50.7600 4199.00 4404.05 65.00
8112 50.7660 4178.00 4377.71 65.00
8113 50.7720 4066.00 4345.41 64.00
8114 50.7780 4039.00 4305.93 64.00
8115 50.7840 3977.00 4261.84 63.00
8116 50.7900 3953.00 4213.45 63.00
8117 50.7960 3981.00 4164.74 63.00
8118 50.8020 3875.00 4115.40 62.00
8119 50.8080 3796.00 4065.64 62.00
8120 50.8140 3684.00 4018.37 61.00
8121 50.8200 3665.00 3973.28 61.00
8122 50.8260 3727.00 3930.85 61.00
8123 50.8320 3681.00 3890.46 61.00
8124 50.8380 3686.00 3854.32 61.00
8125 50.8440 3652.00 3821.54 60.00
8126 50.8500 3605.00 3792.17 60.00
8127 50.8560 3629.00 3766.14 60.00
8128 50.8620 3615.00 3743.37 60.00
8129 50.8680 3578.00 3723.74 60.00
8130 50.8740 3602.00 3706.11 60.00
8131 50.8800 3601.00 3692.33 60.00
8132 50.8860 3558.00 3681.22 60.00
8133 50.8920 3553.00 3672.63 60.00
8134 50.8980 3577.00 3665.76 60.00
8135 50.9040 3618.00 3661.81 60.00
8136 50.9100 3605.00 3659.11 60.00
8137 50.9160 3573.00 3659.37 60.00
8138 50.9220 3609.00 3661.61 60.00
8139 50.9280 3644.00 3663.88 60.00
8140 50.9340 3681.00 3668.99 61.00
8141 50.9400 3683.00 3676.98 61.00
8142 50.9460 3674.00 3686.84 61.00
8143 50.9520 3668.00 3698.54 61.00
8144 50.9580 3676.00 3711.73 61.00
8145 50.9640 3635.00 3726.12 60.00
8146 50.9700 3706.00 3743.78 61.00
8147 50.9760 3849.00 3761.35 62.00
8148 50.9820 3870.00 3782.30 62.00
8149 50.9880 3849.00 3803.57 62.00
8150 50.9940 3793.00 3825.63 62.00
8151 51.0000 3842.00 3847.28 62.00
8152 51.0060 3894.00 3870.18 62.00
8153 51.0120 3930.00 3892.94 63.00
8154 51.0180 4039.00 3915.77 64.00
8155 51.0240 4070.00 3937.03 64.00
8156 51.0300 4028.00 3956.92 63.00
8157 51.0360 4043.00 3976.25 64.00
8158 51.0420 4067.00 3992.25 64.00
8159 51.0480 4075.00 4006.30 64.00
8160 51.0540 4058.00 4017.28 64.00
8161 51.0600 3977.00 4024.62 63.00
8162 51.0660 3943.00 4030.75 63.00
8163 51.0720 4025.00 4034.25 63.00
8164 51.0780 4010.00 4035.70 63.00
8165 51.0840 3945.00 4035.40 63.00
8166 51.0900 4027.00 4034.14 63.00
8167 51.0960 4025.00 4031.22 63.00
8168 51.1020 3986.00 4027.70 63.00
8169 51.1080 3907.00 4023.28 63.00
8170 51.1140 3900.00 4018.56 62.00
8171 51.1200 3966.00 4013.84 63.00
8172 51.1260 3871.00 4009.01 62.00
8173 51.1320 3906.00 4005.07 62.00
8174 51.1380 3991.00 4001.87 63.00
8175 51.1440 4035.00 3999.73 64.00
8176 51.1500 4003.00 3998.06 63.00
8177 51.1560 4057.00 3997.08 64.00
8178 51.1620 4027.00 3996.71 63.00
8179 51.1680 3936.00 3996.82 63.00
8180 51.1740 3937.00 3997.39 63.00
8181 51.1800 3910.00 3998.62 63.00
8182 51.1860 3892.00 3999.14 62.00
8183 51.1920 3881.00 4001.34 62.00
8184 51.1980 3921.00 4003.95 63.00
8185 51.2040 3894.00 4007.46 62.00
8186 51.2100 3920.00 4011.23 63.00
8187 51.2160 3876.00 4015.95 62.00
8188 51.2220 3889.00 4020.84 62.00
8189 51.2280 3919.00 4026.46 63.00
8190 51.2340 3911.00 4032.20 63.00
8191 51.2400 3847.00 4038.24 62.00
8192 51.2460 3943.00 4044.52 63.00
8193 51.2520 3902.00 4049.99 62.00
8194 51.2580 3961.00 4056.68 63.00
8195 51.2640 4018.00 4063.69 63.00
8196 51.2700 3922.00 4071.12 63.00
8197 51.2760 3906.00 4079.18 62.00
8198 51.2820 3935.00 4088.09 63.00
8199 51.2880 3960.00 4098.14 63.00
8200 51.2940 3996.00 4109.63 63.00
8201 51.3000 4059.00 4122.64 64.00
8202 51.3060 4010.00 4137.99 63.00
8203 51.3120 4012.00 4154.60 63.00
8204 51.3180 3987.00 4174.62 63.00
8205 51.3240 4001.00 4197.01 63.00
8206 51.3300 4021.00 4221.61 63.00
8207 51.3360 3963.00 4247.73 63.00
8208 51.3420 4015.00 4275.66 63.00
8209 51.3480 4072.00 4304.48 64.00
8210 51.3540 4057.00 4333.59 64.00
8211 51.3600 4083.00 4362.39 64.00
8212 51.3660 4100.00 4390.39 64.00
8213 51.3720 4147.00 4416.74 64.00
8214 51.3780 4088.00 4440.04 64.00
8215 51.3840 4187.00 4461.48 65.00
8216 51.3900 4265.00 4480.34 65.00
8217 51.3960 4214.00 4495.84 65.00
8218 51.4020 4228.00 4507.62 65.00
8219 51.4080 4301.00 4515.36 66.00
8220 51.4140 4254.00 4518.90 65.00
8221 51.4200 4365.00 4518.22 66.00
8222 51.4260 4371.00 4513.47 66.00
8223 51.4320 4337.00 4505.06 66.00
8224 51.4380 4377.00 4492.20 66.00
8225 51.4440 4259.00 4477.52 65.00
8226 51.4500 4317.00 4459.99 66.00
8227 51.4560 4358.00 4439.99 66.00
8228 51.4620 4248.00 4417.43 65.00
8229 51.4680 4216.00 4392.40 65.00
8230 51.4740 4269.00 4364.90 65.00
8231 51.4800 4206.00 4335.17 65.00
8232 51.4860 4157.00 4303.59 64.00
8233 51.4920 4059.00 4270.82 64.00
8234 51.4980 4088.00 4237.64 64.00
8235 51.5040 3960.00 4203.97 63.00
8236 51.5100 3985.00 4172.71 63.00
8237 51.5160 4085.00 4143.62 64.00
8238 51.5220 4033.00 4117.42 64.00
8239 51.5280 3953.00 4094.61 63.00
8240 51.5340 3971.00 4075.66 63.00
8241 51.5400 3929.00 4060.53 63.00
8242 51.5460 3918.00 4049.38 63.00
8243 51.5520 3982.00 4042.09 63.00
8244 51.5580 4111.00 4038.44 64.00
8245 51.5640 3984.00 4037.07 63.00
8246 51.5700 3803.00 4039.50 62.00
8247 51.5760 3913.00 4044.27 63.00
8248 51.5820 3870.00 4050.48 62.00
8249 51.5880 3994.00 4057.53 63.00
8250 51.5940 4258.00 4064.67 65.00
8251 51.6000 4204.00 4071.17 65.00
8252 51.6060 4102.00 4076.32 64.00
8253 51.6120 4039.00 4079.61 64.00
8254 51.6180 4051.00 4080.33 64.00
8255 51.6240 3990.00 4077.19 63.00
8256 51.6300 3874.00 4071.96 62.00
8257 51.6360 3942.00 4063.54 63.00
8258 51.6420 3948.00 4052.05 63.00
8259 51.6480 3936.00 4037.72 63.00
8260 51.6540 4008.00 4020.96 63.00
8261 51.6600 3906.00 4002.25 62.00
8262 51.6660 3836.00 3982.17 62.00
8263 51.6720 3795.00 3961.30 62.00
8264 51.6780 3721.00 3940.23 61.00
8265 51.6840 3801.00 3919.55 62.00
8266 51.6900 3823.00 3898.74 62.00
8267 51.6960 3742.00 3880.28 61.00
8268 51.7020 3603.00 3863.56 60.00
8269 51.7080 3770.00 3849.25 61.00
8270 51.7140 3696.00 3836.99 61.00
8271 51.7200 3617.00 3827.36 60.00
8272 51.7260 3615.00 3820.56 60.00
8273 51.7320 3589.00 3816.74 60.00
8274 51.7380 3641.00 3816.69 60.00
8275 51.7440 3600.00 3819.44 60.00
8276 51.7500 3578.00 3824.64 60.00
8277 51.7560 3571.00 3834.49 60.00
8278 51.7620 3618.00 3848.13 60.00
8279 51.7680 3589.00 3866.20 60.00
8280 51.7740 3734.00 3888.49 61.00
8281 51.7800 3794.00 3914.35 62.00
8282 51.7860 3866.00 3944.57 62.00
8283 51.7920 3697.00 3979.13 61.00
8284 51.7980 3799.00 4017.69 62.00
8285 51.8040 3873.00 4060.91 62.00
8286 51.8100 3926.00 4107.87 63.00
8287 51.8160 3880.00 4157.42 62.00
8288 51.8220 4007.00 4211.28 63.00
8289 51.8280 4055.00 4267.39 64.00
8290 51.8340 4058.00 4325.16 64.00
8291 51.8400 4201.00 4383.62 65.00
8292 51.8460 4298.00 4441.59 66.00
8293 51.8520 4448.00 4496.37 67.00
8294 51.8580 4621.00 4549.00 68.00
8295 51.8640 4700.00 4596.30 69.00
8296 51.8700 4680.00 4636.44 68.00
8297 51.8760 4576.00 4667.03 68.00
8298 51.8820 4466.00 4688.29 67.00
8299 51.8880 4581.00 4698.33 68.00
8300 51.8940 4406.00 4696.82 66.00
8301 51.9000 4473.00 4684.05 67.00
8302 51.9060 4315.00 4661.33 66.00
8303 51.9120 4185.00 4629.46 65.00
8304 51.9180 4342.00 4590.52 66.00
8305 51.9240 4113.00 4546.45 64.00
8306 51.9300 4157.00 4499.35 64.00
8307 51.9360 4101.00 4450.70 64.00
8308 51.9420 3959.00 4401.34 63.00
8309 51.9480 3960.00 4355.09 63.00
8310 51.9540 4068.00 4311.69 64.00
8311 51.9600 4013.00 4272.34 63.00
8312 51.9660 4042.00 4238.08 64.00
8313 51.9720 3966.00 4209.68 63.00
8314 51.9780 4017.00 4187.79 63.00
8315 51.9840 4009.00 4172.92 63.00
8316 51.9900 4170.00 4166.00 65.00
8317 51.9960 4150.00 4166.45 64.00
8318 52.0020 4150.00 4174.02 64.00
8319 52.0080 4231.00 4190.90 65.00
8320 52.0140 4278.00 4216.28 65.00
8321 52.0200 4246.00 4250.20 65.00
8322 52.0260 4356.00 4292.68 66.00
8323 52.0320 4393.00 4343.64 66.00
8324 52.0380 4659.00 4402.85 68.00
8325 52.0440 4621.00 4470.07 68.00
8326 52.0500 4602.00 4544.80 68.00
8327 52.0560 4789.00 4626.37 69.00
8328 52.0620 4956.00 4713.89 70.00
8329 52.0680 5074.00 4805.18 71.00
8330 52.0740 5085.00 4900.80 71.00
8331 52.0800 5154.00 4997.96 72.00
8332 52.0860 5355.00 5094.62 73.00
8333 52.0920 5399.00 5188.79 73.00
8334 52.0980 5361.00 5278.29 73.00
8335 52.1040 5415.00 5361.24 74.00
8336 52.1100 5475.00 5436.44 74.00
8337 52.1160 5510.00 5502.29 74.00
8338 52.1220 5550.00 5558.39 74.00
8339 52.1280 5613.00 5603.86 75.00
8340 52.1340 5680.00 5640.66 75.00
8341 52.1400 5576.00 5667.90 75.00
8342 52.1460 5607.00 5685.71 75.00
8343 52.1520 5677.00 5694.15 75.00
8344 52.1580 5597.00 5693.63 75.00
8345 52.1640 5544.00 5683.88 74.00
8346 52.1700 5538.00 5665.76 74.00
8347 52.1760 5505.00 5639.96 74.00
8348 52.1820 5592.00 5607.41 75.00
8349 52.1880 5423.00 5569.52 74.00
8350 52.1940 5423.00 5526.93 74.00
8351 52.2000 5341.00 5481.87 73.00
8352 52.2060 5394.00 5434.90 73.00
8353 52.2120 5204.00 5386.89 72.00
8354 52.2180 5226.00 5338.56 72.00
8355 52.2240 5295.00 5290.38 73.00
8356 52.2300 5082.00 5242.74 71.00
8357 52.2360 5075.00 5195.87 71.00
8358 52.2420 5165.00 5149.93 72.00
8359 52.2480 5029.00 5105.29 71.00
8360 52.2540 4900.00 5060.39 70.00
8361 52.2600 4865.00 5017.56 70.00
8362 52.2660 4940.00 4975.78 70.00
8363 52.2720 4885.00 4934.89 70.00
8364 52.2780 4854.00 4895.56 70.00
8365 52.2840 4901.00 4857.69 70.00
8366 52.2900 4762.00 4821.34 69.00
8367 52.2960 4741.00 4786.62 69.00
8368 52.3020 4849.00 4753.40 70.00
8369 52.3080 4734.00 4721.32 69.00
8370 52.3140 4811.00 4689.81 69.00
8371 52.3200 4872.00 4657.54 70.00
8372 52.3260 4713.00 4625.77 69.00
8373 52.3320 4634.00 4592.81 68.00
8374 52.3380 4708.00 4558.10 69.00
8375 52.3440 4548.00 4521.21 67.00
8376 52.3500 4586.00 4481.94 68.00
8377 52.3560 4583.00 4440.25 68.00
8378 52.3620 4456.00 4396.08 67.00
8379 52.3680 4377.00 4350.49 66.00
8380 52.3740 4478.00 4303.77 67.00
8381 52.3800 4418.00 4255.61 66.00
8382 52.3860 4299.00 4208.94 66.00
8383 52.3920 4222.00 4163.07 65.00
8384 52.3980 4212.00 4118.47 65.00
8385 52.4040 4014.00 4076.32 63.00
8386 52.4100 4058.00 4036.66 64.00
8387 52.4160 4071.00 3999.83 64.00
8388 52.4220 4019.00 3966.01 63.00
8389 52.4280 3985.00 3935.53 63.00
8390 52.4340 4000.00 3908.14 63.00
8391 52.4400 3810.00 3883.73 62.00
8392 52.4460 3835.00 3861.34 62.00
8393 52.4520 3864.00 3842.89 62.00
8394 52.4580 3813.00 3827.17 62.00
8395 52.4640 3787.00 3813.91 62.00
8396 52.4700 3777.00 3803.26 61.00
8397 52.4760 3787.00 3794.44 62.00
8398 52.4820 3756.00 3787.18 61.00
8399 52.4880 3791.00 3781.64 62.00
8400 52.4940 3727.00 3777.31 61.00
8401 52.5000 3793.00 3774.10 62.00
8402 52.5060 3708.00 3770.72 61.00
8403 52.5120 3723.00 3769.25 61.00
8404 52.5180 3709.00 3768.23 61.00
8405 52.5240 3675.00 3767.50 61.00
8406 52.5300 3694.00 3767.26 61.00
8407 52.5360 3766.00 3767.82 61.00
8408 52.5420 3798.00 3768.90 62.00
8409 52.5480 3806.00 3770.68 62.00
8410 52.5540 3816.00 3771.94 62.00
8411 52.5600 3810.00 3773.08 62.00
8412 52.5660 3776.00 3773.88 61.00
8413 52.5720 3692.00 3773.16 61.00
8414 52.5780 3666.00 3772.69 61.00
8415 52.5840 3706.00 3771.49 61.00
8416 52.5900 3681.00 3769.48 61.00
8417 52.5960 3697.00 3765.91 61.00
8418 52.6020 3673.00 3762.57 61.00
8419 52.6080 3654.00 3758.83 60.00
8420 52.6140 3650.00 3754.91 60.00
8421 52.6200 3638.00 3751.04 60.00
8422 52.6260 3700.00 3747.43 61.00
8423 52.6320 3734.00 3743.24 61.00
8424 52.6380 3689.00 3740.68 61.00
8425 52.6440 3645.00 3738.67 60.00
8426 52.6500 3685.00 3737.29 61.00
8427 52.6560 3622.00 3736.53 60.00
8428 52.6620 3606.00 3736.32 60.00
8429 52.6680 3694.00 3736.71 61.00
8430 52.6740 3635.00 3737.40 60.00
8431 52.6800 3628.00 3738.58 60.00
8432 52.6860 3767.00 3739.88 61.00
8433 52.6920 3722.00 3741.44 61.00
8434 52.6980 3695.00 3742.25 61.00
8435 52.7040 3681.00 3744.29 61.00
8436 52.7100 3668.00 3746.70 61.00
8437 52.7160 3678.00 3749.49 61.00
8438 52.7220 3674.00 3752.50 61.00
8439 52.7280 3732.00 3756.53 61.00
8440 52.7340 3746.00 3761.28 61.00
8441 52.7400 3669.00 3766.92 61.00
8442 52.7460 3600.00 3773.39 60.00
8443 52.7520 3704.00 3781.61 61.00
8444 52.7580 3737.00 3790.32 61.00
8445 52.7640 3778.00 3802.11 61.00
8446 52.7700 3708.00 3816.11 61.00
8447 52.7760 3636.00 3833.10 60.00
8448 52.7820 3699.00 3852.31 61.00
8449 52.7880 3743.00 3874.49 61.00
8450 52.7940 3764.00 3899.80 61.00
8451 52.8000 3911.00 3928.49 63.00
8452 52.8060 3852.00 3960.63 62.00
8453 52.8120 3931.00 3996.09 63.00
8454 52.8180 3973.00 4034.81 63.00
8455 52.8240 4051.00 4075.55 64.00
8456 52.8300 3994.00 4119.97 63.00
8457 52.8360 4105.00 4166.56 64.00
8458 52.8420 4129.00 4214.78 64.00
8459 52.8480 4202.00 4263.92 65.00
8460 52.8540 4280.00 4313.19 65.00
8461 52.8600 4393.00 4361.78 66.00
8462 52.8660 4424.00 4409.06 67.00
8463 52.8720 4376.00 4453.74 66.00
8464 52.8780 4451.00 4495.15 67.00
8465 52.8840 4659.00 4531.58 68.00
8466 52.8900 4724.00 4564.46 69.00
8467 52.8960 4578.00 4591.90 68.00
8468 52.9020 4627.00 4613.04 68.00
8469 52.9080 4583.00 4627.62 68.00
8470 52.9140 4558.00 4635.35 68.00
8471 52.9200 4600.00 4636.15 68.00
8472 52.9260 4589.00 4630.20 68.00
8473 52.9320 4452.00 4618.02 67.00
8474 52.9380 4365.00 4600.35 66.00
8475 52.9440 4316.00 4578.14 66.00
8476 52.9500 4375.00 4551.90 66.00
8477 52.9560 4327.00 4523.85 66.00
8478 52.9620 4344.00 4495.39 66.00
8479 52.9680 4232.00 4465.93 65.00
8480 52.9740 4267.00 4437.08 65.00
8481 52.9800 4232.00 4409.17 65.00
8482 52.9860 4165.00 4383.33 65.00
8483 52.9920 4109.00 4359.85 64.00
8484 52.9980 4209.00 4339.21 65.00
8485 53.0040 4159.00 4321.86 64.00
8486 53.0100 4188.00 4305.85 65.00
8487 53.0160 4149.00 4294.61 64.00
8488 53.0220 4165.00 4284.73 65.00
8489 53.0280 4105.00 4278.40 64.00
8490 53.0340 4083.00 4274.79 64.00
8491 53.0400 4259.00 4272.26 65.00
8492 53.0460 4350.00 4271.03 66.00
8493 53.0520 4332.00 4269.73 66.00
8494 53.0580 4230.00 4268.81 65.00
8495 53.0640 4175.00 4267.59 65.00
8496 53.0700 4241.00 4265.69 65.00
8497 53.0760 4338.00 4261.73 66.00
8498 53.0820 4278.00 4257.39 65.00
8499 53.0880 4251.00 4252.02 65.00
8500 53.0940 4222.00 4244.23 65.00
8501 53.1000 4139.00 4234.49 64.00
8502 53.1060 4157.00 4222.73 64.00
8503 53.1120 4166.00 4208.98 65.00
8504 53.1180 4181.00 4193.58 65.00
8505 53.1240 4139.00 4176.11 64.00
8506 53.1300 4140.00 4157.01 64.00
8507 53.1360 4146.00 4135.49 64.00
8508 53.1420 4038.00 4113.88 64.00
8509 53.1480 4049.00 4091.52 64.00
8510 53.1540 4047.00 4069.55 64.00
8511 53.1600 4004.00 4047.23 63.00
8512 53.1660 4000.00 4025.76 63.00
8513 53.1720 3872.00 4005.74 62.00
8514 53.1780 3942.00 3987.71 63.00
8515 53.1840 4089.00 3972.16 64.00
8516 53.1900 4043.00 3959.47 64.00
8517 53.1960 4006.00 3950.17 63.00
8518 53.2020 3967.00 3943.12 63.00
8519 53.2080 3986.00 3940.65 63.00
8520 53.2140 4172.00 3941.85 65.00
8521 53.2200 4202.00 3946.71 65.00
8522 53.2260 4180.00 3955.70 65.00
8523 53.2320 4116.00 3966.87 64.00
8524 53.2380 4275.00 3981.93 65.00
8525 53.2440 4151.00 3998.88 64.00
8526 53.2500 4247.00 4018.98 65.00
8527 53.2560 4310.00 4041.66 66.00
8528 53.2620 4357.00 4065.08 66.00
8529 53.2680 4435.00 4090.83 67.00
8530 53.2740 4442.00 4117.47 67.00
8531 53.2800 4277.00 4143.99 65.00
8532 53.2860 4343.00 4171.11 66.00
8533 53.2920 4422.00 4197.69 66.00
8534 53.2980 4422.00 4221.94 66.00
8535 53.3040 4377.00 4245.59 66.00
8536 53.3100 4544.00 4266.76 67.00
8537 53.3160 4426.00 4284.35 67.00
8538 53.3220 4434.00 4298.81 67.00
8539 53.3280 4418.00 4308.18 66.00
8540 53.3340 4423.00 4313.90 67.00
8541 53.3400 4313.00 4315.61 66.00
8542 53.3460 4318.00 4312.65 66.00
8543 53.3520 4380.00 4305.49 66.00
8544 53.3580 4266.00 4293.35 65.00
8545 53.3640 4356.00 4277.71 66.00
8546 53.3700 4234.00 4258.13 65.00
8547 53.3760 4218.00 4235.65 65.00
8548 53.3820 4209.00 4210.75 65.00
8549 53.3880 4173.00 4182.26 65.00
8550 53.3940 4238.00 4153.05 65.00
8551 53.4000 4153.00 4122.03 64.00
8552 53.4060 4100.00 4090.95 64.00
8553 53.4120 4032.00 4059.40 63.00
8554 53.4180 4062.00 4028.46 64.00
8555 53.4240 4093.00 3998.37 64.00
8556 53.4300 4071.00 3969.61 64.00
8557 53.4360 3987.00 3942.58 63.00
8558 53.4420 3900.00 3917.76 62.00
8559 53.4480 3899.00 3895.45 62.00
8560 53.4540 4031.00 3874.71 63.00
8561 53.4600 3974.00 3857.97 63.00
8562 53.4660 3881.00 3844.48 62.00
8563 53.4720 4051.00 3834.16 64.00
8564 53.4780 4072.00 3827.01 64.00
8565 53.4840 4068.00 3823.09 64.00
8566 53.4900 4060.00 3821.95 64.00
8567 53.4960 4050.00 3824.24 64.00
8568 53.5020 4125.00 3829.50 64.00
8569 53.5080 4179.00 3837.43 65.00
8570 53.5140 4162.00 3847.13 65.00
8571 53.5200 4061.00 3860.70 64.00
8572 53.5260 4182.00 3876.01 65.00
8573 53.5320 4179.00 3893.24 65.00
8574 53.5380 4260.00 3912.10 65.00
8575 53.5440 4086.00 3932.32 64.00
8576 53.5500 4226.00 3953.66 65.00
8577 53.5560 4268.00 3975.90 65.00
8578 53.5620 4233.00 3998.82 65.00
8579 53.5680 4268.00 4022.27 65.00
8580 53.5740 4262.00 4046.11 65.00
8581 53.5800 4186.00 4069.17 65.00
8582 53.5860 4286.00 4093.32 65.00
8583 53.5920 4320.00 4117.79 66.00
8584 53.5980 4184.00 4141.93 65.00
8585 53.6040 4330.00 4165.93 66.00
8586 53.6100 4402.00 4189.72 66.00
8587 53.6160 4340.00 4213.21 66.00
8588 53.6220 4329.00 4236.28 66.00
8589 53.6280 4417.00 4258.74 66.00
8590 53.6340 4465.00 4280.45 67.00
8591 53.6400 4400.00 4300.15 66.00
8592 53.6460 4374.00 4319.44 66.00
8593 53.6520 4400.00 4337.47 66.00
8594 53.6580 4527.00 4353.57 67.00
8595 53.6640 4485.00 4367.58 67.00
8596 53.6700 4676.00 4379.19 68.00
8597 53.6760 4648.00 4388.04 68.00
8598 53.6820 4643.00 4393.77 68.00
8599 53.6880 4743.00 4396.06 69.00
8600 53.6940 4657.00 4394.24 68.00
8601 53.7000 4566.00 4388.03 68.00
8602 53.7060 4570.00 4376.13 68.00
8603 53.7120 4497.00 4360.44 67.00
8604 53.7180 4546.00 4340.05 67.00
8605 53.7240 4489.00 4315.67 67.00
8606 53.7300 4320.00 4287.53 66.00
8607 53.7360 4134.00 4257.02 64.00
8608 53.7420 3984.00 4224.92 63.00
8609 53.7480 3989.00 4192.37 63.00
8610 53.7540 4114.00 4160.25 64.00
8611 53.7600 4093.00 4129.39 64.00
8612 53.7660 4153.00 4099.41 64.00
8613 53.7720 4086.00 4072.86 64.00
8614 53.7780 4040.00 4049.08 64.00
8615 53.7840 4032.00 4028.30 63.00
8616 53.7900 4029.00 4010.62 63.00
8617 53.7960 4046.00 3996.08 64.00
8618 53.8020 4041.00 3984.59 64.00
8619 53.8080 3990.00 3976.04 63.00
8620 53.8140 3925.00 3970.24 63.00
8621 53.8200 3976.00 3966.99 63.00
8622 53.8260 3985.00 3965.93 63.00
8623 53.8320 3969.00 3966.05 63.00
8624 53.8380 3979.00 3968.98 63.00
8625 53.8440 3950.00 3973.52 63.00
8626 53.8500 3948.00 3979.45 63.00
8627 53.8560 3897.00 3986.64 62.00
8628 53.8620 3868.00 3994.96 62.00
8629 53.8680 3860.00 4004.48 62.00
8630 53.8740 3955.00 4014.82 63.00
8631 53.8800 3942.00 4026.05 63.00
8632 53.8860 3892.00 4038.30 62.00
8633 53.8920 3872.00 4049.90 62.00
8634 53.8980 3862.00 4062.97 62.00
8635 53.9040 3937.00 4076.32 63.00
8636 53.9100 3925.00 4089.71 63.00
8637 53.9160 3928.00 4102.98 63.00
8638 53.9220 4005.00 4115.73 63.00
8639 53.9280 3880.00 4127.72 62.00
8640 53.9340 3845.00 4138.64 62.00
8641 53.9400 3948.00 4148.22 63.00
8642 53.9460 3988.00 4156.29 63.00
8643 53.9520 3972.00 4162.78 63.00
8644 53.9580 3950.00 4166.83 63.00
8645 53.9640 3901.00 4170.79 62.00
8646 53.9700 3921.00 4174.29 63.00
8647 53.9760 3909.00 4177.74 63.00
8648 53.9820 3992.00 4182.41 63.00
8649 53.9880 4063.00 4188.13 64.00
8650 53.9940 3936.00 4196.04 63.00
8651 54.0000 4053.00 4206.72 64.00
8652 54.0060 4073.00 4220.82 64.00
8653 54.0120 4039.00 4238.47 64.00
8654 54.0180 4111.00 4259.04 64.00
8655 54.0240 4121.00 4284.66 64.00
8656 54.0300 4148.00 4314.43 64.00
8657 54.0360 4222.00 4347.68 65.00
8658 54.0420 4324.00 4385.40 66.00
8659 54.0480 4301.00 4426.93 66.00
8660 54.0540 4360.00 4472.35 66.00
8661 54.0600 4343.00 4520.90 66.00
8662 54.0660 4350.00 4572.56 66.00
8663 54.0720 4456.00 4627.56 67.00
8664 54.0780 4517.00 4684.06 67.00
8665 54.0840 4508.00 4745.22 67.00
8666 54.0900 4645.00 4809.17 68.00
8667 54.0960 4757.00 4875.20 69.00
8668 54.1020 4732.00 4942.88 69.00
8669 54.1080 4889.00 5011.12 70.00
8670 54.1140 5073.00 5079.15 71.00
8671 54.1200 4991.00 5145.52 71.00
8672 54.1260 4951.00 5208.55 70.00
8673 54.1320 5097.00 5267.36 71.00
8674 54.1380 5139.00 5320.55 72.00
8675 54.1440 5124.00 5366.16 72.00
8676 54.1500 5169.00 5405.69 72.00
8677 54.1560 5258.00 5437.84 73.00
8678 54.1620 5217.00 5462.76 72.00
8679 54.1680 5201.00 5480.60 72.00
8680 54.1740 5208.00 5491.62 72.00
8681 54.1800 5206.00 5496.05 72.00
8682 54.1860 5251.00 5493.72 72.00
8683 54.1920 5242.00 5485.25 72.00
8684 54.1980 5204.00 5470.41 72.00
8685 54.2040 5234.00 5448.27 72.00
8686 54.2100 5199.00 5420.98 72.00
8687 54.2160 5081.00 5387.59 71.00
8688 54.2220 5037.00 5349.31 71.00
8689 54.2280 5109.00 5306.60 71.00
8690 54.2340 5208.00 5260.40 72.00
8691 54.2400 5176.00 5211.60 72.00
8692 54.2460 5143.00 5161.59 72.00
8693 54.2520 5068.00 5111.06 71.00
8694 54.2580 4994.00 5060.47 71.00
8695 54.2640 4907.00 5010.95 70.00
8696 54.2700 4813.00 4961.71 69.00
8697 54.2760 4818.00 4914.96 69.00
8698 54.2820 4905.00 4869.86 70.00
8699 54.2880 4933.00 4826.54 70.00
8700 54.2940 4842.00 4785.05 70.00
8701 54.3000 4760.00 4744.91 69.00
8702 54.3060 4785.00 4707.06 69.00
8703 54.3120 4746.00 4670.88 69.00
8704 54.3180 4711.00 4636.17 69.00
8705 54.3240 4712.00 4602.73 69.00
8706 54.3300 4659.00 4569.31 68.00
8707 54.3360 4640.00 4537.75 68.00
8708 54.3420 4586.00 4506.87 68.00
8709 54.3480 4570.00 4476.65 68.00
8710 54.3540 4591.00 4447.10 68.00
8711 54.3600 4578.00 4418.25 68.00
8712 54.3660 4479.00 4390.14 67.00
8713 54.3720 4377.00 4362.75 66.00
8714 54.3780 4335.00 4336.17 66.00
8715 54.3840 4359.00 4309.85 66.00
8716 54.3900 4366.00 4283.82 66.00
8717 54.3960 4272.00 4256.87 65.00
8718 54.4020 4215.00 4230.86 65.00
8719 54.4080 4190.00 4204.89 65.00
8720 54.4140 4161.00 4178.70 65.00
8721 54.4200 4063.00 4152.66 64.00
8722 54.4260 4024.00 4126.79 63.00
8723 54.4320 4114.00 4102.03 64.00
8724 54.4380 4144.00 4078.76 64.00
8725 54.4440 4097.00 4056.97 64.00
8726 54.4500 4102.00 4037.30 64.00
8727 54.4560 4057.00 4019.01 64.00
8728 54.4620 3947.00 4004.29 63.00
8729 54.4680 3907.00 3992.32 63.00
8730 54.4740 3964.00 3983.06 63.00
8731 54.4800 4084.00 3975.75 64.00
8732 54.4860 4079.00 3971.60 64.00
8733 54.4920 4022.00 3969.66 63.00
8734 54.4980 3994.00 3969.79 63.00
8735 54.5040 4044.00 3971.21 64.00
8736 54.5100 4059.00 3973.64 64.00
8737 54.5160 4102.00 3976.15 64.00
8738 54.5220 4049.00 3978.22 64.00
8739 54.5280 3946.00 3980.95 63.00
8740 54.5340 4067.00 3982.96 64.00
8741 54.5400 4063.00 3983.67 64.00
8742 54.5460 4044.00 3983.47 64.00
8743 54.5520 4048.00 3981.97 64.00
8744 54.5580 3972.00 3979.34 63.00
8745 54.5640 4013.00 3975.23 63.00
8746 54.5700 4088.00 3969.72 64.00
8747 54.5760 3998.00 3963.63 63.00
8748 54.5820 3939.00 3955.96 63.00
8749 54.5880 4014.00 3949.10 63.00
8750 54.5940 4027.00 3942.47 63.00
8751 54.6000 3929.00 3936.47 63.00
8752 54.6060 3923.00 3931.48 63.00
8753 54.6120 3991.00 3927.81 63.00
8754 54.6180 3976.00 3925.70 63.00
8755 54.6240 3881.00 3925.31 62.00
8756 54.6300 3952.00 3926.86 63.00
8757 54.6360 3983.00 3929.80 63.00
8758 54.6420 3967.00 3934.19 63.00
8759 54.6480 3957.00 3938.78 63.00
8760 54.6540 3990.00 3945.38 63.00
8761 54.6600 3920.00 3952.25 63.00
8762 54.6660 3980.00 3959.10 63.00
8763 54.6720 3950.00 3965.76 63.00
8764 54.6780 3902.00 3971.26 62.00
8765 54.6840 3922.00 3975.45 63.00
8766 54.6900 3906.00 3977.98 62.00
8767 54.6960 3973.00 3978.62 63.00
8768 54.7020 4003.00 3977.04 63.00
8769 54.7080 3837.00 3972.19 62.00
8770 54.7140 3831.00 3966.15 62.00
8771 54.7200 3817.00 3957.84 62.00
8772 54.7260 3861.00 3948.06 62.00
8773 54.7320 3839.00 3936.80 62.00
8774 54.7380 3735.00 3924.52 61.00
8775 54.7440 3684.00 3911.64 61.00
8776 54.7500 3655.00 3898.47 60.00
8777 54.7560 3725.00 3885.36 61.00
8778 54.7620 3678.00 3872.10 61.00
8779 54.7680 3633.00 3859.28 60.00
8780 54.7740 3684.00 3845.77 61.00
8781 54.7800 3756.00 3833.76 61.00
8782 54.7860 3762.00 3821.84 61.00
8783 54.7920 3717.00 3810.42 61.00
8784 54.7980 3714.00 3799.18 61.00
8785 54.8040 3665.00 3788.07 61.00
8786 54.8100 3682.00 3777.94 61.00
8787 54.8160 3648.00 3768.26 60.00
8788 54.8220 3610.00 3759.24 60.00
8789 54.8280 3645.00 3750.86 60.00
8790 54.8340 3694.00 3741.80 61.00
8791 54.8400 3626.00 3734.63 60.00
8792 54.8460 3600.00 3727.98 60.00
8793 54.8520 3625.00 3721.57 60.00
8794 54.8580 3656.00 3715.77 60.00
8795 54.8640 3631.00 3710.20 60.00
8796 54.8700 3666.00 3704.85 61.00
8797 54.8760 3646.00 3699.66 60.00
8798 54.8820 3549.00 3694.07 60.00
8799 54.8880 3587.00 3689.05 60.00
8800 54.8940 3624.00 3684.69 60.00
8801 54.9000 3564.00 3678.80 60.00
8802 54.9060 3584.00 3673.98 60.00
8803 54.9120 3570.00 3669.26 60.00
8804 54.9180 3596.00 3664.68 60.00
8805 54.9240 3577.00 3660.31 60.00
8806 54.9300 3529.00 3656.27 59.00
8807 54.9360 3538.00 3652.66 59.00
8808 54.9420 3530.00 3650.00 59.00
8809 54.9480 3410.00 3647.72 58.00
8810 54.9540 3478.00 3646.35 59.00
8811 54.9600 3490.00 3645.04 59.00
8812 54.9660 3517.00 3645.94 59.00
8813 54.9720 3492.00 3648.18 59.00
8814 54.9780 3510.00 3651.88 59.00
8815 54.9840 3490.00 3657.03 59.00
8816 54.9900 3534.00 3663.87 59.00
8817 54.9960 3585.00 3672.35 60.00
8818 55.0020 3640.00 3682.50 60.00
8819 55.0080 3602.00 3694.30 60.00
8820 55.0140 3644.00 3707.68 60.00
8821 55.0200 3601.00 3721.55 60.00
8822 55.0260 3674.00 3737.89 61.00
8823 55.0320 3694.00 3755.38 61.00
8824 55.0380 3674.00 3774.05 61.00
8825 55.0440 3577.00 3794.13 60.00
8826 55.0500 3673.00 3814.13 61.00
8827 55.0560 3638.00 3834.64 60.00
8828 55.0620 3704.00 3854.65 61.00
8829 55.0680 3757.00 3874.18 61.00
8830 55.0740 3779.00 3892.82 61.00
8831 55.0800 3823.00 3909.57 62.00
8832 55.0860 3784.00 3926.37 62.00
8833 55.0920 3764.00 3942.45 61.00
8834 55.0980 3752.00 3957.45 61.00
8835 55.1040 3824.00 3971.87 62.00
8836 55.1100 3845.00 3986.02 62.00
8837 55.1160 3701.00 4000.24 61.00
8838 55.1220 3757.00 4014.85 61.00
8839 55.1280 3864.00 4029.46 62.00
8840 55.1340 3949.00 4044.67 63.00
8841 55.1400 3873.00 4061.90 62.00
8842 55.1460 3908.00 4080.12 63.00
8843 55.1520 3978.00 4099.21 63.00
8844 55.1580 4132.00 4119.40 64.00
8845 55.1640 4078.00 4139.27 64.00
8846 55.1700 4127.00 4158.89 64.00
8847 55.1760 4174.00 4178.36 65.00
8848 55.1820 4154.00 4196.03 64.00
8849 55.1880 4144.00 4211.07 64.00
8850 55.1940 4209.00 4225.18 65.00
8851 55.2000 4130.00 4237.14 64.00
8852 55.2060 4120.00 4246.85 64.00
8853 55.2120 4188.00 4254.30 65.00
8854 55.2180 4179.00 4259.66 65.00
8855 55.2240 4150.00 4263.07 64.00
8856 55.2300 4115.00 4264.20 64.00
8857 55.2360 4066.00 4263.29 64.00
8858 55.2420 3913.00 4260.30 63.00
8859 55.2480 4029.00 4253.85 63.00
8860 55.2540 4072.00 4245.90 64.00
8861 55.2600 3957.00 4235.45 63.00
8862 55.2660 3962.00 4221.95 63.00
8863 55.2720 4069.00 4205.19 64.00
8864 55.2780 4062.00 4185.04 64.00
8865 55.2840 3959.00 4161.48 63.00
8866 55.2900 3932.00 4134.68 63.00
8867 55.2960 3884.00 4105.30 62.00
8868 55.3020 3871.00 4072.37 62.00
8869 55.3080 3883.00 4037.86 62.00
8870 55.3140 3851.00 4002.52 62.00
8871 55.3200 3702.00 3966.64 61.00
8872 55.3260 3762.00 3930.02 61.00
8873 55.3320 3825.00 3894.18 62.00
8874 55.3380 3704.00 3859.57 61.00
8875 55.3440 3643.00 3826.43 60.00
8876 55.3500 3677.00 3794.80 61.00
8877 55.3560 3601.00 3765.06 60.00
8878 55.3620 3726.00 3736.25 61.00
8879 55.3680 3580.00 3710.65 60.00
8880 55.3740 3601.00 3686.41 60.00
8881 55.3800 3515.00 3664.80 59.00
8882 55.3860 3547.00 3645.11 60.00
8883 55.3920 3577.00 3627.38 60.00
8884 55.3980 3533.00 3610.80 59.00
8885 55.4040 3574.00 3596.47 60.00
8886 55.4100 3522.00 3583.71 59.00
8887 55.4160 3436.00 3571.93 59.00
8888 55.4220 3454.00 3562.65 59.00
8889 55.4280 3473.00 3554.76 59.00
8890 55.4340 3507.00 3548.35 59.00
8891 55.4400 3446.00 3542.98 59.00
8892 55.4460 3461.00 3538.74 59.00
8893 55.4520 3385.00 3535.59 58.00
8894 55.4580 3357.00 3532.87 58.00
8895 55.4640 3526.00 3531.77 59.00
8896 55.4700 3462.00 3531.58 59.00
8897 55.4760 3424.00 3531.31 59.00
8898 55.4820 3421.00 3532.96 58.00
8899 55.4880 3463.00 3535.25 59.00
8900 55.4940 3485.00 3538.72 59.00
8901 55.5000 3477.00 3543.10 59.00
8902 55.5060 3433.00 3548.39 59.00
8903 55.5120 3490.00 3554.60 59.00
8904 55.5180 3513.00 3561.72 59.00
8905 55.5240 3462.00 3569.10 59.00
8906 55.5300 3458.00 3577.01 59.00
8907 55.5360 3528.00 3586.78 59.00
8908 55.5420 3501.00 3597.35 59.00
8909 55.5480 3537.00 3608.63 59.00
8910 55.5540 3655.00 3620.54 60.00
8911 55.5600 3614.00 3632.94 60.00
8912 55.5660 3736.00 3645.67 61.00
8913 55.5720 3689.00 3658.36 61.00
8914 55.5780 3636.00 3671.17 60.00
8915 55.5840 3646.00 3683.70 60.00
8916 55.5900 3753.00 3694.72 61.00
8917 55.5960 3622.00 3706.04 60.00
8918 55.6020 3672.00 3715.94 61.00
8919 55.6080 3757.00 3725.39 61.00
8920 55.6140 3711.00 3733.75 61.00
8921 55.6200 3684.00 3740.99 61.00
8922 55.6260 3682.00 3747.12 61.00
8923 55.6320 3585.00 3752.16 60.00
8924 55.6380 3655.00 3756.16 60.00
8925 55.6440 3587.00 3758.20 60.00
8926 55.6500 3768.00 3760.38 61.00
8927 55.6560 3692.00 3761.81 61.00
8928 55.6620 3639.00 3762.60 60.00
8929 55.6680 3693.00 3762.90 61.00
8930 55.6740 3627.00 3762.85 60.00
8931 55.6800 3498.00 3762.60 59.00
8932 55.6860 3706.00 3762.25 61.00
8933 55.6920 3566.00 3761.91 60.00
8934 55.6980 3707.00 3761.65 61.00
8935 55.7040 3646.00 3760.48 60.00
8936 55.7100 3653.00 3760.52 60.00
8937 55.7160 3628.00 3760.61 60.00
8938 55.7220 3641.00 3761.14 60.00
8939 55.7280 3559.00 3762.03 60.00
8940 55.7340 3675.00 3763.35 61.00
8941 55.7400 3581.00 3765.21 60.00
8942 55.7460 3613.00 3767.67 60.00
8943 55.7520 3665.00 3770.78 61.00
8944 55.7580 3535.00 3773.52 59.00
8945 55.7640 3638.00 3777.62 60.00
8946 55.7700 3695.00 3782.73 61.00
8947 55.7760 3734.00 3788.58 61.00
8948 55.7820 3606.00 3795.02 60.00
8949 55.7880 3704.00 3802.16 61.00
8950 55.7940 3726.00 3810.01 61.00
8951 55.8000 3758.00 3818.63 61.00
8952 55.8060 3743.00 3827.99 61.00
8953 55.8120 3693.00 3837.06 61.00
8954 55.8180 3791.00 3847.74 62.00
8955 55.8240 3839.00 3858.88 62.00
8956 55.8300 3840.00 3870.27 62.00
8957 55.8360 3759.00 3881.73 61.00
8958 55.8420 3851.00 3892.88 62.00
8959 55.8480 3893.00 3903.52 62.00
8960 55.8540 3901.00 3913.42 62.00
8961 55.8600 4035.00 3922.39 64.00
8962 55.8660 3954.00 3929.99 63.00
8963 55.8720 4020.00 3935.71 63.00
8964 55.8780 3882.00 3941.22 62.00
8965 55.8840 3900.00 3945.53 62.00
8966 55.8900 3788.00 3948.74 62.00
8967 55.8960 3848.00 3951.00 62.00
8968 55.9020 3906.00 3952.38 62.00
8969 55.9080 3822.00 3953.01 62.00
8970 55.9140 3717.00 3953.90 61.00
8971 55.9200 3835.00 3954.90 62.00
8972 55.9260 3828.00 3955.31 62.00
8973 55.9320 3772.00 3957.37 61.00
8974 55.9380 3676.00 3960.28 61.00
8975 55.9440 3733.00 3964.39 61.00
8976 55.9500 3803.00 3969.39 62.00
8977 55.9560 3888.00 3975.50 62.00
8978 55.9620 3938.00 3982.69 63.00
8979 55.9680 3907.00 3991.22 63.00
8980 55.9740 3782.00 4000.26 61.00
8981 55.9800 3882.00 4009.98 62.00
8982 55.9860 3832.00 4019.28 62.00
8983 55.9920 3878.00 4030.06 62.00
8984 55.9980 3999.00 4040.65 63.00
8985 56.0040 3764.00 4051.06 61.00
8986 56.0100 3920.00 4061.30 63.00
8987 56.0160 3975.00 4071.39 63.00
8988 56.0220 3818.00 4081.43 62.00
8989 56.0280 3801.00 4091.55 62.00
8990 56.0340 3860.00 4101.99 62.00
8991 56.0400 3883.00 4111.98 62.00
8992 56.0460 3786.00 4123.63 62.00
8993 56.0520 3825.00 4136.52 62.00
8994 56.0580 3762.00 4150.47 61.00
8995 56.0640 3811.00 4165.81 62.00
8996 56.0700 3957.00 4181.48 63.00
8997 56.0760 3756.00 4197.72 61.00
8998 56.0820 3684.00 4214.17 61.00
8999 56.0880 3826.00 4230.57 62.00
9000 56.0940 3728.00 4245.33 61.00
9001 56.1000 3757.00 4257.20 61.00
9002 56.1060 3771.00 4267.61 61.00
9003 56.1120 3806.00 4274.79 62.00
9004 56.1180 3853.00 4278.41 62.00
9005 56.1240 3756.00 4278.31 61.00
9006 56.1300 3816.00 4274.71 62.00
9007 56.1360 3730.00 4267.75 61.00
9008 56.1420 3848.00 4258.03 62.00
9009 56.1480 3750.00 4246.12 61.00
9010 56.1540 3842.00 4231.63 62.00
9011 56.1600 3840.00 4217.17 62.00
9012 56.1660 3806.00 4202.30 62.00
9013 56.1720 3825.00 4187.51 62.00
9014 56.1780 3785.00 4173.30 62.00
9015 56.1840 3650.00 4160.12 60.00
9016 56.1900 3759.00 4148.41 61.00
9017 56.1960 3764.00 4138.81 61.00
9018 56.2020 3718.00 4131.24 61.00
9019 56.2080 3820.00 4126.21 62.00
9020 56.2140 3682.00 4122.93 61.00
9021 56.2200 3854.00 4123.48 62.00
9022 56.2260 3861.00 4126.84 62.00
9023 56.2320 3808.00 4132.82 62.00
9024 56.2380 3858.00 4141.15 62.00
9025 56.2440 3878.00 4151.41 62.00
9026 56.2500 3911.00 4163.08 63.00
9027 56.2560 3953.00 4175.57 63.00
9028 56.2620 4133.00 4188.28 64.00
9029 56.2680 4176.00 4200.16 65.00
9030 56.2740 4065.00 4211.66 64.00
9031 56.2800 4017.00 4221.71 63.00
9032 56.2860 3915.00 4230.62 63.00
9033 56.2920 3937.00 4237.87 63.00
9034 56.2980 4058.00 4244.14 64.00
9035 56.3040 4011.00 4249.95 63.00
9036 56.3100 4011.00 4254.53 63.00
9037 56.3160 3943.00 4258.97 63.00
9038 56.3220 3978.00 4262.50 63.00
9039 56.3280 4085.00 4267.65 64.00
9040 56.3340 4152.00 4273.67 64.00
9041 56.3400 4131.00 4281.47 64.00
9042 56.3460 4082.00 4289.91 64.00
9043 56.3520 4107.00 4299.92 64.00
9044 56.3580 4265.00 4310.94 65.00
9045 56.3640 4177.00 4322.96 65.00
9046 56.3700 4240.00 4335.59 65.00
9047 56.3760 4194.00 4348.32 65.00
9048 56.3820 4318.00 4359.61 66.00
9049 56.3880 4267.00 4370.67 65.00
9050 56.3940 4283.00 4379.53 65.00
9051 56.4000 4125.00 4386.64 64.00
9052 56.4060 4134.00 4391.25 64.00
9053 56.4120 4257.00 4393.25 65.00
9054 56.4180 4163.00 4392.75 65.00
9055 56.4240 4259.00 4389.57 65.00
9056 56.4300 4282.00 4384.94 65.00
9057 56.4360 4233.00 4377.82 65.00
9058 56.4420 4168.00 4370.62 65.00
9059 56.4480 4327.00 4362.73 66.00
9060 56.4540 4314.00 4354.50 66.00
9061 56.4600 4207.00 4346.25 65.00
9062 56.4660 4275.00 4338.34 65.00
9063 56.4720 4308.00 4330.78 66.00
9064 56.4780 4205.00 4324.55 65.00
9065 56.4840 4169.00 4319.33 65.00
9066 56.4900 4263.00 4315.95 65.00
9067 56.4960 4271.00 4313.22 65.00
9068 56.5020 4302.00 4312.83 66.00
9069 56.5080 4366.00 4314.04 66.00
9070 56.5140 4363.00 4316.62 66.00
9071 56.5200 4227.00 4319.96 65.00
9072 56.5260 4364.00 4323.54 66.00
9073 56.5320 4212.00 4327.01 65.00
9074 56.5380 4289.00 4329.52 65.00
9075 56.5440 4319.00 4330.97 66.00
9076 56.5500 4282.00 4329.68 65.00
9077 56.5560 4184.00 4327.60 65.00
9078 56.5620 4311.00 4323.57 66.00
9079 56.5680 4269.00 4317.56 65.00
9080 56.5740 4217.00 4309.54 65.00
9081 56.5800 4336.00 4299.53 66.00
9082 56.5860 4241.00 4287.70 65.00
9083 56.5920 4241.00 4273.70 65.00
9084 56.5980 4228.00 4257.68 65.00
9085 56.6040 4157.00 4239.58 64.00
9086 56.6100 4157.00 4218.36 64.00
9087 56.6160 4138.00 4196.04 64.00
9088 56.6220 4108.00 4171.81 64.00
9089 56.6280 4091.00 4145.63 64.00
9090 56.6340 3978.00 4117.83 63.00
9091 56.6400 3975.00 4088.72 63.00
9092 56.6460 4011.00 4058.73 63.00
9093 56.6520 3888.00 4028.04 62.00
9094 56.6580 3935.00 3996.94 63.00
9095 56.6640 3907.00 3964.92 63.00
9096 56.6700 3856.00 3933.97 62.00
9097 56.6760 3851.00 3903.56 62.00
9098 56.6820 3822.00 3873.62 62.00
9099 56.6880 3852.00 3844.55 62.00
9100 56.6940 3787.00 3816.36 62.00
9101 56.7000 3630.00 3789.25 60.00
9102 56.7060 3720.00 3763.37 61.00
9103 56.7120 3661.00 3738.80 61.00
9104 56.7180 3685.00 3715.64 61.00
9105 56.7240 3662.00 3693.17 61.00
9106 56.7300 3690.00 3673.20 61.00
9107 56.7360 3694.00 3654.40 61.00
9108 56.7420 3625.00 3637.05 60.00
9109 56.7480 3631.00 3621.11 60.00
9110 56.7540 3561.00 3606.52 60.00
9111 56.7600 3602.00 3593.32 60.00
9112 56.7660 3546.00 3581.38 60.00
9113 56.7720 3542.00 3570.50 60.00
9114 56.7780 3531.00 3559.72 59.00
9115 56.7840 3510.00 3550.97 59.00
9116 56.7900 3575.00 3543.19 60.00
9117 56.7960 3555.00 3536.31 60.00
9118 56.8020 3545.00 3530.27 60.00
9119 56.8080 3416.00 3525.02 58.00
9120 56.8140 3450.00 3520.35 59.00
9121 56.8200 3446.00 3516.55 59.00
9122 56.8260 3519.00 3513.41 59.00
9123 56.8320 3425.00 3510.05 59.00
9124 56.8380 3456.00 3508.16 59.00
9125 56.8440 3443.00 3506.81 59.00
9126 56.8500 3476.00 3506.12 59.00
9127 56.8560 3404.00 3506.02 58.00
9128 56.8620 3380.00 3506.51 58.00
9129 56.8680 3436.00 3507.75 59.00
9130 56.8740 3465.00 3508.43 59.00
9131 56.8800 3343.00 3510.52 58.00
9132 56.8860 3435.00 3513.40 59.00
9133 56.8920 3467.00 3515.88 59.00
9134 56.8980 3518.00 3519.95 59.00
9135 56.9040 3553.00 3524.60 60.00
9136 56.9100 3502.00 3529.81 59.00
9137 56.9160 3437.00 3534.62 59.00
9138 56.9220 3455.00 3540.83 59.00
9139 56.9280 3493.00 3547.46 59.00
9140 56.9340 3528.00 3553.29 59.00
9141 56.9400 3497.00 3560.77 59.00
9142 56.9460 3571.00 3568.18 60.00
9143 56.9520 3539.00 3574.55 59.00
9144 56.9580 3474.00 3582.01 59.00
9145 56.9640 3396.00 3588.94 58.00
9146 56.9700 3442.00 3595.39 59.00
9147 56.9760 3529.00 3600.35 59.00
9148 56.9820 3503.00 3605.45 59.00
9149 56.9880 3481.00 3609.73 59.00
9150 56.9940 3543.00 3612.18 60.00
9151 57.0000 3506.00 3614.63 59.00
9152 57.0060 3452.00 3616.57 59.00
9153 57.0120 3515.00 3617.90 59.00
9154 57.0180 3494.00 3617.76 59.00
9155 57.0240 3457.00 3618.32 59.00
9156 57.0300 3481.00 3618.90 59.00
9157 57.0360 3517.00 3618.37 59.00
9158 57.0420 3474.00 3619.05 59.00
9159 57.0480 3426.00 3620.12 59.00
9160 57.0540 3406.00 3620.75 58.00
9161 57.0600 3437.00 3623.11 59.00
9162 57.0660 3484.00 3626.29 59.00
9163 57.0720 3490.00 3630.54 59.00
9164 57.0780 3462.00 3634.69 59.00
9165 57.0840 3470.00 3641.54 59.00
9166 57.0900 3488.00 3649.67 59.00
9167 57.0960 3561.00 3658.38 60.00
9168 57.1020 3523.00 3669.95 59.00
9169 57.1080 3556.00 3683.09 60.00
9170 57.1140 3557.00 3697.39 60.00
9171 57.1200 3587.00 3714.75 60.00
9172 57.1260 3659.00 3734.51 60.00
9173 57.1320 3627.00 3756.65 60.00
9174 57.1380 3655.00 3780.48 60.00
9175 57.1440 3652.00 3807.54 60.00
9176 57.1500 3639.00 3837.00 60.00
9177 57.1560 3714.00 3867.85 61.00
9178 57.1620 3777.00 3902.22 61.00
9179 57.1680 3903.00 3938.42 62.00
9180 57.1740 3871.00 3976.34 62.00
9181 57.1800 3926.00 4014.83 63.00
9182 57.1860 3975.00 4055.37 63.00
9183 57.1920 3989.00 4096.55 63.00
9184 57.1980 4039.00 4137.71 64.00
9185 57.2040 4174.00 4178.62 65.00
9186 57.2100 4142.00 4218.54 64.00
9187 57.2160 4255.00 4256.06 65.00
9188 57.2220 4188.00 4292.51 65.00
9189 57.2280 4052.00 4326.65 64.00
9190 57.2340 4104.00 4357.99 64.00
9191 57.2400 4199.00 4385.70 65.00
9192 57.2460 4277.00 4410.96 65.00
9193 57.2520 4268.00 4433.53 65.00
9194 57.2580 4137.00 4452.44 64.00
9195 57.2640 4173.00 4469.87 65.00
9196 57.2700 4314.00 4485.61 66.00
9197 57.2760 4190.00 4499.43 65.00
9198 57.2820 4199.00 4510.69 65.00
9199 57.2880 4248.00 4521.40 65.00
9200 57.2940 4304.00 4530.43 66.00
9201 57.3000 4404.00 4536.44 66.00
9202 57.3060 4417.00 4541.50 66.00
9203 57.3120 4458.00 4543.06 67.00
9204 57.3180 4510.00 4540.21 67.00
9205 57.3240 4503.00 4534.32 67.00
9206 57.3300 4494.00 4524.59 67.00
9207 57.3360 4430.00 4510.59 67.00
9208 57.3420 4326.00 4490.75 66.00
9209 57.3480 4343.00 4467.80 66.00
9210 57.3540 4264.00 4440.91 65.00
9211 57.3600 4220.00 4410.89 65.00
9212 57.3660 4234.00 4379.50 65.00
9213 57.3720 4141.00 4346.68 64.00
9214 57.3780 4031.00 4313.24 63.00
9215 57.3840 4108.00 4278.72 64.00
9216 57.3900 4157.00 4245.85 64.00
9217 57.3960 4106.00 4214.35 64.00
9218 57.4020 4065.00 4183.44 64.00
9219 57.4080 3958.00 4155.37 63.00
9220 57.4140 3922.00 4130.18 63.00
9221 57.4200 3970.00 4106.87 63.00
9222 57.4260 3956.00 4087.63 63.00
9223 57.4320 3969.00 4071.59 63.00
9224 57.4380 3953.00 4058.86 63.00
9225 57.4440 3907.00 4048.43 63.00
9226 57.4500 3973.00 4042.32 63.00
9227 57.4560 4066.00 4039.59 64.00
9228 57.4620 3970.00 4038.95 63.00
9229 57.4680 3925.00 4042.45 63.00
9230 57.4740 3991.00 4049.03 63.00
9231 57.4800 4078.00 4057.69 64.00
9232 57.4860 4025.00 4070.00 63.00
9233 57.4920 3993.00 4084.84 63.00
9234 57.4980 4069.00 4101.92 64.00
9235 57.5040 4064.00 4119.89 64.00
9236 57.5100 4120.00 4139.54 64.00
9237 57.5160 4189.00 4160.61 65.00
9238 57.5220 4160.00 4180.95 64.00
9239 57.5280 4177.00 4201.62 65.00
9240 57.5340 4240.00 4222.08 65.00
9241 57.5400 4185.00 4240.96 65.00
9242 57.5460 4116.00 4257.10 64.00
9243 57.5520 4088.00 4272.09 64.00
9244 57.5580 4080.00 4284.60 64.00
9245 57.5640 4145.00 4293.08 64.00
9246 57.5700 4209.00 4299.73 65.00
9247 57.5760 4284.00 4303.05 65.00
9248 57.5820 4313.00 4301.83 66.00
9249 57.5880 4252.00 4297.89 65.00
9250 57.5940 4248.00 4290.09 65.00
9251 57.6000 4204.00 4278.38 65.00
9252 57.6060 4052.00 4261.73 64.00
9253 57.6120 4060.00 4242.32 64.00
9254 57.6180 4048.00 4219.31 64.00
9255 57.6240 4075.00 4192.22 64.00
9256 57.6300 4143.00 4163.25 64.00
9257 57.6360 4007.00 4131.52 63.00
9258 57.6420 3915.00 4098.70 63.00
9259 57.6480 3929.00 4063.30 63.00
9260 57.6540 3947.00 4028.88 63.00
9261 57.6600 3921.00 3994.46 63.00
9262 57.6660 3922.00 3959.58 63.00
9263 57.6720 3926.00 3926.76 63.00
9264 57.6780 3851.00 3895.46 62.00
9265 57.6840 3809.00 3864.83 62.00
9266 57.6900 3850.00 3837.37 62.00
9267 57.6960 3869.00 3812.17 62.00
9268 57.7020 3848.00 3788.99 62.00
9269 57.7080 3853.00 3767.84 62.00
9270 57.7140 3811.00 3750.41 62.00
9271 57.7200 3771.00 3735.65 61.00
9272 57.7260 3722.00 3722.60 61.00
9273 57.7320 3740.00 3713.17 61.00
9274 57.7380 3755.00 3706.29 61.00
9275 57.7440 3722.00 3701.84 61.00
9276 57.7500 3715.00 3698.66 61.00
9277 57.7560 3803.00 3698.61 62.00
9278 57.7620 3840.00 3700.47 62.00
9279 57.7680 3769.00 3703.01 61.00
9280 57.7740 3723.00 3707.63 61.00
9281 57.7800 3742.00 3713.80 61.00
9282 57.7860 3779.00 3719.72 61.00
9283 57.7920 3779.00 3727.45 61.00
9284 57.7980 3764.00 3735.26 61.00
9285 57.8040 3792.00 3743.58 62.00
9286 57.8100 3762.00 3750.92 61.00
9287 57.8160 3723.00 3759.23 61.00
9288 57.8220 3743.00 3767.23 61.00
9289 57.8280 3764.00 3774.39 61.00
9290 57.8340 3718.00 3782.53 61.00
9291 57.8400 3713.00 3790.74 61.00
9292 57.8460 3768.00 3799.16 61.00
9293 57.8520 3760.00 3806.56 61.00
9294 57.8580 3684.00 3815.44 61.00
9295 57.8640 3769.00 3824.23 61.00
9296 57.8700 3894.00 3832.90 62.00
9297 57.8760 3844.00 3842.99 62.00
9298 57.8820 3831.00 3853.51 62.00
9299 57.8880 3872.00 3863.39 62.00
9300 57.8940 3833.00 3874.52 62.00
9301 57.9000 3729.00 3885.91 61.00
9302 57.9060 3731.00 3897.36 61.00
9303 57.9120 3764.00 3907.71 61.00
9304 57.9180 3894.00 3918.59 62.00
9305 57.9240 3888.00 3929.20 62.00
9306 57.9300 3843.00 3938.18 62.00
9307 57.9360 3860.00 3947.41 62.00
9308 57.9420 3861.00 3955.77 62.00
9309 57.9480 3843.00 3962.17 62.00
9310 57.9540 3949.00 3968.53 63.00
9311 57.9600 3972.00 3973.96 63.00
9312 57.9660 3928.00 3978.22 63.00
9313 57.9720 4048.00 3980.32 64.00
9314 57.9780 4119.00 3982.17 64.00
9315 57.9840 4023.00 3982.65 63.00
9316 57.9900 4102.00 3980.64 64.00
9317 57.9960 4030.00 3978.03 63.00
9318 58.0020 4040.00 3973.73 64.00
9319 58.0080 4053.00 3967.72 64.00
9320 58.0140 4003.00 3959.07 63.00
9321 58.0200 3921.00 3949.97 63.00
9322 58.0260 3880.00 3939.65 62.00
9323 58.0320 3890.00 3927.54 62.00
9324 58.0380 3877.00 3915.76 62.00
9325 58.0440 3872.00 3903.78 62.00
9326 58.0500 3933.00 3890.97 63.00
9327 58.0560 3891.00 3879.66 62.00
9328 58.0620 3735.00 3869.15 61.00
9329 58.0680 3809.00 3859.67 62.00
9330 58.0740 3849.00 3850.40 62.00
9331 58.0800 3742.00 3843.45 61.00
9332 58.0860 3667.00 3837.87 61.00
9333 58.0920 3730.00 3832.64 61.00
9334 58.0980 3719.00 3829.70 61.00
9335 58.1040 3703.00 3827.95 61.00
9336 58.1100 3743.00 3827.28 61.00
9337 58.1160 3767.00 3826.70 61.00
9338 58.1220 3795.00 3827.82 62.00
9339 58.1280 3771.00 3829.69 61.00
9340 58.1340 3721.00 3831.40 61.00
9341 58.1400 3734.00 3834.59 61.00
9342 58.1460 3761.00 3838.43 61.00
9343 58.1520 3768.00 3841.87 61.00
9344 58.1580 3816.00 3846.96 62.00
9345 58.1640 3794.00 3852.66 62.00
9346 58.1700 3788.00 3858.93 62.00
9347 58.1760 3806.00 3864.71 62.00
9348 58.1820 3668.00 3871.86 61.00
9349 58.1880 3739.00 3879.21 61.00
9350 58.1940 3854.00 3885.65 62.00
9351 58.2000 3766.00 3892.69 61.00
9352 58.2060 3735.00 3899.15 61.00
9353 58.2120 3772.00 3904.76 61.00
9354 58.2180 3779.00 3908.24 61.00
9355 58.2240 3751.00 3911.41 61.00
9356 58.2300 3755.00 3913.11 61.00
9357 58.2360 3759.00 3912.35 61.00
9358 58.2420 3725.00 3910.91 61.00
9359 58.2480 3666.00 3908.44 61.00
9360 58.2540 3727.00 3903.96 61.00
9361 58.2600 3822.00 3899.79 62.00
9362 58.2660 3787.00 3895.26 62.00
9363 58.2720 3731.00 3890.75 61.00
9364 58.2780 3664.00 3885.61 61.00
9365 58.2840 3762.00 3882.10 61.00
9366 58.2900 3741.00 3879.62 61.00
9367 58.2960 3698.00 3877.35 61.00
9368 58.3020 3650.00 3877.47 60.00
9369 58.3080 3751.00 3879.12 61.00
9370 58.3140 3731.00 3882.43 61.00
9371 58.3200 3825.00 3886.48 62.00
9372 58.3260 3810.00 3893.33 62.00
9373 58.3320 3788.00 3902.05 62.00
9374 58.3380 3718.00 3911.61 61.00
9375 58.3440 3817.00 3924.03 62.00
9376 58.3500 3850.00 3938.29 62.00
9377 58.3560 3826.00 3953.25 62.00
9378 58.3620 3881.00 3970.64 62.00
9379 58.3680 3946.00 3989.37 63.00
9380 58.3740 3872.00 4009.30 62.00
9381 58.3800 3903.00 4029.38 62.00
9382 58.3860 3921.00 4051.09 63.00
9383 58.3920 3930.00 4073.46 63.00
9384 58.3980 4050.00 4095.33 64.00
9385 58.4040 3949.00 4118.62 63.00
9386 58.4100 4021.00 4142.06 63.00
9387 58.4160 3995.00 4164.58 63.00
9388 58.4220 4153.00 4188.13 64.00
9389 58.4280 4165.00 4211.56 65.00
9390 58.4340 4173.00 4234.82 65.00
9391 58.4400 4206.00 4256.82 65.00
9392 58.4460 4299.00 4279.42 66.00
9393 58.4520 4274.00 4301.70 65.00
9394 58.4580 4282.00 4321.97 65.00
9395 58.4640 4196.00 4342.67 65.00
9396 58.4700 4300.00 4362.33 66.00
9397 58.4760 4397.00 4380.84 66.00
9398 58.4820 4278.00 4396.69 65.00
9399 58.4880 4405.00 4412.56 66.00
9400 58.4940 4138.00 4427.12 64.00
9401 58.5000 4310.00 4439.38 66.00
9402 58.5060 4234.00 4451.70 65.00
9403 58.5120 4400.00 4463.12 66.00
9404 58.5180 4451.00 4473.36 67.00
9405 58.5240 4385.00 4484.58 66.00
9406 58.5300 4644.00 4495.91 68.00
9407 58.5360 4516.00 4507.67 67.00
9408 58.5420 4397.00 4518.76 66.00
9409 58.5480 4420.00 4531.36 66.00
9410 58.5540 4614.00 4544.54 68.00
9411 58.5600 4379.00 4557.15 66.00
9412 58.5660 4480.00 4571.04 67.00
9413 58.5720 4563.00 4584.68 68.00
9414 58.5780 4624.00 4597.91 68.00
9415 58.5840 4664.00 4609.06 68.00
9416 58.5900 4634.00 4618.84 68.00
9417 58.5960 4529.00 4626.55 67.00
9418 58.6020 4556.00 4629.85 67.00
9419 58.6080 4539.00 4629.26 67.00
9420 58.6140 4409.00 4624.56 66.00
9421 58.6200 4351.00 4613.44 66.00
9422 58.6260 4420.00 4597.60 66.00
9423 58.6320 4371.00 4575.91 66.00
9424 58.6380 4500.00 4548.69 67.00
9425 58.6440 4197.00 4515.34 65.00
9426 58.6500 4128.00 4478.48 64.00
9427 58.6560 4136.00 4437.77 64.00
9428 58.6620 4301.00 4393.50 66.00
9429 58.6680 4178.00 4348.55 65.00
9430 58.6740 4225.00 4302.60 65.00
9431 58.6800 4179.00 4256.52 65.00
9432 58.6860 4129.00 4210.19 64.00
9433 58.6920 4090.00 4166.06 64.00
9434 58.6980 4077.00 4123.69 64.00
9435 58.7040 4026.00 4082.69 63.00
9436 58.7100 4107.00 4045.07 64.00
9437 58.7160 3971.00 4010.11 63.00
9438 58.7220 3955.00 3976.77 63.00
9439 58.7280 3890.00 3947.43 62.00
9440 58.7340 3918.00 3921.08 63.00
9441 58.7400 3823.00 3897.11 62.00
9442 58.7460 3897.00 3874.59 62.00
9443 58.7520 3887.00 3855.26 62.00
9444 58.7580 3844.00 3838.15 62.00
9445 58.7640 3865.00 3821.47 62.00
9446 58.7700 3770.00 3807.21 61.00
9447 58.7760 3834.00 3794.28 62.00
9448 58.7820 3768.00 3781.22 61.00
9449 58.7880 3779.00 3769.97 61.00
9450 58.7940 3827.00 3759.32 62.00
9451 58.8000 3801.00 3748.63 62.00
9452 58.8060 3674.00 3737.78 61.00
9453 58.8120 3785.00 3728.17 62.00
9454 58.8180 3713.00 3718.70 61.00
9455 58.8240 3728.00 3708.33 61.00
9456 58.8300 3773.00 3699.06 61.00
9457 58.8360 3767.00 3689.37 61.00
9458 58.8420 3725.00 3680.39 61.00
9459 58.8480 3734.00 3670.68 61.00
9460 58.8540 3692.00 3662.41 61.00
9461 58.8600 3720.00 3654.70 61.00
9462 58.8660 3610.00 3646.70 60.00
9463 58.8720 3609.00 3640.53 60.00
9464 58.8780 3655.00 3634.65 60.00
9465 58.8840 3613.00 3629.40 60.00
9466 58.8900 3482.00 3625.93 59.00
9467 58.8960 3559.00 3623.69 60.00
9468 58.9020 3536.00 3622.35 59.00
9469 58.9080 3539.00 3620.86 59.00
9470 58.9140 3532.00 3621.02 59.00
9471 58.9200 3604.00 3621.71 60.00
9472 58.9260 3465.00 3621.60 59.00
9473 58.9320 3490.00 3622.85 59.00
9474 58.9380 3486.00 3624.11 59.00
9475 58.9440 3529.00 3625.20 59.00
9476 58.9500 3543.00 3624.93 60.00
9477 58.9560 3495.00 3625.50 59.00
9478 58.9620 3537.00 3624.99 59.00
9479 58.9680 3478.00 3622.98 59.00
9480 58.9740 3508.00 3620.58 59.00
9481 58.9800 3572.00 3617.10 60.00
9482 58.9860 3586.00 3611.37 60.00
9483 58.9920 3380.00 3605.68 58.00
9484 58.9980 3424.00 3598.63 59.00
9485 59.0040 3416.00 3590.49 58.00
9486 59.0100 3406.00 3580.46 58.00
9487 59.0160 3436.00 3570.75 59.00
9488 59.0220 3323.00 3560.54 58.00
9489 59.0280 3387.00 3549.07 58.00
9490 59.0340 3485.00 3538.54 59.00
9491 59.0400 3478.00 3528.38 59.00
9492 59.0460 3380.00 3518.23 58.00
9493 59.0520 3477.00 3507.59 59.00
9494 59.0580 3340.00 3498.26 58.00
9495 59.0640 3416.00 3489.41 58.00
9496 59.0700 3379.00 3480.08 58.00
9497 59.0760 3371.00 3472.20 58.00
9498 59.0820 3241.00 3464.86 57.00
9499 59.0880 3363.00 3457.33 58.00
9500 59.0940 3319.00 3450.73 58.00
9501 59.1000 3395.00 3444.73 58.00
9502 59.1060 3396.00 3439.13 58.00
9503 59.1120 3359.00 3433.13 58.00
9504 59.1180 3345.00 3428.28 58.00
9505 59.1240 3248.00 3424.33 57.00
9506 59.1300 3289.00 3419.15 57.00
9507 59.1360 3281.00 3415.10 57.00
9508 59.1420 3296.00 3411.54 57.00
9509 59.1480 3402.00 3408.30 58.00
9510 59.1540 3368.00 3404.13 58.00
9511 59.1600 3382.00 3401.18 58.00
9512 59.1660 3397.00 3398.62 58.00
9513 59.1720 3399.00 3395.06 58.00
9514 59.1780 3356.00 3392.88 58.00
9515 59.1840 3281.00 3391.07 57.00
9516 59.1900 3411.00 3388.78 58.00
9517 59.1960 3270.00 3387.62 57.00
9518 59.2020 3310.00 3386.66 58.00
9519 59.2080 3431.00 3386.30 59.00
9520 59.2140 3414.00 3385.19 58.00
9521 59.2200 3482.00 3385.62 59.00
9522 59.2260 3469.00 3386.28 59.00
9523 59.2320 3404.00 3386.43 58.00
9524 59.2380 3309.00 3387.99 58.00
9525 59.2440 3316.00 3389.66 58.00
9526 59.2500 3430.00 3390.62 59.00
9527 59.2560 3339.00 3392.78 58.00
9528 59.2620 3387.00 3395.24 58.00
9529 59.2680 3422.00 3397.72 58.00
9530 59.2740 3337.00 3399.25 58.00
9531 59.2800 3419.00 3401.65 58.00
9532 59.2860 3343.00 3404.40 58.00
9533 59.2920 3273.00 3405.96 57.00
9534 59.2980 3311.00 3409.31 58.00
9535 59.3040 3431.00 3412.76 59.00
9536 59.3100 3366.00 3416.07 58.00
9537 59.3160 3268.00 3418.45 57.00
9538 59.3220 3267.00 3422.55 57.00
9539 59.3280 3241.00 3426.24 57.00
9540 59.3340 3300.00 3429.00 57.00
9541 59.3400 3305.00 3432.83 57.00
9542 59.3460 3334.00 3436.70 58.00
9543 59.3520 3329.00 3439.64 58.00
9544 59.3580 3274.00 3443.81 57.00
9545 59.3640 3264.00 3447.94 57.00
9546 59.3700 3371.00 3452.51 58.00
9547 59.3760 3331.00 3455.90 58.00
9548 59.3820 3393.00 3460.44 58.00
9549 59.3880 3349.00 3465.10 58.00
9550 59.3940 3357.00 3468.96 58.00
9551 59.4000 3354.00 3473.66 58.00
9552 59.4060 3271.00 3478.14 57.00
9553 59.4120 3353.00 3482.45 58.00
9554 59.4180 3330.00 3485.50 58.00
9555 59.4240 3316.00 3488.85 58.00
9556 59.4300 3391.00 3491.36 58.00
9557 59.4360 3460.00 3492.23 59.00
9558 59.4420 3415.00 3493.24 58.00
9559 59.4480 3353.00 3493.35 58.00
9560 59.4540 3325.00 3491.58 58.00
9561 59.4600 3223.00 3489.99 57.00
9562 59.4660 3303.00 3487.66 57.00
9563 59.4720 3329.00 3484.69 58.00
9564 59.4780 3296.00 3480.12 57.00
9565 59.4840 3286.00 3476.19 57.00
9566 59.4900 3273.00 3471.93 57.00
9567 59.4960 3330.00 3466.37 58.00
9568 59.5020 3427.00 3461.85 59.00
9569 59.5080 3376.00 3456.93 58.00
9570 59.5140 3301.00 3452.34 57.00
9571 59.5200 3256.00 3446.83 57.00
9572 59.5260 3291.00 3442.35 57.00
9573 59.5320 3276.00 3438.47 57.00
9574 59.5380 3306.00 3434.06 57.00
9575 59.5440 3334.00 3431.12 58.00
9576 59.5500 3271.00 3429.00 57.00
9577 59.5560 3278.00 3426.67 57.00
9578 59.5620 3355.00 3426.19 58.00
9579 59.5680 3362.00 3426.63 58.00
9580 59.5740 3372.00 3428.04 58.00
9581 59.5800 3410.00 3429.49 58.00
9582 59.5860 3389.00 3432.90 58.00
9583 59.5920 3358.00 3437.33 58.00
9584 59.5980 3377.00 3441.75 58.00
9585 59.6040 3410.00 3447.98 58.00
9586 59.6100 3449.00 3455.25 59.00
9587 59.6160 3455.00 3463.35 59.00
9588 59.6220 3453.00 3471.15 59.00
9589 59.6280 3487.00 3481.51 59.00
9590 59.6340 3508.00 3491.30 59.00
9591 59.6400 3584.00 3501.43 60.00
9592 59.6460 3532.00 3511.45 59.00
9593 59.6520 3511.00 3521.26 59.00
9594 59.6580 3490.00 3531.62 59.00
9595 59.6640 3549.00 3540.35 60.00
9596 59.6700 3541.00 3548.24 60.00
9597 59.6760 3473.00 3555.02 59.00
9598 59.6820 3569.00 3560.88 60.00
9599 59.6880 3646.00 3566.65 60.00
9600 59.6940 3588.00 3570.10 60.00
9601 59.7000 3500.00 3572.57 59.00
9602 59.7060 3503.00 3574.03 59.00
9603 59.7120 3579.00 3575.74 60.00
9604 59.7180 3604.00 3575.32 60.00
9605 59.7240 3626.00 3574.57 60.00
9606 59.7300 3676.00 3573.46 61.00
9607 59.7360 3572.00 3571.67 60.00
9608 59.7420 3532.00 3570.88 59.00
9609 59.7480 3587.00 3568.98 60.00
9610 59.7540 3477.00 3567.05 59.00
9611 59.7600 3476.00 3565.15 59.00
9612 59.7660 3502.00 3563.44 59.00
9613 59.7720 3502.00 3562.77 59.00
9614 59.7780 3583.00 3560.57 60.00
9615 59.7840 3638.00 3559.30 60.00
9616 59.7900 3612.00 3558.30 60.00
9617 59.7960 3596.00 3557.59 60.00
9618 59.8020 3538.00 3558.23 59.00
9619 59.8080 3543.00 3558.25 60.00
9620 59.8140 3577.00 3558.66 60.00
9621 59.8200 3584.00 3559.48 60.00
9622 59.8260 3556.00 3561.27 60.00
9623 59.8320 3440.00 3562.87 59.00
9624 59.8380 3465.00 3564.84 59.00
9625 59.8440 3570.00 3567.14 60.00
9626 59.8500 3570.00 3569.64 60.00
9627 59.8560 3502.00 3573.43 59.00
9628 59.8620 3488.00 3576.58 59.00
9629 59.8680 3523.00 3579.97 59.00
9630 59.8740 3543.00 3583.63 60.00
9631 59.8800 3519.00 3587.57 59.00
9632 59.8860 3546.00 3592.81 60.00
9633 59.8920 3590.00 3596.88 60.00
9634 59.8980 3446.00 3601.87 59.00
9635 59.9040 3399.00 3607.29 58.00
9636 59.9100 3480.00 3613.07 59.00
9637 59.9160 3539.00 3620.56 59.00
9638 59.9220 3548.00 3627.25 60.00
9639 59.9280 3526.00 3634.53 59.00
9640 59.9340 3490.00 3643.06 59.00
9641 59.9400 3505.00 3651.95 59.00
9642 59.9460 3465.00 3662.85 59.00
9643 59.9520 3550.00 3673.76 60.00
9644 59.9580 3552.00 3685.17 60.00
9645 59.9640 3591.00 3697.07 60.00
9646 59.9700 3697.00 3710.33 61.00
9647 59.9760 3687.00 3722.69 61.00
9648 59.9820 3526.00 3734.94 59.00
9649 59.9880 3426.00 3746.70 59.00
9650 59.9940 3379.00 3757.97 58.00
9651 60.0000 3530.00 3769.41 59.00
9652 60.0060 3590.00 3778.80 60.00
9653 60.0120 3652.00 3787.03 60.00
9654 60.0180 3743.00 3794.16 61.00
9655 60.0240 3736.00 3799.80 61.00
9656 60.0300 3739.00 3805.10 61.00
9657 60.0360 3764.00 3808.14 61.00
9658 60.0420 3749.00 3809.73 61.00
9659 60.0480 3813.00 3809.93 62.00
9660 60.0540 3792.00 3808.75 62.00
9661 60.0600 3744.00 3807.21 61.00
9662 60.0660 3742.00 3803.25 61.00
9663 60.0720 3763.00 3797.90 61.00
9664 60.0780 3806.00 3791.02 62.00
9665 60.0840 3712.00 3784.00 61.00
9666 60.0900 3648.00 3774.79 60.00
9667 60.0960 3693.00 3764.59 61.00
9668 60.1020 3648.00 3753.50 60.00
9669 60.1080 3673.00 3742.00 61.00
9670 60.1140 3622.00 3731.37 60.00
9671 60.1200 3635.00 3719.73 60.00
9672 60.1260 3537.00 3708.51 59.00
9673 60.1320 3556.00 3698.01 60.00
9674 60.1380 3596.00 3688.28 60.00
9675 60.1440 3637.00 3681.08 60.00
9676 60.1500 3515.00 3674.41 59.00
9677 60.1560 3559.00 3669.47 60.00
9678 60.1620 3550.00 3666.44 60.00
9679 60.1680 3484.00 3665.49 59.00
9680 60.1740 3524.00 3667.90 59.00
9681 60.1800 3539.00 3671.43 59.00
9682 60.1860 3547.00 3677.44 60.00
9683 60.1920 3603.00 3685.86 60.00
9684 60.1980 3656.00 3697.55 60.00
9685 60.2040 3626.00 3710.60 60.00
9686 60.2100 3577.00 3726.07 60.00
9687 60.2160 3563.00 3743.67 60.00
9688 60.2220 3556.00 3763.38 60.00
9689 60.2280 3619.00 3785.92 60.00
9690 60.2340 3690.00 3809.30 61.00
9691 60.2400 3631.00 3834.17 60.00
9692 60.2460 3682.00 3860.27 61.00
9693 60.2520 3814.00 3887.21 62.00
9694 60.2580 3804.00 3915.81 62.00
9695 60.2640 3773.00 3943.61 61.00
9696 60.2700 3866.00 3971.12 62.00
9697 60.2760 3846.00 3997.98 62.00
9698 60.2820 3810.00 4024.05 62.00
9699 60.2880 3838.00 4049.11 62.00
9700 60.2940 3809.00 4071.44 62.00
9701 60.3000 3750.00 4091.81 61.00
9702 60.3060 3821.00 4109.97 62.00
9703 60.3120 3873.00 4126.20 62.00
9704 60.3180 3919.00 4141.61 63.00
9705 60.3240 3814.00 4154.41 62.00
9706 60.3300 3933.00 4165.98 63.00
9707 60.3360 3912.00 4176.66 63.00
9708 60.3420 4068.00 4188.41 64.00
9709 60.3480 3977.00 4198.43 63.00
9710 60.3540 3950.00 4208.53 63.00
9711 60.3600 3987.00 4218.94 63.00
9712 60.3660 4130.00 4229.77 64.00
9713 60.3720 4025.00 4242.10 63.00
9714 60.3780 3993.00 4253.87 63.00
9715 60.3840 4085.00 4266.06 64.00
9716 60.3900 4044.00 4278.66 64.00
9717 60.3960 4004.00 4291.19 63.00
9718 60.4020 4134.00 4304.71 64.00
9719 60.4080 4245.00 4316.93 65.00
9720 60.4140 4185.00 4328.54 65.00
9721 60.4200 4205.00 4339.26 65.00
9722 60.4260 4252.00 4348.80 65.00
9723 60.4320 4308.00 4358.04 66.00
9724 60.4380 4148.00 4364.26 64.00
9725 60.4440 4306.00 4368.41 66.00
9726 60.4500 4151.00 4370.29 64.00
9727 60.4560 4240.00 4370.75 65.00
9728 60.4620 4205.00 4367.68 65.00
9729 60.4680 4237.00 4362.26 65.00
9730 60.4740 4181.00 4354.57 65.00
9731 60.4800 4111.00 4344.96 64.00
9732 60.4860 4294.00 4334.54 66.00
9733 60.4920 4120.00 4321.77 64.00
9734 60.4980 4225.00 4308.08 65.00
9735 60.5040 4200.00 4293.95 65.00
9736 60.5100 4131.00 4279.71 64.00
9737 60.5160 4288.00 4266.83 65.00
9738 60.5220 4141.00 4253.67 64.00
9739 60.5280 4196.00 4241.63 65.00
9740 60.5340 4151.00 4231.09 64.00
9741 60.5400 4226.00 4222.33 65.00
9742 60.5460 4311.00 4216.67 66.00
9743 60.5520 4239.00 4212.33 65.00
9744 60.5580 4197.00 4210.50 65.00
9745 60.5640 4268.00 4211.29 65.00
9746 60.5700 4304.00 4214.75 66.00
9747 60.5760 4269.00 4221.84 65.00
9748 60.5820 4287.00 4230.26 65.00
9749 60.5880 4296.00 4240.98 66.00
9750 60.5940 4342.00 4253.71 66.00
9751 60.6000 4445.00 4268.90 67.00
9752 60.6060 4381.00 4284.31 66.00
9753 60.6120 4311.00 4300.23 66.00
9754 60.6180 4429.00 4316.18 67.00
9755 60.6240 4418.00 4331.62 66.00
9756 60.6300 4378.00 4347.03 66.00
9757 60.6360 4575.00 4359.61 68.00
9758 60.6420 4547.00 4369.99 67.00
9759 60.6480 4488.00 4377.54 67.00
9760 60.6540 4369.00 4381.97 66.00
9761 60.6600 4529.00 4383.90 67.00
9762 60.6660 4227.00 4381.45 65.00
9763 60.6720 4354.00 4375.51 66.00
9764 60.6780 4443.00 4366.49 67.00
9765 60.6840 4298.00 4353.97 66.00
9766 60.6900 4320.00 4339.47 66.00
9767 60.6960 4132.00 4321.23 64.00
9768 60.7020 4233.00 4300.60 65.00
9769 60.7080 4189.00 4277.56 65.00
9770 60.7140 4189.00 4253.43 65.00
9771 60.7200 4192.00 4226.49 65.00
9772 60.7260 4064.00 4197.90 64.00
9773 60.7320 3991.00 4168.01 63.00
9774 60.7380 4074.00 4137.07 64.00
9775 60.7440 4016.00 4106.41 63.00
9776 60.7500 4134.00 4074.21 64.00
9777 60.7560 4069.00 4042.10 64.00
9778 60.7620 4032.00 4010.31 63.00
9779 60.7680 3961.00 3978.94 63.00
9780 60.7740 3842.00 3949.72 62.00
9781 60.7800 3865.00 3920.63 62.00
9782 60.7860 3851.00 3892.89 62.00
9783 60.7920 3867.00 3866.74 62.00
9784 60.7980 3872.00 3842.25 62.00
9785 60.8040 3840.00 3820.52 62.00
9786 60.8100 3766.00 3799.67 61.00
9787 60.8160 3797.00 3780.44 62.00
9788 60.8220 3890.00 3762.88 62.00
9789 60.8280 3742.00 3747.73 61.00
9790 60.8340 3674.00 3733.07 61.00
9791 60.8400 3639.00 3719.69 60.00
9792 60.8460 3799.00 3707.33 62.00
9793 60.8520 3821.00 3695.91 62.00
9794 60.8580 3674.00 3686.35 61.00
9795 60.8640 3760.00 3676.61 61.00
9796 60.8700 3584.00 3667.39 60.00
9797 60.8760 3714.00 3658.92 61.00
9798 60.8820 3679.00 3651.12 61.00
9799 60.8880 3560.00 3645.10 60.00
9800 60.8940 3698.00 3638.94 61.00
9801 60.9000 3609.00 3633.72 60.00
9802 60.9060 3704.00 3629.50 61.00
9803 60.9120 3594.00 3626.34 60.00
9804 60.9180 3588.00 3625.29 60.00
9805 60.9240 3580.00 3624.68 60.00
9806 60.9300 3521.00 3624.89 59.00
9807 60.9360 3597.00 3626.22 60.00
9808 60.9420 3621.00 3628.97 60.00
9809 60.9480 3609.00 3633.46 60.00
9810 60.9540 3645.00 3637.94 60.00
9811 60.9600 3572.00 3643.33 60.00
9812 60.9660 3617.00 3649.53 60.00
9813 60.9720 3523.00 3657.41 59.00
9814 60.9780 3684.00 3664.81 61.00
9815 60.9840 3648.00 3672.57 60.00
9816 60.9900 3619.00 3680.44 60.00
9817 60.9960 3580.00 3688.26 60.00
9818 61.0020 3573.00 3697.02 60.00
9819 61.0080 3607.00 3704.41 60.00
9820 61.0140 3527.00 3711.27 59.00
9821 61.0200 3613.00 3717.46 60.00
9822 61.0260 3671.00 3722.75 61.00
9823 61.0320 3705.00 3728.16 61.00
9824 61.0380 3681.00 3731.52 61.00
9825 61.0440 3684.00 3733.72 61.00
9826 61.0500 3564.00 3734.64 60.00
9827 61.0560 3715.00 3734.37 61.00
9828 61.0620 3658.00 3733.93 60.00
9829 61.0680 3662.00 3731.06 61.00
9830 61.0740 3687.00 3726.99 61.00
9831 61.0800 3546.00 3721.56 60.00
9832 61.0860 3650.00 3715.91 60.00
9833 61.0920 3539.00 3708.09 59.00
9834 61.0980 3614.00 3699.24 60.00
9835 61.1040 3633.00 3689.36 60.00
9836 61.1100 3694.00 3678.94 61.00
9837 61.1160 3603.00 3668.37 60.00
9838 61.1220 3469.00 3656.10 59.00
9839 61.1280 3550.00 3643.28 60.00
9840 61.1340 3500.00 3630.04 59.00
9841 61.1400 3453.00 3616.67 59.00
9842 61.1460 3532.00 3604.06 59.00
9843 61.1520 3519.00 3590.45 59.00
9844 61.1580 3537.00 3577.57 59.00
9845 61.1640 3449.00 3564.81 59.00
9846 61.1700 3396.00 3552.49 58.00
9847 61.1760 3386.00 3541.87 58.00
9848 61.1820 3442.00 3531.03 59.00
9849 61.1880 3477.00 3521.10 59.00
9850 61.1940 3450.00 3511.99 59.00
9851 61.2000 3363.00 3505.19 58.00
9852 61.2060 3467.00 3498.29 59.00
9853 61.2120 3365.00 3492.50 58.00
9854 61.2180 3376.00 3487.80 58.00
9855 61.2240 3451.00 3484.49 59.00
9856 61.2300 3355.00 3483.22 58.00
9857 61.2360 3373.00 3481.75 58.00
9858 61.2420 3424.00 3481.44 59.00
9859 61.2480 3461.00 3481.07 59.00
9860 61.2540 3391.00 3482.92 58.00
9861 61.2600 3361.00 3484.44 58.00
9862 61.2660 3406.00 3487.83 58.00
9863 61.2720 3352.00 3490.98 58.00
9864 61.2780 3407.00 3495.86 58.00
9865 61.2840 3457.00 3501.38 59.00
9866 61.2900 3400.00 3506.41 58.00
9867 61.2960 3318.00 3512.97 58.00
9868 61.3020 3449.00 3518.97 59.00
9869 61.3080 3427.00 3525.97 59.00
9870 61.3140 3358.00 3532.13 58.00
9871 61.3200 3474.00 3539.35 59.00
9872 61.3260 3420.00 3545.75 58.00
9873 61.3320 3518.00 3552.73 59.00
9874 61.3380 3497.00 3558.91 59.00
9875 61.3440 3450.00 3565.84 59.00
9876 61.3500 3407.00 3571.74 58.00
9877 61.3560 3434.00 3578.54 59.00
9878 61.3620 3514.00 3583.82 59.00
9879 61.3680 3585.00 3589.85 60.00
9880 61.3740 3462.00 3594.40 59.00
9881 61.3800 3435.00 3599.39 59.00
9882 61.3860 3447.00 3602.76 59.00
9883 61.3920 3514.00 3606.47 59.00
9884 61.3980 3388.00 3608.31 58.00
9885 61.4040 3440.00 3610.72 59.00
9886 61.4100 3502.00 3611.57 59.00
9887 61.4160 3611.00 3612.98 60.00
9888 61.4220 3563.00 3612.79 60.00
9889 61.4280 3561.00 3613.75 60.00
9890 61.4340 3582.00 3614.72 60.00
9891 61.4400 3534.00 3614.76 59.00
9892 61.4460 3535.00 3616.24 59.00
9893 61.4520 3575.00 3617.28 60.00
9894 61.4580 3676.00 3619.80 61.00
9895 61.4640 3643.00 3621.93 60.00
9896 61.4700 3568.00 3625.79 60.00
9897 61.4760 3624.00 3629.37 60.00
9898 61.4820 3635.00 3634.68 60.00
9899 61.4880 3657.00 3639.83 60.00
9900 61.4940 3646.00 3646.53 60.00
9901 61.5000 3721.00 3652.83 61.00
9902 61.5060 3754.00 3660.69 61.00
9903 61.5120 3794.00 3667.98 62.00
9904 61.5180 3772.00 3676.57 61.00
9905 61.5240 3785.00 3684.28 62.00
9906 61.5300 3818.00 3693.00 62.00
9907 61.5360 3865.00 3700.52 62.00
9908 61.5420 3715.00 3708.77 61.00
9909 61.5480 3709.00 3715.48 61.00
9910 61.5540 3722.00 3722.64 61.00
9911 61.5600 3765.00 3728.22 61.00
9912 61.5660 3697.00 3734.22 61.00
9913 61.5720 3653.00 3738.72 60.00
9914 61.5780 3722.00 3743.83 61.00
9915 61.5840 3742.00 3748.73 61.00
9916 61.5900 3793.00 3752.55 62.00
9917 61.5960 3719.00 3757.43 61.00
9918 61.6020 3694.00 3761.48 61.00
9919 61.6080 3645.00 3766.87 60.00
9920 61.6140 3701.00 3771.63 61.00
9921 61.6200 3679.00 3777.78 61.00
9922 61.6260 3660.00 3783.27 60.00
9923 61.6320 3636.00 3789.74 60.00
9924 61.6380 3713.00 3795.31 61.00
9925 61.6440 3793.00 3802.31 62.00
9926 61.6500 3749.00 3808.33 61.00
9927 61.6560 3695.00 3815.03 61.00
9928 61.6620 3789.00 3820.35 62.00
9929 61.6680 3769.00 3825.97 61.00
9930 61.6740 3742.00 3830.23 61.00
9931 61.6800 3689.00 3834.77 61.00
9932 61.6860 3712.00 3837.52 61.00
9933 61.6920 3730.00 3840.33 61.00
9934 61.6980 3762.00 3841.03 61.00
9935 61.7040 3727.00 3841.52 61.00
9936 61.7100 3726.00 3839.66 61.00
9937 61.7160 3732.00 3837.14 61.00
9938 61.7220 3738.00 3832.46 61.00
9939 61.7280 3692.00 3827.42 61.00
9940 61.7340 3672.00 3820.98 61.00
9941 61.7400 3722.00 3812.58 61.00
9942 61.7460 3659.00 3804.25 60.00
9943 61.7520 3692.00 3794.16 61.00
9944 61.7580 3627.00 3784.39 60.00
9945 61.7640 3574.00 3773.31 60.00
9946 61.7700 3640.00 3762.60 60.00
9947 61.7760 3658.00 3751.06 60.00
9948 61.7820 3654.00 3740.45 60.00
9949 61.7880 3723.00 3728.80 61.00
9950 61.7940 3536.00 3717.95 59.00
9951 61.8000 3525.00 3706.40 59.00
9952 61.8060 3663.00 3695.41 61.00
9953 61.8120 3661.00 3684.16 61.00
9954 61.8180 3612.00 3674.14 60.00
9955 61.8240 3589.00 3663.41 60.00
9956 61.8300 3660.00 3653.81 60.00
9957 61.8360 3688.00 3643.87 61.00
9958 61.8420 3532.00 3635.40 59.00
9959 61.8480 3531.00 3626.32 59.00
9960 61.8540 3587.00 3618.98 60.00
9961 61.8600 3514.00 3611.30 59.00
9962 61.8660 3541.00 3605.31 60.00
9963 61.8720 3643.00 3599.03 60.00
9964 61.8780 3574.00 3594.40 60.00
9965 61.8840 3451.00 3590.90 59.00
9966 61.8900 3537.00 3587.35 59.00
9967 61.8960 3535.00 3585.82 59.00
9968 61.9020 3524.00 3584.36 59.00
9969 61.9080 3485.00 3585.00 59.00
9970 61.9140 3433.00 3585.75 59.00
9971 61.9200 3541.00 3588.60 60.00
9972 61.9260 3570.00 3591.43 60.00
9973 61.9320 3524.00 3596.34 59.00
9974 61.9380 3493.00 3601.19 59.00
9975 61.9440 3481.00 3607.85 59.00
9976 61.9500 3579.00 3614.29 60.00
9977 61.9560 3612.00 3622.02 60.00
9978 61.9620 3563.00 3629.24 60.00
9979 61.9680 3487.00 3637.83 59.00
9980 61.9740 3479.00 3645.37 59.00
9981 61.9800 3525.00 3653.91 59.00
9982 61.9860 3584.00 3661.16 60.00
9983 61.9920 3532.00 3668.69 59.00
9984 61.9980 3541.00 3674.80 60.00
9985 62.0040 3488.00 3681.59 59.00
9986 62.0100 3457.00 3686.76 59.00
9987 62.0160 3502.00 3691.57 59.00
9988 62.0220 3445.00 3695.06 59.00
9989 62.0280 3456.00 3698.64 59.00
9990 62.0340 3532.00 3701.24 59.00
9991 62.0400 3592.00 3701.89 60.00
9992 62.0460 3535.00 3702.60 59.00
9993 62.0520 3477.00 3700.85 59.00
9994 62.0580 3453.00 3698.73 59.00
9995 62.0640 3494.00 3694.23 59.00
9996 62.0700 3462.00 3690.05 59.00
9997 62.0760 3455.00 3683.67 59.00
9998 62.0820 3470.00 3677.36 59.00
9999 62.0880 3499.00 3669.01 59.00
10000 62.0940 3435.00 3661.50 59.00
10001 62.1000 3392.00 3652.64 58.00
10002 62.1060 3484.00 3644.72 59.00
10003 62.1120 3517.00 3635.99 59.00
10004 62.1180 3436.00 3628.64 59.00
10005 62.1240 3406.00 3620.94 58.00
10006 62.1300 3445.00 3615.10 59.00
10007 62.1360 3497.00 3609.43 59.00
10008 62.1420 3522.00 3605.47 59.00
10009 62.1480 3513.00 3601.66 59.00
10010 62.1540 3522.00 3600.14 59.00
10011 62.1600 3539.00 3598.66 59.00
10012 62.1660 3479.00 3599.41 59.00
10013 62.1720 3407.00 3601.34 58.00
10014 62.1780 3441.00 3603.45 59.00
10015 62.1840 3436.00 3607.65 59.00
10016 62.1900 3392.00 3611.93 58.00
10017 62.1960 3457.00 3618.20 59.00
10018 62.2020 3446.00 3624.37 59.00
10019 62.2080 3422.00 3632.21 58.00
10020 62.2140 3460.00 3639.87 59.00
10021 62.2200 3425.00 3648.99 59.00
10022 62.2260 3418.00 3657.72 58.00
10023 62.2320 3447.00 3667.77 59.00
10024 62.2380 3457.00 3677.02 59.00
10025 62.2440 3469.00 3687.40 59.00
10026 62.2500 3418.00 3696.70 58.00
10027 62.2560 3406.00 3706.85 58.00
10028 62.2620 3465.00 3715.77 59.00
10029 62.2680 3503.00 3725.35 59.00
10030 62.2740 3512.00 3733.58 59.00
10031 62.2800 3510.00 3742.25 59.00
10032 62.2860 3580.00 3749.27 60.00
10033 62.2920 3522.00 3756.52 59.00
10034 62.2980 3485.00 3761.94 59.00
10035 62.3040 3508.00 3767.39 59.00
10036 62.3100 3568.00 3770.76 60.00
10037 62.3160 3635.00 3774.03 60.00
10038 62.3220 3519.00 3776.17 59.00
10039 62.3280 3432.00 3776.43 59.00
10040 62.3340 3466.00 3776.63 59.00
10041 62.3400 3558.00 3775.12 60.00
10042 62.3460 3598.00 3774.14 60.00
10043 62.3520 3517.00 3771.84 59.00
10044 62.3580 3468.00 3770.77 59.00
10045 62.3640 3515.00 3769.14 59.00
10046 62.3700 3556.00 3769.13 60.00
10047 62.3760 3535.00 3769.11 59.00
10048 62.3820 3502.00 3771.13 59.00
10049 62.3880 3593.00 3773.44 60.00
10050 62.3940 3670.00 3778.13 61.00
10051 62.4000 3593.00 3783.33 60.00
10052 62.4060 3509.00 3791.23 59.00
10053 62.4120 3530.00 3799.85 59.00
10054 62.4180 3643.00 3811.05 60.00
10055 62.4240 3707.00 3822.75 61.00
10056 62.4300 3679.00 3837.12 61.00
10057 62.4360 3675.00 3851.90 61.00
10058 62.4420 3656.00 3869.06 60.00
10059 62.4480 3755.00 3886.27 61.00
10060 62.4540 3817.00 3905.41 62.00
10061 62.4600 3767.00 3924.23 61.00
10062 62.4660 3844.00 3944.53 62.00
10063 62.4720 3881.00 3964.98 62.00
10064 62.4780 3903.00 3984.34 62.00
10065 62.4840 3921.00 4004.27 63.00
10066 62.4900 3920.00 4022.67 63.00
10067 62.4960 3917.00 4041.08 63.00
10068 62.5020 3992.00 4057.57 63.00
10069 62.5080 4055.00 4073.88 64.00
10070 62.5140 4020.00 4087.93 63.00
10071 62.5200 4012.00 4101.51 63.00
10072 62.5260 4007.00 4112.61 63.00
10073 62.5320 3960.00 4123.23 63.00
10074 62.5380 3961.00 4131.38 63.00
10075 62.5440 4012.00 4139.07 63.00
10076 62.5500 4029.00 4144.36 63.00
10077 62.5560 4041.00 4149.34 64.00
10078 62.5620 3969.00 4152.08 63.00
10079 62.5680 3952.00 4154.71 63.00
10080 62.5740 4039.00 4155.40 64.00
10081 62.5800 4005.00 4156.10 63.00
10082 62.5860 4000.00 4154.91 63.00
10083 62.5920 4013.00 4153.84 63.00
10084 62.5980 4046.00 4150.81 64.00
10085 62.6040 4071.00 4147.73 64.00
10086 62.6100 4001.00 4142.42 63.00
10087 62.6160 3978.00 4136.73 63.00
10088 62.6220 3916.00 4129.50 63.00
10089 62.6280 3937.00 4119.68 63.00
10090 62.6340 4004.00 4109.03 63.00
10091 62.6400 4005.00 4095.67 63.00
10092 62.6460 3991.00 4081.54 63.00
10093 62.6520 4014.00 4064.94 63.00
10094 62.6580 3933.00 4047.77 63.00
10095 62.6640 3923.00 4028.45 63.00
10096 62.6700 3932.00 4008.90 63.00
10097 62.6760 3842.00 3987.50 62.00
10098 62.6820 3796.00 3966.08 62.00
10099 62.6880 3816.00 3943.03 62.00
10100 62.6940 3843.00 3920.37 62.00
10101 62.7000 3799.00 3896.15 62.00
10102 62.7060 3686.00 3872.43 61.00
10103 62.7120 3629.00 3847.25 60.00
10104 62.7180 3669.00 3822.77 61.00
10105 62.7240 3634.00 3797.15 60.00
10106 62.7300 3575.00 3772.37 60.00
10107 62.7360 3588.00 3746.70 60.00
10108 62.7420 3559.00 3722.26 60.00
10109 62.7480 3640.00 3697.28 60.00
10110 62.7540 3601.00 3673.79 60.00
10111 62.7600 3507.00 3650.18 59.00
10112 62.7660 3570.00 3628.59 60.00
10113 62.7720 3605.00 3607.87 60.00
10114 62.7780 3519.00 3587.56 59.00
10115 62.7840 3532.00 3569.33 59.00
10116 62.7900 3566.00 3551.32 60.00
10117 62.7960 3521.00 3535.75 59.00
10118 62.8020 3455.00 3520.54 59.00
10119 62.8080 3449.00 3507.66 59.00
10120 62.8140 3446.00 3495.05 59.00
10121 62.8200 3366.00 3484.67 58.00
10122 62.8260 3393.00 3474.44 58.00
10123 62.8320 3520.00 3466.17 59.00
10124 62.8380 3508.00 3457.80 59.00
10125 62.8440 3457.00 3451.27 59.00
10126 62.8500 3341.00 3444.35 58.00
10127 62.8560 3345.00 3438.91 58.00
10128 62.8620 3441.00 3433.00 59.00
10129 62.8680 3434.00 3428.45 59.00
10130 62.8740 3487.00 3423.19 59.00
10131 62.8800 3422.00 3419.14 58.00
10132 62.8860 3415.00 3414.26 58.00
10133 62.8920 3378.00 3410.51 58.00
10134 62.8980 3360.00 3405.90 58.00
10135 62.9040 3367.00 3402.35 58.00
10136 62.9100 3341.00 3397.91 58.00
10137 62.9160 3278.00 3394.41 57.00
10138 62.9220 3288.00 3391.20 57.00
10139 62.9280 3381.00 3387.01 58.00
10140 62.9340 3407.00 3383.97 58.00
10141 62.9400 3386.00 3380.23 58.00
10142 62.9460 3330.00 3377.67 58.00
10143 62.9520 3330.00 3374.23 58.00
10144 62.9580 3295.00 3372.19 57.00
10145 62.9640 3404.00 3369.28 58.00
10146 62.9700 3369.00 3367.66 58.00
10147 62.9760 3315.00 3365.30 58.00
10148 62.9820 3235.00 3364.21 57.00
10149 62.9880 3284.00 3362.40 57.00
10150 62.9940 3431.00 3362.08 59.00
10151 63.0000 3368.00 3360.73 58.00
10152 63.0060 3285.00 3360.53 57.00
10153 63.0120 3220.00 3359.40 57.00
10154 63.0180 3215.00 3359.67 57.00
10155 63.0240 3281.00 3358.40 57.00
10156 63.0300 3225.00 3357.55 57.00
10157 63.0360 3171.00 3355.80 56.00
10158 63.0420 3193.00 3354.49 57.00
10159 63.0480 3183.00 3351.65 56.00
10160 63.0540 3164.00 3349.35 56.00
10161 63.0600 3165.00 3346.27 56.00
10162 63.0660 3173.00 3341.57 56.00
10163 63.0720 3202.00 3337.26 57.00
10164 63.0780 3235.00 3331.42 57.00
10165 63.0840 3185.00 3326.23 56.00
10166 63.0900 3136.00 3319.40 56.00
10167 63.0960 3090.00 3313.16 56.00
10168 63.1020 3106.00 3306.16 56.00
10169 63.1080 3099.00 3300.13 56.00
10170 63.1140 3083.00 3293.16 56.00
10171 63.1200 3156.00 3287.34 56.00
10172 63.1260 3177.00 3280.70 56.00
10173 63.1320 3177.00 3275.34 56.00
10174 63.1380 3247.00 3269.28 57.00
10175 63.1440 3156.00 3264.43 56.00
10176 63.1500 3208.00 3259.09 57.00
10177 63.1560 3162.00 3255.26 56.00
10178 63.1620 3186.00 3250.74 56.00
10179 63.1680 3158.00 3247.66 56.00
10180 63.1740 3197.00 3244.16 57.00
10181 63.1800 3122.00 3242.03 56.00
10182 63.1860 3170.00 3239.09 56.00
10183 63.1920 3168.00 3238.08 56.00
10184 63.1980 3160.00 3236.30 56.00
10185 63.2040 3190.00 3236.17 56.00
10186 63.2100 3204.00 3236.37 57.00
10187 63.2160 3156.00 3236.10 56.00
10188 63.2220 3171.00 3237.34 56.00
10189 63.2280 3252.00 3239.12 57.00
10190 63.2340 3207.00 3241.34 57.00
10191 63.2400 3292.00 3244.26 57.00
10192 63.2460 3231.00 3247.77 57.00
10193 63.2520 3100.00 3251.91 56.00
10194 63.2580 3227.00 3256.64 57.00
10195 63.2640 3220.00 3262.27 57.00
10196 63.2700 3212.00 3268.57 57.00
10197 63.2760 3174.00 3275.69 56.00
10198 63.2820 3157.00 3283.35 56.00
10199 63.2880 3237.00 3291.79 57.00
10200 63.2940 3215.00 3301.02 57.00
10201 63.3000 3202.00 3311.10 57.00
10202 63.3060 3175.00 3322.14 56.00
10203 63.3120 3244.00 3333.88 57.00
10204 63.3180 3270.00 3346.55 57.00
10205 63.3240 3317.00 3359.95 58.00
10206 63.3300 3344.00 3374.12 58.00
10207 63.3360 3335.00 3388.98 58.00
10208 63.3420 3394.00 3404.60 58.00
10209 63.3480 3314.00 3420.81 58.00
10210 63.3540 3313.00 3437.77 58.00
10211 63.3600 3406.00 3454.97 58.00
10212 63.3660 3419.00 3472.55 58.00
10213 63.3720 3503.00 3491.28 59.00
10214 63.3780 3491.00 3509.29 59.00
10215 63.3840 3591.00 3527.48 60.00
10216 63.3900 3613.00 3545.58 60.00
10217 63.3960 3455.00 3563.47 59.00
10218 63.4020 3464.00 3581.33 59.00
10219 63.4080 3550.00 3598.82 60.00
10220 63.4140 3596.00 3616.03 60.00
10221 63.4200 3567.00 3632.75 60.00
10222 63.4260 3572.00 3648.91 60.00
10223 63.4320 3579.00 3664.28 60.00
10224 63.4380 3632.00 3678.75 60.00
10225 63.4440 3631.00 3692.07 60.00
10226 63.4500 3753.00 3704.14 61.00
10227 63.4560 3634.00 3715.12 60.00
10228 63.4620 3763.00 3724.76 61.00
10229 63.4680 3795.00 3732.88 62.00
10230 63.4740 3699.00 3739.76 61.00
10231 63.4800 3689.00 3745.29 61.00
10232 63.4860 3726.00 3749.54 61.00
10233 63.4920 3787.00 3752.55 62.00
10234 63.4980 3835.00 3754.44 62.00
10235 63.5040 3837.00 3755.25 62.00
10236 63.5100 3779.00 3755.07 61.00
10237 63.5160 3912.00 3753.75 63.00
10238 63.5220 3748.00 3751.44 61.00
10239 63.5280 3856.00 3747.88 62.00
10240 63.5340 3873.00 3743.05 62.00
10241 63.5400 3826.00 3736.85 62.00
10242 63.5460 3841.00 3729.19 62.00
10243 63.5520 3831.00 3719.98 62.00
10244 63.5580 3785.00 3709.25 62.00
10245 63.5640 3644.00 3697.01 60.00
10246 63.5700 3817.00 3683.37 62.00
10247 63.5760 3818.00 3669.61 62.00
10248 63.5820 3628.00 3653.69 60.00
10249 63.5880 3586.00 3636.91 60.00
10250 63.5940 3738.00 3619.79 61.00
10251 63.6000 3555.00 3602.62 60.00
10252 63.6060 3601.00 3585.48 60.00
10253 63.6120 3500.00 3568.78 59.00
10254 63.6180 3521.00 3552.69 59.00
10255 63.6240 3453.00 3537.52 59.00
10256 63.6300 3517.00 3523.35 59.00
10257 63.6360 3470.00 3510.29 59.00
10258 63.6420 3500.00 3498.43 59.00
10259 63.6480 3547.00 3487.96 60.00
10260 63.6540 3484.00 3478.77 59.00
10261 63.6600 3500.00 3470.97 59.00
10262 63.6660 3540.00 3464.50 59.00
10263 63.6720 3524.00 3459.33 59.00
10264 63.6780 3546.00 3455.40 60.00
10265 63.6840 3409.00 3452.68 58.00
10266 63.6900 3354.00 3451.10 58.00
10267 63.6960 3431.00 3450.64 59.00
10268 63.7020 3544.00 3450.83 60.00
10269 63.7080 3533.00 3452.28 59.00
10270 63.7140 3371.00 3454.58 58.00
10271 63.7200 3485.00 3457.64 59.00
10272 63.7260 3401.00 3461.08 58.00
10273 63.7320 3459.00 3465.33 59.00
10274 63.7380 3576.00 3470.01 60.00
10275 63.7440 3516.00 3474.97 59.00
10276 63.7500 3507.00 3480.09 59.00
10277 63.7560 3503.00 3485.23 59.00
10278 63.7620 3520.00 3490.25 59.00
10279 63.7680 3662.00 3495.03 61.00
10280 63.7740 3524.00 3499.46 59.00
10281 63.7800 3599.00 3503.34 60.00
10282 63.7860 3588.00 3507.73 60.00
10283 63.7920 3514.00 3510.47 59.00
10284 63.7980 3325.00 3512.49 58.00
10285 63.8040 3406.00 3513.73 58.00
10286 63.8100 3492.00 3514.17 59.00
10287 63.8160 3473.00 3513.74 59.00
10288 63.8220 3575.00 3512.61 60.00
10289 63.8280 3601.00 3510.74 60.00
10290 63.8340 3570.00 3508.35 60.00
10291 63.8400 3635.00 3505.17 60.00
10292 63.8460 3393.00 3501.54 58.00
10293 63.8520 3440.00 3497.20 59.00
10294 63.8580 3452.00 3492.57 59.00
10295 63.8640 3328.00 3487.59 58.00
10296 63.8700 3460.00 3482.49 59.00
10297 63.8760 3431.00 3477.04 59.00
10298 63.8820 3408.00 3471.48 58.00
10299 63.8880 3374.00 3465.73 58.00
10300 63.8940 3389.00 3460.24 58.00
10301 63.9000 3480.00 3454.94 59.00
10302 63.9060 3438.00 3449.70 59.00
10303 63.9120 3279.00 3445.06 57.00
10304 63.9180 3280.00 3440.89 57.00
10305 63.9240 3348.00 3437.23 58.00
10306 63.9300 3304.00 3434.28 57.00
10307 63.9360 3443.00 3431.68 59.00
10308 63.9420 3310.00 3429.90 58.00
10309 63.9480 3481.00 3428.74 59.00
10310 63.9540 3373.00 3428.09 58.00
10311 63.9600 3372.00 3428.41 58.00
10312 63.9660 3412.00 3429.66 58.00
10313 63.9720 3397.00 3431.76 58.00
10314 63.9780 3302.00 3434.80 57.00
10315 63.9840 3341.00 3438.77 58.00
10316 63.9900 3419.00 3443.45 58.00
10317 63.9960 3277.00 3449.86 57.00
10318 64.0020 3269.00 3456.23 57.00
10319 64.0080 3378.00 3463.52 58.00
10320 64.0140 3387.00 3471.41 58.00
10321 64.0200 3457.00 3480.05 59.00
10322 64.0260 3470.00 3489.04 59.00
10323 64.0320 3380.00 3498.44 58.00
10324 64.0380 3426.00 3508.38 59.00
10325 64.0440 3437.00 3518.61 59.00
10326 64.0500 3500.00 3528.98 59.00
10327 64.0560 3631.00 3539.29 60.00
10328 64.0620 3523.00 3549.32 59.00
10329 64.0680 3516.00 3558.92 59.00
10330 64.0740 3537.00 3567.89 59.00
10331 64.0800 3429.00 3576.09 59.00
10332 64.0860 3582.00 3583.36 60.00
10333 64.0920 3547.00 3589.60 60.00
10334 64.0980 3592.00 3594.62 60.00
10335 64.1040 3445.00 3598.38 59.00
10336 64.1100 3480.00 3601.25 59.00
10337 64.1160 3619.00 3603.06 60.00
10338 64.1220 3552.00 3603.87 60.00
10339 64.1280 3566.00 3603.61 60.00
10340 64.1340 3564.00 3602.78 60.00
10341 64.1400 3549.00 3601.30 60.00
10342 64.1460 3423.00 3599.27 59.00
10343 64.1520 3413.00 3596.84 58.00
10344 64.1580 3489.00 3594.00 59.00
10345 64.1640 3532.00 3590.80 59.00
10346 64.1700 3458.00 3587.27 59.00
10347 64.1760 3532.00 3583.41 59.00
10348 64.1820 3450.00 3579.18 59.00
10349 64.1880 3565.00 3574.66 60.00
10350 64.1940 3523.00 3569.59 59.00
10351 64.2000 3481.00 3564.04 59.00
10352 64.2060 3463.00 3558.99 59.00
10353 64.2120 3404.00 3552.43 58.00
10354 64.2180 3361.00 3545.41 58.00
10355 64.2240 3352.00 3537.99 58.00
10356 64.2300 3389.00 3530.22 58.00
10357 64.2360 3408.00 3522.27 58.00
10358 64.2420 3375.00 3514.22 58.00
10359 64.2480 3338.00 3506.23 58.00
10360 64.2540 3458.00 3498.38 59.00
10361 64.2600 3412.00 3490.71 58.00
10362 64.2660 3323.00 3483.55 58.00
10363 64.2720 3429.00 3477.00 59.00
10364 64.2780 3462.00 3470.99 59.00
10365 64.2840 3369.00 3465.72 58.00
10366 64.2900 3420.00 3461.28 58.00
10367 64.2960 3356.00 3457.79 58.00
10368 64.3020 3490.00 3455.21 59.00
10369 64.3080 3443.00 3453.88 59.00
10370 64.3140 3336.00 3453.73 58.00
10371 64.3200 3331.00 3454.83 58.00
10372 64.3260 3426.00 3457.26 59.00
10373 64.3320 3382.00 3461.02 58.00
10374 64.3380 3432.00 3466.15 59.00
10375 64.3440 3411.00 3472.66 58.00
10376 64.3500 3392.00 3480.51 58.00
10377 64.3560 3414.00 3489.71 58.00
10378 64.3620 3384.00 3500.09 58.00
10379 64.3680 3391.00 3511.74 58.00
10380 64.3740 3451.00 3524.51 59.00
10381 64.3800 3471.00 3538.25 59.00
10382 64.3860 3455.00 3552.82 59.00
10383 64.3920 3462.00 3568.04 59.00
10384 64.3980 3505.00 3583.72 59.00
10385 64.4040 3472.00 3599.62 59.00
10386 64.4100 3450.00 3616.52 59.00
10387 64.4160 3584.00 3632.13 60.00
10388 64.4220 3652.00 3647.20 60.00
10389 64.4280 3630.00 3661.48 60.00
10390 64.4340 3560.00 3674.67 60.00
10391 64.4400 3552.00 3686.63 60.00
10392 64.4460 3605.00 3696.97 60.00
10393 64.4520 3512.00 3705.55 59.00
10394 64.4580 3567.00 3712.46 60.00
10395 64.4640 3554.00 3717.43 60.00
10396 64.4700 3608.00 3720.46 60.00
10397 64.4760 3573.00 3721.83 60.00
10398 64.4820 3565.00 3721.58 60.00
10399 64.4880 3577.00 3719.91 60.00
10400 64.4940 3583.00 3717.03 60.00
10401 64.5000 3491.00 3713.27 59.00
10402 64.5060 3501.00 3708.75 59.00
10403 64.5120 3476.00 3703.88 59.00
10404 64.5180 3526.00 3698.95 59.00
10405 64.5240 3478.00 3693.95 59.00
10406 64.5300 3541.00 3689.46 60.00
10407 64.5360 3516.00 3685.45 59.00
10408 64.5420 3526.00 3682.10 59.00
10409 64.5480 3490.00 3679.78 59.00
10410 64.5540 3457.00 3678.38 59.00
10411 64.5600 3510.00 3678.11 59.00
10412 64.5660 3504.00 3679.02 59.00
10413 64.5720 3540.00 3681.12 59.00
10414 64.5780 3553.00 3684.52 60.00
10415 64.5840 3506.00 3688.90 59.00
10416 64.5900 3675.00 3694.22 61.00
10417 64.5960 3667.00 3700.34 61.00
10418 64.6020 3681.00 3707.15 61.00
10419 64.6080 3762.00 3714.33 61.00
10420 64.6140 3724.00 3721.72 61.00
10421 64.6200 3617.00 3730.12 60.00
10422 64.6260 3717.00 3737.47 61.00
10423 64.6320 3714.00 3744.35 61.00
10424 64.6380 3707.00 3750.69 61.00
10425 64.6440 3712.00 3756.44 61.00
10426 64.6500 3659.00 3761.57 60.00
10427 64.6560 3627.00 3766.11 60.00
10428 64.6620 3654.00 3769.95 60.00
10429 64.6680 3651.00 3773.19 60.00
10430 64.6740 3587.00 3775.88 60.00
10431 64.6800 3619.00 3778.05 60.00
10432 64.6860 3730.00 3779.69 61.00
10433 64.6920 3733.00 3780.85 61.00
10434 64.6980 3630.00 3781.32 60.00
10435 64.7040 3552.00 3781.07 60.00
10436 64.7100 3568.00 3779.98 60.00
10437 64.7160 3625.00 3777.95 60.00
10438 64.7220 3686.00 3774.86 61.00
10439 64.7280 3555.00 3770.65 60.00
10440 64.7340 3506.00 3765.25 59.00
10441 64.7400 3604.00 3758.67 60.00
10442 64.7460 3570.00 3751.06 60.00
10443 64.7520 3581.00 3742.27 60.00
10444 64.7580 3584.00 3732.46 60.00
10445 64.7640 3547.00 3722.00 60.00
10446 64.7700 3590.00 3710.74 60.00
10447 64.7760 3599.00 3698.55 60.00
10448 64.7820 3567.00 3685.91 60.00
10449 64.7880 3532.00 3672.55 59.00
10450 64.7940 3457.00 3658.89 59.00
10451 64.8000 3501.00 3645.00 59.00
10452 64.8060 3551.00 3630.78 60.00
10453 64.8120 3573.00 3616.29 60.00
10454 64.8180 3555.00 3601.79 60.00
10455 64.8240 3514.00 3587.27 59.00
10456 64.8300 3506.00 3574.12 59.00
10457 64.8360 3505.00 3560.02 59.00
10458 64.8420 3479.00 3546.23 59.00
10459 64.8480 3480.00 3532.90 59.00
10460 64.8540 3509.00 3520.04 59.00
10461 64.8600 3513.00 3507.78 59.00
10462 64.8660 3491.00 3496.33 59.00
10463 64.8720 3478.00 3485.67 59.00
10464 64.8780 3467.00 3475.85 59.00
10465 64.8840 3455.00 3466.86 59.00
10466 64.8900 3430.00 3458.54 59.00
10467 64.8960 3361.00 3451.52 58.00
10468 64.9020 3426.00 3445.38 59.00
10469 64.9080 3445.00 3440.25 59.00
10470 64.9140 3376.00 3435.84 58.00
10471 64.9200 3312.00 3432.48 58.00
10472 64.9260 3274.00 3429.99 57.00
10473 64.9320 3331.00 3428.40 58.00
10474 64.9380 3424.00 3427.49 59.00
10475 64.9440 3385.00 3427.19 58.00
10476 64.9500 3339.00 3427.66 58.00
10477 64.9560 3362.00 3428.50 58.00
10478 64.9620 3381.00 3429.71 58.00
10479 64.9680 3401.00 3431.19 58.00
10480 64.9740 3338.00 3432.85 58.00
10481 64.9800 3321.00 3434.49 58.00
10482 64.9860 3323.00 3435.98 58.00
10483 64.9920 3440.00 3437.62 59.00
10484 64.9980 3436.00 3438.99 59.00
10485 65.0040 3375.00 3440.00 58.00
10486 65.0100 3420.00 3441.04 58.00
10487 65.0160 3371.00 3441.47 58.00
10488 65.0220 3371.00 3441.65 58.00
10489 65.0280 3321.00 3441.11 58.00
10490 65.0340 3270.00 3441.01 57.00
10491 65.0400 3304.00 3439.33 57.00
10492 65.0460 3315.00 3437.07 58.00
10493 65.0520 3254.00 3434.23 57.00
10494 65.0580 3294.00 3430.84 57.00
10495 65.0640 3295.00 3427.14 57.00
10496 65.0700 3252.00 3423.07 57.00
10497 65.0760 3309.00 3418.41 58.00
10498 65.0820 3335.00 3413.45 58.00
10499 65.0880 3323.00 3408.31 58.00
10500 65.0940 3339.00 3403.04 58.00
10501 65.1000 3245.00 3397.71 57.00
10502 65.1060 3298.00 3392.46 57.00
10503 65.1120 3271.00 3387.36 57.00
10504 65.1180 3248.00 3382.46 57.00
10505 65.1240 3193.00 3377.85 57.00
10506 65.1300 3248.00 3373.52 57.00
10507 65.1360 3120.00 3369.68 56.00
10508 65.1420 3125.00 3366.48 56.00
10509 65.1480 3164.00 3363.64 56.00
10510 65.1540 3152.00 3361.65 56.00
10511 65.1600 3210.00 3360.02 57.00
10512 65.1660 3222.00 3359.07 57.00
10513 65.1720 3129.00 3358.81 56.00
10514 65.1780 3163.00 3359.30 56.00
10515 65.1840 3228.00 3360.56 57.00
10516 65.1900 3196.00 3362.47 57.00
10517 65.1960 3246.00 3365.38 57.00
10518 65.2020 3322.00 3369.17 58.00
10519 65.2080 3245.00 3373.84 57.00
10520 65.2140 3329.00 3379.43 58.00
10521 65.2200 3340.00 3385.97 58.00
10522 65.2260 3229.00 3393.38 57.00
10523 65.2320 3198.00 3400.78 57.00
10524 65.2380 3214.00 3409.86 57.00
10525 65.2440 3243.00 3419.05 57.00
10526 65.2500 3289.00 3430.07 57.00
10527 65.2560 3328.00 3440.90 58.00
10528 65.2620 3362.00 3453.35 58.00
10529 65.2680 3363.00 3465.33 58.00
10530 65.2740 3387.00 3478.66 58.00
10531 65.2800 3454.00 3491.32 59.00
10532 65.2860 3470.00 3505.09 59.00
10533 65.2920 3403.00 3517.83 58.00
10534 65.2980 3384.00 3530.23 58.00
10535 65.3040 3374.00 3543.21 58.00
10536 65.3100 3437.00 3554.41 59.00
10537 65.3160 3498.00 3566.14 59.00
10538 65.3220 3460.00 3575.93 59.00
10539 65.3280 3374.00 3585.83 58.00
10540 65.3340 3329.00 3593.78 58.00
10541 65.3400 3410.00 3601.80 58.00
10542 65.3460 3503.00 3607.92 59.00
10543 65.3520 3398.00 3614.19 58.00
10544 65.3580 3345.00 3618.69 58.00
10545 65.3640 3425.00 3622.51 59.00
10546 65.3700 3460.00 3626.81 59.00
10547 65.3760 3444.00 3629.57 59.00
10548 65.3820 3518.00 3632.86 59.00
10549 65.3880 3529.00 3634.94 59.00
10550 65.3940 3491.00 3637.81 59.00
10551 65.4000 3523.00 3639.55 59.00
10552 65.4060 3439.00 3642.26 59.00
10553 65.4120 3446.00 3643.89 59.00
10554 65.4180 3522.00 3646.51 59.00
10555 65.4240 3508.00 3648.10 59.00
10556 65.4300 3522.00 3649.65 59.00
10557 65.4360 3575.00 3652.17 60.00
10558 65.4420 3588.00 3653.45 60.00
10559 65.4480 3605.00 3655.38 60.00
10560 65.4540 3561.00 3656.00 60.00
10561 65.4600 3609.00 3657.14 60.00
10562 65.4660 3628.00 3656.63 60.00
10563 65.4720 3681.00 3656.39 61.00
10564 65.4780 3661.00 3654.29 61.00
10565 65.4840 3611.00 3652.24 60.00
10566 65.4900 3632.00 3648.17 60.00
10567 65.4960 3685.00 3643.01 61.00
10568 65.5020 3720.00 3637.67 61.00
10569 65.5080 3630.00 3630.28 60.00
10570 65.5140 3535.00 3622.81 59.00
10571 65.5200 3548.00 3613.26 60.00
10572 65.5260 3566.00 3603.83 60.00
10573 65.5320 3510.00 3592.45 59.00
10574 65.5380 3438.00 3581.53 59.00
10575 65.5440 3551.00 3568.98 60.00
10576 65.5500 3530.00 3557.28 59.00
10577 65.5560 3485.00 3544.30 59.00
10578 65.5620 3432.00 3531.44 59.00
10579 65.5680 3376.00 3519.83 58.00
10580 65.5740 3390.00 3507.57 58.00
10581 65.5800 3430.00 3496.72 59.00
10582 65.5860 3394.00 3485.50 58.00
10583 65.5920 3362.00 3475.81 58.00
10584 65.5980 3342.00 3465.75 58.00
10585 65.6040 3353.00 3457.19 58.00
10586 65.6100 3383.00 3448.25 58.00
10587 65.6160 3398.00 3440.80 58.00
10588 65.6220 3381.00 3432.76 58.00
10589 65.6280 3301.00 3425.05 57.00
10590 65.6340 3357.00 3418.59 58.00
10591 65.6400 3388.00 3411.26 58.00
10592 65.6460 3408.00 3405.10 58.00
10593 65.6520 3336.00 3397.97 58.00
10594 65.6580 3300.00 3391.95 57.00
10595 65.6640 3333.00 3384.85 58.00
10596 65.6700 3300.00 3378.98 57.00
10597 65.6760 3281.00 3372.14 57.00
10598 65.6820 3269.00 3365.40 57.00
10599 65.6880 3250.00 3359.76 57.00
10600 65.6940 3194.00 3353.33 57.00
10601 65.7000 3224.00 3347.98 57.00
10602 65.7060 3220.00 3341.75 57.00
10603 65.7120 3310.00 3336.76 58.00
10604 65.7180 3228.00 3330.90 57.00
10605 65.7240 3313.00 3326.20 58.00
10606 65.7300 3239.00 3320.65 57.00
10607 65.7360 3178.00 3316.21 56.00
10608 65.7420 3200.00 3310.95 57.00
10609 65.7480 3302.00 3305.83 57.00
10610 65.7540 3350.00 3301.96 58.00
10611 65.7600 3277.00 3297.29 57.00
10612 65.7660 3212.00 3293.76 57.00
10613 65.7720 3160.00 3289.50 56.00
10614 65.7780 3225.00 3286.57 57.00
10615 65.7840 3273.00 3283.15 57.00
10616 65.7900 3237.00 3281.07 57.00
10617 65.7960 3222.00 3278.53 57.00
10618 65.8020 3188.00 3277.60 56.00
10619 65.8080 3184.00 3276.32 56.00
10620 65.8140 3229.00 3275.75 57.00
10621 65.8200 3245.00 3277.16 57.00
10622 65.8260 3240.00 3278.18 57.00
10623 65.8320 3207.00 3281.16 57.00
10624 65.8380 3241.00 3283.91 57.00
10625 65.8440 3277.00 3288.60 57.00
10626 65.8500 3286.00 3293.21 57.00
10627 65.8560 3201.00 3299.69 57.00
10628 65.8620 3305.00 3306.44 57.00
10629 65.8680 3342.00 3314.93 58.00
10630 65.8740 3337.00 3323.38 58.00
10631 65.8800 3267.00 3332.75 57.00
10632 65.8860 3335.00 3344.07 58.00
10633 65.8920 3283.00 3354.94 57.00
10634 65.8980 3363.00 3367.87 58.00
10635 65.9040 3380.00 3380.50 58.00
10636 65.9100 3281.00 3394.78 57.00
10637 65.9160 3213.00 3408.18 57.00
10638 65.9220 3233.00 3423.50 57.00
10639 65.9280 3246.00 3438.18 57.00
10640 65.9340 3366.00 3454.06 58.00
10641 65.9400 3322.00 3468.85 58.00
10642 65.9460 3372.00 3483.70 58.00
10643 65.9520 3449.00 3499.44 59.00
10644 65.9580 3468.00 3513.72 59.00
10645 65.9640 3420.00 3528.74 58.00
10646 65.9700 3376.00 3542.27 58.00
10647 65.9760 3539.00 3556.10 59.00
10648 65.9820 3442.00 3568.12 59.00
10649 65.9880 3502.00 3580.09 59.00
10650 65.9940 3452.00 3590.08 59.00
10651 66.0000 3463.00 3599.86 59.00
10652 66.0060 3396.00 3607.34 58.00
10653 66.0120 3554.00 3613.45 60.00
10654 66.0180 3425.00 3619.15 59.00
10655 66.0240 3392.00 3622.44 58.00
10656 66.0300 3463.00 3625.38 59.00
10657 66.0360 3505.00 3626.20 59.00
10658 66.0420 3529.00 3626.67 59.00
10659 66.0480 3467.00 3625.09 59.00
10660 66.0540 3542.00 3623.57 60.00
10661 66.0600 3444.00 3620.26 59.00
10662 66.0660 3409.00 3616.22 58.00
10663 66.0720 3515.00 3612.77 59.00
10664 66.0780 3467.00 3607.78 59.00
10665 66.0840 3480.00 3603.75 59.00
10666 66.0900 3431.00 3598.53 59.00
10667 66.0960 3350.00 3594.27 58.00
10668 66.1020 3342.00 3588.86 58.00
10669 66.1080 3380.00 3584.93 58.00
10670 66.1140 3445.00 3580.02 59.00
10671 66.1200 3435.00 3576.60 59.00
10672 66.1260 3434.00 3572.67 59.00
10673 66.1320 3370.00 3569.27 58.00
10674 66.1380 3253.00 3567.38 57.00
10675 66.1440 3379.00 3565.17 58.00
10676 66.1500 3383.00 3564.82 58.00
10677 66.1560 3371.00 3564.20 58.00
10678 66.1620 3245.00 3565.47 57.00
10679 66.1680 3287.00 3566.73 57.00
10680 66.1740 3351.00 3569.73 58.00
10681 66.1800 3320.00 3572.85 58.00
10682 66.1860 3296.00 3577.55 57.00
10683 66.1920 3226.00 3582.52 57.00
10684 66.1980 3270.00 3588.39 57.00
10685 66.2040 3320.00 3595.92 58.00
10686 66.2100 3386.00 3603.04 58.00
10687 66.2160 3387.00 3611.61 58.00
10688 66.2220 3360.00 3619.35 58.00
10689 66.2280 3428.00 3628.19 59.00
10690 66.2340 3506.00 3635.74 59.00
10691 66.2400 3383.00 3643.93 58.00
10692 66.2460 3508.00 3650.44 59.00
10693 66.2520 3505.00 3657.10 59.00
10694 66.2580 3502.00 3661.57 59.00
10695 66.2640 3409.00 3664.78 58.00
10696 66.2700 3388.00 3667.54 58.00
10697 66.2760 3505.00 3667.96 59.00
10698 66.2820 3415.00 3668.04 58.00
10699 66.2880 3494.00 3665.81 59.00
10700 66.2940 3526.00 3663.37 59.00
10701 66.3000 3435.00 3658.80 59.00
10702 66.3060 3305.00 3654.40 57.00
10703 66.3120 3322.00 3648.29 58.00
10704 66.3180 3331.00 3642.65 58.00
10705 66.3240 3296.00 3635.73 57.00
10706 66.3300 3571.00 3628.63 60.00
10707 66.3360 3413.00 3622.61 58.00
10708 66.3420 3429.00 3615.83 59.00
10709 66.3480 3403.00 3610.48 58.00
10710 66.3540 3464.00 3604.68 59.00
10711 66.3600 3337.00 3600.66 58.00
10712 66.3660 3336.00 3596.39 58.00
10713 66.3720 3417.00 3594.00 58.00
10714 66.3780 3396.00 3591.53 58.00
10715 66.3840 3472.00 3591.01 59.00
10716 66.3900 3268.00 3590.42 57.00
10717 66.3960 3514.00 3590.75 59.00
10718 66.4020 3445.00 3593.01 59.00
10719 66.4080 3538.00 3595.04 59.00
10720 66.4140 3502.00 3598.84 59.00
10721 66.4200 3577.00 3602.33 60.00
10722 66.4260 3437.00 3607.45 59.00
10723 66.4320 3461.00 3612.11 59.00
10724 66.4380 3554.00 3618.14 60.00
10725 66.4440 3550.00 3623.58 60.00
10726 66.4500 3596.00 3629.17 60.00
10727 66.4560 3599.00 3635.99 60.00
10728 66.4620 3670.00 3641.78 61.00
10729 66.4680 3582.00 3648.47 60.00
10730 66.4740 3607.00 3653.88 60.00
10731 66.4800 3554.00 3659.91 60.00
10732 66.4860 3525.00 3664.40 59.00
10733 66.4920 3454.00 3669.29 59.00
10734 66.4980 3535.00 3672.36 59.00
10735 66.5040 3649.00 3675.46 60.00
10736 66.5100 3541.00 3676.74 60.00
10737 66.5160 3588.00 3676.94 60.00
10738 66.5220 3527.00 3677.05 59.00
10739 66.5280 3550.00 3675.03 60.00
10740 66.5340 3594.00 3672.82 60.00
10741 66.5400 3637.00 3668.53 60.00
10742 66.5460 3749.00 3664.14 61.00
10743 66.5520 3570.00 3657.67 60.00
10744 66.5580 3554.00 3651.17 60.00
10745 66.5640 3598.00 3642.74 60.00
10746 66.5700 3609.00 3634.45 60.00
10747 66.5760 3609.00 3624.30 60.00
10748 66.5820 3495.00 3613.56 59.00
10749 66.5880 3469.00 3603.24 59.00
10750 66.5940 3562.00 3591.48 60.00
10751 66.6000 3553.00 3580.42 60.00
10752 66.6060 3553.00 3568.13 60.00
10753 66.6120 3476.00 3556.76 59.00
10754 66.6180 3442.00 3544.28 59.00
10755 66.6240 3542.00 3532.93 60.00
10756 66.6300 3392.00 3520.29 58.00
10757 66.6360 3369.00 3508.60 58.00
10758 66.6420 3278.00 3495.77 57.00
10759 66.6480 3311.00 3482.77 58.00
10760 66.6540 3384.00 3470.77 58.00
10761 66.6600 3342.00 3457.37 58.00
10762 66.6660 3328.00 3444.77 58.00
10763 66.6720 3342.00 3431.07 58.00
10764 66.6780 3315.00 3418.30 58.00
10765 66.6840 3286.00 3404.59 57.00
10766 66.6900 3272.00 3392.02 57.00
10767 66.6960 3323.00 3378.74 58.00
10768 66.7020 3270.00 3366.81 57.00
10769 66.7080 3390.00 3354.39 58.00
10770 66.7140 3450.00 3342.49 59.00
10771 66.7200 3314.00 3332.18 58.00
10772 66.7260 3357.00 3321.51 58.00
10773 66.7320 3278.00 3312.50 57.00
10774 66.7380 3282.00 3303.15 57.00
10775 66.7440 3268.00 3295.44 57.00
10776 66.7500 3236.00 3287.34 57.00
10777 66.7560 3338.00 3280.82 58.00
10778 66.7620 3330.00 3273.81 58.00
10779 66.7680 3304.00 3268.41 57.00
10780 66.7740 3257.00 3262.31 57.00
10781 66.7800 3302.00 3256.44 57.00
10782 66.7860 3253.00 3252.04 57.00
10783 66.7920 3203.00 3246.82 57.00
10784 66.7980 3213.00 3242.91 57.00
10785 66.8040 3243.00 3238.16 57.00
10786 66.8100 3160.00 3234.44 56.00
10787 66.8160 3124.00 3229.80 56.00
10788 66.8220 3151.00 3226.35 56.00
10789 66.8280 3159.00 3221.88 56.00
10790 66.8340 3119.00 3217.53 56.00
10791 66.8400 3127.00 3214.36 56.00
10792 66.8460 3081.00 3209.93 56.00
10793 66.8520 3022.00 3206.37 55.00
10794 66.8580 3080.00 3202.05 55.00
10795 66.8640 3145.00 3198.91 56.00
10796 66.8700 3173.00 3194.62 56.00
10797 66.8760 3183.00 3191.38 56.00
10798 66.8820 3093.00 3187.12 56.00
10799 66.8880 3141.00 3183.99 56.00
10800 66.8940 3135.00 3179.89 56.00
10801 66.9000 3181.00 3175.80 56.00
10802 66.9060 3133.00 3172.94 56.00
10803 66.9120 3110.00 3168.95 56.00
10804 66.9180 3114.00 3165.93 56.00
10805 66.9240 3111.00 3161.98 56.00
10806 66.9300 3092.00 3159.04 56.00
10807 66.9360 3125.00 3155.02 56.00
10808 66.9420 3061.00 3151.98 55.00
10809 66.9480 3104.00 3147.97 56.00
10810 66.9540 3137.00 3144.94 56.00
10811 66.9600 3072.00 3140.98 55.00
10812 66.9660 3040.00 3136.88 55.00
10813 66.9720 3057.00 3134.06 55.00
10814 66.9780 3009.00 3130.22 55.00
10815 66.9840 3015.00 3127.49 55.00
10816 66.9900 3062.00 3124.02 55.00
10817 66.9960 2981.00 3121.62 55.00
10818 67.0020 3008.00 3118.37 55.00
10819 67.0080 3023.00 3116.39 55.00
10820 67.0140 3040.00 3113.40 55.00
10821 67.0200 3021.00 3112.02 55.00
10822 67.0260 3037.00 3109.82 55.00
10823 67.0320 3085.00 3107.92 56.00
10824 67.0380 3026.00 3107.37 55.00
10825 67.0440 3035.00 3106.03 55.00
10826 67.0500 3078.00 3106.05 55.00
10827 67.0560 3072.00 3105.35 55.00
10828 67.0620 3029.00 3105.83 55.00
10829 67.0680 3015.00 3105.58 55.00
10830 67.0740 3021.00 3106.59 55.00
10831 67.0800 2990.00 3106.85 55.00
10832 67.0860 3010.00 3108.38 55.00
10833 67.0920 3038.00 3109.19 55.00
10834 67.0980 3116.00 3110.27 56.00
10835 67.1040 3179.00 3112.76 56.00
10836 67.1100 3162.00 3114.48 56.00
10837 67.1160 3108.00 3117.50 56.00
10838 67.1220 3065.00 3119.83 55.00
10839 67.1280 3045.00 3123.69 55.00
10840 67.1340 3117.00 3127.00 56.00
10841 67.1400 3133.00 3131.78 56.00
10842 67.1460 3163.00 3136.12 56.00
10843 67.1520 3118.00 3141.80 56.00
10844 67.1580 3088.00 3148.25 56.00
10845 67.1640 3145.00 3155.12 56.00
10846 67.1700 3176.00 3162.53 56.00
10847 67.1760 3122.00 3170.48 56.00
10848 67.1820 3204.00 3178.91 57.00
10849 67.1880 3247.00 3187.83 57.00
10850 67.1940 3233.00 3197.16 57.00
10851 67.2000 3300.00 3206.88 57.00
10852 67.2060 3275.00 3216.95 57.00
10853 67.2120 3270.00 3227.28 57.00
10854 67.2180 3267.00 3237.81 57.00
10855 67.2240 3240.00 3248.53 57.00
10856 67.2300 3187.00 3259.44 56.00
10857 67.2360 3173.00 3270.34 56.00
10858 67.2420 3279.00 3281.17 57.00
10859 67.2480 3303.00 3291.09 57.00
10860 67.2540 3363.00 3301.95 58.00
10861 67.2600 3431.00 3312.68 59.00
10862 67.2660 3399.00 3323.23 58.00
10863 67.2720 3388.00 3333.57 58.00
10864 67.2780 3399.00 3343.62 58.00
10865 67.2840 3352.00 3353.34 58.00
10866 67.2900 3369.00 3362.68 58.00
10867 67.2960 3436.00 3371.62 59.00
10868 67.3020 3354.00 3380.01 58.00
10869 67.3080 3331.00 3387.85 58.00
10870 67.3140 3339.00 3395.16 58.00
10871 67.3200 3368.00 3401.75 58.00
10872 67.3260 3354.00 3407.66 58.00
10873 67.3320 3387.00 3412.83 58.00
10874 67.3380 3430.00 3417.25 59.00
10875 67.3440 3405.00 3420.79 58.00
10876 67.3500 3468.00 3423.47 59.00
10877 67.3560 3519.00 3425.25 59.00
10878 67.3620 3452.00 3426.13 59.00
10879 67.3680 3381.00 3426.15 58.00
10880 67.3740 3362.00 3425.27 58.00
10881 67.3800 3445.00 3423.51 59.00
10882 67.3860 3438.00 3420.93 59.00
10883 67.3920 3402.00 3417.60 58.00
10884 67.3980 3428.00 3412.57 59.00
10885 67.4040 3420.00 3407.95 58.00
10886 67.4100 3484.00 3402.81 59.00
10887 67.4160 3454.00 3397.17 59.00
10888 67.4220 3353.00 3391.05 58.00
10889 67.4280 3406.00 3384.70 58.00
10890 67.4340 3479.00 3378.09 59.00
10891 67.4400 3481.00 3371.22 59.00
10892 67.4460 3413.00 3364.30 58.00
10893 67.4520 3410.00 3357.29 58.00
10894 67.4580 3466.00 3350.22 59.00
10895 67.4640 3441.00 3343.29 59.00
10896 67.4700 3420.00 3336.50 58.00
10897 67.4760 3385.00 3329.95 58.00
10898 67.4820 3338.00 3323.68 58.00
10899 67.4880 3366.00 3317.90 58.00
10900 67.4940 3365.00 3312.58 58.00
10901 67.5000 3323.00 3307.78 58.00
10902 67.5060 3298.00 3303.83 57.00
10903 67.5120 3344.00 3300.50 58.00
10904 67.5180 3411.00 3298.07 58.00
10905 67.5240 3335.00 3296.36 58.00
10906 67.5300 3305.00 3295.54 57.00
10907 67.5360 3292.00 3295.37 57.00
10908 67.5420 3295.00 3296.06 57.00
10909 67.5480 3311.00 3296.43 58.00
10910 67.5540 3368.00 3298.42 58.00
10911 67.5600 3342.00 3300.97 58.00
10912 67.5660 3290.00 3303.84 57.00
10913 67.5720 3352.00 3307.22 58.00
10914 67.5780 3346.00 3310.96 58.00
10915 67.5840 3383.00 3315.06 58.00
10916 67.5900 3398.00 3319.18 58.00
10917 67.5960 3346.00 3323.47 58.00
10918 67.6020 3366.00 3327.80 58.00
10919 67.6080 3412.00 3332.11 58.00
10920 67.6140 3364.00 3336.22 58.00
10921 67.6200 3363.00 3340.10 58.00
10922 67.6260 3381.00 3343.82 58.00
10923 67.6320 3374.00 3347.18 58.00
10924 67.6380 3364.00 3350.21 58.00
10925 67.6440 3423.00 3352.54 59.00
10926 67.6500 3404.00 3354.39 58.00
10927 67.6560 3397.00 3355.61 58.00
10928 67.6620 3399.00 3356.19 58.00
10929 67.6680 3345.00 3356.08 58.00
10930 67.6740 3401.00 3355.29 58.00
10931 67.6800 3433.00 3353.84 59.00
10932 67.6860 3361.00 3351.66 58.00
10933 67.6920 3367.00 3349.00 58.00
10934 67.6980 3335.00 3344.76 58.00
10935 67.7040 3308.00 3340.99 58.00
10936 67.7100 3303.00 3336.78 57.00
10937 67.7160 3269.00 3332.18 57.00
10938 67.7220 3294.00 3327.34 57.00
10939 67.7280 3363.00 3322.27 58.00
10940 67.7340 3335.00 3316.91 58.00
10941 67.7400 3262.00 3311.48 57.00
10942 67.7460 3213.00 3305.75 57.00
10943 67.7520 3267.00 3300.07 57.00
10944 67.7580 3356.00 3294.12 58.00
10945 67.7640 3320.00 3288.39 58.00
10946 67.7700 3287.00 3282.45 57.00
10947 67.7760 3265.00 3276.80 57.00
10948 67.7820 3218.00 3271.03 57.00
10949 67.7880 3224.00 3265.40 57.00
10950 67.7940 3219.00 3260.00 57.00
10951 67.8000 3118.00 3254.35 56.00
10952 67.8060 3142.00 3248.92 56.00
10953 67.8120 3194.00 3243.59 57.00
10954 67.8180 3151.00 3238.35 56.00
10955 67.8240 3166.00 3233.25 56.00
10956 67.8300 3252.00 3228.18 57.00
10957 67.8360 3238.00 3223.41 57.00
10958 67.8420 3119.00 3218.82 56.00
10959 67.8480 3110.00 3214.43 56.00
10960 67.8540 3151.00 3209.24 56.00
10961 67.8600 3233.00 3205.24 57.00
10962 67.8660 3151.00 3201.42 56.00
10963 67.8720 3133.00 3197.79 56.00
10964 67.8780 3213.00 3194.31 57.00
10965 67.8840 3172.00 3191.17 56.00
10966 67.8900 3079.00 3187.91 55.00
10967 67.8960 3093.00 3184.84 56.00
10968 67.9020 3067.00 3182.00 55.00
10969 67.9080 3053.00 3179.11 55.00
10970 67.9140 3072.00 3176.40 55.00
10971 67.9200 3137.00 3173.94 56.00
10972 67.9260 3085.00 3171.53 56.00
10973 67.9320 3121.00 3169.37 56.00
10974 67.9380 3117.00 3167.34 56.00
10975 67.9440 3098.00 3165.48 56.00
10976 67.9500 3041.00 3163.95 55.00
10977 67.9560 3107.00 3162.73 56.00
10978 67.9620 2994.00 3161.73 55.00
10979 67.9680 3070.00 3161.21 55.00
10980 67.9740 3086.00 3161.09 56.00
10981 67.9800 3090.00 3161.30 56.00
10982 67.9860 3029.00 3162.03 55.00
10983 67.9920 3049.00 3163.21 55.00
10984 67.9980 3139.00 3164.72 56.00
10985 68.0040 3137.00 3165.75 56.00
10986 68.0100 3097.00 3168.25 56.00
10987 68.0160 3131.00 3171.15 56.00
10988 68.0220 3050.00 3174.23 55.00
10989 68.0280 3160.00 3177.85 56.00
10990 68.0340 3123.00 3181.78 56.00
10991 68.0400 3097.00 3185.79 56.00
10992 68.0460 3073.00 3190.25 55.00
10993 68.0520 3128.00 3194.95 56.00
10994 68.0580 3142.00 3199.84 56.00
10995 68.0640 3082.00 3204.92 56.00
10996 68.0700 2972.00 3210.24 55.00
10997 68.0760 3046.00 3215.50 55.00
10998 68.0820 3101.00 3221.09 56.00
10999 68.0880 3160.00 3226.66 56.00
11000 68.0940 3220.00 3232.56 57.00
11001 68.1000 3257.00 3238.58 57.00
11002 68.1060 3278.00 3244.72 57.00
11003 68.1120 3192.00 3250.93 56.00
11004 68.1180 3170.00 3257.18 56.00
11005 68.1240 3180.00 3263.43 56.00
11006 68.1300 3235.00 3269.66 57.00
11007 68.1360 3217.00 3275.79 57.00
11008 68.1420 3173.00 3281.64 56.00
11009 68.1480 3144.00 3287.24 56.00
11010 68.1540 3185.00 3291.53 56.00
11011 68.1600 3158.00 3296.20 56.00
11012 68.1660 3236.00 3300.57 57.00
11013 68.1720 3242.00 3304.38 57.00
11014 68.1780 3193.00 3307.38 57.00
11015 68.1840 3242.00 3310.06 57.00
11016 68.1900 3320.00 3312.19 58.00
11017 68.1960 3224.00 3313.83 57.00
11018 68.2020 3211.00 3315.01 57.00
11019 68.2080 3285.00 3315.84 57.00
11020 68.2140 3188.00 3316.44 56.00
11021 68.2200 3163.00 3316.93 56.00
11022 68.2260 3184.00 3317.47 56.00
11023 68.2320 3221.00 3318.18 57.00
11024 68.2380 3256.00 3319.26 57.00
11025 68.2440 3294.00 3320.87 57.00
11026 68.2500 3237.00 3322.96 57.00
11027 68.2560 3234.00 3325.76 57.00
11028 68.2620 3285.00 3329.51 57.00
11029 68.2680 3221.00 3334.05 57.00
11030 68.2740 3261.00 3339.59 57.00
11031 68.2800 3371.00 3346.14 58.00
11032 68.2860 3411.00 3353.84 58.00
11033 68.2920 3307.00 3362.66 58.00
11034 68.2980 3368.00 3372.61 58.00
11035 68.3040 3347.00 3382.71 58.00
11036 68.3100 3345.00 3395.01 58.00
11037 68.3160 3323.00 3408.31 58.00
11038 68.3220 3429.00 3422.52 59.00
11039 68.3280 3351.00 3437.76 58.00
11040 68.3340 3490.00 3453.83 59.00
11041 68.3400 3435.00 3470.67 59.00
11042 68.3460 3559.00 3488.14 60.00
11043 68.3520 3440.00 3506.19 59.00
11044 68.3580 3532.00 3524.54 59.00
11045 68.3640 3394.00 3543.15 58.00
11046 68.3700 3458.00 3561.68 59.00
11047 68.3760 3603.00 3579.99 60.00
11048 68.3820 3576.00 3597.96 60.00
11049 68.3880 3514.00 3615.30 59.00
11050 68.3940 3486.00 3631.90 59.00
11051 68.4000 3500.00 3647.65 59.00
11052 68.4060 3503.00 3662.32 59.00
11053 68.4120 3574.00 3675.98 60.00
11054 68.4180 3598.00 3688.51 60.00
11055 68.4240 3598.00 3699.91 60.00
11056 68.4300 3544.00 3710.07 60.00
11057 68.4360 3638.00 3719.03 60.00
11058 68.4420 3660.00 3726.75 60.00
11059 68.4480 3637.00 3733.31 60.00
11060 68.4540 3657.00 3737.64 60.00
11061 68.4600 3577.00 3741.72 60.00
11062 68.4660 3549.00 3744.53 60.00
11063 68.4720 3670.00 3746.00 61.00
11064 68.4780 3584.00 3746.04 60.00
11065 68.4840 3585.00 3744.78 60.00
11066 68.4900 3486.00 3742.11 59.00
11067 68.4960 3478.00 3738.04 59.00
11068 68.5020 3598.00 3732.59 60.00
11069 68.5080 3509.00 3725.83 59.00
11070 68.5140 3575.00 3717.79 60.00
11071 68.5200 3562.00 3708.54 60.00
11072 68.5260 3475.00 3698.17 59.00
11073 68.5320 3494.00 3686.76 59.00
11074 68.5380 3511.00 3674.39 59.00
11075 68.5440 3448.00 3661.22 59.00
11076 68.5500 3447.00 3647.32 59.00
11077 68.5560 3525.00 3632.90 59.00
11078 68.5620 3538.00 3617.96 59.00
11079 68.5680 3559.00 3602.64 60.00
11080 68.5740 3309.00 3587.10 58.00
11081 68.5800 3428.00 3571.39 59.00
11082 68.5860 3416.00 3555.65 58.00
11083 68.5920 3361.00 3539.91 58.00
11084 68.5980 3430.00 3524.29 59.00
11085 68.6040 3475.00 3508.80 59.00
11086 68.6100 3437.00 3492.50 59.00
11087 68.6160 3397.00 3477.52 58.00
11088 68.6220 3376.00 3462.86 58.00
11089 68.6280 3323.00 3448.47 58.00
11090 68.6340 3475.00 3434.41 59.00
11091 68.6400 3430.00 3420.82 59.00
11092 68.6460 3286.00 3407.67 57.00
11093 68.6520 3368.00 3395.09 58.00
11094 68.6580 3386.00 3382.90 58.00
11095 68.6640 3367.00 3371.26 58.00
11096 68.6700 3331.00 3360.04 58.00
11097 68.6760 3243.00 3349.27 57.00
11098 68.6820 3319.00 3338.97 58.00
11099 68.6880 3318.00 3329.14 58.00
11100 68.6940 3344.00 3319.64 58.00
11101 68.7000 3338.00 3310.50 58.00
11102 68.7060 3282.00 3301.68 57.00
11103 68.7120 3277.00 3293.17 57.00
11104 68.7180 3291.00 3284.94 57.00
11105 68.7240 3175.00 3277.04 56.00
11106 68.7300 3299.00 3269.34 57.00
11107 68.7360 3292.00 3262.01 57.00
11108 68.7420 3171.00 3254.88 56.00
11109 68.7480 3201.00 3247.96 57.00
11110 68.7540 3119.00 3241.60 56.00
11111 68.7600 3214.00 3234.46 57.00
11112 68.7660 3264.00 3228.63 57.00
11113 68.7720 3216.00 3223.26 57.00
11114 68.7780 3206.00 3218.31 57.00
11115 68.7840 3182.00 3213.95 56.00
11116 68.7900 3183.00 3209.79 56.00
11117 68.7960 3201.00 3206.02 57.00
11118 68.8020 3192.00 3202.62 56.00
11119 68.8080 3175.00 3199.57 56.00
11120 68.8140 3107.00 3196.78 56.00
11121 68.8200 3062.00 3194.27 55.00
11122 68.8260 3186.00 3192.27 56.00
11123 68.8320 3089.00 3190.43 56.00
11124 68.8380 3158.00 3188.64 56.00
11125 68.8440 3095.00 3187.27 56.00
11126 68.8500 3056.00 3185.89 55.00
11127 68.8560 3103.00 3184.60 56.00
11128 68.8620 3170.00 3183.41 56.00
11129 68.8680 3193.00 3182.24 57.00
11130 68.8740 3155.00 3180.99 56.00
11131 68.8800 3113.00 3179.47 56.00
11132 68.8860 3088.00 3178.20 56.00
11133 68.8920 3084.00 3176.61 56.00
11134 68.8980 3005.00 3174.93 55.00
11135 68.9040 3052.00 3173.14 55.00
11136 68.9100 3139.00 3170.22 56.00
11137 68.9160 3108.00 3168.16 56.00
11138 68.9220 3082.00 3165.94 56.00
11139 68.9280 3019.00 3163.36 55.00
11140 68.9340 2933.00 3160.86 54.00
11141 68.9400 3102.00 3158.21 56.00
11142 68.9460 3138.00 3155.44 56.00
11143 68.9520 3092.00 3152.51 56.00
11144 68.9580 3070.00 3149.50 55.00
11145 68.9640 3023.00 3146.41 55.00
11146 68.9700 3087.00 3143.24 56.00
11147 68.9760 3025.00 3140.02 55.00
11148 68.9820 3060.00 3136.81 55.00
11149 68.9880 3145.00 3133.53 56.00
11150 68.9940 3123.00 3130.32 56.00
11151 69.0000 3086.00 3127.15 56.00
11152 69.0060 3031.00 3124.22 55.00
11153 69.0120 3032.00 3121.43 55.00
11154 69.0180 3098.00 3118.87 56.00
11155 69.0240 3010.00 3116.58 55.00
11156 69.0300 3042.00 3114.60 55.00
11157 69.0360 2989.00 3112.94 55.00
11158 69.0420 3039.00 3111.66 55.00
11159 69.0480 3005.00 3110.78 55.00
11160 69.0540 3047.00 3110.33 55.00
11161 69.0600 2977.00 3109.29 55.00
11162 69.0660 3094.00 3109.70 56.00
11163 69.0720 3194.00 3110.60 57.00
11164 69.0780 3012.00 3111.91 55.00
11165 69.0840 2937.00 3113.66 54.00
11166 69.0900 3127.00 3115.86 56.00
11167 69.0960 3033.00 3118.55 55.00
11168 69.1020 2996.00 3121.59 55.00
11169 69.1080 3028.00 3124.97 55.00
11170 69.1140 3095.00 3128.71 56.00
11171 69.1200 3039.00 3132.88 55.00
11172 69.1260 3009.00 3137.37 55.00
11173 69.1320 3026.00 3142.18 55.00
11174 69.1380 3076.00 3147.25 55.00
11175 69.1440 3050.00 3152.46 55.00
11176 69.1500 3043.00 3157.94 55.00
11177 69.1560 3089.00 3163.49 56.00
11178 69.1620 3203.00 3168.96 57.00
11179 69.1680 3104.00 3174.69 56.00
11180 69.1740 2977.00 3180.35 55.00
11181 69.1800 3100.00 3186.01 56.00
11182 69.1860 3170.00 3191.58 56.00
11183 69.1920 3081.00 3197.24 56.00
11184 69.1980 3176.00 3202.88 56.00
11185 69.2040 3106.00 3208.50 56.00
11186 69.2100 3082.00 3213.05 56.00
11187 69.2160 3106.00 3218.67 56.00
11188 69.2220 3053.00 3224.27 55.00
11189 69.2280 3246.00 3229.87 57.00
11190 69.2340 3206.00 3235.37 57.00
11191 69.2400 3347.00 3240.98 58.00
11192 69.2460 3133.00 3246.52 56.00
11193 69.2520 3134.00 3252.12 56.00
11194 69.2580 3150.00 3257.71 56.00
11195 69.2640 3194.00 3263.24 57.00
11196 69.2700 3183.00 3268.70 56.00
11197 69.2760 3149.00 3274.09 56.00
11198 69.2820 3214.00 3279.23 57.00
11199 69.2880 3255.00 3284.26 57.00
11200 69.2940 3206.00 3289.08 57.00
11201 69.3000 3263.00 3293.66 57.00
11202 69.3060 3184.00 3297.91 56.00
11203 69.3120 3223.00 3301.97 57.00
11204 69.3180 3262.00 3305.78 57.00
11205 69.3240 3301.00 3309.30 57.00
11206 69.3300 3370.00 3312.58 58.00
11207 69.3360 3255.00 3315.62 57.00
11208 69.3420 3303.00 3318.36 57.00
11209 69.3480 3355.00 3320.98 58.00
11210 69.3540 3333.00 3323.32 58.00
11211 69.3600 3354.00 3325.56 58.00
11212 69.3660 3285.00 3326.60 57.00
11213 69.3720 3291.00 3328.48 57.00
11214 69.3780 3278.00 3330.17 57.00
11215 69.3840 3236.00 3331.70 57.00
11216 69.3900 3266.00 3333.13 57.00
11217 69.3960 3324.00 3334.37 58.00
11218 69.4020 3249.00 3335.47 57.00
11219 69.4080 3144.00 3336.47 56.00
11220 69.4140 3333.00 3337.34 58.00
11221 69.4200 3234.00 3338.16 57.00
11222 69.4260 3184.00 3338.91 56.00
11223 69.4320 3229.00 3339.51 57.00
11224 69.4380 3281.00 3339.97 57.00
11225 69.4440 3220.00 3340.24 57.00
11226 69.4500 3328.00 3340.24 58.00
11227 69.4560 3289.00 3339.85 57.00
11228 69.4620 3249.00 3339.09 57.00
11229 69.4680 3318.00 3337.87 58.00
11230 69.4740 3207.00 3335.98 57.00
11231 69.4800 3203.00 3333.41 57.00
11232 69.4860 3131.00 3330.09 56.00
11233 69.4920 3119.00 3325.94 56.00
11234 69.4980 3165.00 3321.03 56.00
11235 69.5040 3172.00 3315.34 56.00
11236 69.5100 3175.00 3308.90 56.00
11237 69.5160 3144.00 3300.79 56.00
11238 69.5220 3074.00 3293.10 55.00
11239 69.5280 3113.00 3285.01 56.00
11240 69.5340 3167.00 3276.55 56.00
11241 69.5400 3189.00 3267.93 56.00
11242 69.5460 3105.00 3259.23 56.00
11243 69.5520 3156.00 3250.63 56.00
11244 69.5580 3040.00 3242.26 55.00
11245 69.5640 3093.00 3234.21 56.00
11246 69.5700 3117.00 3226.64 56.00
11247 69.5760 3079.00 3219.59 55.00
11248 69.5820 3152.00 3213.15 56.00
11249 69.5880 3064.00 3206.53 55.00
11250 69.5940 3124.00 3201.40 56.00
11251 69.6000 2926.00 3197.08 54.00
11252 69.6060 3192.00 3193.48 56.00
11253 69.6120 3034.00 3190.70 55.00
11254 69.6180 3206.00 3187.68 57.00
11255 69.6240 3203.00 3186.31 57.00
11256 69.6300 3064.00 3185.65 55.00
11257 69.6360 3098.00 3185.59 56.00
11258 69.6420 3082.00 3185.17 56.00
11259 69.6480 3189.00 3186.29 56.00
11260 69.6540 3218.00 3187.90 57.00
11261 69.6600 3119.00 3189.94 56.00
11262 69.6660 3172.00 3192.33 56.00
11263 69.6720 3131.00 3194.06 56.00
11264 69.6780 3206.00 3197.06 57.00
11265 69.6840 3238.00 3200.22 57.00
11266 69.6900 3206.00 3203.60 57.00
11267 69.6960 3164.00 3207.10 56.00
11268 69.7020 3206.00 3209.69 57.00
11269 69.7080 3211.00 3213.35 57.00
11270 69.7140 3120.00 3217.00 56.00
11271 69.7200 3144.00 3220.62 56.00
11272 69.7260 3157.00 3223.27 56.00
11273 69.7320 3167.00 3226.82 56.00
11274 69.7380 3195.00 3230.35 57.00
11275 69.7440 3185.00 3233.85 56.00
11276 69.7500 3157.00 3237.30 56.00
11277 69.7560 3065.00 3239.79 55.00
11278 69.7620 3145.00 3243.04 56.00
11279 69.7680 3177.00 3246.50 56.00
11280 69.7740 3220.00 3250.01 57.00
11281 69.7800 3153.00 3252.59 56.00
11282 69.7860 3064.00 3256.27 55.00
11283 69.7920 3075.00 3260.03 55.00
11284 69.7980 3157.00 3263.87 56.00
11285 69.8040 3207.00 3267.79 57.00
11286 69.8100 3130.00 3270.72 56.00
11287 69.8160 3175.00 3274.67 56.00
11288 69.8220 3149.00 3278.58 56.00
11289 69.8280 3233.00 3282.35 57.00
11290 69.8340 3252.00 3284.92 57.00
11291 69.8400 3186.00 3288.25 56.00
11292 69.8460 3199.00 3291.28 57.00
11293 69.8520 3218.00 3293.96 57.00
11294 69.8580 3178.00 3296.25 56.00
11295 69.8640 3180.00 3297.14 56.00
11296 69.8700 3237.00 3298.61 57.00
11297 69.8760 3238.00 3299.65 57.00
11298 69.8820 3185.00 3300.27 56.00
11299 69.8880 3310.00 3300.33 58.00
11300 69.8940 3242.00 3299.10 57.00
11301 69.9000 3258.00 3298.43 57.00
11302 69.9060 3223.00 3297.35 57.00
11303 69.9120 3244.00 3295.82 57.00
11304 69.9180 3201.00 3292.86 57.00
11305 69.9240 3198.00 3290.44 57.00
11306 69.9300 3182.00 3287.58 56.00
11307 69.9360 3189.00 3284.19 56.00
11308 69.9420 3215.00 3280.36 57.00
11309 69.9480 3204.00 3275.13 57.00
11310 69.9540 3113.00 3270.36 56.00
11311 69.9600 3136.00 3265.05 56.00
11312 69.9660 3176.00 3259.61 56.00
11313 69.9720 3174.00 3252.85 56.00
11314 69.9780 3175.00 3246.78 56.00
11315 69.9840 3225.00 3240.39 57.00
11316 69.9900 3178.00 3234.05 56.00
11317 69.9960 3130.00 3227.68 56.00
loop_
_pd_proc_info_excluded_regions
'from 70 to 80.000'
