#------------------------------------------------------------------------------
#$Date: 2019-11-07 23:03:24 +0200 (Thu, 07 Nov 2019) $
#$Revision: 223921 $
#$URL: file:///home/coder/svn-repositories/cod/cif/7/70/06/7700629.cif $
#------------------------------------------------------------------------------
#
# This file is available in the Crystallography Open Database (COD),
# http://www.crystallography.net/
#
# All data on this site have been placed in the public domain by the
# contributors.
#
data_7700629
loop_
_publ_author_name
'Ito, Hiroaki'
'Miura, Akira'
'Goto, Yosuke'
'Mizuguchi, Yoshikazu'
'Moriyoshi, Chikako'
'Kuroiwa, Yoshihiro'
'Azuma, Masaki'
'Liu, Jinjia'
'Wen, Xiao-Dong'
'Nishioka, Shunta'
'Maeda, Kazuhiko'
'Masubuchi, Yuji'
'Rosero-Navarro, Nataly Carolina'
'Tadanaga, Kiyoharu'
_publ_section_title
;
 An electronic structure governed by the displacement of the indium site
 in In-S<sub>6</sub> octahedra: LnOInS<sub>2</sub> (Ln = La, Ce, and Pr).
;
_journal_issue                   32
_journal_name_full
'Dalton transactions (Cambridge, England : 2003)'
_journal_page_first              12272
_journal_page_last               12278
_journal_paper_doi               10.1039/c9dt01562k
_journal_volume                  48
_journal_year                    2019
_chemical_formula_sum            'In La O S2'
_chemical_formula_weight         333.8
_space_group_IT_number           11
_space_group_name_Hall           '-P 2yb'
_space_group_name_H-M_alt        'P 1 21/m 1'
_symmetry_cell_setting           monoclinic
_symmetry_Int_Tables_number      11
_symmetry_space_group_name_Hall  '-P 2yb'
_symmetry_space_group_name_H-M   'P 1 21/m 1'
_audit_update_record
;
2019-01-16 deposited with the CCDC.    2019-07-24 downloaded from the CCDC.
;
_cell_angle_alpha                90
_cell_angle_beta                 90
_cell_angle_gamma                90
_cell_formula_units_Z            2
_cell_length_a                   4.07919(3)
_cell_length_b                   4.06374(3)
_cell_length_c                   12.67649(7)
_cell_measurement_temperature    300
_cell_volume                     210.135(2)
_diffrn_ambient_temperature      300
_diffrn_detector_type
'multiple MYTHEN system (Rev. Sci. Instrum. 88, 85111 (2017))'
_diffrn_measurement_device       SPring-8_BL02B2
_diffrn_radiation_probe          x-ray
_diffrn_radiation_type           synchrotron
_diffrn_radiation_wavelength     0.49527
_diffrn_source                   synchrotron
_exptl_absorpt_coefficient_mu    6.048
_exptl_crystal_density_diffrn    5.2762
_exptl_crystal_F_000             292
_pd_instr_location               ' ?'
_pd_meas_2theta_range_inc        0.006
_pd_meas_2theta_range_max        78.216
_pd_meas_2theta_range_min        2.100
_pd_meas_number_of_points        12687
_pd_proc_2theta_range_inc        0.006
_pd_proc_2theta_range_max        69.996
_pd_proc_2theta_range_min        2.1
_pd_proc_ls_background_function  'Manual background'
_pd_proc_ls_pref_orient_corr     none
_pd_proc_ls_profile_function     Pseudo-Voigt
_pd_proc_ls_prof_R_factor        0.0520
_pd_proc_ls_prof_wR_expected     0.0146
_pd_proc_ls_prof_wR_factor       0.0827
_refine_ls_goodness_of_fit_all   5.67
_refine_ls_number_constraints    0
_refine_ls_number_parameters     23
_refine_ls_number_restraints     0
_refine_ls_R_factor_all          0.0789
_refine_ls_R_factor_gt           0.0781
_refine_ls_shift/su_max          0.0141
_refine_ls_shift/su_mean         0.0029
_refine_ls_weighting_scheme      sigma
_refine_ls_wR_factor_all         0.0801
_refine_ls_wR_factor_gt          0.0800
_cod_data_source_file            c9dt01562k2.cif
_cod_data_source_block           I
_cod_depositor_comments
;
The following automatic conversions were performed:

'_diffrn_radiation_probe' value 'X-ray' changed to 'x-ray' according
to
/home/data/users/saulius/crontab/automatic-downloads/rss-feeds/RSC/lib/dictionaries/cif_core.dic
dictionary named 'cif_core.dic' version 2.4.2 from 2011-04-26.

Automatic conversion script
Id: cif_fix_values 4973 2017-02-22 13:04:09Z antanas 

 Adding full bibliography for 7700629--7700637.cif.
;
_cod_original_formula_sum        'In1 La1 O1 S2'
_cod_database_code               7700629
loop_
_space_group_symop_id
_space_group_symop_operation_xyz
1 x,y,z
2 -x,y+1/2,-z
3 -x,-y,-z
4 x,-y+1/2,z
loop_
_atom_site_label
_atom_site_type_symbol
_atom_site_fract_x
_atom_site_fract_y
_atom_site_fract_z
_atom_site_adp_type
_atom_site_U_iso_or_equiv
_atom_site_site_symmetry_multiplicity
_atom_site_occupancy
_atom_site_calc_flag
La1 La 0.25 0.25 0.09806(8) Uiso 0.00386(16) 2 1 d
In1 In 0.25 0.25 0.60783(13) Uani 0.0862(11) 2 1 d
S1 S 0.25 0.25 0.4116(3) Uiso 0.0113(10) 2 1 d
S2 S 0.25 0.25 0.7909(3) Uiso 0.0034(8) 2 1 d
O1 O 0.75 0.25 0 Uiso 0.009(3) 2 1 d
loop_
_atom_site_aniso_label
_atom_site_aniso_type_symbol
_atom_site_aniso_U_11
_atom_site_aniso_U_22
_atom_site_aniso_U_33
_atom_site_aniso_U_12
_atom_site_aniso_U_13
_atom_site_aniso_U_23
In1 In 0.198(3) 0.0538(16) 0.0072(10) 0 0 0
loop_
_atom_type_symbol
_atom_type_scat_dispersion_real
_atom_type_scat_dispersion_imag
_atom_type_scat_source
In -1.8303 0.6928 'International Tables Vol C tables 4.2.6.8 and 6.1.1.1'
La -0.8127 1.3121 'International Tables Vol C tables 4.2.6.8 and 6.1.1.1'
O 0.0041 0.0028 'International Tables Vol C tables 4.2.6.8 and 6.1.1.1'
S 0.0661 0.0600 'International Tables Vol C tables 4.2.6.8 and 6.1.1.1'
loop_
_geom_angle_atom_site_label_1
_geom_angle_atom_site_label_2
_geom_angle_atom_site_label_3
_geom_angle_site_symmetry_1
_geom_angle_site_symmetry_3
_geom_angle
O1 La1 O1 1_455 . 117.28(4)
O1 La1 O1 1_455 2_645 74.24(2)
O1 La1 O1 1_455 2_655 74.24(2)
O1 La1 O1 . 2_645 74.24(2)
O1 La1 O1 . 2_655 74.24(2)
O1 La1 O1 2_645 2_655 117.09(4)
S1 In1 S1 . 2_546 85.11(9)
S1 In1 S1 . 2_556 85.11(9)
S1 In1 S1 . 2_646 85.11(9)
S1 In1 S1 . 2_656 85.11(9)
S1 In1 S2 . . 180.0(5)
S1 In1 S1 2_546 2_556 89.368(12)
S1 In1 S1 2_546 2_646 89.800(12)
S1 In1 S1 2_546 2_656 170.22(14)
S1 In1 S2 2_546 . 94.89(9)
S1 In1 S1 2_556 2_646 170.22(14)
S1 In1 S1 2_556 2_656 89.800(12)
S1 In1 S2 2_556 . 94.89(9)
S1 In1 S1 2_646 2_656 89.368(12)
S1 In1 S2 2_646 . 94.89(9)
S1 In1 S2 2_656 . 94.89(9)
In1 S1 In1 . 2_546 94.89(9)
In1 S1 In1 . 2_556 94.89(9)
In1 S1 In1 . 2_646 94.89(9)
In1 S1 In1 . 2_656 94.89(9)
In1 S1 In1 2_546 2_556 89.368(15)
In1 S1 In1 2_546 2_646 89.800(15)
In1 S1 In1 2_546 2_656 170.22(18)
In1 S1 In1 2_556 2_646 170.22(18)
In1 S1 In1 2_556 2_656 89.800(15)
In1 S1 In1 2_646 2_656 89.368(15)
La1 O1 La1 . 1_655 117.28(3)
La1 O1 La1 . 2_645 105.759(14)
La1 O1 La1 . 2_655 105.759(14)
La1 O1 O1 . 2_645 52.775(10)
La1 O1 O1 . 2_655 52.775(10)
La1 O1 O1 . 2_745 127.225(10)
La1 O1 O1 . 2_755 127.225(10)
La1 O1 La1 1_655 2_645 105.759(14)
La1 O1 La1 1_655 2_655 105.759(14)
La1 O1 O1 1_655 2_645 127.225(10)
La1 O1 O1 1_655 2_655 127.225(10)
La1 O1 O1 1_655 2_745 52.775(10)
La1 O1 O1 1_655 2_755 52.775(10)
La1 O1 La1 2_645 2_655 117.09(3)
La1 O1 O1 2_645 2_645 52.984(10)
La1 O1 O1 2_645 2_655 127.016(10)
La1 O1 O1 2_645 2_745 52.984(10)
La1 O1 O1 2_645 2_755 127.016(10)
La1 O1 O1 2_655 2_645 127.016(10)
La1 O1 O1 2_655 2_655 52.984(10)
La1 O1 O1 2_655 2_745 127.016(10)
La1 O1 O1 2_655 2_755 52.984(10)
O1 O1 O1 2_645 2_655 89.7826(5)
O1 O1 O1 2_645 2_745 90.2174(5)
O1 O1 O1 2_645 2_755 180.0(5)
O1 O1 O1 2_655 2_745 180.0(5)
O1 O1 O1 2_655 2_755 90.2174(5)
O1 O1 O1 2_745 2_755 89.7826(5)
loop_
_geom_bond_atom_site_label_1
_geom_bond_atom_site_label_2
_geom_bond_site_symmetry_2
_geom_bond_distance
La1 O1 1_455 2.3885(6)
La1 O1 . 2.3885(6)
La1 O1 2_645 2.3819(6)
La1 O1 2_655 2.3819(6)
In1 S1 . 2.488(5)
In1 S1 2_546 2.8895(4)
In1 S1 2_556 2.8895(4)
In1 S1 2_646 2.8895(4)
In1 S1 2_656 2.8895(4)
In1 S2 . 2.321(4)
O1 O1 2_645 2.87896(3)
O1 O1 2_655 2.87896(3)
O1 O1 2_745 2.87896(3)
O1 O1 2_755 2.87896(3)
loop_
_pd_proc_point_id
_pd_proc_2theta_corrected
_pd_proc_intensity_net
_pd_calc_intensity_net
_pd_proc_ls_weight
1 2.1000 5880.00 6070.65 77.00
2 2.1060 5913.00 6049.74 77.00
3 2.1120 5930.00 6043.84 77.00
4 2.1180 5796.00 6024.45 76.00
5 2.1240 5720.00 6005.31 76.00
6 2.1300 5967.00 5986.47 77.00
7 2.1360 5944.00 5967.99 77.00
8 2.1420 5830.00 5949.98 76.00
9 2.1480 5827.00 5932.56 76.00
10 2.1540 5859.00 5915.89 77.00
11 2.1600 5959.00 5900.22 77.00
12 2.1660 6040.00 5885.88 78.00
13 2.1720 5984.00 5873.35 77.00
14 2.1780 5972.00 5863.37 77.00
15 2.1840 6034.00 5873.42 78.00
16 2.1900 6186.00 5905.35 79.00
17 2.1960 6241.00 5945.97 79.00
18 2.2020 6165.00 6001.01 79.00
19 2.2080 6426.00 6082.53 80.00
20 2.2140 6941.00 6243.40 83.00
21 2.2200 8198.00 6959.62 91.00
22 2.2260 12270.00 10767.40 111.00
23 2.2320 22699.00 21328.70 151.00
24 2.2380 34754.00 30834.60 186.00
25 2.2440 33722.00 24288.30 184.00
26 2.2500 20306.00 12608.30 142.00
27 2.2560 10559.00 7464.45 103.00
28 2.2620 7577.00 6408.66 87.00
29 2.2680 6709.00 6222.89 82.00
30 2.2740 6413.00 6155.17 80.00
31 2.2800 6102.00 6119.07 78.00
32 2.2860 5999.00 6099.33 77.00
33 2.2920 6049.00 6089.30 78.00
34 2.2980 6072.00 6085.38 78.00
35 2.3040 6133.00 6085.49 78.00
36 2.3100 6106.00 6088.38 78.00
37 2.3160 6009.00 6093.22 78.00
38 2.3220 5975.00 6099.48 77.00
39 2.3280 6091.00 6106.80 78.00
40 2.3340 6180.00 6114.93 79.00
41 2.3400 6059.00 6123.68 78.00
42 2.3460 5986.00 6129.46 77.00
43 2.3520 6203.00 6128.69 79.00
44 2.3580 6282.00 6128.24 79.00
45 2.3640 6144.00 6128.05 78.00
46 2.3700 6177.00 6114.09 79.00
47 2.3760 6150.00 6115.47 78.00
48 2.3820 6086.00 6116.85 78.00
49 2.3880 6163.00 6118.23 79.00
50 2.3940 6107.00 6119.60 78.00
51 2.4000 6016.00 6120.98 78.00
52 2.4060 6036.00 6122.36 78.00
53 2.4120 6147.00 6123.74 78.00
54 2.4180 6015.00 6125.12 78.00
55 2.4240 5935.00 6126.50 77.00
56 2.4300 5960.00 6127.88 77.00
57 2.4360 5968.00 6129.25 77.00
58 2.4420 6028.00 6130.63 78.00
59 2.4480 6001.00 6132.01 77.00
60 2.4540 6023.00 6133.39 78.00
61 2.4600 5985.00 6134.77 77.00
62 2.4660 6006.00 6136.15 77.00
63 2.4720 6161.00 6137.53 78.00
64 2.4780 6114.00 6138.90 78.00
65 2.4840 6019.00 6140.28 78.00
66 2.4900 6013.00 6141.66 78.00
67 2.4960 6081.00 6143.04 78.00
68 2.5020 6066.00 6144.42 78.00
69 2.5080 6022.00 6145.80 78.00
70 2.5140 5929.00 6147.18 77.00
71 2.5200 5961.00 6148.55 77.00
72 2.5260 6058.00 6149.93 78.00
73 2.5320 5923.00 6151.31 77.00
74 2.5380 5985.00 6152.69 77.00
75 2.5440 5998.00 6154.07 77.00
76 2.5500 6183.00 6155.45 79.00
77 2.5560 6140.00 6156.83 78.00
78 2.5620 6098.00 6158.20 78.00
79 2.5680 6075.00 6159.58 78.00
80 2.5740 5996.00 6160.96 77.00
81 2.5800 6100.00 6162.34 78.00
82 2.5860 6223.00 6163.72 79.00
83 2.5920 6156.00 6165.10 78.00
84 2.5980 6037.00 6166.48 78.00
85 2.6040 6207.00 6167.85 79.00
86 2.6100 6227.00 6169.23 79.00
87 2.6160 6215.00 6170.61 79.00
88 2.6220 6197.00 6171.99 79.00
89 2.6280 6182.00 6173.37 79.00
90 2.6340 6289.00 6174.75 79.00
91 2.6400 6073.00 6176.13 78.00
92 2.6460 6175.00 6177.50 79.00
93 2.6520 6196.00 6178.88 79.00
94 2.6580 6308.00 6180.26 79.00
95 2.6640 6199.00 6181.64 79.00
96 2.6700 6158.00 6183.02 78.00
97 2.6760 6178.00 6184.40 79.00
98 2.6820 6180.00 6185.77 79.00
99 2.6880 6145.00 6187.15 78.00
100 2.6940 6224.00 6188.53 79.00
101 2.7000 5975.00 6189.91 77.00
102 2.7060 6143.00 6191.29 78.00
103 2.7120 6260.00 6192.67 79.00
104 2.7180 6162.00 6194.05 78.00
105 2.7240 6318.00 6195.42 79.00
106 2.7300 6438.00 6196.80 80.00
107 2.7360 6168.00 6198.18 79.00
108 2.7420 6289.00 6199.56 79.00
109 2.7480 6375.00 6200.94 80.00
110 2.7540 6286.00 6202.32 79.00
111 2.7600 6334.00 6203.70 80.00
112 2.7660 6215.00 6205.07 79.00
113 2.7720 6136.00 6206.45 78.00
114 2.7780 6359.00 6207.83 80.00
115 2.7840 6223.00 6209.21 79.00
116 2.7900 6327.00 6210.59 80.00
117 2.7960 6377.00 6211.97 80.00
118 2.8020 6319.00 6213.35 79.00
119 2.8080 6140.00 6214.72 78.00
120 2.8140 6285.00 6216.10 79.00
121 2.8200 6254.00 6217.48 79.00
122 2.8260 6262.00 6218.86 79.00
123 2.8320 6355.00 6220.24 80.00
124 2.8380 6381.00 6221.62 80.00
125 2.8440 6456.00 6223.00 80.00
126 2.8500 6392.00 6224.37 80.00
127 2.8560 6281.00 6225.75 79.00
128 2.8620 6360.00 6227.13 80.00
129 2.8680 6296.00 6228.51 79.00
130 2.8740 6313.00 6229.89 79.00
131 2.8800 6429.00 6231.27 80.00
132 2.8860 6385.00 6232.65 80.00
133 2.8920 6314.00 6234.02 79.00
134 2.8980 6412.00 6235.40 80.00
135 2.9040 6402.00 6236.78 80.00
136 2.9100 6276.00 6238.16 79.00
137 2.9160 6464.00 6239.54 80.00
138 2.9220 6472.00 6240.92 80.00
139 2.9280 6354.00 6242.30 80.00
140 2.9340 6460.00 6243.67 80.00
141 2.9400 6487.00 6245.05 81.00
142 2.9460 6572.00 6246.43 81.00
143 2.9520 6516.00 6247.81 81.00
144 2.9580 6350.00 6249.19 80.00
145 2.9640 6452.00 6250.57 80.00
146 2.9700 6430.00 6251.95 80.00
147 2.9760 6420.00 6253.32 80.00
148 2.9820 6496.00 6258.53 81.00
149 2.9880 6353.00 6265.65 80.00
150 2.9940 6390.00 6272.76 80.00
151 3.0000 6520.00 6279.88 81.00
152 3.0060 6458.00 6287.00 80.00
153 3.0120 6383.00 6294.11 80.00
154 3.0180 6516.00 6301.23 81.00
155 3.0240 6598.00 6308.35 81.00
156 3.0300 6553.00 6315.46 81.00
157 3.0360 6530.00 6322.58 81.00
158 3.0420 6534.00 6329.70 81.00
159 3.0480 6555.00 6336.82 81.00
160 3.0540 6532.00 6343.93 81.00
161 3.0600 6409.00 6351.05 80.00
162 3.0660 6554.00 6358.17 81.00
163 3.0720 6465.00 6365.28 80.00
164 3.0780 6496.00 6372.40 81.00
165 3.0840 6472.00 6379.52 80.00
166 3.0900 6432.00 6386.64 80.00
167 3.0960 6353.00 6393.75 80.00
168 3.1020 6414.00 6400.87 80.00
169 3.1080 6530.00 6407.99 81.00
170 3.1140 6412.00 6415.10 80.00
171 3.1200 6427.00 6422.22 80.00
172 3.1260 6507.00 6429.34 81.00
173 3.1320 6619.00 6436.46 81.00
174 3.1380 6591.00 6443.57 81.00
175 3.1440 6505.00 6450.69 81.00
176 3.1500 6569.00 6457.81 81.00
177 3.1560 6611.00 6464.92 81.00
178 3.1620 6565.00 6472.04 81.00
179 3.1680 6531.00 6479.16 81.00
180 3.1740 6568.00 6486.27 81.00
181 3.1800 6667.00 6493.39 82.00
182 3.1860 6642.00 6500.51 81.00
183 3.1920 6570.00 6507.63 81.00
184 3.1980 6499.00 6514.74 81.00
185 3.2040 6661.00 6521.86 82.00
186 3.2100 6961.00 6528.98 83.00
187 3.2160 7340.00 6536.09 86.00
188 3.2220 7237.00 6543.21 85.00
189 3.2280 6987.00 6550.33 84.00
190 3.2340 6699.00 6557.44 82.00
191 3.2400 6500.00 6564.56 81.00
192 3.2460 6602.00 6571.68 81.00
193 3.2520 6688.00 6578.80 82.00
194 3.2580 6707.00 6585.91 82.00
195 3.2640 6765.00 6593.03 82.00
196 3.2700 6707.00 6600.15 82.00
197 3.2760 6562.00 6607.26 81.00
198 3.2820 6679.00 6614.38 82.00
199 3.2880 6754.00 6621.50 82.00
200 3.2940 6709.00 6628.62 82.00
201 3.3000 6655.00 6635.73 82.00
202 3.3060 6709.00 6642.85 82.00
203 3.3120 6837.00 6649.97 83.00
204 3.3180 6775.00 6657.08 82.00
205 3.3240 6670.00 6664.20 82.00
206 3.3300 6719.00 6671.32 82.00
207 3.3360 6741.00 6678.44 82.00
208 3.3420 6659.00 6685.55 82.00
209 3.3480 6682.00 6692.67 82.00
210 3.3540 6789.00 6699.79 82.00
211 3.3600 6855.00 6706.90 83.00
212 3.3660 6772.00 6714.02 82.00
213 3.3720 6788.00 6721.14 82.00
214 3.3780 6872.00 6728.25 83.00
215 3.3840 6868.00 6735.37 83.00
216 3.3900 6938.00 6742.49 83.00
217 3.3960 7304.00 6749.61 85.00
218 3.4020 7759.00 6756.72 88.00
219 3.4080 7834.00 6763.84 89.00
220 3.4140 7365.00 6770.96 86.00
221 3.4200 6965.00 6778.07 83.00
222 3.4260 6916.00 6785.19 83.00
223 3.4320 6863.00 6792.31 83.00
224 3.4380 6838.00 6799.43 83.00
225 3.4440 6823.00 6806.54 83.00
226 3.4500 6834.00 6813.66 83.00
227 3.4560 6919.00 6820.78 83.00
228 3.4620 6858.00 6827.89 83.00
229 3.4680 6789.00 6835.01 82.00
230 3.4740 6816.00 6842.13 83.00
231 3.4800 6905.00 6849.24 83.00
232 3.4860 6927.00 6856.36 83.00
233 3.4920 6884.00 6863.48 83.00
234 3.4980 6876.00 6870.60 83.00
235 3.5040 6825.00 6877.71 83.00
236 3.5100 6817.00 6884.83 83.00
237 3.5160 6959.00 6891.95 83.00
238 3.5220 6956.00 6899.06 83.00
239 3.5280 6886.00 6906.18 83.00
240 3.5340 6959.00 6913.30 83.00
241 3.5400 6932.00 6920.42 83.00
242 3.5460 6831.00 6927.53 83.00
243 3.5520 6861.00 6934.65 83.00
244 3.5580 6933.00 6941.77 83.00
245 3.5640 7031.00 6948.88 84.00
246 3.5700 6942.00 6956.00 83.00
247 3.5760 6807.00 6963.12 83.00
248 3.5820 6899.00 6970.23 83.00
249 3.5880 6945.00 6977.35 83.00
250 3.5940 6967.00 6984.47 83.00
251 3.6000 6925.00 6991.59 83.00
252 3.6060 7002.00 6998.70 84.00
253 3.6120 6930.00 7005.82 83.00
254 3.6180 6926.00 7012.94 83.00
255 3.6240 6903.00 7020.05 83.00
256 3.6300 6954.00 7027.17 83.00
257 3.6360 6929.00 7034.29 83.00
258 3.6420 6946.00 7041.41 83.00
259 3.6480 6913.00 7048.52 83.00
260 3.6540 6938.00 7055.64 83.00
261 3.6600 6992.00 7062.76 84.00
262 3.6660 7029.00 7069.87 84.00
263 3.6720 6903.00 7076.99 83.00
264 3.6780 6878.00 7084.11 83.00
265 3.6840 6939.00 7091.23 83.00
266 3.6900 7037.00 7098.34 84.00
267 3.6960 7067.00 7105.46 84.00
268 3.7020 7008.00 7112.58 84.00
269 3.7080 6909.00 7119.69 83.00
270 3.7140 6946.00 7126.81 83.00
271 3.7200 6997.00 7133.93 84.00
272 3.7260 7031.00 7141.04 84.00
273 3.7320 7029.00 7148.16 84.00
274 3.7380 6886.00 7155.28 83.00
275 3.7440 6909.00 7162.40 83.00
276 3.7500 7080.00 7168.04 84.00
277 3.7560 6983.00 7173.40 84.00
278 3.7620 6906.00 7178.75 83.00
279 3.7680 7005.00 7184.11 84.00
280 3.7740 7203.00 7189.46 85.00
281 3.7800 7163.00 7194.82 85.00
282 3.7860 7080.00 7200.17 84.00
283 3.7920 6999.00 7205.53 84.00
284 3.7980 6874.00 7210.88 83.00
285 3.8040 6925.00 7216.23 83.00
286 3.8100 6942.00 7221.59 83.00
287 3.8160 6924.00 7226.94 83.00
288 3.8220 7047.00 7232.30 84.00
289 3.8280 7061.00 7237.65 84.00
290 3.8340 7096.00 7243.01 84.00
291 3.8400 7026.00 7248.36 84.00
292 3.8460 7168.00 7253.72 85.00
293 3.8520 7050.00 7259.07 84.00
294 3.8580 7014.00 7264.42 84.00
295 3.8640 7054.00 7269.78 84.00
296 3.8700 7169.00 7275.13 85.00
297 3.8760 7129.00 7280.49 84.00
298 3.8820 7189.00 7285.84 85.00
299 3.8880 6927.00 7291.20 83.00
300 3.8940 6974.00 7296.55 84.00
301 3.9000 7165.00 7301.91 85.00
302 3.9060 7152.00 7307.26 85.00
303 3.9120 7210.00 7312.61 85.00
304 3.9180 7150.00 7317.97 85.00
305 3.9240 7178.00 7323.32 85.00
306 3.9300 7132.00 7328.68 84.00
307 3.9360 7056.00 7334.03 84.00
308 3.9420 7104.00 7339.39 84.00
309 3.9480 7075.00 7344.74 84.00
310 3.9540 6975.00 7350.10 84.00
311 3.9600 7078.00 7355.45 84.00
312 3.9660 7164.00 7360.80 85.00
313 3.9720 7057.00 7366.16 84.00
314 3.9780 7056.00 7371.51 84.00
315 3.9840 6963.00 7376.87 83.00
316 3.9900 7229.00 7382.22 85.00
317 3.9960 7223.00 7387.58 85.00
318 4.0020 7354.00 7392.93 86.00
319 4.0080 7156.00 7398.29 85.00
320 4.0140 7301.00 7403.64 85.00
321 4.0200 7338.00 7409.00 86.00
322 4.0260 7485.00 7414.35 87.00
323 4.0320 7494.00 7419.70 87.00
324 4.0380 7353.00 7425.06 86.00
325 4.0440 7407.00 7430.41 86.00
326 4.0500 7514.00 7435.77 87.00
327 4.0560 7572.00 7441.12 87.00
328 4.0620 7756.00 7446.48 88.00
329 4.0680 7775.00 7451.83 88.00
330 4.0740 7589.00 7457.19 87.00
331 4.0800 7611.00 7462.54 87.00
332 4.0860 7636.00 7467.89 87.00
333 4.0920 7474.00 7473.25 86.00
334 4.0980 7480.00 7478.60 86.00
335 4.1040 7920.00 7483.96 89.00
336 4.1100 8389.00 7489.31 92.00
337 4.1160 9921.00 7494.67 100.00
338 4.1220 11902.00 7500.02 109.00
339 4.1280 12092.00 7505.38 110.00
340 4.1340 10110.00 7510.73 101.00
341 4.1400 8533.00 7516.08 92.00
342 4.1460 7969.00 7521.44 89.00
343 4.1520 7821.00 7526.79 88.00
344 4.1580 7658.00 7532.15 88.00
345 4.1640 7453.00 7537.50 86.00
346 4.1700 7198.00 7542.86 85.00
347 4.1760 7303.00 7548.21 85.00
348 4.1820 7358.00 7553.57 86.00
349 4.1880 7190.00 7558.92 85.00
350 4.1940 7406.00 7564.27 86.00
351 4.2000 7319.00 7569.63 86.00
352 4.2060 7471.00 7574.98 86.00
353 4.2120 7402.00 7580.34 86.00
354 4.2180 7368.00 7585.69 86.00
355 4.2240 7487.00 7591.05 87.00
356 4.2300 7475.00 7596.40 86.00
357 4.2360 7394.00 7601.76 86.00
358 4.2420 7461.00 7607.11 86.00
359 4.2480 7495.00 7612.46 87.00
360 4.2540 7592.00 7617.82 87.00
361 4.2600 7758.00 7623.17 88.00
362 4.2660 7918.00 7628.53 89.00
363 4.2720 8803.00 7633.88 94.00
364 4.2780 9398.00 7639.24 97.00
365 4.2840 8550.00 7644.59 92.00
366 4.2900 7884.00 7649.95 89.00
367 4.2960 7648.00 7655.30 87.00
368 4.3020 7597.00 7660.65 87.00
369 4.3080 7594.00 7666.01 87.00
370 4.3140 7526.00 7671.36 87.00
371 4.3200 7564.00 7676.72 87.00
372 4.3260 7549.00 7682.07 87.00
373 4.3320 7572.00 7687.43 87.00
374 4.3380 7482.00 7692.78 86.00
375 4.3440 7419.00 7698.14 86.00
376 4.3500 7464.00 7804.14 86.00
377 4.3560 7547.00 7819.58 87.00
378 4.3620 7440.00 7836.60 86.00
379 4.3680 7759.00 7855.56 88.00
380 4.3740 7512.00 7876.93 87.00
381 4.3800 7551.00 7901.29 87.00
382 4.3860 7594.00 7929.43 87.00
383 4.3920 7640.00 7962.44 87.00
384 4.3980 7659.00 8001.79 88.00
385 4.4040 7681.00 8049.58 88.00
386 4.4100 7588.00 8108.84 87.00
387 4.4160 7965.00 8184.06 89.00
388 4.4220 7899.00 8282.18 89.00
389 4.4280 8016.00 8414.32 90.00
390 4.4340 8283.00 8599.12 91.00
391 4.4400 8383.00 8869.80 92.00
392 4.4460 8930.00 9291.43 94.00
393 4.4520 9684.00 10052.10 98.00
394 4.4580 11199.00 12290.80 106.00
395 4.4640 15815.00 22011.80 126.00
396 4.4700 35460.00 51203.80 188.00
397 4.4760 86589.00 88887.80 294.00
398 4.4820 97809.00 81181.90 313.00
399 4.4880 49675.00 41552.40 223.00
400 4.4940 19376.00 18135.60 139.00
401 4.5000 12263.00 11426.30 111.00
402 4.5060 10001.00 9846.97 100.00
403 4.5120 9427.00 9222.55 97.00
404 4.5180 9232.00 8860.04 96.00
405 4.5240 9464.00 8626.66 97.00
406 4.5300 9635.00 8468.56 98.00
407 4.5360 9190.00 8357.30 96.00
408 4.5420 8526.00 8276.64 92.00
409 4.5480 8023.00 8216.79 90.00
410 4.5540 7961.00 8171.55 89.00
411 4.5600 7754.00 8136.89 88.00
412 4.5660 7947.00 8110.05 89.00
413 4.5720 7936.00 8089.13 89.00
414 4.5780 7861.00 8072.76 89.00
415 4.5840 7847.00 8059.95 89.00
416 4.5900 7602.00 8049.96 87.00
417 4.5960 7642.00 8042.25 87.00
418 4.6020 7731.00 8036.37 88.00
419 4.6080 7606.00 8032.01 87.00
420 4.6140 7657.00 7939.09 88.00
421 4.6200 7624.00 7944.44 87.00
422 4.6260 7612.00 7949.80 87.00
423 4.6320 7635.00 7955.15 87.00
424 4.6380 7789.00 7960.50 88.00
425 4.6440 7755.00 7965.86 88.00
426 4.6500 7693.00 7971.21 88.00
427 4.6560 7868.00 7976.57 89.00
428 4.6620 7777.00 7981.92 88.00
429 4.6680 7817.00 7987.28 88.00
430 4.6740 7666.00 7992.63 88.00
431 4.6800 7885.00 7997.99 89.00
432 4.6860 7895.00 8003.34 89.00
433 4.6920 7893.00 8008.70 89.00
434 4.6980 8123.00 8014.05 90.00
435 4.7040 8021.00 8019.40 90.00
436 4.7100 8298.00 8024.76 91.00
437 4.7160 8311.00 8030.11 91.00
438 4.7220 8103.00 8035.47 90.00
439 4.7280 7832.00 8040.82 88.00
440 4.7340 7903.00 8046.18 89.00
441 4.7400 7812.00 8051.53 88.00
442 4.7460 7846.00 8056.89 89.00
443 4.7520 7783.00 8062.24 88.00
444 4.7580 7698.00 8067.59 88.00
445 4.7640 7859.00 8072.95 89.00
446 4.7700 7585.00 8078.30 87.00
447 4.7760 7690.00 8083.66 88.00
448 4.7820 7628.00 8089.01 87.00
449 4.7880 7678.00 8094.37 88.00
450 4.7940 7861.00 8099.72 89.00
451 4.8000 7819.00 8105.08 88.00
452 4.8060 7706.00 8110.43 88.00
453 4.8120 7727.00 8115.78 88.00
454 4.8180 7909.00 8121.14 89.00
455 4.8240 7681.00 8126.49 88.00
456 4.8300 7654.00 8131.85 87.00
457 4.8360 7599.00 8137.20 87.00
458 4.8420 7747.00 8142.56 88.00
459 4.8480 7783.00 8147.91 88.00
460 4.8540 7729.00 8153.27 88.00
461 4.8600 7728.00 8158.62 88.00
462 4.8660 7752.00 8163.98 88.00
463 4.8720 7804.00 8169.33 88.00
464 4.8780 7753.00 8174.68 88.00
465 4.8840 7796.00 8180.04 88.00
466 4.8900 7798.00 8185.39 88.00
467 4.8960 7881.00 8190.75 89.00
468 4.9020 7790.00 8196.10 88.00
469 4.9080 7697.00 8201.46 88.00
470 4.9140 7784.00 8206.81 88.00
471 4.9200 7840.00 8212.17 89.00
472 4.9260 7684.00 8217.52 88.00
473 4.9320 7907.00 8222.87 89.00
474 4.9380 7848.00 8228.23 89.00
475 4.9440 8080.00 8233.58 90.00
476 4.9500 7850.00 8238.94 89.00
477 4.9560 7830.00 8244.29 88.00
478 4.9620 7898.00 8249.65 89.00
479 4.9680 7897.00 8255.00 89.00
480 4.9740 7907.00 8260.36 89.00
481 4.9800 8010.00 8265.71 89.00
482 4.9860 7950.00 8271.06 89.00
483 4.9920 7867.00 8276.42 89.00
484 4.9980 8031.00 8281.77 90.00
485 5.0040 7932.00 8287.13 89.00
486 5.0100 7848.00 8292.48 89.00
487 5.0160 7957.00 8297.84 89.00
488 5.0220 8043.00 8303.19 90.00
489 5.0280 8044.00 8308.54 90.00
490 5.0340 8078.00 8313.90 90.00
491 5.0400 7945.00 8319.25 89.00
492 5.0460 8022.00 8324.61 90.00
493 5.0520 8024.00 8329.96 90.00
494 5.0580 8018.00 8335.32 90.00
495 5.0640 8082.00 8340.67 90.00
496 5.0700 7943.00 8346.03 89.00
497 5.0760 7975.00 8351.38 89.00
498 5.0820 8060.00 8356.74 90.00
499 5.0880 8085.00 8362.09 90.00
500 5.0940 8131.00 8367.44 90.00
501 5.1000 8229.00 8372.80 91.00
502 5.1060 8583.00 8378.15 93.00
503 5.1120 8398.00 8383.51 92.00
504 5.1180 8236.00 8388.86 91.00
505 5.1240 8144.00 8394.22 90.00
506 5.1300 8292.00 8399.57 91.00
507 5.1360 8241.00 8404.93 91.00
508 5.1420 8189.00 8410.28 90.00
509 5.1480 8164.00 8415.63 90.00
510 5.1540 8143.00 8420.99 90.00
511 5.1600 8323.00 8426.34 91.00
512 5.1660 8413.00 8431.70 92.00
513 5.1720 8406.00 8437.05 92.00
514 5.1780 8333.00 8442.41 91.00
515 5.1840 8368.00 8447.76 91.00
516 5.1900 8131.00 8453.12 90.00
517 5.1960 8076.00 8458.47 90.00
518 5.2020 8242.00 8463.83 91.00
519 5.2080 8245.00 8469.18 91.00
520 5.2140 8313.00 8474.53 91.00
521 5.2200 8234.00 8479.89 91.00
522 5.2260 8139.00 8485.24 90.00
523 5.2320 8231.00 8490.60 91.00
524 5.2380 8302.00 8495.95 91.00
525 5.2440 8242.00 8501.31 91.00
526 5.2500 8290.00 8506.66 91.00
527 5.2560 8364.00 8512.02 91.00
528 5.2620 8334.00 8517.37 91.00
529 5.2680 8197.00 8522.72 91.00
530 5.2740 8368.00 8537.72 91.00
531 5.2800 8412.00 8552.71 92.00
532 5.2860 8408.00 8567.70 92.00
533 5.2920 8395.00 8582.69 92.00
534 5.2980 8367.00 8597.68 91.00
535 5.3040 8389.00 8612.67 92.00
536 5.3100 8419.00 8627.66 92.00
537 5.3160 8346.00 8642.65 91.00
538 5.3220 8390.00 8657.64 92.00
539 5.3280 8492.00 8672.63 92.00
540 5.3340 8544.00 8687.63 92.00
541 5.3400 8452.00 8702.62 92.00
542 5.3460 8441.00 8717.61 92.00
543 5.3520 8380.00 8732.60 92.00
544 5.3580 8437.00 8747.59 92.00
545 5.3640 8416.00 8762.58 92.00
546 5.3700 8418.00 8777.57 92.00
547 5.3760 8444.00 8792.56 92.00
548 5.3820 8453.00 8807.55 92.00
549 5.3880 8531.00 8822.55 92.00
550 5.3940 8518.00 8837.54 92.00
551 5.4000 8501.00 8852.53 92.00
552 5.4060 8788.00 8867.52 94.00
553 5.4120 8874.00 8882.51 94.00
554 5.4180 9022.00 8897.50 95.00
555 5.4240 8951.00 8912.49 95.00
556 5.4300 8606.00 8927.48 93.00
557 5.4360 8662.00 8942.47 93.00
558 5.4420 8894.00 8957.47 94.00
559 5.4480 8697.00 8972.46 93.00
560 5.4540 8828.00 8987.45 94.00
561 5.4600 8724.00 9002.44 93.00
562 5.4660 8643.00 9017.43 93.00
563 5.4720 8720.00 9032.42 93.00
564 5.4780 8755.00 9047.41 94.00
565 5.4840 8822.00 9062.40 94.00
566 5.4900 9008.00 9077.39 95.00
567 5.4960 8845.00 9092.39 94.00
568 5.5020 8706.00 9107.38 93.00
569 5.5080 8730.00 9122.37 93.00
570 5.5140 8937.00 9137.36 95.00
571 5.5200 8854.00 9152.35 94.00
572 5.5260 8845.00 9167.34 94.00
573 5.5320 8778.00 9182.33 94.00
574 5.5380 8813.00 9197.32 94.00
575 5.5440 8954.00 9212.31 95.00
576 5.5500 8926.00 9227.31 94.00
577 5.5560 8939.00 9242.30 95.00
578 5.5620 8925.00 9257.29 94.00
579 5.5680 9000.00 9272.28 95.00
580 5.5740 9012.00 9287.27 95.00
581 5.5800 8997.00 9302.26 95.00
582 5.5860 9044.00 9317.25 95.00
583 5.5920 9043.00 9332.24 95.00
584 5.5980 9051.00 9347.23 95.00
585 5.6040 8945.00 9362.23 95.00
586 5.6100 8894.00 9377.22 94.00
587 5.6160 8983.00 9392.21 95.00
588 5.6220 9050.00 9407.20 95.00
589 5.6280 9165.00 9422.19 96.00
590 5.6340 9256.00 9437.18 96.00
591 5.6400 9229.00 9452.17 96.00
592 5.6460 9130.00 9467.16 96.00
593 5.6520 9228.00 9482.15 96.00
594 5.6580 9333.00 9497.15 97.00
595 5.6640 9442.00 9512.14 97.00
596 5.6700 9331.00 9527.13 97.00
597 5.6760 9285.00 9542.12 96.00
598 5.6820 9384.00 9557.11 97.00
599 5.6880 9403.00 9572.10 97.00
600 5.6940 9409.00 9587.09 97.00
601 5.7000 9333.00 9602.08 97.00
602 5.7060 9338.00 9617.07 97.00
603 5.7120 9366.00 9632.07 97.00
604 5.7180 9360.00 9647.06 97.00
605 5.7240 9410.00 9662.05 97.00
606 5.7300 9479.00 9677.04 97.00
607 5.7360 9430.00 9692.03 97.00
608 5.7420 9485.00 9707.02 97.00
609 5.7480 9603.00 9722.01 98.00
610 5.7540 9603.00 9737.00 98.00
611 5.7600 9619.00 9752.00 98.00
612 5.7660 9662.00 9766.98 98.00
613 5.7720 9522.00 9781.98 98.00
614 5.7780 9446.00 9796.97 97.00
615 5.7840 9717.00 9811.96 99.00
616 5.7900 9842.00 9826.95 99.00
617 5.7960 9731.00 9841.94 99.00
618 5.8020 9738.00 9856.93 99.00
619 5.8080 9739.00 9871.92 99.00
620 5.8140 9717.00 9886.91 99.00
621 5.8200 9684.00 9901.91 98.00
622 5.8260 9506.00 9916.90 97.00
623 5.8320 9520.00 9931.89 98.00
624 5.8380 9675.00 9946.88 98.00
625 5.8440 9769.00 9961.87 99.00
626 5.8500 9809.00 9976.86 99.00
627 5.8560 9623.00 9991.85 98.00
628 5.8620 9721.00 10006.80 99.00
629 5.8680 9811.00 10021.80 99.00
630 5.8740 9775.00 10036.80 99.00
631 5.8800 9827.00 10051.80 99.00
632 5.8860 9854.00 10066.80 99.00
633 5.8920 9896.00 10081.80 99.00
634 5.8980 10008.00 10096.80 100.00
635 5.9040 10062.00 10111.80 100.00
636 5.9100 9963.00 10126.80 100.00
637 5.9160 9884.00 10141.80 99.00
638 5.9220 9912.00 10156.80 100.00
639 5.9280 9828.00 10171.70 99.00
640 5.9340 9803.00 10186.70 99.00
641 5.9400 9860.00 10201.70 99.00
642 5.9460 9972.00 10216.70 100.00
643 5.9520 10178.00 10231.70 101.00
644 5.9580 10048.00 10246.70 100.00
645 5.9640 10034.00 10261.70 100.00
646 5.9700 10097.00 10276.70 100.00
647 5.9760 10081.00 10291.70 100.00
648 5.9820 10092.00 10306.70 100.00
649 5.9880 10030.00 10321.70 100.00
650 5.9940 10219.00 10336.60 101.00
651 6.0000 10342.00 10351.60 102.00
652 6.0060 10265.00 10366.60 101.00
653 6.0120 10091.00 10381.60 100.00
654 6.0180 10206.00 10396.60 101.00
655 6.0240 10377.00 10411.60 102.00
656 6.0300 10185.00 10426.60 101.00
657 6.0360 10163.00 10441.60 101.00
658 6.0420 10252.00 10456.60 101.00
659 6.0480 10264.00 10471.60 101.00
660 6.0540 10208.00 10486.60 101.00
661 6.0600 10162.00 10501.50 101.00
662 6.0660 10251.00 10516.50 101.00
663 6.0720 10408.00 10531.50 102.00
664 6.0780 10437.00 10546.50 102.00
665 6.0840 10484.00 10561.50 102.00
666 6.0900 10568.00 10576.50 103.00
667 6.0960 10449.00 10591.50 102.00
668 6.1020 10499.00 10606.50 102.00
669 6.1080 10557.00 10621.50 103.00
670 6.1140 10603.00 10636.50 103.00
671 6.1200 10607.00 10651.50 103.00
672 6.1260 10494.00 10666.50 102.00
673 6.1320 10562.00 10681.40 103.00
674 6.1380 10494.00 10696.40 102.00
675 6.1440 10310.00 10711.40 102.00
676 6.1500 10576.00 10725.60 103.00
677 6.1560 10783.00 10739.90 104.00
678 6.1620 10522.00 10754.10 103.00
679 6.1680 10456.00 10768.30 102.00
680 6.1740 10550.00 10782.50 103.00
681 6.1800 10634.00 10796.70 103.00
682 6.1860 10610.00 10810.90 103.00
683 6.1920 10659.00 10825.20 103.00
684 6.1980 10662.00 10839.40 103.00
685 6.2040 10512.00 10853.60 103.00
686 6.2100 10620.00 10867.80 103.00
687 6.2160 10722.00 10882.00 104.00
688 6.2220 10853.00 10896.20 104.00
689 6.2280 10773.00 10910.50 104.00
690 6.2340 10638.00 10924.70 103.00
691 6.2400 10708.00 10938.90 103.00
692 6.2460 10796.00 10953.10 104.00
693 6.2520 10858.00 10967.30 104.00
694 6.2580 10946.00 10981.50 105.00
695 6.2640 11091.00 10995.70 105.00
696 6.2700 10973.00 11010.00 105.00
697 6.2760 10890.00 11024.20 104.00
698 6.2820 11053.00 11038.40 105.00
699 6.2880 11193.00 11052.60 106.00
700 6.2940 11085.00 11066.80 105.00
701 6.3000 11181.00 11081.00 106.00
702 6.3060 11072.00 11095.30 105.00
703 6.3120 10887.00 11109.50 104.00
704 6.3180 10985.00 11123.70 105.00
705 6.3240 11033.00 11137.90 105.00
706 6.3300 11107.00 11152.10 105.00
707 6.3360 11044.00 11166.30 105.00
708 6.3420 11070.00 11180.60 105.00
709 6.3480 10996.00 11194.80 105.00
710 6.3540 11032.00 11209.00 105.00
711 6.3600 11159.00 11223.20 106.00
712 6.3660 11206.00 11237.40 106.00
713 6.3720 11201.00 11251.60 106.00
714 6.3780 11154.00 11265.90 106.00
715 6.3840 11275.00 11280.10 106.00
716 6.3900 11239.00 11294.30 106.00
717 6.3960 11220.00 11308.50 106.00
718 6.4020 11198.00 11322.70 106.00
719 6.4080 11225.00 11336.90 106.00
720 6.4140 11301.00 11351.20 106.00
721 6.4200 11233.00 11365.40 106.00
722 6.4260 11256.00 11379.60 106.00
723 6.4320 11162.00 11393.80 106.00
724 6.4380 11145.00 11408.00 106.00
725 6.4440 11186.00 11422.20 106.00
726 6.4500 11151.00 11436.50 106.00
727 6.4560 11211.00 11450.70 106.00
728 6.4620 11379.00 11464.90 107.00
729 6.4680 11329.00 11479.10 106.00
730 6.4740 11117.00 11493.30 105.00
731 6.4800 11409.00 11507.50 107.00
732 6.4860 11547.00 11521.70 107.00
733 6.4920 11553.00 11536.00 107.00
734 6.4980 11573.00 11550.20 108.00
735 6.5040 11406.00 11564.40 107.00
736 6.5100 11376.00 11578.60 107.00
737 6.5160 11424.00 11592.80 107.00
738 6.5220 11364.00 11607.00 107.00
739 6.5280 11307.00 11621.30 106.00
740 6.5340 11454.00 11635.50 107.00
741 6.5400 11454.00 11649.70 107.00
742 6.5460 11409.00 11663.90 107.00
743 6.5520 11451.00 11678.10 107.00
744 6.5580 11459.00 11692.30 107.00
745 6.5640 11454.00 11706.60 107.00
746 6.5700 11764.00 11720.80 108.00
747 6.5760 11661.00 11735.00 108.00
748 6.5820 11631.00 11750.30 108.00
749 6.5880 11950.00 11764.60 109.00
750 6.5940 12088.00 11778.90 110.00
751 6.6000 12085.00 11793.30 110.00
752 6.6060 11914.00 11807.70 109.00
753 6.6120 11859.00 11822.10 109.00
754 6.6180 11637.00 11836.50 108.00
755 6.6240 11598.00 11851.00 108.00
756 6.6300 11708.00 11865.50 108.00
757 6.6360 11647.00 11880.10 108.00
758 6.6420 11629.00 11894.80 108.00
759 6.6480 11727.00 11909.60 108.00
760 6.6540 11595.00 11924.50 108.00
761 6.6600 11545.00 11939.70 107.00
762 6.6660 11518.00 11955.30 107.00
763 6.6720 11771.00 11971.30 108.00
764 6.6780 11780.00 11988.20 109.00
765 6.6840 11756.00 12006.40 108.00
766 6.6900 11570.00 12027.10 108.00
767 6.6960 11544.00 12055.20 107.00
768 6.7020 11645.00 12114.20 108.00
769 6.7080 11772.00 12272.00 108.00
770 6.7140 11808.00 12564.20 109.00
771 6.7200 11886.00 12745.50 109.00
772 6.7260 11835.00 12540.20 109.00
773 6.7320 11735.00 12293.40 108.00
774 6.7380 11849.00 12187.10 109.00
775 6.7440 11767.00 12165.40 108.00
776 6.7500 11774.00 12167.80 109.00
777 6.7560 11519.00 12176.10 107.00
778 6.7620 11612.00 12186.70 108.00
779 6.7680 11603.00 12198.40 108.00
780 6.7740 11730.00 12210.90 108.00
781 6.7800 11843.00 12223.90 109.00
782 6.7860 11630.00 12237.20 108.00
783 6.7920 11742.00 12250.60 108.00
784 6.7980 11776.00 12264.30 109.00
785 6.8040 11635.00 12278.10 108.00
786 6.8100 11783.00 12291.90 109.00
787 6.8160 11680.00 12305.80 108.00
788 6.8220 11536.00 12319.80 107.00
789 6.8280 11492.00 12327.90 107.00
790 6.8340 11834.00 12324.20 109.00
791 6.8400 11734.00 12320.50 108.00
792 6.8460 11860.00 12316.90 109.00
793 6.8520 11743.00 12313.30 108.00
794 6.8580 11904.00 12309.70 109.00
795 6.8640 11935.00 12305.10 109.00
796 6.8700 11721.00 12301.60 108.00
797 6.8760 11664.00 12298.00 108.00
798 6.8820 11682.00 12294.50 108.00
799 6.8880 11684.00 12291.00 108.00
800 6.8940 11868.00 12287.50 109.00
801 6.9000 11874.00 12284.00 109.00
802 6.9060 11699.00 12280.50 108.00
803 6.9120 11628.00 12277.00 108.00
804 6.9180 11810.00 12273.40 109.00
805 6.9240 11768.00 12269.90 108.00
806 6.9300 11833.00 12266.40 109.00
807 6.9360 11575.00 12262.90 108.00
808 6.9420 11548.00 12259.40 107.00
809 6.9480 11633.00 12255.90 108.00
810 6.9540 11608.00 12252.40 108.00
811 6.9600 11704.00 12248.80 108.00
812 6.9660 11646.00 12245.30 108.00
813 6.9720 11706.00 12241.80 108.00
814 6.9780 11725.00 12238.30 108.00
815 6.9840 11559.00 12234.80 108.00
816 6.9900 11570.00 12231.30 108.00
817 6.9960 11636.00 12227.80 108.00
818 7.0020 11637.00 12224.20 108.00
819 7.0080 11838.00 12220.70 109.00
820 7.0140 11667.00 12217.20 108.00
821 7.0200 11710.00 12213.70 108.00
822 7.0260 11586.00 12210.20 108.00
823 7.0320 11659.00 12206.70 108.00
824 7.0380 11826.00 12203.20 109.00
825 7.0440 11800.00 12199.60 109.00
826 7.0500 11902.00 12196.10 109.00
827 7.0560 11837.00 12192.60 109.00
828 7.0620 12083.00 12189.10 110.00
829 7.0680 12035.00 12185.60 110.00
830 7.0740 11742.00 12182.10 108.00
831 7.0800 11885.00 12178.50 109.00
832 7.0860 11749.00 12175.00 108.00
833 7.0920 11990.00 12171.50 109.00
834 7.0980 11828.00 12168.00 109.00
835 7.1040 11785.00 12164.50 109.00
836 7.1100 11741.00 12161.00 108.00
837 7.1160 11575.00 12157.50 108.00
838 7.1220 11499.00 12153.90 107.00
839 7.1280 11678.00 12150.40 108.00
840 7.1340 11729.00 12146.90 108.00
841 7.1400 11390.00 12143.40 107.00
842 7.1460 11757.00 12132.40 108.00
843 7.1520 11851.00 12121.40 109.00
844 7.1580 11791.00 12110.40 109.00
845 7.1640 11721.00 12099.40 108.00
846 7.1700 11655.00 12089.00 108.00
847 7.1760 11489.00 12078.10 107.00
848 7.1820 11525.00 12067.10 107.00
849 7.1880 11421.00 12056.20 107.00
850 7.1940 11678.00 12045.90 108.00
851 7.2000 11540.00 12035.10 107.00
852 7.2060 11400.00 12024.20 107.00
853 7.2120 11458.00 12013.50 107.00
854 7.2180 11318.00 12002.70 106.00
855 7.2240 11333.00 11992.00 106.00
856 7.2300 11533.00 11981.40 107.00
857 7.2360 11325.00 11970.80 106.00
858 7.2420 11501.00 11960.30 107.00
859 7.2480 11572.00 11950.00 108.00
860 7.2540 11581.00 11939.90 108.00
861 7.2600 11518.00 11930.10 107.00
862 7.2660 11481.00 11920.70 107.00
863 7.2720 11203.00 11911.90 106.00
864 7.2780 11350.00 11904.30 107.00
865 7.2840 11605.00 11898.60 108.00
866 7.2900 11534.00 11898.90 107.00
867 7.2960 11683.00 11922.10 108.00
868 7.3020 11944.00 12008.50 109.00
869 7.3080 12159.00 12165.40 110.00
870 7.3140 11823.00 12232.90 109.00
871 7.3200 11762.00 12106.10 108.00
872 7.3260 11509.00 12029.90 107.00
873 7.3320 11413.00 12108.00 107.00
874 7.3380 11423.00 12186.20 107.00
875 7.3440 11280.00 12059.10 106.00
876 7.3500 10960.00 11891.50 105.00
877 7.3560 11173.00 11800.80 106.00
878 7.3620 11224.00 11763.30 106.00
879 7.3680 11234.00 11743.00 106.00
880 7.3740 11177.00 11727.20 106.00
881 7.3800 11433.00 11713.20 107.00
882 7.3860 11313.00 11700.10 106.00
883 7.3920 11245.00 11687.60 106.00
884 7.3980 11503.00 11675.50 107.00
885 7.4040 11182.00 11663.70 106.00
886 7.4100 11260.00 11652.00 106.00
887 7.4160 10918.00 11640.50 104.00
888 7.4220 11223.00 11629.00 106.00
889 7.4280 11042.00 11617.70 105.00
890 7.4340 10955.00 11606.40 105.00
891 7.4400 10645.00 11595.10 103.00
892 7.4460 10871.00 11583.90 104.00
893 7.4520 10938.00 11572.70 105.00
894 7.4580 10849.00 11560.90 104.00
895 7.4640 11086.00 11549.80 105.00
896 7.4700 10769.00 11538.70 104.00
897 7.4760 10969.00 11527.70 105.00
898 7.4820 10697.00 11516.60 103.00
899 7.4880 10851.00 11505.00 104.00
900 7.4940 10892.00 11493.90 104.00
901 7.5000 10678.00 11482.90 103.00
902 7.5060 10947.00 11471.90 105.00
903 7.5120 10783.00 11460.90 104.00
904 7.5180 10515.00 11449.90 103.00
905 7.5240 10823.00 11438.90 104.00
906 7.5300 10708.00 11427.90 103.00
907 7.5360 10857.00 11416.90 104.00
908 7.5420 10659.00 11405.90 103.00
909 7.5480 10581.00 11394.90 103.00
910 7.5540 10589.00 11383.90 103.00
911 7.5600 10832.00 11372.90 104.00
912 7.5660 10884.00 11361.90 104.00
913 7.5720 10998.00 11350.80 105.00
914 7.5780 10752.00 11339.80 104.00
915 7.5840 10585.00 11328.80 103.00
916 7.5900 10644.00 11317.80 103.00
917 7.5960 10656.00 11306.80 103.00
918 7.6020 10734.00 11295.80 104.00
919 7.6080 10796.00 11284.80 104.00
920 7.6140 10567.00 11273.80 103.00
921 7.6200 10745.00 11262.80 104.00
922 7.6260 10566.00 11251.80 103.00
923 7.6320 10695.00 11240.80 103.00
924 7.6380 10602.00 11229.80 103.00
925 7.6440 10554.00 11218.80 103.00
926 7.6500 10642.00 11199.90 103.00
927 7.6560 10550.00 11177.10 103.00
928 7.6620 10545.00 11154.30 103.00
929 7.6680 10544.00 11131.60 103.00
930 7.6740 10279.00 11108.80 101.00
931 7.6800 10439.00 11086.00 102.00
932 7.6860 10442.00 11063.20 102.00
933 7.6920 10469.00 11040.50 102.00
934 7.6980 10508.00 11017.70 103.00
935 7.7040 10439.00 10994.90 102.00
936 7.7100 10364.00 10972.10 102.00
937 7.7160 10535.00 10949.30 103.00
938 7.7220 10656.00 10926.60 103.00
939 7.7280 10488.00 10903.80 102.00
940 7.7340 10455.00 10881.00 102.00
941 7.7400 10417.00 10858.20 102.00
942 7.7460 10153.00 10835.50 101.00
943 7.7520 10336.00 10812.70 102.00
944 7.7580 10438.00 10789.90 102.00
945 7.7640 10434.00 10767.10 102.00
946 7.7700 10172.00 10744.30 101.00
947 7.7760 10269.00 10721.60 101.00
948 7.7820 10174.00 10698.80 101.00
949 7.7880 10082.00 10676.00 100.00
950 7.7940 10184.00 10653.20 101.00
951 7.8000 10076.00 10630.50 100.00
952 7.8060 10065.00 10607.70 100.00
953 7.8120 10151.00 10584.90 101.00
954 7.8180 10115.00 10562.10 101.00
955 7.8240 10031.00 10539.40 100.00
956 7.8300 9946.00 10516.60 100.00
957 7.8360 10023.00 10493.80 100.00
958 7.8420 9743.00 10471.00 99.00
959 7.8480 9729.00 10448.20 99.00
960 7.8540 9947.00 10425.50 100.00
961 7.8600 9987.00 10402.70 100.00
962 7.8660 9942.00 10379.90 100.00
963 7.8720 9913.00 10357.10 100.00
964 7.8780 9977.00 10334.40 100.00
965 7.8840 9795.00 10311.60 99.00
966 7.8900 9874.00 10288.80 99.00
967 7.8960 9902.00 10266.00 100.00
968 7.9020 9732.00 10243.20 99.00
969 7.9080 9931.00 10220.50 100.00
970 7.9140 9791.00 10197.70 99.00
971 7.9200 9934.00 10174.90 100.00
972 7.9260 9904.00 10152.10 100.00
973 7.9320 9704.00 10129.40 99.00
974 7.9380 9771.00 10106.60 99.00
975 7.9440 9901.00 10083.80 100.00
976 7.9500 9760.00 10061.00 99.00
977 7.9560 9628.00 10038.20 98.00
978 7.9620 9604.00 10015.50 98.00
979 7.9680 9671.00 10017.70 98.00
980 7.9740 9647.00 10045.00 98.00
981 7.9800 9674.00 10072.30 98.00
982 7.9860 9834.00 10099.50 99.00
983 7.9920 9825.00 10126.80 99.00
984 7.9980 10209.00 10154.10 101.00
985 8.0040 10663.00 10181.40 103.00
986 8.0100 11803.00 10208.60 109.00
987 8.0160 14350.00 10235.90 120.00
988 8.0220 18051.00 10263.20 134.00
989 8.0280 20921.00 10290.50 145.00
990 8.0340 19857.00 10317.70 141.00
991 8.0400 15562.00 10345.00 125.00
992 8.0460 12310.00 10372.30 111.00
993 8.0520 10871.00 10399.60 104.00
994 8.0580 10357.00 10426.80 102.00
995 8.0640 10109.00 10454.10 101.00
996 8.0700 10298.00 10481.40 101.00
997 8.0760 10345.00 10508.60 102.00
998 8.0820 10532.00 10535.90 103.00
999 8.0880 10611.00 10563.20 103.00
1000 8.0940 10548.00 10590.50 103.00
1001 8.1000 10407.00 10617.70 102.00
1002 8.1060 10307.00 10645.00 102.00
1003 8.1120 10128.00 10672.30 101.00
1004 8.1180 10404.00 10699.60 102.00
1005 8.1240 10696.00 10726.80 103.00
1006 8.1300 10785.00 10754.10 104.00
1007 8.1360 10745.00 11118.80 104.00
1008 8.1420 10444.00 11175.90 102.00
1009 8.1480 10229.00 11237.20 101.00
1010 8.1540 10118.00 11702.40 101.00
1011 8.1600 10144.00 11782.10 101.00
1012 8.1660 10329.00 11846.90 102.00
1013 8.1720 10579.00 11926.00 103.00
1014 8.1780 10759.00 12022.60 104.00
1015 8.1840 10967.00 12140.70 105.00
1016 8.1900 11053.00 12286.00 105.00
1017 8.1960 11253.00 12465.60 106.00
1018 8.2020 11637.00 12689.40 108.00
1019 8.2080 12270.00 12971.30 111.00
1020 8.2140 12565.00 13330.90 112.00
1021 8.2200 13006.00 13797.30 114.00
1022 8.2260 13503.00 14414.30 116.00
1023 8.2320 14052.00 15251.40 119.00
1024 8.2380 15223.00 16423.40 123.00
1025 8.2440 17252.00 18135.60 131.00
1026 8.2500 20535.00 20834.70 143.00
1027 8.2560 26379.00 26087.70 162.00
1028 8.2620 40182.00 40253.40 200.00
1029 8.2680 75474.00 78808.50 275.00
1030 8.2740 132290.00 149685.00 364.00
1031 8.2800 172336.00 202440.00 415.00
1032 8.2860 179137.00 176438.00 423.00
1033 8.2920 186398.00 167216.00 432.00
1034 8.2980 212868.00 220174.00 461.00
1035 8.3040 219921.00 233190.00 469.00
1036 8.3100 159307.00 149106.00 399.00
1037 8.3160 79629.00 72790.40 282.00
1038 8.3220 39246.00 37500.80 198.00
1039 8.3280 25145.00 25323.20 159.00
1040 8.3340 19474.00 20472.30 140.00
1041 8.3400 16338.00 17774.40 128.00
1042 8.3460 14145.00 16009.90 119.00
1043 8.3520 12968.00 14778.00 114.00
1044 8.3580 12345.00 13880.90 111.00
1045 8.3640 11802.00 13204.60 109.00
1046 8.3700 11268.00 12680.10 106.00
1047 8.3760 10826.00 12263.30 104.00
1048 8.3820 10388.00 11925.20 102.00
1049 8.3880 10090.00 11645.90 100.00
1050 8.3940 9922.00 11411.40 100.00
1051 8.4000 9805.00 11211.70 99.00
1052 8.4060 9739.00 11039.40 99.00
1053 8.4120 9716.00 10889.10 99.00
1054 8.4180 9717.00 10756.40 99.00
1055 8.4240 9549.00 10638.30 98.00
1056 8.4300 9396.00 10222.10 97.00
1057 8.4360 9329.00 10150.50 97.00
1058 8.4420 9167.00 10091.10 96.00
1059 8.4480 9031.00 10036.70 95.00
1060 8.4540 8989.00 9606.16 95.00
1061 8.4600 9040.00 9587.70 95.00
1062 8.4660 9181.00 9569.25 96.00
1063 8.4720 9180.00 9550.79 96.00
1064 8.4780 8858.00 9532.33 94.00
1065 8.4840 8821.00 9513.88 94.00
1066 8.4900 8756.00 9495.42 94.00
1067 8.4960 8757.00 9476.96 94.00
1068 8.5020 8808.00 9458.51 94.00
1069 8.5080 8798.00 9440.05 94.00
1070 8.5140 8924.00 9421.60 94.00
1071 8.5200 8973.00 9403.14 95.00
1072 8.5260 9023.00 9384.68 95.00
1073 8.5320 9227.00 9366.23 96.00
1074 8.5380 9577.00 9347.77 98.00
1075 8.5440 9863.00 9329.32 99.00
1076 8.5500 10209.00 9310.86 101.00
1077 8.5560 10555.00 9292.40 103.00
1078 8.5620 10293.00 9273.94 101.00
1079 8.5680 9784.00 9255.49 99.00
1080 8.5740 9349.00 9237.03 97.00
1081 8.5800 9131.00 9218.58 96.00
1082 8.5860 8889.00 9200.12 94.00
1083 8.5920 8698.00 9181.66 93.00
1084 8.5980 8717.00 9163.21 93.00
1085 8.6040 8629.00 9144.75 93.00
1086 8.6100 8535.00 9126.30 92.00
1087 8.6160 8550.00 9107.84 92.00
1088 8.6220 8580.00 9085.92 93.00
1089 8.6280 8575.00 9062.27 93.00
1090 8.6340 8541.00 9038.62 92.00
1091 8.6400 8762.00 9014.97 94.00
1092 8.6460 8947.00 8991.32 95.00
1093 8.6520 9138.00 8967.67 96.00
1094 8.6580 9707.00 8944.02 99.00
1095 8.6640 10484.00 8920.37 102.00
1096 8.6700 11263.00 8896.72 106.00
1097 8.6760 11970.00 8873.07 109.00
1098 8.6820 12453.00 8849.42 112.00
1099 8.6880 12671.00 8825.77 113.00
1100 8.6940 12616.00 8802.12 112.00
1101 8.7000 12281.00 8778.47 111.00
1102 8.7060 11626.00 8754.82 108.00
1103 8.7120 10753.00 8731.17 104.00
1104 8.7180 10155.00 8707.52 101.00
1105 8.7240 9795.00 8683.88 99.00
1106 8.7300 9494.00 8660.23 97.00
1107 8.7360 9265.00 8636.58 96.00
1108 8.7420 9044.00 8612.93 95.00
1109 8.7480 8637.00 8589.28 93.00
1110 8.7540 8522.00 8565.63 92.00
1111 8.7600 8358.00 8541.98 91.00
1112 8.7660 8240.00 8518.33 91.00
1113 8.7720 8015.00 8494.68 90.00
1114 8.7780 7981.00 8471.03 89.00
1115 8.7840 8008.00 8447.38 89.00
1116 8.7900 8069.00 8423.73 90.00
1117 8.7960 7973.00 8400.08 89.00
1118 8.8020 8035.00 8376.43 90.00
1119 8.8080 7892.00 8352.78 89.00
1120 8.8140 7967.00 8523.22 89.00
1121 8.8200 7950.00 8516.09 89.00
1122 8.8260 7849.00 8511.15 89.00
1123 8.8320 7888.00 8508.82 89.00
1124 8.8380 7988.00 8509.61 89.00
1125 8.8440 7934.00 8514.14 89.00
1126 8.8500 7723.00 8526.01 88.00
1127 8.8560 7877.00 8544.86 89.00
1128 8.8620 8011.00 8570.64 90.00
1129 8.8680 7965.00 8605.11 89.00
1130 8.8740 8157.00 8650.64 90.00
1131 8.8800 7944.00 8710.48 89.00
1132 8.8860 8212.00 8789.10 91.00
1133 8.8920 8320.00 8892.96 91.00
1134 8.8980 8344.00 9031.34 91.00
1135 8.9040 8539.00 9218.39 92.00
1136 8.9100 8681.00 9476.05 93.00
1137 8.9160 8991.00 9840.17 95.00
1138 8.9220 9491.00 10371.80 97.00
1139 8.9280 10479.00 11185.90 102.00
1140 8.9340 11828.00 12563.20 109.00
1141 8.9400 14573.00 15578.00 121.00
1142 8.9460 21492.00 24235.20 147.00
1143 8.9520 41051.00 46728.60 203.00
1144 8.9580 78893.00 84377.80 281.00
1145 8.9640 103116.00 104510.00 321.00
1146 8.9700 79542.00 75260.90 282.00
1147 8.9760 42285.00 39869.30 206.00
1148 8.9820 22224.00 21233.50 149.00
1149 8.9880 15126.00 14447.80 123.00
1150 8.9940 12160.00 11966.70 110.00
1151 9.0000 11001.00 10726.10 105.00
1152 9.0060 10141.00 9953.32 101.00
1153 9.0120 9660.00 9428.61 98.00
1154 9.0180 9020.00 9054.27 95.00
1155 9.0240 8597.00 8776.39 93.00
1156 9.0300 8582.00 8563.20 93.00
1157 9.0360 8542.00 8394.82 92.00
1158 9.0420 8539.00 8258.56 92.00
1159 9.0480 8365.00 8145.79 91.00
1160 9.0540 8465.00 8050.66 92.00
1161 9.0600 8868.00 7968.98 94.00
1162 9.0660 9674.00 7897.77 98.00
1163 9.0720 10663.00 7834.79 103.00
1164 9.0780 11078.00 7778.40 105.00
1165 9.0840 10504.00 7727.33 102.00
1166 9.0900 9558.00 7680.61 98.00
1167 9.0960 9267.00 7637.48 96.00
1168 9.1020 9055.00 7597.33 95.00
1169 9.1080 8645.00 7559.69 93.00
1170 9.1140 8375.00 7524.16 92.00
1171 9.1200 8121.00 7314.13 90.00
1172 9.1260 7933.00 7294.66 89.00
1173 9.1320 7888.00 7275.20 89.00
1174 9.1380 7743.00 7255.74 88.00
1175 9.1440 7584.00 7236.27 87.00
1176 9.1500 7509.00 7216.81 87.00
1177 9.1560 7416.00 7197.34 86.00
1178 9.1620 7225.00 7177.88 85.00
1179 9.1680 7188.00 7158.41 85.00
1180 9.1740 7214.00 7138.95 85.00
1181 9.1800 7144.00 7119.48 85.00
1182 9.1860 7201.00 7100.02 85.00
1183 9.1920 7220.00 7080.56 85.00
1184 9.1980 7209.00 7061.09 85.00
1185 9.2040 7034.00 7041.63 84.00
1186 9.2100 6938.00 7022.16 83.00
1187 9.2160 6933.00 7002.70 83.00
1188 9.2220 6995.00 6983.23 84.00
1189 9.2280 6942.00 6963.77 83.00
1190 9.2340 6877.00 6948.52 83.00
1191 9.2400 6914.00 6954.37 83.00
1192 9.2460 6989.00 6960.21 84.00
1193 9.2520 6887.00 6966.05 83.00
1194 9.2580 6852.00 6971.89 83.00
1195 9.2640 6973.00 6977.73 84.00
1196 9.2700 7004.00 6983.58 84.00
1197 9.2760 6889.00 6989.42 83.00
1198 9.2820 6893.00 6995.26 83.00
1199 9.2880 6901.00 7001.10 83.00
1200 9.2940 6890.00 7006.94 83.00
1201 9.3000 6849.00 7012.79 83.00
1202 9.3060 6761.00 7010.37 82.00
1203 9.3120 6920.00 6991.44 83.00
1204 9.3180 6936.00 6972.51 83.00
1205 9.3240 6758.00 6953.58 82.00
1206 9.3300 6800.00 6934.66 82.00
1207 9.3360 6921.00 6915.73 83.00
1208 9.3420 7080.00 6896.80 84.00
1209 9.3480 7558.00 6877.87 87.00
1210 9.3540 8387.00 6858.94 92.00
1211 9.3600 8540.00 6840.02 92.00
1212 9.3660 7818.00 6821.09 88.00
1213 9.3720 7556.00 6802.16 87.00
1214 9.3780 7436.00 6783.23 86.00
1215 9.3840 7221.00 6764.30 85.00
1216 9.3900 6968.00 6745.37 83.00
1217 9.3960 6764.00 6726.45 82.00
1218 9.4020 6771.00 6707.52 82.00
1219 9.4080 6887.00 6688.59 83.00
1220 9.4140 6793.00 6669.66 82.00
1221 9.4200 6837.00 6650.73 83.00
1222 9.4260 7062.00 6631.80 84.00
1223 9.4320 7011.00 6612.87 84.00
1224 9.4380 6945.00 6593.95 83.00
1225 9.4440 6919.00 6575.02 83.00
1226 9.4500 6713.00 6556.09 82.00
1227 9.4560 6640.00 6537.16 81.00
1228 9.4620 6711.00 6518.23 82.00
1229 9.4680 6626.00 6499.30 81.00
1230 9.4740 6624.00 6480.38 81.00
1231 9.4800 6655.00 6461.45 82.00
1232 9.4860 6678.00 6456.31 82.00
1233 9.4920 6574.00 6478.75 81.00
1234 9.4980 6573.00 6501.19 81.00
1235 9.5040 6858.00 6523.64 83.00
1236 9.5100 6976.00 6546.08 84.00
1237 9.5160 7211.00 6568.52 85.00
1238 9.5220 7110.00 6590.97 84.00
1239 9.5280 7051.00 6719.82 84.00
1240 9.5340 7101.00 6751.11 84.00
1241 9.5400 6869.00 6783.54 83.00
1242 9.5460 6823.00 6890.16 83.00
1243 9.5520 6703.00 6931.57 82.00
1244 9.5580 6895.00 6975.68 83.00
1245 9.5640 6868.00 7023.04 83.00
1246 9.5700 6892.00 7074.33 83.00
1247 9.5760 6693.00 7130.43 82.00
1248 9.5820 6886.00 7192.46 83.00
1249 9.5880 6869.00 7255.63 83.00
1250 9.5940 7017.00 7325.05 84.00
1251 9.6000 7183.00 7406.60 85.00
1252 9.6060 7414.00 7504.00 86.00
1253 9.6120 7257.00 7622.59 85.00
1254 9.6180 7260.00 7770.09 85.00
1255 9.6240 7492.00 7958.18 87.00
1256 9.6300 7906.00 8205.09 89.00
1257 9.6360 7978.00 8540.36 89.00
1258 9.6420 8732.00 9015.51 93.00
1259 9.6480 9520.00 9734.06 98.00
1260 9.6540 10947.00 11002.50 105.00
1261 9.6600 13454.00 13963.00 116.00
1262 9.6660 20629.00 21734.40 144.00
1263 9.6720 38807.00 37908.10 197.00
1264 9.6780 61110.00 57676.20 247.00
1265 9.6840 65964.00 60475.60 257.00
1266 9.6900 60124.00 51369.20 245.00
1267 9.6960 57527.00 49941.00 240.00
1268 9.7020 52006.00 45733.70 228.00
1269 9.7080 35541.00 31146.90 189.00
1270 9.7140 21102.00 19610.60 145.00
1271 9.7200 15204.00 13637.30 123.00
1272 9.7260 13784.00 11319.40 117.00
1273 9.7320 14956.00 10347.60 122.00
1274 9.7380 17182.00 9832.76 131.00
1275 9.7440 18369.00 9529.63 136.00
1276 9.7500 16518.00 9355.86 129.00
1277 9.7560 13603.00 9272.09 117.00
1278 9.7620 11100.00 9257.21 105.00
1279 9.7680 10241.00 9300.50 101.00
1280 9.7740 9948.00 9398.06 100.00
1281 9.7800 10473.00 9551.19 102.00
1282 9.7860 10837.00 9766.25 104.00
1283 9.7920 11660.00 10055.00 108.00
1284 9.7980 12317.00 10436.60 111.00
1285 9.8040 13347.00 10940.80 116.00
1286 9.8100 13992.00 11613.90 118.00
1287 9.8160 14620.00 12528.70 121.00
1288 9.8220 15254.00 13805.30 124.00
1289 9.8280 16683.00 15650.40 129.00
1290 9.8340 19772.00 18461.80 141.00
1291 9.8400 24019.00 23196.40 155.00
1292 9.8460 34111.00 33991.40 185.00
1293 9.8520 57465.00 63390.00 240.00
1294 9.8580 121233.00 132640.00 348.00
1295 9.8640 246320.00 238149.00 496.00
1296 9.8700 299731.00 283761.00 547.00
1297 9.8760 202765.00 198311.00 450.00
1298 9.8820 101257.00 101385.00 318.00
1299 9.8880 51292.00 49048.30 226.00
1300 9.8940 32294.00 28805.40 180.00
1301 9.9000 23417.00 21081.40 153.00
1302 9.9060 19842.00 17223.10 141.00
1303 9.9120 17330.00 14844.60 132.00
1304 9.9180 15853.00 13246.50 126.00
1305 9.9240 14447.00 12123.30 120.00
1306 9.9300 14004.00 11306.20 118.00
1307 9.9360 13150.00 10695.20 115.00
1308 9.9420 12722.00 10227.70 113.00
1309 9.9480 12317.00 9863.04 111.00
1310 9.9540 11795.00 9573.90 109.00
1311 9.9600 11095.00 9342.55 105.00
1312 9.9660 10602.00 9153.67 103.00
1313 9.9720 10180.00 8998.59 101.00
1314 9.9780 10008.00 8870.20 100.00
1315 9.9840 9654.00 8763.13 98.00
1316 9.9900 9243.00 8673.34 96.00
1317 9.9960 9073.00 8597.66 95.00
1318 10.0020 8875.00 8533.67 94.00
1319 10.0080 8553.00 8479.39 92.00
1320 10.0140 8418.00 8433.30 92.00
1321 10.0200 8264.00 8394.13 91.00
1322 10.0260 8392.00 8360.88 92.00
1323 10.0320 8229.00 7796.62 91.00
1324 10.0380 8430.00 7810.09 92.00
1325 10.0440 8251.00 7823.68 91.00
1326 10.0500 8142.00 7787.20 90.00
1327 10.0560 7925.00 7740.88 89.00
1328 10.0620 7865.00 7694.85 89.00
1329 10.0680 7798.00 7649.25 88.00
1330 10.0740 7867.00 7604.30 89.00
1331 10.0800 7775.00 7560.37 88.00
1332 10.0860 7794.00 7518.19 88.00
1333 10.0920 7738.00 7479.70 88.00
1334 10.0980 7571.00 7452.08 87.00
1335 10.1040 7481.00 7457.53 86.00
1336 10.1100 7764.00 7531.69 88.00
1337 10.1160 7729.00 7666.25 88.00
1338 10.1220 7958.00 7695.34 89.00
1339 10.1280 7427.00 7500.75 86.00
1340 10.1340 7163.00 7286.27 85.00
1341 10.1400 6989.00 7147.46 84.00
1342 10.1460 6763.00 7064.10 82.00
1343 10.1520 6952.00 7002.88 83.00
1344 10.1580 7052.00 6948.65 84.00
1345 10.1640 7113.00 6897.08 84.00
1346 10.1700 7160.00 6846.91 85.00
1347 10.1760 7024.00 6797.59 84.00
1348 10.1820 6874.00 6748.82 83.00
1349 10.1880 6892.00 6700.43 83.00
1350 10.1940 6645.00 6652.28 82.00
1351 10.2000 6580.00 6604.33 81.00
1352 10.2060 6358.00 6556.51 80.00
1353 10.2120 6476.00 6551.58 80.00
1354 10.2180 6576.00 6555.28 81.00
1355 10.2240 6445.00 6559.04 80.00
1356 10.2300 6361.00 6562.84 80.00
1357 10.2360 6378.00 6566.69 80.00
1358 10.2420 6466.00 6570.57 80.00
1359 10.2480 6451.00 6574.47 80.00
1360 10.2540 6471.00 6578.40 80.00
1361 10.2600 6521.00 6582.34 81.00
1362 10.2660 6470.00 6586.30 80.00
1363 10.2720 6262.00 6590.27 79.00
1364 10.2780 6399.00 6594.25 80.00
1365 10.2840 6458.00 6597.27 80.00
1366 10.2900 6498.00 6601.33 81.00
1367 10.2960 6437.00 6605.40 80.00
1368 10.3020 6544.00 6609.46 81.00
1369 10.3080 6586.00 6613.53 81.00
1370 10.3140 6891.00 6617.59 83.00
1371 10.3200 7047.00 6621.65 84.00
1372 10.3260 7418.00 6625.72 86.00
1373 10.3320 7887.00 6629.78 89.00
1374 10.3380 8282.00 6633.85 91.00
1375 10.3440 8165.00 6637.91 90.00
1376 10.3500 7475.00 6641.97 86.00
1377 10.3560 7151.00 6646.04 85.00
1378 10.3620 6946.00 6650.10 83.00
1379 10.3680 6842.00 6654.16 83.00
1380 10.3740 6614.00 6658.23 81.00
1381 10.3800 6823.00 6662.29 83.00
1382 10.3860 7048.00 6666.36 84.00
1383 10.3920 7329.00 6670.42 86.00
1384 10.3980 7117.00 6674.48 84.00
1385 10.4040 6984.00 6678.55 84.00
1386 10.4100 6862.00 6682.61 83.00
1387 10.4160 6773.00 6686.68 82.00
1388 10.4220 6663.00 6690.74 82.00
1389 10.4280 6647.00 6694.80 82.00
1390 10.4340 6568.00 6692.61 81.00
1391 10.4400 6501.00 6659.13 81.00
1392 10.4460 6568.00 6625.65 81.00
1393 10.4520 6624.00 6592.17 81.00
1394 10.4580 6803.00 6558.69 82.00
1395 10.4640 6792.00 6525.22 82.00
1396 10.4700 6820.00 6491.73 83.00
1397 10.4760 6813.00 6458.26 83.00
1398 10.4820 6525.00 6424.78 81.00
1399 10.4880 6369.00 6391.30 80.00
1400 10.4940 6146.00 6357.82 78.00
1401 10.5000 6214.00 6324.34 79.00
1402 10.5060 6207.00 6290.87 79.00
1403 10.5120 6108.00 6257.39 78.00
1404 10.5180 5937.00 6223.91 77.00
1405 10.5240 5948.00 6190.43 77.00
1406 10.5300 5950.00 6156.95 77.00
1407 10.5360 5902.00 6123.47 77.00
1408 10.5420 5815.00 6089.99 76.00
1409 10.5480 5841.00 6056.51 76.00
1410 10.5540 5736.00 6023.04 76.00
1411 10.5600 5715.00 5997.07 76.00
1412 10.5660 5883.00 5986.13 77.00
1413 10.5720 5852.00 5975.20 76.00
1414 10.5780 5788.00 5964.26 76.00
1415 10.5840 5870.00 5953.32 77.00
1416 10.5900 5939.00 5942.38 77.00
1417 10.5960 5963.00 5931.44 77.00
1418 10.6020 5957.00 5920.50 77.00
1419 10.6080 6025.00 5909.57 78.00
1420 10.6140 6081.00 5898.63 78.00
1421 10.6200 6217.00 5887.69 79.00
1422 10.6260 6397.00 5876.75 80.00
1423 10.6320 6471.00 5865.81 80.00
1424 10.6380 6670.00 5854.87 82.00
1425 10.6440 6870.00 5843.94 83.00
1426 10.6500 7136.00 5833.00 84.00
1427 10.6560 7062.00 5822.06 84.00
1428 10.6620 6760.00 5811.12 82.00
1429 10.6680 6537.00 5800.18 81.00
1430 10.6740 6312.00 5789.24 79.00
1431 10.6800 6139.00 5790.18 78.00
1432 10.6860 6069.00 5780.16 78.00
1433 10.6920 5993.00 5770.26 77.00
1434 10.6980 5945.00 5760.50 77.00
1435 10.7040 5887.00 5750.88 77.00
1436 10.7100 5864.00 5741.46 77.00
1437 10.7160 6159.00 5732.25 78.00
1438 10.7220 6384.00 5723.30 80.00
1439 10.7280 6895.00 5714.67 83.00
1440 10.7340 8066.00 5706.43 90.00
1441 10.7400 10289.00 5698.68 101.00
1442 10.7460 13342.00 5691.53 116.00
1443 10.7520 16151.00 5685.15 127.00
1444 10.7580 16726.00 5679.76 129.00
1445 10.7640 14419.00 5675.68 120.00
1446 10.7700 10442.00 5673.32 102.00
1447 10.7760 7929.00 5673.34 89.00
1448 10.7820 6808.00 5676.68 83.00
1449 10.7880 6358.00 5684.81 80.00
1450 10.7940 6060.00 5700.09 78.00
1451 10.8000 5961.00 5726.54 77.00
1452 10.8060 6074.00 5771.81 78.00
1453 10.8120 6194.00 5855.59 79.00
1454 10.8180 6394.00 6046.02 80.00
1455 10.8240 6700.00 6549.51 82.00
1456 10.8300 7544.00 7717.88 87.00
1457 10.8360 9245.00 9590.20 96.00
1458 10.8420 10451.00 10790.80 102.00
1459 10.8480 9413.00 9572.78 97.00
1460 10.8540 7269.00 7677.76 85.00
1461 10.8600 6141.00 6485.57 78.00
1462 10.8660 5741.00 5959.21 76.00
1463 10.8720 5554.00 5746.50 75.00
1464 10.8780 5280.00 5640.71 73.00
1465 10.8840 5184.00 5573.51 72.00
1466 10.8900 5198.00 5525.14 72.00
1467 10.8960 5097.00 5487.97 71.00
1468 10.9020 5102.00 5457.95 71.00
1469 10.9080 5172.00 5432.73 72.00
1470 10.9140 5102.00 5410.83 71.00
1471 10.9200 5042.00 5391.30 71.00
1472 10.9260 5017.00 5373.50 71.00
1473 10.9320 5034.00 5357.01 71.00
1474 10.9380 5039.00 5341.51 71.00
1475 10.9440 4977.00 5326.78 71.00
1476 10.9500 5019.00 5316.44 71.00
1477 10.9560 4956.00 5308.47 70.00
1478 10.9620 5017.00 5300.90 71.00
1479 10.9680 5006.00 5293.65 71.00
1480 10.9740 4897.00 5286.65 70.00
1481 10.9800 4862.00 5279.88 70.00
1482 10.9860 5002.00 5273.29 71.00
1483 10.9920 5015.00 5266.86 71.00
1484 10.9980 4923.00 5260.55 70.00
1485 11.0040 4896.00 5254.36 70.00
1486 11.0100 4926.00 5237.23 70.00
1487 11.0160 4930.00 5231.96 70.00
1488 11.0220 4846.00 5226.70 70.00
1489 11.0280 4842.00 5221.44 70.00
1490 11.0340 4943.00 5216.17 70.00
1491 11.0400 4993.00 5210.91 71.00
1492 11.0460 4938.00 5214.93 70.00
1493 11.0520 4889.00 5210.38 70.00
1494 11.0580 4910.00 5205.91 70.00
1495 11.0640 4981.00 5201.54 71.00
1496 11.0700 5005.00 5197.29 71.00
1497 11.0760 4940.00 5193.18 70.00
1498 11.0820 4945.00 5189.23 70.00
1499 11.0880 5042.00 5185.48 71.00
1500 11.0940 5011.00 5181.96 71.00
1501 11.1000 5043.00 5178.73 71.00
1502 11.1060 5123.00 5175.86 72.00
1503 11.1120 5354.00 5173.43 73.00
1504 11.1180 5623.00 5171.56 75.00
1505 11.1240 5711.00 5170.40 76.00
1506 11.1300 5522.00 5170.17 74.00
1507 11.1360 5223.00 5171.17 72.00
1508 11.1420 5052.00 5173.84 71.00
1509 11.1480 5027.00 5178.82 71.00
1510 11.1540 5019.00 5187.07 71.00
1511 11.1600 4998.00 5200.13 71.00
1512 11.1660 5039.00 5220.56 71.00
1513 11.1720 5109.00 5252.91 71.00
1514 11.1780 5170.00 5307.47 72.00
1515 11.1840 5363.00 5416.58 73.00
1516 11.1900 5641.00 5770.64 75.00
1517 11.1960 6202.00 6437.89 79.00
1518 11.2020 7498.00 7686.77 87.00
1519 11.2080 9091.00 9139.27 95.00
1520 11.2140 9087.00 9015.12 95.00
1521 11.2200 7460.00 7612.31 86.00
1522 11.2260 6252.00 6456.93 79.00
1523 11.2320 5761.00 5879.20 76.00
1524 11.2380 5598.00 5659.35 75.00
1525 11.2440 5641.00 5582.49 75.00
1526 11.2500 5671.00 5558.13 75.00
1527 11.2560 5586.00 5560.05 75.00
1528 11.2620 5547.00 5580.77 74.00
1529 11.2680 5536.00 5618.04 74.00
1530 11.2740 5500.00 5672.12 74.00
1531 11.2800 5579.00 5745.15 75.00
1532 11.2860 5665.00 5841.24 75.00
1533 11.2920 5619.00 5966.85 75.00
1534 11.2980 5714.00 6132.11 76.00
1535 11.3040 5893.00 6352.54 77.00
1536 11.3100 6021.00 6653.03 78.00
1537 11.3160 6459.00 7074.89 80.00
1538 11.3220 7092.00 7696.24 84.00
1539 11.3280 7924.00 8713.74 89.00
1540 11.3340 9712.00 10750.70 99.00
1541 11.3400 13833.00 15479.50 118.00
1542 11.3460 24340.00 25480.30 156.00
1543 11.3520 42481.00 41178.70 206.00
1544 11.3580 57014.00 54169.60 239.00
1545 11.3640 60767.00 56679.40 247.00
1546 11.3700 60026.00 58738.70 245.00
1547 11.3760 52843.00 53451.30 230.00
1548 11.3820 35710.00 36284.40 189.00
1549 11.3880 19750.00 21451.10 141.00
1550 11.3940 12076.00 13353.00 110.00
1551 11.4000 9041.00 9816.38 95.00
1552 11.4060 7743.00 8242.65 88.00
1553 11.4120 6945.00 7379.72 83.00
1554 11.4180 6299.00 6819.53 79.00
1555 11.4240 5935.00 6426.83 77.00
1556 11.4300 5749.00 6139.58 76.00
1557 11.4360 5567.00 5922.82 75.00
1558 11.4420 5367.00 5754.81 73.00
1559 11.4480 5269.00 5621.69 73.00
1560 11.4540 5262.00 5514.11 73.00
1561 11.4600 5169.00 5425.71 72.00
1562 11.4660 5064.00 5351.97 71.00
1563 11.4720 5034.00 5289.63 71.00
1564 11.4780 4977.00 5236.30 71.00
1565 11.4840 4919.00 5190.17 70.00
1566 11.4900 4865.00 5149.87 70.00
1567 11.4960 4896.00 5114.34 70.00
1568 11.5020 4897.00 5082.75 70.00
1569 11.5080 5094.00 5054.45 71.00
1570 11.5140 5316.00 5028.91 73.00
1571 11.5200 5405.00 5005.70 74.00
1572 11.5260 5410.00 4984.49 74.00
1573 11.5320 5155.00 4887.13 72.00
1574 11.5380 4849.00 4874.16 70.00
1575 11.5440 4759.00 4861.99 69.00
1576 11.5500 4717.00 4763.50 69.00
1577 11.5560 4751.00 4758.24 69.00
1578 11.5620 4743.00 4752.98 69.00
1579 11.5680 4655.00 4747.71 68.00
1580 11.5740 4649.00 4742.45 68.00
1581 11.5800 4632.00 4737.19 68.00
1582 11.5860 4506.00 4731.92 67.00
1583 11.5920 4490.00 4726.66 67.00
1584 11.5980 4581.00 4721.40 68.00
1585 11.6040 4577.00 4716.13 68.00
1586 11.6100 4530.00 4710.87 67.00
1587 11.6160 4477.00 4704.77 67.00
1588 11.6220 4420.00 4697.84 66.00
1589 11.6280 4444.00 4690.91 67.00
1590 11.6340 4477.00 4683.98 67.00
1591 11.6400 4467.00 4677.05 67.00
1592 11.6460 4463.00 4670.12 67.00
1593 11.6520 4570.00 4663.19 68.00
1594 11.6580 4636.00 4656.25 68.00
1595 11.6640 4620.00 4649.32 68.00
1596 11.6700 4612.00 4642.39 68.00
1597 11.6760 4593.00 4635.46 68.00
1598 11.6820 4590.00 4628.53 68.00
1599 11.6880 4615.00 4621.60 68.00
1600 11.6940 4620.00 4614.67 68.00
1601 11.7000 4675.00 4607.74 68.00
1602 11.7060 4660.00 4600.81 68.00
1603 11.7120 4693.00 4593.88 69.00
1604 11.7180 4607.00 4586.94 68.00
1605 11.7240 4640.00 4580.01 68.00
1606 11.7300 4598.00 4573.08 68.00
1607 11.7360 4624.00 4566.15 68.00
1608 11.7420 4597.00 4559.22 68.00
1609 11.7480 4520.00 4552.29 67.00
1610 11.7540 4487.00 4545.36 67.00
1611 11.7600 4451.00 4538.43 67.00
1612 11.7660 4467.00 4531.50 67.00
1613 11.7720 4379.00 4524.57 66.00
1614 11.7780 4394.00 4531.05 66.00
1615 11.7840 4384.00 4525.11 66.00
1616 11.7900 4432.00 4519.28 67.00
1617 11.7960 4422.00 4513.59 66.00
1618 11.8020 4407.00 4508.05 66.00
1619 11.8080 4437.00 4502.69 67.00
1620 11.8140 4391.00 4497.54 66.00
1621 11.8200 4427.00 4492.65 67.00
1622 11.8260 4493.00 4488.06 67.00
1623 11.8320 4507.00 4483.83 67.00
1624 11.8380 4520.00 4480.05 67.00
1625 11.8440 4519.00 4476.82 67.00
1626 11.8500 4540.00 4474.27 67.00
1627 11.8560 4460.00 4472.58 67.00
1628 11.8620 4397.00 4472.01 66.00
1629 11.8680 4407.00 4472.86 66.00
1630 11.8740 4446.00 4475.61 67.00
1631 11.8800 4514.00 4480.92 67.00
1632 11.8860 4464.00 4489.78 67.00
1633 11.8920 4363.00 4503.67 66.00
1634 11.8980 4391.00 4524.93 66.00
1635 11.9040 4395.00 4557.46 66.00
1636 11.9100 4536.00 4608.30 67.00
1637 11.9160 4729.00 4693.86 69.00
1638 11.9220 4946.00 4865.24 70.00
1639 11.9280 5374.00 5276.43 73.00
1640 11.9340 6670.00 6231.35 82.00
1641 11.9400 9702.00 7947.35 98.00
1642 11.9460 13127.00 9768.36 115.00
1643 11.9520 12347.00 9618.92 111.00
1644 11.9580 8978.00 7709.80 95.00
1645 11.9640 6489.00 6056.19 81.00
1646 11.9700 5415.00 5162.57 74.00
1647 11.9760 4957.00 4776.04 70.00
1648 11.9820 4730.00 4604.89 69.00
1649 11.9880 4712.00 4510.70 69.00
1650 11.9940 4704.00 4448.50 69.00
1651 12.0000 4539.00 4403.59 67.00
1652 12.0060 4413.00 4369.42 66.00
1653 12.0120 4498.00 4342.31 67.00
1654 12.0180 4479.00 4320.04 67.00
1655 12.0240 4353.00 4301.18 66.00
1656 12.0300 4309.00 4284.80 66.00
1657 12.0360 4328.00 4270.26 66.00
1658 12.0420 4421.00 4257.11 66.00
1659 12.0480 4348.00 4245.03 66.00
1660 12.0540 4229.00 4233.80 65.00
1661 12.0600 4232.00 4223.24 65.00
1662 12.0660 4257.00 4213.21 65.00
1663 12.0720 4217.00 4203.62 65.00
1664 12.0780 4110.00 4194.38 64.00
1665 12.0840 4177.00 4189.86 65.00
1666 12.0900 4111.00 4187.78 64.00
1667 12.0960 4177.00 4185.92 65.00
1668 12.1020 4159.00 4184.23 64.00
1669 12.1080 4178.00 4182.70 65.00
1670 12.1140 4161.00 4181.29 65.00
1671 12.1200 4064.00 4180.00 64.00
1672 12.1260 4081.00 4166.37 64.00
1673 12.1320 4175.00 4166.06 65.00
1674 12.1380 4315.00 4165.75 66.00
1675 12.1440 4231.00 4165.43 65.00
1676 12.1500 4225.00 4165.12 65.00
1677 12.1560 4210.00 4164.80 65.00
1678 12.1620 4228.00 4164.49 65.00
1679 12.1680 4267.00 4164.18 65.00
1680 12.1740 4245.00 4163.86 65.00
1681 12.1800 4103.00 4163.55 64.00
1682 12.1860 4177.00 4163.24 65.00
1683 12.1920 4217.00 4162.92 65.00
1684 12.1980 4224.00 4162.61 65.00
1685 12.2040 4220.00 4162.29 65.00
1686 12.2100 4176.00 4161.98 65.00
1687 12.2160 4278.00 4161.67 65.00
1688 12.2220 4224.00 4161.35 65.00
1689 12.2280 4240.00 4161.04 65.00
1690 12.2340 4234.00 4160.73 65.00
1691 12.2400 4142.00 4160.41 64.00
1692 12.2460 4186.00 4160.10 65.00
1693 12.2520 4121.00 4159.78 64.00
1694 12.2580 4077.00 4159.47 64.00
1695 12.2640 4074.00 4159.16 64.00
1696 12.2700 4219.00 4158.84 65.00
1697 12.2760 4313.00 4158.53 66.00
1698 12.2820 4320.00 4158.22 66.00
1699 12.2880 4396.00 4157.90 66.00
1700 12.2940 4248.00 4157.59 65.00
1701 12.3000 4197.00 4157.28 65.00
1702 12.3060 4128.00 4156.96 64.00
1703 12.3120 4045.00 4156.65 64.00
1704 12.3180 4117.00 4156.33 64.00
1705 12.3240 4177.00 4156.02 65.00
1706 12.3300 4143.00 4155.71 64.00
1707 12.3360 4196.00 4155.39 65.00
1708 12.3420 4246.00 4155.08 65.00
1709 12.3480 4186.00 4154.77 65.00
1710 12.3540 4192.00 4154.45 65.00
1711 12.3600 4454.00 4154.14 67.00
1712 12.3660 4385.00 4153.82 66.00
1713 12.3720 4477.00 4153.51 67.00
1714 12.3780 4623.00 4153.20 68.00
1715 12.3840 4648.00 4152.88 68.00
1716 12.3900 4691.00 4152.57 68.00
1717 12.3960 4669.00 4152.26 68.00
1718 12.4020 4559.00 4151.94 68.00
1719 12.4080 4406.00 4151.63 66.00
1720 12.4140 4310.00 4151.31 66.00
1721 12.4200 4166.00 4151.00 65.00
1722 12.4260 4182.00 4150.69 65.00
1723 12.4320 4134.00 4150.37 64.00
1724 12.4380 4229.00 4150.06 65.00
1725 12.4440 4152.00 4149.75 64.00
1726 12.4500 4215.00 4149.43 65.00
1727 12.4560 4160.00 4149.12 64.00
1728 12.4620 4255.00 4148.81 65.00
1729 12.4680 4229.00 4148.49 65.00
1730 12.4740 4181.00 4148.18 65.00
1731 12.4800 4132.00 4147.86 64.00
1732 12.4860 4158.00 4147.55 64.00
1733 12.4920 4094.00 4147.24 64.00
1734 12.4980 4240.00 4146.92 65.00
1735 12.5040 4067.00 4146.61 64.00
1736 12.5100 4142.00 4145.62 64.00
1737 12.5160 4224.00 4144.50 65.00
1738 12.5220 4114.00 4143.38 64.00
1739 12.5280 4124.00 4142.27 64.00
1740 12.5340 4235.00 4141.15 65.00
1741 12.5400 4152.00 4140.03 64.00
1742 12.5460 4108.00 4138.91 64.00
1743 12.5520 4247.00 4137.79 65.00
1744 12.5580 4238.00 4136.67 65.00
1745 12.5640 4215.00 4135.55 65.00
1746 12.5700 4295.00 4134.43 66.00
1747 12.5760 4469.00 4133.31 67.00
1748 12.5820 4349.00 4132.19 66.00
1749 12.5880 4312.00 4131.07 66.00
1750 12.5940 4430.00 4129.95 67.00
1751 12.6000 4449.00 4128.83 67.00
1752 12.6060 4699.00 4127.71 69.00
1753 12.6120 4848.00 4126.59 70.00
1754 12.6180 5006.00 4125.47 71.00
1755 12.6240 4984.00 4124.35 71.00
1756 12.6300 4901.00 4123.23 70.00
1757 12.6360 4770.00 4122.11 69.00
1758 12.6420 4827.00 4120.99 69.00
1759 12.6480 4665.00 4119.87 68.00
1760 12.6540 4551.00 4118.75 67.00
1761 12.6600 4494.00 4117.63 67.00
1762 12.6660 4425.00 4116.51 67.00
1763 12.6720 4379.00 4115.39 66.00
1764 12.6780 4272.00 4114.27 65.00
1765 12.6840 4258.00 4113.15 65.00
1766 12.6900 4249.00 4112.04 65.00
1767 12.6960 4259.00 4110.92 65.00
1768 12.7020 4148.00 4109.80 64.00
1769 12.7080 4106.00 4108.68 64.00
1770 12.7140 4232.00 4107.56 65.00
1771 12.7200 4119.00 4106.44 64.00
1772 12.7260 4137.00 4105.32 64.00
1773 12.7320 4309.00 4104.20 66.00
1774 12.7380 4350.00 4103.08 66.00
1775 12.7440 4352.00 4101.96 66.00
1776 12.7500 4467.00 4100.84 67.00
1777 12.7560 4645.00 4099.72 68.00
1778 12.7620 5199.00 4098.60 72.00
1779 12.7680 5911.00 4097.48 77.00
1780 12.7740 6642.00 4096.36 81.00
1781 12.7800 7315.00 4095.24 86.00
1782 12.7860 7359.00 4094.12 86.00
1783 12.7920 6294.00 4093.00 79.00
1784 12.7980 5291.00 4091.88 73.00
1785 12.8040 4800.00 4090.76 69.00
1786 12.8100 4481.00 4089.64 67.00
1787 12.8160 4352.00 4088.52 66.00
1788 12.8220 4256.00 4087.40 65.00
1789 12.8280 4228.00 4086.28 65.00
1790 12.8340 4226.00 4085.16 65.00
1791 12.8400 4359.00 4084.04 66.00
1792 12.8460 4208.00 4082.93 65.00
1793 12.8520 4154.00 4081.81 64.00
1794 12.8580 4063.00 4080.69 64.00
1795 12.8640 4224.00 4079.57 65.00
1796 12.8700 4154.00 4078.45 64.00
1797 12.8760 4125.00 4077.33 64.00
1798 12.8820 4152.00 4076.21 64.00
1799 12.8880 4124.00 4075.09 64.00
1800 12.8940 4147.00 4073.97 64.00
1801 12.9000 4164.00 4072.85 65.00
1802 12.9060 4079.00 4071.73 64.00
1803 12.9120 3984.00 4070.61 63.00
1804 12.9180 4058.00 4069.49 64.00
1805 12.9240 4141.00 4068.37 64.00
1806 12.9300 4027.00 4067.25 63.00
1807 12.9360 4015.00 4066.13 63.00
1808 12.9420 3948.00 4065.01 63.00
1809 12.9480 3930.00 4063.89 63.00
1810 12.9540 3958.00 4062.77 63.00
1811 12.9600 4041.00 4061.65 64.00
1812 12.9660 4025.00 4060.53 63.00
1813 12.9720 4006.00 4059.41 63.00
1814 12.9780 4038.00 4058.29 64.00
1815 12.9840 4089.00 4057.17 64.00
1816 12.9900 3962.00 4056.05 63.00
1817 12.9960 4052.00 4054.93 64.00
1818 13.0020 4016.00 4053.81 63.00
1819 13.0080 3864.00 4052.69 62.00
1820 13.0140 4094.00 4051.58 64.00
1821 13.0200 3977.00 4050.46 63.00
1822 13.0260 4072.00 4053.68 64.00
1823 13.0320 4062.00 4053.78 64.00
1824 13.0380 4017.00 4058.51 63.00
1825 13.0440 4100.00 4058.98 64.00
1826 13.0500 4124.00 4059.51 64.00
1827 13.0560 4067.00 4060.13 64.00
1828 13.0620 3985.00 4060.83 63.00
1829 13.0680 4051.00 4061.65 64.00
1830 13.0740 4162.00 4062.58 65.00
1831 13.0800 4105.00 4063.67 64.00
1832 13.0860 4120.00 4064.93 64.00
1833 13.0920 4063.00 4066.40 64.00
1834 13.0980 4275.00 4068.12 65.00
1835 13.1040 4171.00 4070.15 65.00
1836 13.1100 4270.00 4072.57 65.00
1837 13.1160 4196.00 4075.46 65.00
1838 13.1220 4175.00 4079.97 65.00
1839 13.1280 4027.00 4090.36 63.00
1840 13.1340 4201.00 4101.76 65.00
1841 13.1400 4243.00 4114.50 65.00
1842 13.1460 4191.00 4129.06 65.00
1843 13.1520 4367.00 4146.17 66.00
1844 13.1580 4399.00 4420.92 66.00
1845 13.1640 4244.00 4463.99 65.00
1846 13.1700 4469.00 4517.57 67.00
1847 13.1760 4510.00 4589.73 67.00
1848 13.1820 4644.00 4702.48 68.00
1849 13.1880 4822.00 4908.74 69.00
1850 13.1940 4982.00 5295.19 71.00
1851 13.2000 5652.00 5923.64 75.00
1852 13.2060 6445.00 6652.98 80.00
1853 13.2120 6650.00 7097.17 82.00
1854 13.2180 6670.00 7289.57 82.00
1855 13.2240 6354.00 7058.12 80.00
1856 13.2300 5691.00 6364.46 75.00
1857 13.2360 5243.00 5768.35 72.00
1858 13.2420 5249.00 5459.24 72.00
1859 13.2480 5107.00 5371.39 71.00
1860 13.2540 5034.00 5406.72 71.00
1861 13.2600 5128.00 5509.69 72.00
1862 13.2660 5379.00 5663.50 73.00
1863 13.2720 5510.00 5870.20 74.00
1864 13.2780 5628.00 6207.86 75.00
1865 13.2840 6057.00 6567.97 78.00
1866 13.2900 6357.00 7045.50 80.00
1867 13.2960 6812.00 7692.40 83.00
1868 13.3020 7690.00 8596.18 88.00
1869 13.3080 8864.00 9923.11 94.00
1870 13.3140 10937.00 12085.90 105.00
1871 13.3200 14258.00 16300.50 119.00
1872 13.3260 21138.00 25671.70 145.00
1873 13.3320 37379.00 45255.50 193.00
1874 13.3380 78365.00 77546.40 280.00
1875 13.3440 138368.00 110041.00 372.00
1876 13.3500 126330.00 108175.00 355.00
1877 13.3560 65520.00 74568.00 256.00
1878 13.3620 32220.00 43229.90 179.00
1879 13.3680 19388.00 24735.00 139.00
1880 13.3740 13487.00 16028.10 116.00
1881 13.3800 10620.00 12128.00 103.00
1882 13.3860 9058.00 10132.10 95.00
1883 13.3920 7908.00 8930.16 89.00
1884 13.3980 7487.00 8145.84 87.00
1885 13.4040 7162.00 7636.50 85.00
1886 13.4100 6872.00 7322.29 83.00
1887 13.4160 6901.00 7180.65 83.00
1888 13.4220 6937.00 7209.61 83.00
1889 13.4280 7252.00 7469.08 85.00
1890 13.4340 7906.00 8179.71 89.00
1891 13.4400 9589.00 9962.48 98.00
1892 13.4460 13638.00 13973.30 117.00
1893 13.4520 22313.00 21134.10 149.00
1894 13.4580 33519.00 29648.80 183.00
1895 13.4640 35372.00 31774.40 188.00
1896 13.4700 24700.00 24518.30 157.00
1897 13.4760 14526.00 16171.30 121.00
1898 13.4820 10336.00 10786.50 102.00
1899 13.4880 8205.00 8105.30 91.00
1900 13.4940 7060.00 6884.71 84.00
1901 13.5000 6551.00 6266.88 81.00
1902 13.5060 6286.00 5891.36 79.00
1903 13.5120 6136.00 5634.78 78.00
1904 13.5180 5835.00 5449.25 76.00
1905 13.5240 5857.00 5310.38 77.00
1906 13.5300 5595.00 5203.72 75.00
1907 13.5360 5426.00 4867.35 74.00
1908 13.5420 5135.00 4815.74 72.00
1909 13.5480 5094.00 4775.47 71.00
1910 13.5540 5190.00 4743.79 72.00
1911 13.5600 5021.00 4717.64 71.00
1912 13.5660 4989.00 4696.64 71.00
1913 13.5720 5193.00 4679.71 72.00
1914 13.5780 5235.00 4666.04 72.00
1915 13.5840 5528.00 4655.01 74.00
1916 13.5900 5471.00 4646.16 74.00
1917 13.5960 5817.00 4639.10 76.00
1918 13.6020 5720.00 4633.54 76.00
1919 13.6080 5625.00 4629.24 75.00
1920 13.6140 5380.00 4625.99 73.00
1921 13.6200 5282.00 4623.66 73.00
1922 13.6260 5160.00 4622.11 72.00
1923 13.6320 5074.00 4621.23 71.00
1924 13.6380 4933.00 4620.93 70.00
1925 13.6440 4766.00 4621.14 69.00
1926 13.6500 4712.00 4621.79 69.00
1927 13.6560 4621.00 4562.57 68.00
1928 13.6620 4680.00 4567.51 68.00
1929 13.6680 4574.00 4572.45 68.00
1930 13.6740 4603.00 4577.38 68.00
1931 13.6800 4615.00 4582.32 68.00
1932 13.6860 4504.00 4587.26 67.00
1933 13.6920 4593.00 4592.20 68.00
1934 13.6980 4681.00 4610.69 68.00
1935 13.7040 4624.00 4629.18 68.00
1936 13.7100 4692.00 4647.68 68.00
1937 13.7160 4925.00 4666.17 70.00
1938 13.7220 4945.00 4684.66 70.00
1939 13.7280 4976.00 4703.15 71.00
1940 13.7340 4908.00 4721.65 70.00
1941 13.7400 4757.00 4740.14 69.00
1942 13.7460 4822.00 4758.64 69.00
1943 13.7520 4803.00 4777.13 69.00
1944 13.7580 5051.00 4876.09 71.00
1945 13.7640 5245.00 4899.91 72.00
1946 13.7700 5540.00 4924.28 74.00
1947 13.7760 6226.00 4949.27 79.00
1948 13.7820 7225.00 4974.97 85.00
1949 13.7880 8290.00 5001.50 91.00
1950 13.7940 8757.00 5028.98 94.00
1951 13.8000 8528.00 5057.58 92.00
1952 13.8060 7947.00 5217.35 89.00
1953 13.8120 6864.00 5257.13 83.00
1954 13.8180 5888.00 5299.56 77.00
1955 13.8240 5488.00 5345.12 74.00
1956 13.8300 5259.00 5394.37 73.00
1957 13.8360 4975.00 5448.06 71.00
1958 13.8420 5032.00 5507.10 71.00
1959 13.8480 5069.00 5568.29 71.00
1960 13.8540 5102.00 5615.66 71.00
1961 13.8600 5190.00 5673.11 72.00
1962 13.8660 5268.00 5743.38 73.00
1963 13.8720 5464.00 5830.14 74.00
1964 13.8780 5526.00 5938.65 74.00
1965 13.8840 5657.00 6076.37 75.00
1966 13.8900 5877.00 6254.46 77.00
1967 13.8960 6384.00 6489.96 80.00
1968 13.9020 7108.00 6810.91 84.00
1969 13.9080 8173.00 7269.35 90.00
1970 13.9140 9970.00 7991.05 100.00
1971 13.9200 13199.00 9329.73 115.00
1972 13.9260 18377.00 12146.20 136.00
1973 13.9320 24308.00 17845.80 156.00
1974 13.9380 27650.00 27139.90 166.00
1975 13.9440 28047.00 37080.20 167.00
1976 13.9500 27524.00 38301.20 166.00
1977 13.9560 26525.00 29670.00 163.00
1978 13.9620 25963.00 20877.10 161.00
1979 13.9680 25732.00 16038.70 160.00
1980 13.9740 26916.00 15355.70 164.00
1981 13.9800 29655.00 19012.70 172.00
1982 13.9860 33790.00 28407.20 184.00
1983 13.9920 39678.00 43971.80 199.00
1984 13.9980 46518.00 59218.40 216.00
1985 14.0040 51760.00 57940.40 228.00
1986 14.0100 47320.00 41542.00 218.00
1987 14.0160 33580.00 25920.40 183.00
1988 14.0220 20966.00 16330.50 145.00
1989 14.0280 14362.00 11588.00 120.00
1990 14.0340 11444.00 9372.67 107.00
1991 14.0400 9851.00 8211.43 99.00
1992 14.0460 8900.00 7494.56 94.00
1993 14.0520 8343.00 7006.91 91.00
1994 14.0580 7953.00 6662.02 89.00
1995 14.0640 7502.00 6415.69 87.00
1996 14.0700 7058.00 6243.18 84.00
1997 14.0760 6820.00 6131.35 83.00
1998 14.0820 6764.00 6076.29 82.00
1999 14.0880 6831.00 6085.05 83.00
2000 14.0940 7146.00 6189.01 85.00
2001 14.1000 7902.00 6488.82 89.00
2002 14.1060 9168.00 7235.70 96.00
2003 14.1120 10814.00 8836.71 104.00
2004 14.1180 11311.00 11526.30 106.00
2005 14.1240 11004.00 14469.50 105.00
2006 14.1300 10222.00 14884.80 101.00
2007 14.1360 9324.00 12177.90 97.00
2008 14.1420 8822.00 9225.16 94.00
2009 14.1480 8127.00 7248.25 90.00
2010 14.1540 7542.00 6320.82 87.00
2011 14.1600 7193.00 5997.43 85.00
2012 14.1660 7069.00 6043.77 84.00
2013 14.1720 7091.00 6341.94 84.00
2014 14.1780 7188.00 6646.85 85.00
2015 14.1840 7084.00 6496.95 84.00
2016 14.1900 6680.00 5971.50 82.00
2017 14.1960 6301.00 5365.15 79.00
2018 14.2020 5937.00 5070.84 77.00
2019 14.2080 5481.00 4913.26 74.00
2020 14.2140 5348.00 4827.96 73.00
2021 14.2200 5277.00 4774.28 73.00
2022 14.2260 5154.00 4735.09 72.00
2023 14.2320 5152.00 4703.96 72.00
2024 14.2380 5180.00 4678.10 72.00
2025 14.2440 5157.00 4655.94 72.00
2026 14.2500 5159.00 4636.49 72.00
2027 14.2560 5231.00 4619.07 72.00
2028 14.2620 5299.00 4603.22 73.00
2029 14.2680 5369.00 4588.61 73.00
2030 14.2740 5478.00 4574.98 74.00
2031 14.2800 5470.00 4562.15 74.00
2032 14.2860 5534.00 4549.97 74.00
2033 14.2920 5845.00 4538.34 76.00
2034 14.2980 6143.00 4527.15 78.00
2035 14.3040 6435.00 4516.36 80.00
2036 14.3100 6394.00 4505.89 80.00
2037 14.3160 6105.00 4495.71 78.00
2038 14.3220 5930.00 4485.76 77.00
2039 14.3280 5674.00 4453.46 75.00
2040 14.3340 5465.00 4445.20 74.00
2041 14.3400 5261.00 4436.99 73.00
2042 14.3460 5002.00 4428.83 71.00
2043 14.3520 4971.00 4420.71 71.00
2044 14.3580 5033.00 4412.62 71.00
2045 14.3640 4907.00 4404.56 70.00
2046 14.3700 4945.00 4396.53 70.00
2047 14.3760 4994.00 4388.53 71.00
2048 14.3820 4896.00 4377.07 70.00
2049 14.3880 4910.00 4369.30 70.00
2050 14.3940 5060.00 4361.53 71.00
2051 14.4000 5076.00 4353.76 71.00
2052 14.4060 5046.00 4345.99 71.00
2053 14.4120 5077.00 4338.22 71.00
2054 14.4180 4943.00 4330.45 70.00
2055 14.4240 4696.00 4322.68 69.00
2056 14.4300 4528.00 4314.91 67.00
2057 14.4360 4471.00 4307.14 67.00
2058 14.4420 4454.00 4299.37 67.00
2059 14.4480 4396.00 4291.60 66.00
2060 14.4540 4366.00 4289.61 66.00
2061 14.4600 4362.00 4289.06 66.00
2062 14.4660 4362.00 4302.27 66.00
2063 14.4720 4401.00 4315.51 66.00
2064 14.4780 4361.00 4328.80 66.00
2065 14.4840 4324.00 4342.15 66.00
2066 14.4900 4332.00 4355.55 66.00
2067 14.4960 4466.00 4369.01 67.00
2068 14.5020 4496.00 4382.55 67.00
2069 14.5080 4506.00 4406.42 67.00
2070 14.5140 4568.00 4420.81 68.00
2071 14.5200 4575.00 4435.38 68.00
2072 14.5260 4490.00 4450.17 67.00
2073 14.5320 4484.00 4465.22 67.00
2074 14.5380 4486.00 4480.57 67.00
2075 14.5440 4457.00 4496.29 67.00
2076 14.5500 4431.00 4512.45 67.00
2077 14.5560 4504.00 4529.14 67.00
2078 14.5620 4414.00 4546.50 66.00
2079 14.5680 4392.00 4564.69 66.00
2080 14.5740 4487.00 4583.92 67.00
2081 14.5800 4567.00 4604.51 68.00
2082 14.5860 4675.00 4626.88 68.00
2083 14.5920 4751.00 4651.62 69.00
2084 14.5980 4796.00 4679.64 69.00
2085 14.6040 4986.00 4712.33 71.00
2086 14.6100 5129.00 4751.92 72.00
2087 14.6160 5506.00 4802.79 74.00
2088 14.6220 5657.00 4875.48 75.00
2089 14.6280 5986.00 4998.54 77.00
2090 14.6340 6521.00 5235.87 81.00
2091 14.6400 6750.00 5681.83 82.00
2092 14.6460 6796.00 6379.41 82.00
2093 14.6520 6641.00 7112.32 81.00
2094 14.6580 6512.00 7235.87 81.00
2095 14.6640 6352.00 6653.51 80.00
2096 14.6700 6267.00 6036.76 79.00
2097 14.6760 6188.00 5712.23 79.00
2098 14.6820 6288.00 5741.36 79.00
2099 14.6880 6417.00 6173.28 80.00
2100 14.6940 6808.00 7076.29 83.00
2101 14.7000 7329.00 8311.37 86.00
2102 14.7060 7898.00 9062.05 89.00
2103 14.7120 8016.00 8416.18 90.00
2104 14.7180 7426.00 7157.60 86.00
2105 14.7240 6553.00 6169.56 81.00
2106 14.7300 5737.00 5603.76 76.00
2107 14.7360 5531.00 5331.29 74.00
2108 14.7420 5012.00 5204.28 71.00
2109 14.7480 4773.00 5138.77 69.00
2110 14.7540 4756.00 5101.31 69.00
2111 14.7600 4758.00 5078.27 69.00
2112 14.7660 4882.00 5064.62 70.00
2113 14.7720 4975.00 5057.34 71.00
2114 14.7780 5047.00 5054.53 71.00
2115 14.7840 5061.00 5054.96 71.00
2116 14.7900 5057.00 5023.62 71.00
2117 14.7960 4991.00 4994.10 71.00
2118 14.8020 5092.00 4965.99 71.00
2119 14.8080 5273.00 4938.98 73.00
2120 14.8140 5345.00 4912.85 73.00
2121 14.8200 5337.00 4887.43 73.00
2122 14.8260 5202.00 4862.60 72.00
2123 14.8320 5380.00 4838.26 73.00
2124 14.8380 5260.00 4814.32 73.00
2125 14.8440 5133.00 4790.74 72.00
2126 14.8500 5062.00 4767.46 71.00
2127 14.8560 4961.00 4744.45 70.00
2128 14.8620 5069.00 4716.17 71.00
2129 14.8680 5100.00 4693.94 71.00
2130 14.8740 5058.00 4671.91 71.00
2131 14.8800 4910.00 4650.07 70.00
2132 14.8860 4836.00 4628.46 70.00
2133 14.8920 4927.00 4607.10 70.00
2134 14.8980 4775.00 4586.05 69.00
2135 14.9040 4560.00 4565.40 68.00
2136 14.9100 4600.00 4552.35 68.00
2137 14.9160 4581.00 4550.45 68.00
2138 14.9220 4590.00 4550.21 68.00
2139 14.9280 4574.00 4553.81 68.00
2140 14.9340 4685.00 4566.25 68.00
2141 14.9400 4825.00 4595.28 69.00
2142 14.9460 5092.00 4645.75 71.00
2143 14.9520 5451.00 4704.08 74.00
2144 14.9580 5559.00 4718.99 75.00
2145 14.9640 5277.00 4725.04 73.00
2146 14.9700 5137.00 4660.91 72.00
2147 14.9760 4942.00 4685.94 70.00
2148 14.9820 4550.00 4665.16 67.00
2149 14.9880 4556.00 4657.92 67.00
2150 14.9940 4470.00 4657.63 67.00
2151 15.0000 4492.00 4660.95 67.00
2152 15.0060 4397.00 4666.67 66.00
2153 15.0120 4415.00 4674.44 66.00
2154 15.0180 4307.00 4684.25 66.00
2155 15.0240 4299.00 4696.22 66.00
2156 15.0300 4391.00 4710.58 66.00
2157 15.0360 4312.00 4729.06 66.00
2158 15.0420 4458.00 4757.78 67.00
2159 15.0480 4382.00 4790.18 66.00
2160 15.0540 4458.00 4826.96 67.00
2161 15.0600 4585.00 4869.00 68.00
2162 15.0660 4507.00 4917.44 67.00
2163 15.0720 4639.00 4973.74 68.00
2164 15.0780 4614.00 5039.86 68.00
2165 15.0840 4523.00 5118.38 67.00
2166 15.0900 4646.00 5212.76 68.00
2167 15.0960 4837.00 5327.82 70.00
2168 15.1020 4827.00 5470.30 69.00
2169 15.1080 4874.00 5649.88 70.00
2170 15.1140 5315.00 5881.10 73.00
2171 15.1200 5606.00 6186.19 75.00
2172 15.1260 5946.00 6602.33 77.00
2173 15.1320 6450.00 7202.50 80.00
2174 15.1380 7318.00 8160.40 86.00
2175 15.1440 8865.00 9906.71 94.00
2176 15.1500 11941.00 13325.00 109.00
2177 15.1560 18274.00 19683.70 135.00
2178 15.1620 32049.00 29775.30 179.00
2179 15.1680 49059.00 41440.30 221.00
2180 15.1740 54579.00 48523.40 234.00
2181 15.1800 51837.00 49016.00 228.00
2182 15.1860 41373.00 41508.90 203.00
2183 15.1920 27211.00 29229.50 165.00
2184 15.1980 17147.00 19148.60 131.00
2185 15.2040 11837.00 12986.00 109.00
2186 15.2100 8853.00 9752.19 94.00
2187 15.2160 7568.00 8115.01 87.00
2188 15.2220 6728.00 7209.59 82.00
2189 15.2280 6117.00 6636.53 78.00
2190 15.2340 5700.00 6237.80 75.00
2191 15.2400 5594.00 5946.30 75.00
2192 15.2460 5259.00 5726.72 73.00
2193 15.2520 5307.00 5557.55 73.00
2194 15.2580 5122.00 5424.75 72.00
2195 15.2640 4792.00 5318.88 69.00
2196 15.2700 4805.00 5233.27 69.00
2197 15.2760 4867.00 5163.27 70.00
2198 15.2820 4761.00 5105.44 69.00
2199 15.2880 4648.00 5059.62 68.00
2200 15.2940 4566.00 5019.34 68.00
2201 15.3000 4633.00 4971.10 68.00
2202 15.3060 4494.00 4925.17 67.00
2203 15.3120 4621.00 4883.51 68.00
2204 15.3180 4533.00 4845.44 67.00
2205 15.3240 4435.00 4810.38 67.00
2206 15.3300 4455.00 4777.88 67.00
2207 15.3360 4449.00 4747.58 67.00
2208 15.3420 4317.00 4719.16 66.00
2209 15.3480 4438.00 4692.37 67.00
2210 15.3540 4315.00 4667.02 66.00
2211 15.3600 4434.00 4642.93 67.00
2212 15.3660 4398.00 4619.96 66.00
2213 15.3720 4462.00 4598.00 67.00
2214 15.3780 4515.00 4518.87 67.00
2215 15.3840 4335.00 4501.85 66.00
2216 15.3900 4417.00 4422.62 66.00
2217 15.3960 4367.00 4424.70 66.00
2218 15.4020 4245.00 4426.98 65.00
2219 15.4080 4273.00 4429.53 65.00
2220 15.4140 4395.00 4432.41 66.00
2221 15.4200 4300.00 4435.75 66.00
2222 15.4260 4300.00 4439.68 66.00
2223 15.4320 4412.00 4444.44 66.00
2224 15.4380 4398.00 4450.34 66.00
2225 15.4440 4323.00 4457.90 66.00
2226 15.4500 4458.00 4467.97 67.00
2227 15.4560 4379.00 4482.30 66.00
2228 15.4620 4460.00 4505.11 67.00
2229 15.4680 4547.00 4547.37 67.00
2230 15.4740 4540.00 4632.30 67.00
2231 15.4800 4697.00 4792.30 69.00
2232 15.4860 4881.00 5042.02 70.00
2233 15.4920 5022.00 5310.84 71.00
2234 15.4980 4940.00 5375.14 70.00
2235 15.5040 4876.00 5157.40 70.00
2236 15.5100 4725.00 4888.01 69.00
2237 15.5160 4498.00 4694.17 67.00
2238 15.5220 4572.00 4586.00 68.00
2239 15.5280 4601.00 4533.36 68.00
2240 15.5340 4590.00 4508.01 68.00
2241 15.5400 4523.00 4494.44 67.00
2242 15.5460 4395.00 4485.50 66.00
2243 15.5520 4561.00 4478.41 68.00
2244 15.5580 4556.00 4473.05 67.00
2245 15.5640 4521.00 4479.62 67.00
2246 15.5700 4615.00 4477.87 68.00
2247 15.5760 4607.00 4477.13 68.00
2248 15.5820 4443.00 4477.12 67.00
2249 15.5880 4391.00 4477.68 66.00
2250 15.5940 4479.00 4478.71 67.00
2251 15.6000 4346.00 4481.65 66.00
2252 15.6060 4360.00 4483.59 66.00
2253 15.6120 4421.00 4485.94 66.00
2254 15.6180 4370.00 4488.72 66.00
2255 15.6240 4407.00 4491.97 66.00
2256 15.6300 4495.00 4509.58 67.00
2257 15.6360 4537.00 4534.73 67.00
2258 15.6420 4566.00 4560.66 68.00
2259 15.6480 4678.00 4587.55 68.00
2260 15.6540 4745.00 4615.67 69.00
2261 15.6600 4744.00 4645.42 69.00
2262 15.6660 4756.00 4677.39 69.00
2263 15.6720 4853.00 4712.53 70.00
2264 15.6780 4760.00 4752.65 69.00
2265 15.6840 4916.00 4801.87 70.00
2266 15.6900 4958.00 4870.64 70.00
2267 15.6960 4979.00 4981.14 71.00
2268 15.7020 5274.00 5165.90 73.00
2269 15.7080 5470.00 5442.53 74.00
2270 15.7140 5664.00 5762.46 75.00
2271 15.7200 5961.00 5917.28 77.00
2272 15.7260 5828.00 5780.85 76.00
2273 15.7320 5561.00 5566.20 75.00
2274 15.7380 5502.00 5441.76 74.00
2275 15.7440 5698.00 5452.98 75.00
2276 15.7500 6046.00 5631.67 78.00
2277 15.7560 6917.00 6061.51 83.00
2278 15.7620 7875.00 6860.44 89.00
2279 15.7680 8767.00 8032.46 94.00
2280 15.7740 9454.00 9135.57 97.00
2281 15.7800 9426.00 9164.03 97.00
2282 15.7860 9345.00 8132.34 97.00
2283 15.7920 8884.00 7064.03 94.00
2284 15.7980 8206.00 6415.06 91.00
2285 15.8040 7426.00 6170.36 86.00
2286 15.8100 6897.00 6121.24 83.00
2287 15.8160 6500.00 6010.00 81.00
2288 15.8220 6066.00 5800.90 78.00
2289 15.8280 5561.00 5613.67 75.00
2290 15.8340 5471.00 5493.63 74.00
2291 15.8400 5401.00 5431.46 73.00
2292 15.8460 5262.00 5404.80 73.00
2293 15.8520 5279.00 5396.36 73.00
2294 15.8580 5221.00 5397.11 72.00
2295 15.8640 5354.00 5387.04 73.00
2296 15.8700 5555.00 5380.42 75.00
2297 15.8760 5562.00 5376.26 75.00
2298 15.8820 5610.00 5373.91 75.00
2299 15.8880 5590.00 5372.95 75.00
2300 15.8940 5509.00 5373.06 74.00
2301 15.9000 5594.00 5374.02 75.00
2302 15.9060 5513.00 5375.66 74.00
2303 15.9120 5321.00 5377.86 73.00
2304 15.9180 5307.00 5380.50 73.00
2305 15.9240 5474.00 5383.52 74.00
2306 15.9300 5529.00 5386.85 74.00
2307 15.9360 5438.00 5388.18 74.00
2308 15.9420 5559.00 5392.12 75.00
2309 15.9480 5720.00 5396.25 76.00
2310 15.9540 5990.00 5400.54 77.00
2311 15.9600 6459.00 5404.96 80.00
2312 15.9660 6982.00 5409.50 84.00
2313 15.9720 7473.00 5414.15 86.00
2314 15.9780 7922.00 5418.89 89.00
2315 15.9840 7901.00 5423.70 89.00
2316 15.9900 7542.00 5428.59 87.00
2317 15.9960 6972.00 5423.85 83.00
2318 16.0020 6410.00 5429.36 80.00
2319 16.0080 6005.00 5434.89 77.00
2320 16.0140 5742.00 5440.42 76.00
2321 16.0200 5626.00 5445.97 75.00
2322 16.0260 5507.00 5451.52 74.00
2323 16.0320 5427.00 5455.67 74.00
2324 16.0380 5482.00 5481.64 74.00
2325 16.0440 5512.00 5467.80 74.00
2326 16.0500 5533.00 5454.13 74.00
2327 16.0560 5567.00 5440.67 75.00
2328 16.0620 5572.00 5427.43 75.00
2329 16.0680 5655.00 5414.45 75.00
2330 16.0740 5632.00 5480.94 75.00
2331 16.0800 5691.00 5473.23 75.00
2332 16.0860 5820.00 5466.32 76.00
2333 16.0920 5837.00 5460.32 76.00
2334 16.0980 5883.00 5455.37 77.00
2335 16.1040 5785.00 5451.60 76.00
2336 16.1100 5544.00 5449.22 74.00
2337 16.1160 5327.00 5448.43 73.00
2338 16.1220 5295.00 5449.50 73.00
2339 16.1280 5288.00 5452.76 73.00
2340 16.1340 5216.00 5458.60 72.00
2341 16.1400 5164.00 5467.51 72.00
2342 16.1460 5150.00 5480.12 72.00
2343 16.1520 5216.00 5506.74 72.00
2344 16.1580 5268.00 5540.75 73.00
2345 16.1640 5244.00 5581.55 72.00
2346 16.1700 5319.00 5630.88 73.00
2347 16.1760 5458.00 5691.10 74.00
2348 16.1820 5499.00 5765.37 74.00
2349 16.1880 5592.00 5858.28 75.00
2350 16.1940 5773.00 5976.35 76.00
2351 16.2000 5933.00 6129.49 77.00
2352 16.2060 6227.00 6333.70 79.00
2353 16.2120 6699.00 6620.29 82.00
2354 16.2180 7264.00 7061.42 85.00
2355 16.2240 8283.00 7828.02 91.00
2356 16.2300 10378.00 9252.92 102.00
2357 16.2360 13724.00 11775.80 117.00
2358 16.2420 17192.00 15593.20 131.00
2359 16.2480 19668.00 19842.20 140.00
2360 16.2540 20996.00 21801.40 145.00
2361 16.2600 21930.00 20657.50 148.00
2362 16.2660 23834.00 20124.80 154.00
2363 16.2720 26678.00 23051.50 163.00
2364 16.2780 31056.00 29641.70 176.00
2365 16.2840 35523.00 36321.50 188.00
2366 16.2900 35858.00 35780.90 189.00
2367 16.2960 29094.00 27880.40 171.00
2368 16.3020 20187.00 19426.20 142.00
2369 16.3080 13970.00 13514.30 118.00
2370 16.3140 10459.00 10139.40 102.00
2371 16.3200 8614.00 8390.99 93.00
2372 16.3260 7581.00 7460.65 87.00
2373 16.3320 6922.00 6901.68 83.00
2374 16.3380 6415.00 6523.45 80.00
2375 16.3440 6003.00 6248.52 77.00
2376 16.3500 5817.00 6040.70 76.00
2377 16.3560 5897.00 5879.43 77.00
2378 16.3620 5770.00 5751.51 76.00
2379 16.3680 5584.00 5648.07 75.00
2380 16.3740 5435.00 5563.06 74.00
2381 16.3800 5431.00 5492.20 74.00
2382 16.3860 5392.00 5451.41 73.00
2383 16.3920 5283.00 5401.32 73.00
2384 16.3980 5302.00 5358.29 73.00
2385 16.4040 5299.00 5321.02 73.00
2386 16.4100 5248.00 5288.49 72.00
2387 16.4160 5305.00 5259.91 73.00
2388 16.4220 5235.00 5234.69 72.00
2389 16.4280 5139.00 5259.31 72.00
2390 16.4340 5219.00 5242.07 72.00
2391 16.4400 5240.00 5227.23 72.00
2392 16.4460 5283.00 5241.50 73.00
2393 16.4520 5261.00 5271.25 73.00
2394 16.4580 5235.00 5302.95 72.00
2395 16.4640 5332.00 5336.52 73.00
2396 16.4700 5460.00 5371.96 74.00
2397 16.4760 5424.00 5377.38 74.00
2398 16.4820 5418.00 5418.38 74.00
2399 16.4880 5437.00 5437.67 74.00
2400 16.4940 5443.00 5454.45 74.00
2401 16.5000 5398.00 5608.93 73.00
2402 16.5060 5468.00 5564.12 74.00
2403 16.5120 5526.00 5602.29 74.00
2404 16.5180 5558.00 5645.22 75.00
2405 16.5240 5584.00 5694.06 75.00
2406 16.5300 5711.00 5750.33 76.00
2407 16.5360 5888.00 5816.14 77.00
2408 16.5420 5870.00 5894.52 77.00
2409 16.5480 6083.00 5989.82 78.00
2410 16.5540 6230.00 6108.90 79.00
2411 16.5600 6414.00 6263.99 80.00
2412 16.5660 6746.00 6481.97 82.00
2413 16.5720 7122.00 6826.53 84.00
2414 16.5780 7850.00 7433.36 89.00
2415 16.5840 9310.00 8516.00 96.00
2416 16.5900 11175.00 10257.70 106.00
2417 16.5960 12661.00 12513.60 113.00
2418 16.6020 13266.00 14240.40 115.00
2419 16.6080 13433.00 13987.40 116.00
2420 16.6140 13573.00 12548.30 117.00
2421 16.6200 13820.00 11678.50 118.00
2422 16.6260 14848.00 12318.30 122.00
2423 16.6320 16442.00 14935.00 128.00
2424 16.6380 18615.00 19468.90 136.00
2425 16.6440 21681.00 24401.10 147.00
2426 16.6500 23912.00 25786.70 155.00
2427 16.6560 22730.00 22115.70 151.00
2428 16.6620 18342.00 17219.90 135.00
2429 16.6680 14096.00 13679.80 119.00
2430 16.6740 11856.00 11893.80 109.00
2431 16.6800 11440.00 11547.70 107.00
2432 16.6860 11523.00 12462.50 107.00
2433 16.6920 13220.00 15081.30 115.00
2434 16.6980 17495.00 20594.30 132.00
2435 16.7040 27213.00 30375.70 165.00
2436 16.7100 49217.00 44277.60 222.00
2437 16.7160 73685.00 57107.60 271.00
2438 16.7220 67566.00 57530.50 260.00
2439 16.7280 43173.00 44969.80 208.00
2440 16.7340 25292.00 30740.90 159.00
2441 16.7400 16519.00 20476.00 129.00
2442 16.7460 12841.00 14472.40 113.00
2443 16.7520 10665.00 11329.40 103.00
2444 16.7580 9371.00 9678.14 97.00
2445 16.7640 8608.00 8713.55 93.00
2446 16.7700 8009.00 8077.62 89.00
2447 16.7760 7477.00 7624.50 86.00
2448 16.7820 6982.00 7287.53 84.00
2449 16.7880 6599.00 7030.48 81.00
2450 16.7940 6408.00 6913.25 80.00
2451 16.8000 6183.00 6759.46 79.00
2452 16.8060 5961.00 6637.23 77.00
2453 16.8120 5979.00 6539.27 77.00
2454 16.8180 5906.00 6460.31 77.00
2455 16.8240 6018.00 6433.57 78.00
2456 16.8300 5890.00 6350.64 77.00
2457 16.8360 5971.00 6296.52 77.00
2458 16.8420 5852.00 6251.09 76.00
2459 16.8480 5633.00 6213.14 75.00
2460 16.8540 5637.00 6181.79 75.00
2461 16.8600 5554.00 6156.42 75.00
2462 16.8660 5555.00 6136.58 75.00
2463 16.8720 5507.00 6076.38 74.00
2464 16.8780 5476.00 6069.31 74.00
2465 16.8840 5504.00 6067.29 74.00
2466 16.8900 5449.00 6070.55 74.00
2467 16.8960 5412.00 6079.50 74.00
2468 16.9020 5585.00 6094.75 75.00
2469 16.9080 5593.00 6117.18 75.00
2470 16.9140 5510.00 6147.96 74.00
2471 16.9200 5630.00 6188.72 75.00
2472 16.9260 5652.00 6238.78 75.00
2473 16.9320 5638.00 6298.25 75.00
2474 16.9380 5833.00 6376.92 76.00
2475 16.9440 5810.00 6352.06 76.00
2476 16.9500 5924.00 6495.32 77.00
2477 16.9560 6351.00 6683.13 80.00
2478 16.9620 6658.00 6934.00 82.00
2479 16.9680 6992.00 7278.51 84.00
2480 16.9740 7702.00 7776.67 88.00
2481 16.9800 8673.00 8567.44 93.00
2482 16.9860 10302.00 9985.71 101.00
2483 16.9920 13136.00 12669.50 115.00
2484 16.9980 19098.00 17513.10 138.00
2485 17.0040 26640.00 25086.00 163.00
2486 17.0100 31662.00 34197.40 178.00
2487 17.0160 32121.00 39653.90 179.00
2488 17.0220 29681.00 36509.00 172.00
2489 17.0280 27557.00 29613.60 166.00
2490 17.0340 26424.00 25130.90 163.00
2491 17.0400 26749.00 24561.80 164.00
2492 17.0460 27102.00 25844.60 165.00
2493 17.0520 25279.00 24608.20 159.00
2494 17.0580 20025.00 19927.10 142.00
2495 17.0640 14329.00 14926.10 120.00
2496 17.0700 10226.00 11270.90 101.00
2497 17.0760 7950.00 9045.10 89.00
2498 17.0820 7039.00 7802.93 84.00
2499 17.0880 6186.00 7097.53 79.00
2500 17.0940 5973.00 6654.03 77.00
2501 17.1000 5800.00 6343.63 76.00
2502 17.1060 5374.00 6110.96 73.00
2503 17.1120 5257.00 5929.91 73.00
2504 17.1180 5101.00 5785.62 71.00
2505 17.1240 5050.00 5668.83 71.00
2506 17.1300 5027.00 5573.36 71.00
2507 17.1360 5039.00 5502.38 71.00
2508 17.1420 5039.00 5453.31 71.00
2509 17.1480 4978.00 5417.41 71.00
2510 17.1540 4980.00 5394.38 71.00
2511 17.1600 5069.00 5385.37 71.00
2512 17.1660 5080.00 5394.08 71.00
2513 17.1720 5007.00 5430.36 71.00
2514 17.1780 5188.00 5518.52 72.00
2515 17.1840 5090.00 5709.13 71.00
2516 17.1900 5515.00 6080.50 74.00
2517 17.1960 6269.00 6704.42 79.00
2518 17.2020 7577.00 7546.70 87.00
2519 17.2080 8733.00 8269.65 93.00
2520 17.2140 8604.00 8370.41 93.00
2521 17.2200 7773.00 7880.51 88.00
2522 17.2260 6540.00 7086.65 81.00
2523 17.2320 5839.00 6325.85 76.00
2524 17.2380 5371.00 5789.04 73.00
2525 17.2440 5134.00 5386.65 72.00
2526 17.2500 5041.00 5208.30 71.00
2527 17.2560 4803.00 5106.98 69.00
2528 17.2620 4699.00 5043.97 69.00
2529 17.2680 4888.00 5000.35 70.00
2530 17.2740 4961.00 4967.75 70.00
2531 17.2800 4724.00 4901.76 69.00
2532 17.2860 4733.00 4883.17 69.00
2533 17.2920 4747.00 4867.98 69.00
2534 17.2980 4630.00 4853.22 68.00
2535 17.3040 4586.00 4838.27 68.00
2536 17.3100 4608.00 4824.77 68.00
2537 17.3160 4554.00 4812.40 67.00
2538 17.3220 4511.00 4800.92 67.00
2539 17.3280 4594.00 4790.15 68.00
2540 17.3340 4508.00 4779.96 67.00
2541 17.3400 4514.00 4770.25 67.00
2542 17.3460 4695.00 4760.92 69.00
2543 17.3520 4519.00 4751.93 67.00
2544 17.3580 4714.00 4743.20 69.00
2545 17.3640 4610.00 4734.71 68.00
2546 17.3700 4550.00 4726.41 67.00
2547 17.3760 4630.00 4718.29 68.00
2548 17.3820 4748.00 4710.31 69.00
2549 17.3880 4671.00 4702.45 68.00
2550 17.3940 4700.00 4694.71 69.00
2551 17.4000 4720.00 4687.06 69.00
2552 17.4060 4667.00 4679.50 68.00
2553 17.4120 4562.00 4672.01 68.00
2554 17.4180 4744.00 4664.59 69.00
2555 17.4240 4794.00 4657.22 69.00
2556 17.4300 4696.00 4649.91 69.00
2557 17.4360 4490.00 4642.64 67.00
2558 17.4420 4678.00 4620.96 68.00
2559 17.4480 4702.00 4605.55 69.00
2560 17.4540 4639.00 4587.20 68.00
2561 17.4600 4654.00 4571.96 68.00
2562 17.4660 4719.00 4556.72 69.00
2563 17.4720 4587.00 4541.47 68.00
2564 17.4780 4713.00 4526.23 69.00
2565 17.4840 4973.00 4510.99 71.00
2566 17.4900 5077.00 4495.74 71.00
2567 17.4960 5256.00 4480.49 72.00
2568 17.5020 6070.00 4465.25 78.00
2569 17.5080 6525.00 4450.01 81.00
2570 17.5140 7285.00 4434.76 85.00
2571 17.5200 8309.00 4419.52 91.00
2572 17.5260 8289.00 4404.28 91.00
2573 17.5320 8201.00 4389.03 91.00
2574 17.5380 7573.00 4373.79 87.00
2575 17.5440 6038.00 4358.54 78.00
2576 17.5500 5349.00 4343.30 73.00
2577 17.5560 4909.00 4328.05 70.00
2578 17.5620 4626.00 4312.81 68.00
2579 17.5680 4385.00 4297.56 66.00
2580 17.5740 4372.00 4282.32 66.00
2581 17.5800 4365.00 4267.08 66.00
2582 17.5860 4379.00 4251.83 66.00
2583 17.5920 4264.00 4236.59 65.00
2584 17.5980 4266.00 4221.34 65.00
2585 17.6040 4216.00 4206.10 65.00
2586 17.6100 4314.00 4190.85 66.00
2587 17.6160 4220.00 4175.61 65.00
2588 17.6220 4157.00 4160.37 64.00
2589 17.6280 4186.00 4145.12 65.00
2590 17.6340 4124.00 4129.88 64.00
2591 17.6400 4112.00 4114.64 64.00
2592 17.6460 4148.00 4099.39 64.00
2593 17.6520 4200.00 4084.14 65.00
2594 17.6580 4083.00 4068.90 64.00
2595 17.6640 4081.00 4053.66 64.00
2596 17.6700 4057.00 4038.41 64.00
2597 17.6760 4112.00 4023.17 64.00
2598 17.6820 4156.00 4007.93 64.00
2599 17.6880 4097.00 3992.68 64.00
2600 17.6940 4151.00 3979.89 64.00
2601 17.7000 4117.00 3980.55 64.00
2602 17.7060 4095.00 3981.23 64.00
2603 17.7120 4105.00 3981.91 64.00
2604 17.7180 4014.00 3982.61 63.00
2605 17.7240 4097.00 3983.32 64.00
2606 17.7300 4121.00 3984.05 64.00
2607 17.7360 4048.00 3985.42 64.00
2608 17.7420 4068.00 3986.21 64.00
2609 17.7480 4012.00 3991.92 63.00
2610 17.7540 4069.00 3993.03 64.00
2611 17.7600 4095.00 3994.20 64.00
2612 17.7660 4135.00 3995.43 64.00
2613 17.7720 4178.00 3996.73 65.00
2614 17.7780 4020.00 3998.12 63.00
2615 17.7840 3942.00 3999.59 63.00
2616 17.7900 4103.00 4001.18 64.00
2617 17.7960 4081.00 4023.53 64.00
2618 17.8020 4018.00 4026.46 63.00
2619 17.8080 4067.00 4029.65 64.00
2620 17.8140 4107.00 4033.14 64.00
2621 17.8200 3965.00 4036.98 63.00
2622 17.8260 3990.00 4071.81 63.00
2623 17.8320 3964.00 4078.14 63.00
2624 17.8380 4011.00 4085.19 63.00
2625 17.8440 4158.00 4093.10 64.00
2626 17.8500 3973.00 4102.05 63.00
2627 17.8560 4055.00 4112.27 64.00
2628 17.8620 3875.00 4124.47 62.00
2629 17.8680 4065.00 4140.58 64.00
2630 17.8740 4111.00 4159.41 64.00
2631 17.8800 4103.00 4182.02 64.00
2632 17.8860 4247.00 4210.43 65.00
2633 17.8920 4290.00 4248.98 65.00
2634 17.8980 4398.00 4307.27 66.00
2635 17.9040 4593.00 4403.14 68.00
2636 17.9100 4982.00 4560.77 71.00
2637 17.9160 5281.00 4796.27 73.00
2638 17.9220 5680.00 5084.23 75.00
2639 17.9280 5981.00 5298.36 77.00
2640 17.9340 5909.00 5278.67 77.00
2641 17.9400 6307.00 5106.84 79.00
2642 17.9460 6045.00 4971.48 78.00
2643 17.9520 5777.00 4967.47 76.00
2644 17.9580 5877.00 5136.00 77.00
2645 17.9640 5910.00 5494.88 77.00
2646 17.9700 6299.00 6011.36 79.00
2647 17.9760 6941.00 6552.23 83.00
2648 17.9820 7143.00 6842.97 85.00
2649 17.9880 6928.00 6686.34 83.00
2650 17.9940 6393.00 6371.87 80.00
2651 18.0000 6227.00 6267.27 79.00
2652 18.0060 6637.00 6589.33 81.00
2653 18.0120 7806.00 7512.95 88.00
2654 18.0180 9741.00 9166.60 99.00
2655 18.0240 12212.00 11446.80 111.00
2656 18.0300 13602.00 13593.50 117.00
2657 18.0360 14135.00 14269.60 119.00
2658 18.0420 14241.00 13775.30 119.00
2659 18.0480 14991.00 13873.40 122.00
2660 18.0540 15976.00 15319.70 126.00
2661 18.0600 17637.00 17245.60 133.00
2662 18.0660 17932.00 17287.10 134.00
2663 18.0720 14905.00 14636.30 122.00
2664 18.0780 10427.00 11293.80 102.00
2665 18.0840 7782.00 8654.05 88.00
2666 18.0900 6411.00 6958.77 80.00
2667 18.0960 5597.00 5991.33 75.00
2668 18.1020 5138.00 5457.65 72.00
2669 18.1080 4773.00 5145.19 69.00
2670 18.1140 4528.00 4942.02 67.00
2671 18.1200 4519.00 4797.93 67.00
2672 18.1260 4396.00 4690.41 66.00
2673 18.1320 4456.00 4607.73 67.00
2674 18.1380 4280.00 4542.87 65.00
2675 18.1440 4257.00 4491.22 65.00
2676 18.1500 4233.00 4449.50 65.00
2677 18.1560 4213.00 4415.43 65.00
2678 18.1620 4235.00 4387.33 65.00
2679 18.1680 4232.00 4361.60 65.00
2680 18.1740 4263.00 4342.18 65.00
2681 18.1800 4205.00 4311.85 65.00
2682 18.1860 4210.00 4281.26 65.00
2683 18.1920 4228.00 4252.78 65.00
2684 18.1980 4364.00 4226.05 66.00
2685 18.2040 4538.00 4200.81 67.00
2686 18.2100 4619.00 4176.23 68.00
2687 18.2160 4343.00 4153.35 66.00
2688 18.2220 4361.00 4126.76 66.00
2689 18.2280 4190.00 4105.82 65.00
2690 18.2340 4162.00 4085.57 65.00
2691 18.2400 4112.00 4065.91 64.00
2692 18.2460 4036.00 4046.76 64.00
2693 18.2520 3944.00 4028.07 63.00
2694 18.2580 3998.00 4009.78 63.00
2695 18.2640 4043.00 3991.85 64.00
2696 18.2700 3994.00 3974.24 63.00
2697 18.2760 4025.00 3937.30 63.00
2698 18.2820 3961.00 3921.16 63.00
2699 18.2880 3886.00 3905.18 62.00
2700 18.2940 3870.00 3891.95 62.00
2701 18.3000 4012.00 3891.88 63.00
2702 18.3060 4079.00 3862.33 64.00
2703 18.3120 4104.00 3863.90 64.00
2704 18.3180 4064.00 3865.47 64.00
2705 18.3240 4039.00 3867.04 64.00
2706 18.3300 3972.00 3868.62 63.00
2707 18.3360 3920.00 3870.19 63.00
2708 18.3420 3918.00 3871.76 63.00
2709 18.3480 3929.00 3873.33 63.00
2710 18.3540 3936.00 3887.41 63.00
2711 18.3600 3819.00 3889.63 62.00
2712 18.3660 3969.00 3891.90 63.00
2713 18.3720 4063.00 3894.23 64.00
2714 18.3780 3921.00 3896.63 63.00
2715 18.3840 3771.00 3899.09 61.00
2716 18.3900 3911.00 3901.63 63.00
2717 18.3960 3951.00 3903.63 63.00
2718 18.4020 3922.00 3905.41 63.00
2719 18.4080 3874.00 3907.31 62.00
2720 18.4140 3865.00 3909.34 62.00
2721 18.4200 3883.00 3911.51 62.00
2722 18.4260 3936.00 3913.85 63.00
2723 18.4320 3934.00 3916.38 63.00
2724 18.4380 3907.00 3919.14 63.00
2725 18.4440 3877.00 3922.15 62.00
2726 18.4500 3969.00 3925.46 63.00
2727 18.4560 3989.00 3929.13 63.00
2728 18.4620 3878.00 3933.22 62.00
2729 18.4680 3917.00 3937.80 63.00
2730 18.4740 3959.00 3942.99 63.00
2731 18.4800 3955.00 3948.90 63.00
2732 18.4860 3912.00 3955.69 63.00
2733 18.4920 3904.00 3963.58 62.00
2734 18.4980 3954.00 3972.84 63.00
2735 18.5040 3982.00 3983.82 63.00
2736 18.5100 4046.00 3997.01 64.00
2737 18.5160 4116.00 4013.09 64.00
2738 18.5220 4091.00 4032.99 64.00
2739 18.5280 4001.00 4058.06 63.00
2740 18.5340 4123.00 4090.31 64.00
2741 18.5400 4206.00 4132.96 65.00
2742 18.5460 4216.00 4191.84 65.00
2743 18.5520 4253.00 4279.55 65.00
2744 18.5580 4475.00 4424.55 67.00
2745 18.5640 4686.00 4685.22 68.00
2746 18.5700 5155.00 5156.45 72.00
2747 18.5760 5868.00 5939.43 77.00
2748 18.5820 7311.00 7052.53 86.00
2749 18.5880 9108.00 8238.19 95.00
2750 18.5940 9819.00 8751.74 99.00
2751 18.6000 8157.00 8087.35 90.00
2752 18.6060 6259.00 6878.41 79.00
2753 18.6120 5122.00 5808.30 72.00
2754 18.6180 4655.00 5076.20 68.00
2755 18.6240 4288.00 4643.49 65.00
2756 18.6300 4125.00 4405.84 64.00
2757 18.6360 3965.00 4273.10 63.00
2758 18.6420 3927.00 4192.01 63.00
2759 18.6480 3968.00 4137.25 63.00
2760 18.6540 3945.00 4097.64 63.00
2761 18.6600 3870.00 4067.84 62.00
2762 18.6660 3897.00 4044.86 62.00
2763 18.6720 3936.00 4026.83 63.00
2764 18.6780 4009.00 4012.47 63.00
2765 18.6840 4003.00 4000.88 63.00
2766 18.6900 3987.00 3991.42 63.00
2767 18.6960 4143.00 3983.62 64.00
2768 18.7020 4155.00 3977.15 64.00
2769 18.7080 4144.00 3971.74 64.00
2770 18.7140 3998.00 3967.19 63.00
2771 18.7200 3943.00 3963.35 63.00
2772 18.7260 3931.00 3960.08 63.00
2773 18.7320 3856.00 3957.31 62.00
2774 18.7380 3797.00 3954.51 62.00
2775 18.7440 3863.00 3949.94 62.00
2776 18.7500 3888.00 3945.66 62.00
2777 18.7560 3877.00 3941.64 62.00
2778 18.7620 3883.00 3937.83 62.00
2779 18.7680 3841.00 3934.22 62.00
2780 18.7740 3898.00 3930.76 62.00
2781 18.7800 3858.00 3927.45 62.00
2782 18.7860 3775.00 3924.27 61.00
2783 18.7920 3763.00 3921.20 61.00
2784 18.7980 3803.00 3918.22 62.00
2785 18.8040 3784.00 3915.34 62.00
2786 18.8100 3816.00 3912.53 62.00
2787 18.8160 3842.00 3909.79 62.00
2788 18.8220 3854.00 3907.12 62.00
2789 18.8280 3863.00 3904.50 62.00
2790 18.8340 3868.00 3901.93 62.00
2791 18.8400 3925.00 3887.58 63.00
2792 18.8460 3965.00 3885.66 63.00
2793 18.8520 4024.00 3883.73 63.00
2794 18.8580 3990.00 3881.80 63.00
2795 18.8640 3980.00 3879.88 63.00
2796 18.8700 3894.00 3877.95 62.00
2797 18.8760 3849.00 3876.02 62.00
2798 18.8820 3930.00 3874.10 63.00
2799 18.8880 3977.00 3872.17 63.00
2800 18.8940 4012.00 3870.25 63.00
2801 18.9000 3883.00 3868.32 62.00
2802 18.9060 3822.00 3866.39 62.00
2803 18.9120 3903.00 3864.47 62.00
2804 18.9180 3914.00 3862.54 63.00
2805 18.9240 3887.00 3860.61 62.00
2806 18.9300 3953.00 3858.69 63.00
2807 18.9360 3853.00 3856.76 62.00
2808 18.9420 3846.00 3854.84 62.00
2809 18.9480 3972.00 3852.91 63.00
2810 18.9540 3945.00 3850.98 63.00
2811 18.9600 3878.00 3849.06 62.00
2812 18.9660 3874.00 3847.13 62.00
2813 18.9720 3843.00 3845.20 62.00
2814 18.9780 3818.00 3843.28 62.00
2815 18.9840 3808.00 3841.35 62.00
2816 18.9900 3773.00 3839.43 61.00
2817 18.9960 3788.00 3837.50 62.00
2818 19.0020 3787.00 3835.57 62.00
2819 19.0080 3704.00 3833.65 61.00
2820 19.0140 3704.00 3836.62 61.00
2821 19.0200 3807.00 3841.54 62.00
2822 19.0260 3897.00 3846.47 62.00
2823 19.0320 3874.00 3851.40 62.00
2824 19.0380 3861.00 3856.33 62.00
2825 19.0440 3825.00 3862.49 62.00
2826 19.0500 3770.00 3867.49 61.00
2827 19.0560 3827.00 3889.97 62.00
2828 19.0620 3803.00 3916.61 62.00
2829 19.0680 3778.00 3923.60 61.00
2830 19.0740 3820.00 3930.75 62.00
2831 19.0800 3898.00 3938.08 62.00
2832 19.0860 3938.00 3945.61 63.00
2833 19.0920 3965.00 3953.35 63.00
2834 19.0980 3942.00 3961.35 63.00
2835 19.1040 3962.00 3969.62 63.00
2836 19.1100 3946.00 3978.20 63.00
2837 19.1160 3900.00 3987.13 62.00
2838 19.1220 3908.00 3996.46 63.00
2839 19.1280 3903.00 4006.23 62.00
2840 19.1340 3956.00 4016.52 63.00
2841 19.1400 4058.00 4027.39 64.00
2842 19.1460 4049.00 4038.94 64.00
2843 19.1520 3923.00 4051.26 63.00
2844 19.1580 3886.00 4064.50 62.00
2845 19.1640 3975.00 4078.79 63.00
2846 19.1700 3980.00 4094.33 63.00
2847 19.1760 3971.00 4111.36 63.00
2848 19.1820 3978.00 4148.08 63.00
2849 19.1880 3995.00 4167.86 63.00
2850 19.1940 4087.00 4190.30 64.00
2851 19.2000 4153.00 4216.01 64.00
2852 19.2060 4246.00 4245.78 65.00
2853 19.2120 4342.00 4280.69 66.00
2854 19.2180 4366.00 4351.56 66.00
2855 19.2240 4450.00 4403.33 67.00
2856 19.2300 4557.00 4467.40 68.00
2857 19.2360 4640.00 4549.07 68.00
2858 19.2420 4659.00 4655.86 68.00
2859 19.2480 4730.00 4797.44 69.00
2860 19.2540 4941.00 4985.86 70.00
2861 19.2600 5152.00 5236.64 72.00
2862 19.2660 5403.00 5583.15 74.00
2863 19.2720 5855.00 6127.49 77.00
2864 19.2780 6592.00 7068.68 81.00
2865 19.2840 7835.00 8651.45 89.00
2866 19.2900 10729.00 11041.40 104.00
2867 19.2960 15457.00 14075.10 124.00
2868 19.3020 19296.00 16907.70 139.00
2869 19.3080 19990.00 18192.50 141.00
2870 19.3140 17698.00 17208.30 133.00
2871 19.3200 13599.00 14379.60 117.00
2872 19.3260 9830.00 11218.00 99.00
2873 19.3320 7593.00 8750.06 87.00
2874 19.3380 6355.00 7142.79 80.00
2875 19.3440 5663.00 6204.28 75.00
2876 19.3500 5418.00 5686.31 74.00
2877 19.3560 5175.00 5401.27 72.00
2878 19.3620 5003.00 5241.66 71.00
2879 19.3680 4886.00 5156.74 70.00
2880 19.3740 4843.00 5125.93 70.00
2881 19.3800 4824.00 5143.83 69.00
2882 19.3860 4968.00 5217.02 70.00
2883 19.3920 5233.00 5370.23 72.00
2884 19.3980 5445.00 5660.95 74.00
2885 19.4040 6063.00 6192.89 78.00
2886 19.4100 7271.00 7103.79 85.00
2887 19.4160 9043.00 8495.15 95.00
2888 19.4220 11287.00 10279.20 106.00
2889 19.4280 12510.00 11884.60 112.00
2890 19.4340 12384.00 12323.80 111.00
2891 19.4400 12054.00 11652.30 110.00
2892 19.4460 12183.00 11120.30 110.00
2893 19.4520 12687.00 11603.00 113.00
2894 19.4580 13734.00 13254.70 117.00
2895 19.4640 15368.00 15427.40 124.00
2896 19.4700 16261.00 16407.30 128.00
2897 19.4760 15196.00 14904.30 123.00
2898 19.4820 12236.00 12073.40 111.00
2899 19.4880 9125.00 9447.79 96.00
2900 19.4940 7117.00 7562.39 84.00
2901 19.5000 6080.00 6385.44 78.00
2902 19.5060 5416.00 5705.80 74.00
2903 19.5120 5063.00 5313.79 71.00
2904 19.5180 4955.00 5070.95 70.00
2905 19.5240 4886.00 4906.28 70.00
2906 19.5300 4923.00 4786.12 70.00
2907 19.5360 5051.00 4694.62 71.00
2908 19.5420 5159.00 4623.09 72.00
2909 19.5480 5287.00 4565.00 73.00
2910 19.5540 5350.00 4558.42 73.00
2911 19.5600 5340.00 4506.63 73.00
2912 19.5660 5313.00 4458.04 73.00
2913 19.5720 5110.00 4436.07 71.00
2914 19.5780 4778.00 4418.33 69.00
2915 19.5840 4505.00 4404.04 67.00
2916 19.5900 4360.00 4392.65 66.00
2917 19.5960 4315.00 4383.69 66.00
2918 19.6020 4298.00 4376.83 66.00
2919 19.6080 4271.00 4372.15 65.00
2920 19.6140 4335.00 4370.80 66.00
2921 19.6200 4361.00 4370.93 66.00
2922 19.6260 4376.00 4372.42 66.00
2923 19.6320 4307.00 4375.20 66.00
2924 19.6380 4258.00 4379.23 65.00
2925 19.6440 4297.00 4384.48 66.00
2926 19.6500 4379.00 4390.97 66.00
2927 19.6560 4433.00 4398.73 67.00
2928 19.6620 4438.00 4407.85 67.00
2929 19.6680 4437.00 4418.42 67.00
2930 19.6740 4524.00 4430.60 67.00
2931 19.6800 4506.00 4444.57 67.00
2932 19.6860 4334.00 4457.89 66.00
2933 19.6920 4403.00 4477.78 66.00
2934 19.6980 4464.00 4500.47 67.00
2935 19.7040 4488.00 4526.54 67.00
2936 19.7100 4525.00 4556.69 67.00
2937 19.7160 4397.00 4591.90 66.00
2938 19.7220 4523.00 4633.42 67.00
2939 19.7280 4581.00 4654.98 68.00
2940 19.7340 4643.00 4716.14 68.00
2941 19.7400 4657.00 4790.88 68.00
2942 19.7460 4820.00 4883.91 69.00
2943 19.7520 4952.00 5002.32 70.00
2944 19.7580 5190.00 5157.73 72.00
2945 19.7640 5506.00 5372.38 74.00
2946 19.7700 5846.00 5693.43 76.00
2947 19.7760 6442.00 6221.28 80.00
2948 19.7820 7658.00 7144.38 88.00
2949 19.7880 9428.00 8736.45 97.00
2950 19.7940 12432.00 11259.70 111.00
2951 19.8000 16356.00 14713.60 128.00
2952 19.8060 20373.00 18330.50 143.00
2953 19.8120 20665.00 20034.50 144.00
2954 19.8180 17963.00 18295.90 134.00
2955 19.8240 14662.00 14689.00 121.00
2956 19.8300 11769.00 11268.00 108.00
2957 19.8360 9600.00 8784.33 98.00
2958 19.8420 8362.00 7229.97 91.00
2959 19.8480 7401.00 6340.75 86.00
2960 19.8540 6818.00 5844.43 83.00
2961 19.8600 6366.00 5555.87 80.00
2962 19.8660 6144.00 5376.61 78.00
2963 19.8720 5970.00 5261.45 77.00
2964 19.8780 5744.00 5190.72 76.00
2965 19.8840 5566.00 5156.19 75.00
2966 19.8900 5549.00 5153.34 74.00
2967 19.8960 5571.00 5186.22 75.00
2968 19.9020 5639.00 5284.73 75.00
2969 19.9080 5882.00 5498.73 77.00
2970 19.9140 6404.00 5911.47 80.00
2971 19.9200 7110.00 6621.95 84.00
2972 19.9260 8482.00 7682.38 92.00
2973 19.9320 10185.00 8965.91 101.00
2974 19.9380 10891.00 9941.42 104.00
2975 19.9440 10116.00 9830.21 101.00
2976 19.9500 8814.00 8718.38 94.00
2977 19.9560 7591.00 7405.43 87.00
2978 19.9620 6495.00 6351.21 81.00
2979 19.9680 5792.00 5642.99 76.00
2980 19.9740 5589.00 5214.96 75.00
2981 19.9800 5254.00 4966.49 72.00
2982 19.9860 5041.00 4816.76 71.00
2983 19.9920 4947.00 4718.16 70.00
2984 19.9980 4897.00 4646.81 70.00
2985 20.0040 4767.00 4591.83 69.00
2986 20.0100 4642.00 4547.79 68.00
2987 20.0160 4639.00 4511.54 68.00
2988 20.0220 4511.00 4481.06 67.00
2989 20.0280 4553.00 4454.96 67.00
2990 20.0340 4511.00 4432.24 67.00
2991 20.0400 4416.00 4412.18 66.00
2992 20.0460 4493.00 4394.25 67.00
2993 20.0520 4383.00 4378.03 66.00
2994 20.0580 4410.00 4366.16 66.00
2995 20.0640 4345.00 4352.65 66.00
2996 20.0700 4377.00 4340.11 66.00
2997 20.0760 4328.00 4290.90 66.00
2998 20.0820 4402.00 4281.54 66.00
2999 20.0880 4319.00 4272.70 66.00
3000 20.0940 4372.00 4264.28 66.00
3001 20.1000 4288.00 4256.24 65.00
3002 20.1060 4288.00 4248.52 65.00
3003 20.1120 4328.00 4241.10 66.00
3004 20.1180 4256.00 4233.93 65.00
3005 20.1240 4226.00 4226.99 65.00
3006 20.1300 4283.00 4220.27 65.00
3007 20.1360 4149.00 4213.74 64.00
3008 20.1420 4195.00 4207.40 65.00
3009 20.1480 4240.00 4201.24 65.00
3010 20.1540 4344.00 4195.25 66.00
3011 20.1600 4223.00 4192.03 65.00
3012 20.1660 4161.00 4188.99 65.00
3013 20.1720 4209.00 4186.14 65.00
3014 20.1780 4233.00 4183.50 65.00
3015 20.1840 4202.00 4181.09 65.00
3016 20.1900 4234.00 4178.95 65.00
3017 20.1960 4186.00 4177.14 65.00
3018 20.2020 4153.00 4162.03 64.00
3019 20.2080 4231.00 4161.87 65.00
3020 20.2140 4212.00 4162.67 65.00
3021 20.2200 4187.00 4165.11 65.00
3022 20.2260 4084.00 4170.28 64.00
3023 20.2320 4179.00 4179.38 65.00
3024 20.2380 4284.00 4192.99 65.00
3025 20.2440 4310.00 4209.55 66.00
3026 20.2500 4338.00 4222.87 66.00
3027 20.2560 4266.00 4224.87 65.00
3028 20.2620 4206.00 4217.97 65.00
3029 20.2680 4239.00 4212.10 65.00
3030 20.2740 4291.00 4214.03 66.00
3031 20.2800 4301.00 4228.58 66.00
3032 20.2860 4354.00 4265.81 66.00
3033 20.2920 4313.00 4333.50 66.00
3034 20.2980 4455.00 4453.07 67.00
3035 20.3040 4840.00 4641.14 70.00
3036 20.3100 5109.00 4893.84 71.00
3037 20.3160 5361.00 5150.57 73.00
3038 20.3220 5541.00 5261.22 74.00
3039 20.3280 5092.00 5125.63 71.00
3040 20.3340 4909.00 4858.49 70.00
3041 20.3400 4392.00 4603.85 66.00
3042 20.3460 4154.00 4415.51 64.00
3043 20.3520 4255.00 4294.14 65.00
3044 20.3580 4180.00 4221.76 65.00
3045 20.3640 4198.00 4179.05 65.00
3046 20.3700 4155.00 4152.24 64.00
3047 20.3760 4184.00 4133.72 65.00
3048 20.3820 4065.00 4119.83 64.00
3049 20.3880 4161.00 4108.85 65.00
3050 20.3940 4006.00 4099.87 63.00
3051 20.4000 4199.00 4101.57 65.00
3052 20.4060 4207.00 4120.87 65.00
3053 20.4120 4230.00 4125.33 65.00
3054 20.4180 4244.00 4130.56 65.00
3055 20.4240 4162.00 4136.45 65.00
3056 20.4300 4297.00 4142.94 66.00
3057 20.4360 4161.00 4181.10 65.00
3058 20.4420 4154.00 4190.15 64.00
3059 20.4480 4100.00 4197.88 64.00
3060 20.4540 4131.00 4202.32 64.00
3061 20.4600 4169.00 4207.57 65.00
3062 20.4660 4199.00 4213.74 65.00
3063 20.4720 4415.00 4221.00 66.00
3064 20.4780 4375.00 4229.60 66.00
3065 20.4840 4269.00 4239.87 65.00
3066 20.4900 4430.00 4252.32 67.00
3067 20.4960 4361.00 4267.76 66.00
3068 20.5020 4595.00 4287.66 68.00
3069 20.5080 4649.00 4315.05 68.00
3070 20.5140 4677.00 4356.20 68.00
3071 20.5200 4760.00 4422.48 69.00
3072 20.5260 4631.00 4531.24 68.00
3073 20.5320 4744.00 4699.96 69.00
3074 20.5380 4952.00 4933.53 70.00
3075 20.5440 5334.00 5197.44 73.00
3076 20.5500 5557.00 5378.09 75.00
3077 20.5560 5426.00 5343.45 74.00
3078 20.5620 4885.00 5139.60 70.00
3079 20.5680 4729.00 4913.58 69.00
3080 20.5740 4532.00 4742.50 67.00
3081 20.5800 4513.00 4640.03 67.00
3082 20.5860 4475.00 4594.78 67.00
3083 20.5920 4445.00 4586.99 67.00
3084 20.5980 4405.00 4609.47 66.00
3085 20.6040 4482.00 4652.92 67.00
3086 20.6100 4476.00 4716.49 67.00
3087 20.6160 4601.00 4803.73 68.00
3088 20.6220 4706.00 4923.46 69.00
3089 20.6280 4932.00 5094.06 70.00
3090 20.6340 5153.00 5353.06 72.00
3091 20.6400 5563.00 5769.52 75.00
3092 20.6460 5917.00 6449.99 77.00
3093 20.6520 7320.00 7517.04 86.00
3094 20.6580 9445.00 9052.30 97.00
3095 20.6640 11881.00 10972.40 109.00
3096 20.6700 13791.00 12818.80 117.00
3097 20.6760 14330.00 13965.40 120.00
3098 20.6820 15504.00 14698.30 125.00
3099 20.6880 16312.00 15816.60 128.00
3100 20.6940 17957.00 17203.30 134.00
3101 20.7000 18311.00 17493.40 135.00
3102 20.7060 16112.00 15670.80 127.00
3103 20.7120 11856.00 12742.40 109.00
3104 20.7180 8763.00 10032.10 94.00
3105 20.7240 7112.00 8028.44 84.00
3106 20.7300 6320.00 6724.14 79.00
3107 20.7360 5717.00 5936.76 76.00
3108 20.7420 5415.00 5469.52 74.00
3109 20.7480 5299.00 5179.24 73.00
3110 20.7540 5071.00 4983.67 71.00
3111 20.7600 4927.00 4841.93 70.00
3112 20.7660 4760.00 4734.13 69.00
3113 20.7720 4591.00 4649.73 68.00
3114 20.7780 4525.00 4582.32 67.00
3115 20.7840 4461.00 4527.67 67.00
3116 20.7900 4438.00 4482.84 67.00
3117 20.7960 4350.00 4445.66 66.00
3118 20.8020 4387.00 4416.15 66.00
3119 20.8080 4368.00 4389.98 66.00
3120 20.8140 4381.00 4367.80 66.00
3121 20.8200 4376.00 4346.18 66.00
3122 20.8260 4397.00 4330.16 66.00
3123 20.8320 4324.00 4316.49 66.00
3124 20.8380 4317.00 4310.71 66.00
3125 20.8440 4300.00 4301.13 66.00
3126 20.8500 4240.00 4293.19 65.00
3127 20.8560 4247.00 4286.79 65.00
3128 20.8620 4166.00 4281.87 65.00
3129 20.8680 4293.00 4279.41 66.00
3130 20.8740 4340.00 4280.45 66.00
3131 20.8800 4288.00 4283.35 65.00
3132 20.8860 4399.00 4288.52 66.00
3133 20.8920 4503.00 4296.89 67.00
3134 20.8980 4535.00 4310.37 67.00
3135 20.9040 4664.00 4333.00 68.00
3136 20.9100 4590.00 4372.15 68.00
3137 20.9160 4660.00 4438.98 68.00
3138 20.9220 4854.00 4544.15 70.00
3139 20.9280 5020.00 4691.33 71.00
3140 20.9340 5281.00 4860.23 73.00
3141 20.9400 5233.00 4981.23 72.00
3142 20.9460 5205.00 4949.25 72.00
3143 20.9520 4963.00 4812.87 70.00
3144 20.9580 4721.00 4650.68 69.00
3145 20.9640 4599.00 4518.75 68.00
3146 20.9700 4435.00 4399.92 67.00
3147 20.9760 4315.00 4348.27 66.00
3148 20.9820 4355.00 4321.25 66.00
3149 20.9880 4434.00 4308.85 67.00
3150 20.9940 4456.00 4304.71 67.00
3151 21.0000 4530.00 4305.61 67.00
3152 21.0060 4557.00 4310.21 68.00
3153 21.0120 4616.00 4318.13 68.00
3154 21.0180 4576.00 4329.57 68.00
3155 21.0240 4562.00 4345.42 68.00
3156 21.0300 4576.00 4367.70 68.00
3157 21.0360 4580.00 4400.52 68.00
3158 21.0420 4522.00 4451.15 67.00
3159 21.0480 4710.00 4529.97 69.00
3160 21.0540 4940.00 4647.81 70.00
3161 21.0600 5141.00 4809.59 72.00
3162 21.0660 5385.00 5002.16 73.00
3163 21.0720 5459.00 5177.36 74.00
3164 21.0780 5683.00 5290.60 75.00
3165 21.0840 5847.00 5401.91 76.00
3166 21.0900 5897.00 5620.37 77.00
3167 21.0960 5861.00 5984.71 77.00
3168 21.1020 5819.00 6407.48 76.00
3169 21.1080 5832.00 6632.62 76.00
3170 21.1140 5673.00 6432.95 75.00
3171 21.1200 5350.00 5948.80 73.00
3172 21.1260 5069.00 5450.17 71.00
3173 21.1320 5024.00 5062.65 71.00
3174 21.1380 5063.00 4803.43 71.00
3175 21.1440 4925.00 4646.72 70.00
3176 21.1500 4837.00 4557.45 70.00
3177 21.1560 4900.00 4508.29 70.00
3178 21.1620 4947.00 4487.31 70.00
3179 21.1680 4995.00 4479.53 71.00
3180 21.1740 4995.00 4488.50 71.00
3181 21.1800 4829.00 4501.97 69.00
3182 21.1860 4835.00 4512.04 70.00
3183 21.1920 4815.00 4506.00 69.00
3184 21.1980 4637.00 4480.86 68.00
3185 21.2040 4524.00 4452.20 67.00
3186 21.2100 4506.00 4428.81 67.00
3187 21.2160 4531.00 4410.89 67.00
3188 21.2220 4497.00 4401.26 67.00
3189 21.2280 4466.00 4396.12 67.00
3190 21.2340 4477.00 4393.81 67.00
3191 21.2400 4538.00 4393.21 67.00
3192 21.2460 4616.00 4393.67 68.00
3193 21.2520 4701.00 4394.89 69.00
3194 21.2580 4729.00 4396.70 69.00
3195 21.2640 4612.00 4398.99 68.00
3196 21.2700 4620.00 4414.22 68.00
3197 21.2760 4664.00 4417.90 68.00
3198 21.2820 4571.00 4422.00 68.00
3199 21.2880 4574.00 4426.51 68.00
3200 21.2940 4563.00 4431.45 68.00
3201 21.3000 4445.00 4436.83 67.00
3202 21.3060 4393.00 4442.69 66.00
3203 21.3120 4439.00 4449.09 67.00
3204 21.3180 4346.00 4456.08 66.00
3205 21.3240 4435.00 4463.75 67.00
3206 21.3300 4540.00 4472.22 67.00
3207 21.3360 4306.00 4481.63 66.00
3208 21.3420 4500.00 4493.00 67.00
3209 21.3480 4504.00 4504.17 67.00
3210 21.3540 4408.00 4518.68 66.00
3211 21.3600 4569.00 4535.30 68.00
3212 21.3660 4653.00 4554.64 68.00
3213 21.3720 4505.00 4577.53 67.00
3214 21.3780 4631.00 4605.21 68.00
3215 21.3840 4636.00 4635.69 68.00
3216 21.3900 4528.00 4679.03 67.00
3217 21.3960 4632.00 4741.52 68.00
3218 21.4020 4784.00 4835.30 69.00
3219 21.4080 4727.00 4984.75 69.00
3220 21.4140 4935.00 5225.52 70.00
3221 21.4200 5299.00 5597.05 73.00
3222 21.4260 5963.00 6119.73 77.00
3223 21.4320 6971.00 6746.14 83.00
3224 21.4380 7614.00 7297.82 87.00
3225 21.4440 7602.00 7533.71 87.00
3226 21.4500 7284.00 7381.62 85.00
3227 21.4560 6476.00 6995.84 80.00
3228 21.4620 6010.00 6601.87 78.00
3229 21.4680 5806.00 6272.71 76.00
3230 21.4740 5684.00 5956.35 75.00
3231 21.4800 5599.00 5653.45 75.00
3232 21.4860 5477.00 5415.88 74.00
3233 21.4920 5714.00 5264.90 76.00
3234 21.4980 5802.00 5197.46 76.00
3235 21.5040 5857.00 5222.68 77.00
3236 21.5100 5798.00 5326.82 76.00
3237 21.5160 6249.00 5557.71 79.00
3238 21.5220 6381.00 5975.58 80.00
3239 21.5280 6787.00 6644.35 82.00
3240 21.5340 7099.00 7580.75 84.00
3241 21.5400 7993.00 8657.59 89.00
3242 21.5460 8584.00 9451.96 93.00
3243 21.5520 8990.00 9396.77 95.00
3244 21.5580 8999.00 8535.16 95.00
3245 21.5640 8587.00 7450.32 93.00
3246 21.5700 7415.00 6527.66 86.00
3247 21.5760 6368.00 5871.75 80.00
3248 21.5820 5929.00 5454.49 77.00
3249 21.5880 5390.00 5205.97 73.00
3250 21.5940 5203.00 5059.34 72.00
3251 21.6000 5039.00 4968.88 71.00
3252 21.6060 4900.00 4908.97 70.00
3253 21.6120 4924.00 4866.83 70.00
3254 21.6180 5069.00 4836.17 71.00
3255 21.6240 4895.00 4813.59 70.00
3256 21.6300 4732.00 4797.07 69.00
3257 21.6360 4678.00 4785.24 68.00
3258 21.6420 4735.00 4777.17 69.00
3259 21.6480 4705.00 4772.22 69.00
3260 21.6540 4796.00 4769.95 69.00
3261 21.6600 4740.00 4770.07 69.00
3262 21.6660 4724.00 4772.42 69.00
3263 21.6720 4823.00 4776.94 69.00
3264 21.6780 4867.00 4783.69 70.00
3265 21.6840 4686.00 4792.83 68.00
3266 21.6900 4801.00 4804.66 69.00
3267 21.6960 4626.00 4819.60 68.00
3268 21.7020 4725.00 4838.30 69.00
3269 21.7080 4716.00 4861.66 69.00
3270 21.7140 4694.00 4891.17 69.00
3271 21.7200 4804.00 4925.19 69.00
3272 21.7260 4728.00 4975.14 69.00
3273 21.7320 4926.00 5040.61 70.00
3274 21.7380 4945.00 5142.68 70.00
3275 21.7440 5096.00 5305.56 71.00
3276 21.7500 5430.00 5575.42 74.00
3277 21.7560 5748.00 6022.30 76.00
3278 21.7620 6416.00 6708.28 80.00
3279 21.7680 7519.00 7648.07 87.00
3280 21.7740 8721.00 8734.76 93.00
3281 21.7800 9618.00 9510.71 98.00
3282 21.7860 9262.00 9454.48 96.00
3283 21.7920 7934.00 8616.94 89.00
3284 21.7980 6673.00 7559.55 82.00
3285 21.8040 5974.00 6656.29 77.00
3286 21.8100 5569.00 6010.35 75.00
3287 21.8160 5279.00 5596.90 73.00
3288 21.8220 5216.00 5349.66 72.00
3289 21.8280 4964.00 5203.98 70.00
3290 21.8340 4958.00 5102.66 70.00
3291 21.8400 5029.00 5044.42 71.00
3292 21.8460 5133.00 5003.87 72.00
3293 21.8520 5048.00 4982.48 71.00
3294 21.8580 5133.00 4973.85 72.00
3295 21.8640 5337.00 4959.18 73.00
3296 21.8700 5383.00 4949.01 73.00
3297 21.8760 5443.00 4942.42 74.00
3298 21.8820 5494.00 4938.74 74.00
3299 21.8880 5632.00 4937.49 75.00
3300 21.8940 5670.00 4938.34 75.00
3301 21.9000 5773.00 4941.06 76.00
3302 21.9060 5719.00 4945.51 76.00
3303 21.9120 5572.00 4951.62 75.00
3304 21.9180 5413.00 4959.35 74.00
3305 21.9240 5364.00 4968.76 73.00
3306 21.9300 5238.00 5008.06 72.00
3307 21.9360 5122.00 5022.38 72.00
3308 21.9420 4975.00 5057.44 71.00
3309 21.9480 4895.00 5077.32 70.00
3310 21.9540 5087.00 5098.56 71.00
3311 21.9600 5063.00 5120.06 71.00
3312 21.9660 5050.00 5153.28 71.00
3313 21.9720 5179.00 5195.29 72.00
3314 21.9780 5311.00 5233.90 73.00
3315 21.9840 5345.00 5281.07 73.00
3316 21.9900 5319.00 5339.47 73.00
3317 21.9960 5526.00 5413.05 74.00
3318 22.0020 5695.00 5508.29 75.00
3319 22.0080 5989.00 5637.30 77.00
3320 22.0140 6317.00 5824.43 79.00
3321 22.0200 6849.00 6116.85 83.00
3322 22.0260 7906.00 6595.65 89.00
3323 22.0320 9223.00 7374.75 96.00
3324 22.0380 10303.00 8567.87 102.00
3325 22.0440 10521.00 10214.40 103.00
3326 22.0500 10418.00 12123.00 102.00
3327 22.0560 10156.00 13641.40 101.00
3328 22.0620 9763.00 13798.60 99.00
3329 22.0680 9326.00 12491.80 97.00
3330 22.0740 8914.00 10684.60 94.00
3331 22.0800 8599.00 9098.45 93.00
3332 22.0860 8337.00 7978.19 91.00
3333 22.0920 8212.00 7322.77 91.00
3334 22.0980 8294.00 7054.54 91.00
3335 22.1040 8417.00 7113.25 92.00
3336 22.1100 8862.00 7497.01 94.00
3337 22.1160 9561.00 8253.90 98.00
3338 22.1220 10341.00 9427.68 102.00
3339 22.1280 10893.00 10948.90 104.00
3340 22.1340 11262.00 12471.90 106.00
3341 22.1400 11495.00 13356.40 107.00
3342 22.1460 11415.00 13108.50 107.00
3343 22.1520 10984.00 11907.40 105.00
3344 22.1580 10507.00 10464.20 103.00
3345 22.1640 10095.00 9318.59 100.00
3346 22.1700 10152.00 8671.39 101.00
3347 22.1760 10503.00 8577.79 102.00
3348 22.1820 11033.00 9085.08 105.00
3349 22.1880 11798.00 10287.00 109.00
3350 22.1940 13011.00 12293.00 114.00
3351 22.2000 14471.00 15100.50 120.00
3352 22.2060 16689.00 18315.20 129.00
3353 22.2120 20028.00 20880.30 142.00
3354 22.2180 23127.00 21800.90 152.00
3355 22.2240 23586.00 21221.20 154.00
3356 22.2300 21751.00 19608.10 147.00
3357 22.2360 19363.00 17602.50 139.00
3358 22.2420 17050.00 16098.20 131.00
3359 22.2480 15604.00 15321.10 125.00
3360 22.2540 14559.00 14804.20 121.00
3361 22.2600 12621.00 13858.70 112.00
3362 22.2660 10910.00 12285.70 104.00
3363 22.2720 9743.00 10502.20 99.00
3364 22.2780 8790.00 8955.92 94.00
3365 22.2840 8205.00 7808.49 91.00
3366 22.2900 7710.00 7038.77 88.00
3367 22.2960 7332.00 6564.60 86.00
3368 22.3020 7020.00 6300.56 84.00
3369 22.3080 6854.00 6182.47 83.00
3370 22.3140 6660.00 6164.26 82.00
3371 22.3200 6505.00 6196.49 81.00
3372 22.3260 6520.00 6200.54 81.00
3373 22.3320 6425.00 6097.34 80.00
3374 22.3380 6284.00 5902.54 79.00
3375 22.3440 6198.00 5693.24 79.00
3376 22.3500 6083.00 5495.30 78.00
3377 22.3560 6005.00 5363.64 77.00
3378 22.3620 5937.00 5271.19 77.00
3379 22.3680 5951.00 5207.58 77.00
3380 22.3740 5915.00 5163.01 77.00
3381 22.3800 5864.00 5131.26 77.00
3382 22.3860 5835.00 5106.63 76.00
3383 22.3920 5603.00 5087.66 75.00
3384 22.3980 5325.00 5073.20 73.00
3385 22.4040 5248.00 5062.64 72.00
3386 22.4100 5187.00 5055.67 72.00
3387 22.4160 5038.00 5052.16 71.00
3388 22.4220 5058.00 5052.17 71.00
3389 22.4280 5068.00 5048.41 71.00
3390 22.4340 5022.00 5044.40 71.00
3391 22.4400 5107.00 5057.72 71.00
3392 22.4460 5148.00 5076.60 72.00
3393 22.4520 5128.00 5102.34 72.00
3394 22.4580 5095.00 5136.79 71.00
3395 22.4640 5154.00 5182.74 72.00
3396 22.4700 5293.00 5244.68 73.00
3397 22.4760 5337.00 5330.82 73.00
3398 22.4820 5481.00 5457.20 74.00
3399 22.4880 5697.00 5655.40 75.00
3400 22.4940 5905.00 5981.87 77.00
3401 22.5000 6525.00 6522.29 81.00
3402 22.5060 7468.00 7348.88 86.00
3403 22.5120 8895.00 8580.45 94.00
3404 22.5180 10926.00 10116.50 105.00
3405 22.5240 13004.00 11647.50 114.00
3406 22.5300 13709.00 12389.20 117.00
3407 22.5360 12102.00 11791.00 110.00
3408 22.5420 9766.00 10315.40 99.00
3409 22.5480 8084.00 8769.35 90.00
3410 22.5540 7101.00 7529.63 84.00
3411 22.5600 6637.00 6694.59 81.00
3412 22.5660 6459.00 6192.06 80.00
3413 22.5720 6245.00 5891.34 79.00
3414 22.5780 6012.00 5680.91 78.00
3415 22.5840 5736.00 5504.87 76.00
3416 22.5900 5459.00 5360.36 74.00
3417 22.5960 5266.00 5249.61 73.00
3418 22.6020 5174.00 5165.37 72.00
3419 22.6080 5153.00 5096.61 72.00
3420 22.6140 5113.00 5038.78 72.00
3421 22.6200 4980.00 4991.09 71.00
3422 22.6260 4890.00 4957.94 70.00
3423 22.6320 4920.00 4937.65 70.00
3424 22.6380 4941.00 4937.07 70.00
3425 22.6440 5094.00 4946.93 71.00
3426 22.6500 5026.00 4974.77 71.00
3427 22.6560 5001.00 5019.78 71.00
3428 22.6620 5092.00 5073.09 71.00
3429 22.6680 5306.00 5110.23 73.00
3430 22.6740 5398.00 5100.54 73.00
3431 22.6800 5454.00 5045.82 74.00
3432 22.6860 5659.00 4977.20 75.00
3433 22.6920 5837.00 4917.08 76.00
3434 22.6980 5844.00 4872.48 76.00
3435 22.7040 5845.00 4842.77 76.00
3436 22.7100 5802.00 4824.46 76.00
3437 22.7160 5563.00 4813.80 75.00
3438 22.7220 5376.00 4808.03 73.00
3439 22.7280 5179.00 4805.50 72.00
3440 22.7340 4929.00 4805.44 70.00
3441 22.7400 4826.00 4807.60 69.00
3442 22.7460 4868.00 4812.04 70.00
3443 22.7520 4839.00 4819.06 70.00
3444 22.7580 4868.00 4829.23 70.00
3445 22.7640 4846.00 4843.64 70.00
3446 22.7700 4867.00 4864.36 70.00
3447 22.7760 4813.00 4895.35 69.00
3448 22.7820 4825.00 4943.80 69.00
3449 22.7880 4884.00 5020.93 70.00
3450 22.7940 4975.00 5140.80 71.00
3451 22.8000 5402.00 5315.71 73.00
3452 22.8060 5788.00 5546.84 76.00
3453 22.8120 6350.00 5805.67 80.00
3454 22.8180 6565.00 6012.90 81.00
3455 22.8240 6418.00 6066.55 80.00
3456 22.8300 6293.00 6039.24 79.00
3457 22.8360 6189.00 6031.39 79.00
3458 22.8420 6168.00 6135.49 79.00
3459 22.8480 6238.00 6371.89 79.00
3460 22.8540 6373.00 6666.20 80.00
3461 22.8600 6519.00 6830.50 81.00
3462 22.8660 6410.00 6700.55 80.00
3463 22.8720 6116.00 6338.70 78.00
3464 22.8780 5787.00 5944.77 76.00
3465 22.8840 5646.00 5630.78 75.00
3466 22.8900 5456.00 5430.81 74.00
3467 22.8960 5644.00 5347.16 75.00
3468 22.9020 5668.00 5377.71 75.00
3469 22.9080 5734.00 5527.62 76.00
3470 22.9140 5832.00 5804.73 76.00
3471 22.9200 6138.00 6201.35 78.00
3472 22.9260 6510.00 6654.81 81.00
3473 22.9320 6802.00 6992.62 82.00
3474 22.9380 6827.00 6983.78 83.00
3475 22.9440 6895.00 6625.05 83.00
3476 22.9500 6720.00 6140.57 82.00
3477 22.9560 6202.00 5704.24 79.00
3478 22.9620 5776.00 5375.21 76.00
3479 22.9680 5445.00 5151.64 74.00
3480 22.9740 5150.00 5010.61 72.00
3481 22.9800 4976.00 4923.34 71.00
3482 22.9860 4788.00 4867.80 69.00
3483 22.9920 4716.00 4830.20 69.00
3484 22.9980 4630.00 4803.00 68.00
3485 23.0040 4716.00 4782.33 69.00
3486 23.0100 4711.00 4766.17 69.00
3487 23.0160 4723.00 4753.37 69.00
3488 23.0220 4713.00 4743.17 69.00
3489 23.0280 4622.00 4735.05 68.00
3490 23.0340 4798.00 4728.69 69.00
3491 23.0400 4707.00 4723.82 69.00
3492 23.0460 4706.00 4720.29 69.00
3493 23.0520 4735.00 4718.03 69.00
3494 23.0580 4645.00 4716.98 68.00
3495 23.0640 4736.00 4716.12 69.00
3496 23.0700 4686.00 4715.54 68.00
3497 23.0760 4822.00 4716.45 69.00
3498 23.0820 4674.00 4719.11 68.00
3499 23.0880 4736.00 4723.87 69.00
3500 23.0940 4674.00 4731.28 68.00
3501 23.1000 4747.00 4742.16 69.00
3502 23.1060 4794.00 4757.89 69.00
3503 23.1120 4871.00 4781.00 70.00
3504 23.1180 4834.00 4814.02 70.00
3505 23.1240 5101.00 4871.29 71.00
3506 23.1300 5220.00 4965.96 72.00
3507 23.1360 5583.00 5121.60 75.00
3508 23.1420 5615.00 5362.61 75.00
3509 23.1480 6190.00 5702.81 79.00
3510 23.1540 6339.00 6121.88 80.00
3511 23.1600 6071.00 6517.38 78.00
3512 23.1660 6065.00 6700.68 78.00
3513 23.1720 6013.00 6534.52 78.00
3514 23.1780 5831.00 6144.40 76.00
3515 23.1840 5543.00 5732.63 74.00
3516 23.1900 5606.00 5404.74 75.00
3517 23.1960 5510.00 5188.69 74.00
3518 23.2020 5504.00 5078.88 74.00
3519 23.2080 5567.00 5058.73 75.00
3520 23.2140 5407.00 5108.87 74.00
3521 23.2200 5546.00 5204.21 74.00
3522 23.2260 5453.00 5299.39 74.00
3523 23.2320 5436.00 5323.12 74.00
3524 23.2380 5446.00 5232.29 74.00
3525 23.2440 5149.00 5084.55 72.00
3526 23.2500 5003.00 4936.02 71.00
3527 23.2560 4686.00 4815.71 68.00
3528 23.2620 4548.00 4728.80 67.00
3529 23.2680 4554.00 4670.06 67.00
3530 23.2740 4523.00 4631.28 67.00
3531 23.2800 4575.00 4605.00 68.00
3532 23.2860 4432.00 4586.05 67.00
3533 23.2920 4516.00 4571.36 67.00
3534 23.2980 4502.00 4559.30 67.00
3535 23.3040 4350.00 4549.24 66.00
3536 23.3100 4498.00 4540.66 67.00
3537 23.3160 4516.00 4532.67 67.00
3538 23.3220 4490.00 4525.45 67.00
3539 23.3280 4465.00 4518.84 67.00
3540 23.3340 4423.00 4512.72 67.00
3541 23.3400 4430.00 4507.00 67.00
3542 23.3460 4374.00 4501.61 66.00
3543 23.3520 4462.00 4496.50 67.00
3544 23.3580 4421.00 4491.63 66.00
3545 23.3640 4474.00 4486.95 67.00
3546 23.3700 4505.00 4482.45 67.00
3547 23.3760 4470.00 4478.09 67.00
3548 23.3820 4563.00 4473.87 68.00
3549 23.3880 4386.00 4469.76 66.00
3550 23.3940 4467.00 4466.66 67.00
3551 23.4000 4715.00 4463.65 69.00
3552 23.4060 4655.00 4460.72 68.00
3553 23.4120 4680.00 4457.87 68.00
3554 23.4180 4873.00 4455.08 70.00
3555 23.4240 4913.00 4452.35 70.00
3556 23.4300 4907.00 4449.67 70.00
3557 23.4360 4879.00 4447.05 70.00
3558 23.4420 4970.00 4444.48 70.00
3559 23.4480 5010.00 4441.96 71.00
3560 23.4540 4821.00 4439.48 69.00
3561 23.4600 4615.00 4437.06 68.00
3562 23.4660 4495.00 4434.67 67.00
3563 23.4720 4563.00 4427.26 68.00
3564 23.4780 4377.00 4425.17 66.00
3565 23.4840 4396.00 4423.12 66.00
3566 23.4900 4441.00 4421.13 67.00
3567 23.4960 4444.00 4419.19 67.00
3568 23.5020 4411.00 4417.32 66.00
3569 23.5080 4514.00 4415.53 67.00
3570 23.5140 4477.00 4413.84 67.00
3571 23.5200 4319.00 4412.26 66.00
3572 23.5260 4571.00 4410.84 68.00
3573 23.5320 4333.00 4409.61 66.00
3574 23.5380 4581.00 4406.96 68.00
3575 23.5440 4439.00 4406.37 67.00
3576 23.5500 4548.00 4406.25 67.00
3577 23.5560 4472.00 4406.85 67.00
3578 23.5620 4550.00 4408.63 67.00
3579 23.5680 4532.00 4412.45 67.00
3580 23.5740 4385.00 4419.78 66.00
3581 23.5800 4512.00 4432.76 67.00
3582 23.5860 4370.00 4453.90 66.00
3583 23.5920 4452.00 4490.61 67.00
3584 23.5980 4650.00 4531.19 68.00
3585 23.6040 4451.00 4574.03 67.00
3586 23.6100 4648.00 4603.96 68.00
3587 23.6160 4715.00 4616.27 69.00
3588 23.6220 4608.00 4592.10 68.00
3589 23.6280 4458.00 4545.98 67.00
3590 23.6340 4594.00 4501.06 68.00
3591 23.6400 4536.00 4465.30 67.00
3592 23.6460 4459.00 4439.86 67.00
3593 23.6520 4527.00 4423.00 67.00
3594 23.6580 4454.00 4412.20 67.00
3595 23.6640 4398.00 4405.21 66.00
3596 23.6700 4405.00 4400.50 66.00
3597 23.6760 4545.00 4397.15 67.00
3598 23.6820 4521.00 4394.67 67.00
3599 23.6880 4393.00 4411.69 66.00
3600 23.6940 4454.00 4411.10 67.00
3601 23.7000 4310.00 4410.99 66.00
3602 23.7060 4404.00 4411.33 66.00
3603 23.7120 4496.00 4412.09 67.00
3604 23.7180 4387.00 4413.29 66.00
3605 23.7240 4388.00 4429.49 66.00
3606 23.7300 4507.00 4432.17 67.00
3607 23.7360 4385.00 4435.40 66.00
3608 23.7420 4302.00 4439.20 66.00
3609 23.7480 4450.00 4443.66 67.00
3610 23.7540 4442.00 4448.83 67.00
3611 23.7600 4377.00 4454.82 66.00
3612 23.7660 4367.00 4461.72 66.00
3613 23.7720 4426.00 4469.68 67.00
3614 23.7780 4368.00 4478.86 66.00
3615 23.7840 4497.00 4489.45 67.00
3616 23.7900 4580.00 4501.70 68.00
3617 23.7960 4496.00 4515.90 67.00
3618 23.8020 4491.00 4532.44 67.00
3619 23.8080 4623.00 4551.78 68.00
3620 23.8140 4582.00 4574.54 68.00
3621 23.8200 4580.00 4601.53 68.00
3622 23.8260 4586.00 4633.78 68.00
3623 23.8320 4641.00 4672.76 68.00
3624 23.8380 4668.00 4720.51 68.00
3625 23.8440 4698.00 4780.35 69.00
3626 23.8500 4753.00 4857.79 69.00
3627 23.8560 4913.00 4962.64 70.00
3628 23.8620 5012.00 5111.51 71.00
3629 23.8680 5247.00 5330.41 72.00
3630 23.8740 5492.00 5654.24 74.00
3631 23.8800 6026.00 6122.69 78.00
3632 23.8860 6935.00 6770.41 83.00
3633 23.8920 8391.00 7599.70 92.00
3634 23.8980 9726.00 8533.40 99.00
3635 23.9040 10596.00 9440.96 103.00
3636 23.9100 11390.00 10322.40 107.00
3637 23.9160 11972.00 11254.40 109.00
3638 23.9220 12815.00 12044.40 113.00
3639 23.9280 12468.00 12214.10 112.00
3640 23.9340 10956.00 11532.70 105.00
3641 23.9400 9439.00 10316.80 97.00
3642 23.9460 8491.00 9074.54 92.00
3643 23.9520 8068.00 8136.13 90.00
3644 23.9580 8143.00 7635.52 90.00
3645 23.9640 8172.00 7614.96 90.00
3646 23.9700 8609.00 8086.02 93.00
3647 23.9760 8983.00 9035.88 95.00
3648 23.9820 9835.00 10382.40 99.00
3649 23.9880 10802.00 11862.10 104.00
3650 23.9940 11929.00 12916.60 109.00
3651 24.0000 12625.00 13039.70 112.00
3652 24.0060 12948.00 12474.40 114.00
3653 24.0120 12194.00 11900.30 110.00
3654 24.0180 12439.00 11679.50 112.00
3655 24.0240 13346.00 11682.70 116.00
3656 24.0300 12829.00 11407.90 113.00
3657 24.0360 10774.00 10500.40 104.00
3658 24.0420 8997.00 9201.08 95.00
3659 24.0480 7276.00 7930.50 85.00
3660 24.0540 6436.00 6899.49 80.00
3661 24.0600 5726.00 6146.81 76.00
3662 24.0660 5413.00 5633.56 74.00
3663 24.0720 5153.00 5296.06 72.00
3664 24.0780 4980.00 5073.63 71.00
3665 24.0840 4774.00 4920.89 69.00
3666 24.0900 4673.00 4809.73 68.00
3667 24.0960 4633.00 4724.28 68.00
3668 24.1020 4641.00 4655.96 68.00
3669 24.1080 4571.00 4599.86 68.00
3670 24.1140 4524.00 4552.96 67.00
3671 24.1200 4570.00 4513.22 68.00
3672 24.1260 4349.00 4479.15 66.00
3673 24.1320 4415.00 4449.63 66.00
3674 24.1380 4342.00 4423.82 66.00
3675 24.1440 4410.00 4401.08 66.00
3676 24.1500 4332.00 4380.86 66.00
3677 24.1560 4330.00 4362.77 66.00
3678 24.1620 4301.00 4346.48 66.00
3679 24.1680 4371.00 4331.72 66.00
3680 24.1740 4286.00 4318.27 65.00
3681 24.1800 4331.00 4305.96 66.00
3682 24.1860 4350.00 4294.63 66.00
3683 24.1920 4248.00 4284.15 65.00
3684 24.1980 4132.00 4274.43 64.00
3685 24.2040 4056.00 4262.89 64.00
3686 24.2100 4165.00 4247.00 65.00
3687 24.2160 4200.00 4226.23 65.00
3688 24.2220 4151.00 4211.52 64.00
3689 24.2280 4155.00 4197.20 64.00
3690 24.2340 4161.00 4183.25 65.00
3691 24.2400 4250.00 4158.55 65.00
3692 24.2460 4329.00 4139.61 66.00
3693 24.2520 4265.00 4127.15 65.00
3694 24.2580 4176.00 4114.90 65.00
3695 24.2640 4271.00 4102.82 65.00
3696 24.2700 4249.00 4090.92 65.00
3697 24.2760 4177.00 4079.18 65.00
3698 24.2820 4128.00 4067.57 64.00
3699 24.2880 4277.00 4056.09 65.00
3700 24.2940 4174.00 4044.73 65.00
3701 24.3000 4140.00 4033.48 64.00
3702 24.3060 3992.00 4022.32 63.00
3703 24.3120 4081.00 4000.20 64.00
3704 24.3180 4044.00 4003.43 64.00
3705 24.3240 4122.00 4006.70 64.00
3706 24.3300 4139.00 4046.05 64.00
3707 24.3360 4166.00 4050.79 65.00
3708 24.3420 4245.00 4041.66 65.00
3709 24.3480 4274.00 4047.15 65.00
3710 24.3540 4247.00 4052.74 65.00
3711 24.3600 4247.00 4062.37 65.00
3712 24.3660 4234.00 4068.33 65.00
3713 24.3720 4301.00 4074.41 66.00
3714 24.3780 4197.00 4080.65 65.00
3715 24.3840 4221.00 4087.03 65.00
3716 24.3900 4214.00 4094.22 65.00
3717 24.3960 4196.00 4100.99 65.00
3718 24.4020 4080.00 4107.96 64.00
3719 24.4080 4150.00 4115.16 64.00
3720 24.4140 4121.00 4122.61 64.00
3721 24.4200 4043.00 4130.33 64.00
3722 24.4260 4209.00 4138.35 65.00
3723 24.4320 4209.00 4146.71 65.00
3724 24.4380 4107.00 4155.46 64.00
3725 24.4440 4157.00 4158.47 64.00
3726 24.4500 4196.00 4160.73 65.00
3727 24.4560 4208.00 4163.51 65.00
3728 24.4620 4270.00 4166.89 65.00
3729 24.4680 4349.00 4170.94 66.00
3730 24.4740 4361.00 4175.75 66.00
3731 24.4800 4275.00 4181.43 65.00
3732 24.4860 4328.00 4188.11 66.00
3733 24.4920 4304.00 4195.93 66.00
3734 24.4980 4361.00 4205.47 66.00
3735 24.5040 4306.00 4216.17 66.00
3736 24.5100 4314.00 4228.66 66.00
3737 24.5160 4416.00 4243.26 66.00
3738 24.5220 4410.00 4260.37 66.00
3739 24.5280 4389.00 4280.47 66.00
3740 24.5340 4358.00 4304.15 66.00
3741 24.5400 4378.00 4332.19 66.00
3742 24.5460 4419.00 4365.54 66.00
3743 24.5520 4453.00 4405.48 67.00
3744 24.5580 4510.00 4453.64 67.00
3745 24.5640 4607.00 4520.15 68.00
3746 24.5700 4556.00 4592.44 67.00
3747 24.5760 4614.00 4682.45 68.00
3748 24.5820 4697.00 4796.61 69.00
3749 24.5880 4832.00 4945.84 70.00
3750 24.5940 4972.00 5150.15 71.00
3751 24.6000 5218.00 5446.69 72.00
3752 24.6060 5670.00 5901.41 75.00
3753 24.6120 6196.00 6618.16 79.00
3754 24.6180 7026.00 7735.03 84.00
3755 24.6240 8629.00 9392.09 93.00
3756 24.6300 11292.00 11658.20 106.00
3757 24.6360 15425.00 14414.80 124.00
3758 24.6420 20396.00 17122.00 143.00
3759 24.6480 22502.00 18679.10 150.00
3760 24.6540 19463.00 18194.60 140.00
3761 24.6600 14749.00 16148.10 121.00
3762 24.6660 11529.00 13690.00 107.00
3763 24.6720 9612.00 11472.50 98.00
3764 24.6780 8300.00 9632.39 91.00
3765 24.6840 7139.00 8174.19 84.00
3766 24.6900 6478.00 7100.33 80.00
3767 24.6960 6003.00 6358.48 77.00
3768 24.7020 5604.00 5847.65 75.00
3769 24.7080 5358.00 5475.05 73.00
3770 24.7140 5010.00 5183.56 71.00
3771 24.7200 4811.00 4953.15 69.00
3772 24.7260 4563.00 4773.90 68.00
3773 24.7320 4429.00 4636.06 67.00
3774 24.7380 4410.00 4530.43 66.00
3775 24.7440 4400.00 4449.28 66.00
3776 24.7500 4369.00 4386.36 66.00
3777 24.7560 4258.00 4337.08 65.00
3778 24.7620 4180.00 4304.82 65.00
3779 24.7680 4209.00 4274.98 65.00
3780 24.7740 4326.00 4253.10 66.00
3781 24.7800 4243.00 4239.40 65.00
3782 24.7860 4293.00 4234.80 66.00
3783 24.7920 4365.00 4240.50 66.00
3784 24.7980 4403.00 4257.23 66.00
3785 24.8040 4444.00 4283.99 67.00
3786 24.8100 4468.00 4315.68 67.00
3787 24.8160 4466.00 4341.54 67.00
3788 24.8220 4462.00 4352.92 67.00
3789 24.8280 4506.00 4357.41 67.00
3790 24.8340 4629.00 4374.82 68.00
3791 24.8400 4839.00 4426.44 70.00
3792 24.8460 5033.00 4535.55 71.00
3793 24.8520 5453.00 4729.84 74.00
3794 24.8580 6002.00 5037.99 77.00
3795 24.8640 6583.00 5477.73 81.00
3796 24.8700 6844.00 6033.17 83.00
3797 24.8760 6759.00 6613.70 82.00
3798 24.8820 6562.00 7008.35 81.00
3799 24.8880 6283.00 6982.23 79.00
3800 24.8940 5833.00 6552.81 76.00
3801 24.9000 5599.00 5965.96 75.00
3802 24.9060 5501.00 5422.97 74.00
3803 24.9120 5205.00 5006.72 72.00
3804 24.9180 5020.00 4730.60 71.00
3805 24.9240 4909.00 4576.31 70.00
3806 24.9300 4876.00 4513.14 70.00
3807 24.9360 4875.00 4504.85 70.00
3808 24.9420 4861.00 4507.94 70.00
3809 24.9480 4787.00 4478.87 69.00
3810 24.9540 4665.00 4406.21 68.00
3811 24.9600 4583.00 4316.15 68.00
3812 24.9660 4510.00 4236.56 67.00
3813 24.9720 4438.00 4146.70 67.00
3814 24.9780 4452.00 4124.39 67.00
3815 24.9840 4453.00 4136.51 67.00
3816 24.9900 4448.00 4185.33 67.00
3817 24.9960 4497.00 4267.09 67.00
3818 25.0020 4612.00 4382.95 68.00
3819 25.0080 4670.00 4506.83 68.00
3820 25.0140 4535.00 4592.20 67.00
3821 25.0200 4452.00 4592.24 67.00
3822 25.0260 4461.00 4516.86 67.00
3823 25.0320 4522.00 4424.43 67.00
3824 25.0380 4541.00 4363.21 67.00
3825 25.0440 4637.00 4363.14 68.00
3826 25.0500 4764.00 4446.34 69.00
3827 25.0560 4945.00 4632.25 70.00
3828 25.0620 5081.00 4935.12 71.00
3829 25.0680 5232.00 5345.10 72.00
3830 25.0740 5645.00 5810.70 75.00
3831 25.0800 5931.00 6192.02 77.00
3832 25.0860 6251.00 6283.99 79.00
3833 25.0920 6410.00 6020.06 80.00
3834 25.0980 5993.00 5553.09 77.00
3835 25.1040 5390.00 5073.91 73.00
3836 25.1100 4833.00 4675.43 70.00
3837 25.1160 4418.00 4380.22 66.00
3838 25.1220 4226.00 4177.52 65.00
3839 25.1280 4126.00 4046.31 64.00
3840 25.1340 4021.00 3959.90 63.00
3841 25.1400 3940.00 3901.54 63.00
3842 25.1460 3972.00 3860.32 63.00
3843 25.1520 3960.00 3829.15 63.00
3844 25.1580 3883.00 3804.39 62.00
3845 25.1640 3892.00 3784.06 62.00
3846 25.1700 3902.00 3766.95 62.00
3847 25.1760 3954.00 3752.32 63.00
3848 25.1820 3985.00 3739.64 63.00
3849 25.1880 3925.00 3728.51 63.00
3850 25.1940 3934.00 3718.64 63.00
3851 25.2000 4012.00 3709.82 63.00
3852 25.2060 4002.00 3701.88 63.00
3853 25.2120 4056.00 3687.06 64.00
3854 25.2180 4231.00 3680.78 65.00
3855 25.2240 4299.00 3675.06 66.00
3856 25.2300 4328.00 3669.84 66.00
3857 25.2360 4391.00 3665.07 66.00
3858 25.2420 4327.00 3660.73 66.00
3859 25.2480 4222.00 3656.80 65.00
3860 25.2540 4096.00 3653.28 64.00
3861 25.2600 3927.00 3650.15 63.00
3862 25.2660 3829.00 3647.45 62.00
3863 25.2720 3748.00 3644.20 61.00
3864 25.2780 3714.00 3642.46 61.00
3865 25.2840 3656.00 3641.26 60.00
3866 25.2900 3647.00 3644.27 60.00
3867 25.2960 3699.00 3649.79 61.00
3868 25.3020 3678.00 3656.15 61.00
3869 25.3080 3745.00 3663.54 61.00
3870 25.3140 3842.00 3672.19 62.00
3871 25.3200 3847.00 3682.48 62.00
3872 25.3260 3903.00 3694.93 62.00
3873 25.3320 3957.00 3710.47 63.00
3874 25.3380 3982.00 3730.68 63.00
3875 25.3440 4155.00 3761.31 64.00
3876 25.3500 4227.00 3800.86 65.00
3877 25.3560 4328.00 3858.24 66.00
3878 25.3620 4404.00 3940.67 66.00
3879 25.3680 4418.00 4058.99 66.00
3880 25.3740 4609.00 4209.12 68.00
3881 25.3800 4865.00 4388.52 70.00
3882 25.3860 5137.00 4572.02 72.00
3883 25.3920 5281.00 4726.69 73.00
3884 25.3980 5438.00 4848.01 74.00
3885 25.4040 5440.00 4975.01 74.00
3886 25.4100 5287.00 5117.02 73.00
3887 25.4160 5259.00 5210.46 73.00
3888 25.4220 5213.00 5186.64 72.00
3889 25.4280 5129.00 5048.83 72.00
3890 25.4340 5129.00 4878.40 72.00
3891 25.4400 5079.00 4753.29 71.00
3892 25.4460 5062.00 4689.38 71.00
3893 25.4520 5061.00 4652.76 71.00
3894 25.4580 4938.00 4583.34 70.00
3895 25.4640 4754.00 4454.34 69.00
3896 25.4700 4467.00 4296.71 67.00
3897 25.4760 4211.00 4150.01 65.00
3898 25.4820 4042.00 4032.48 64.00
3899 25.4880 3941.00 3945.49 63.00
3900 25.4940 3870.00 3885.80 62.00
3901 25.5000 3788.00 3846.72 62.00
3902 25.5060 3780.00 3821.76 61.00
3903 25.5120 3810.00 3805.90 62.00
3904 25.5180 3840.00 3795.79 62.00
3905 25.5240 3832.00 3789.49 62.00
3906 25.5300 3768.00 3785.90 61.00
3907 25.5360 3687.00 3784.02 61.00
3908 25.5420 3739.00 3783.72 61.00
3909 25.5480 3774.00 3784.98 61.00
3910 25.5540 3763.00 3787.73 61.00
3911 25.5600 3797.00 3791.93 62.00
3912 25.5660 3765.00 3797.63 61.00
3913 25.5720 3685.00 3804.94 61.00
3914 25.5780 3649.00 3814.01 60.00
3915 25.5840 3743.00 3825.14 61.00
3916 25.5900 3807.00 3838.69 62.00
3917 25.5960 3864.00 3855.18 62.00
3918 25.6020 3824.00 3875.40 62.00
3919 25.6080 3891.00 3900.53 62.00
3920 25.6140 3877.00 3932.56 62.00
3921 25.6200 3851.00 3974.99 62.00
3922 25.6260 3861.00 4033.91 62.00
3923 25.6320 3938.00 4119.54 63.00
3924 25.6380 4047.00 4246.96 64.00
3925 25.6440 4220.00 4435.40 65.00
3926 25.6500 4333.00 4704.84 66.00
3927 25.6560 4816.00 5067.75 69.00
3928 25.6620 5435.00 5514.66 74.00
3929 25.6680 6173.00 5995.90 79.00
3930 25.6740 6453.00 6372.95 80.00
3931 25.6800 6355.00 6564.66 80.00
3932 25.6860 6233.00 6614.17 79.00
3933 25.6920 6166.00 6591.05 79.00
3934 25.6980 6220.00 6479.73 79.00
3935 25.7040 5888.00 6272.70 77.00
3936 25.7100 5486.00 6048.55 74.00
3937 25.7160 5179.00 5875.76 72.00
3938 25.7220 5062.00 5744.83 71.00
3939 25.7280 5037.00 5648.54 71.00
3940 25.7340 5128.00 5581.19 72.00
3941 25.7400 5319.00 5611.68 73.00
3942 25.7460 5413.00 5750.44 74.00
3943 25.7520 5562.00 5935.13 75.00
3944 25.7580 5660.00 6038.56 75.00
3945 25.7640 5577.00 5931.52 75.00
3946 25.7700 5300.00 5638.80 73.00
3947 25.7760 4886.00 5295.22 70.00
3948 25.7820 4633.00 5004.42 68.00
3949 25.7880 4480.00 4805.91 67.00
3950 25.7940 4598.00 4703.68 68.00
3951 25.8000 4636.00 4669.26 68.00
3952 25.8060 4684.00 4655.43 68.00
3953 25.8120 4605.00 4612.36 68.00
3954 25.8180 4485.00 4519.23 67.00
3955 25.8240 4301.00 4395.95 66.00
3956 25.8300 4186.00 4274.43 65.00
3957 25.8360 4147.00 4173.19 64.00
3958 25.8420 3975.00 4097.12 63.00
3959 25.8480 3942.00 4044.03 63.00
3960 25.8540 3944.00 4009.12 63.00
3961 25.8600 3899.00 3987.28 62.00
3962 25.8660 3826.00 3974.36 62.00
3963 25.8720 3869.00 3967.52 62.00
3964 25.8780 3869.00 3965.08 62.00
3965 25.8840 3740.00 3985.86 61.00
3966 25.8900 3805.00 3988.72 62.00
3967 25.8960 3916.00 3990.62 63.00
3968 25.9020 3926.00 3995.59 63.00
3969 25.9080 3979.00 4003.88 63.00
3970 25.9140 3938.00 4015.92 63.00
3971 25.9200 4001.00 4046.73 63.00
3972 25.9260 4144.00 4068.98 64.00
3973 25.9320 4060.00 4097.96 64.00
3974 25.9380 4028.00 4135.97 63.00
3975 25.9440 4089.00 4186.87 64.00
3976 25.9500 4265.00 4257.66 65.00
3977 25.9560 4392.00 4360.56 66.00
3978 25.9620 4654.00 4515.40 68.00
3979 25.9680 4866.00 4750.20 70.00
3980 25.9740 5320.00 5097.71 73.00
3981 25.9800 5932.00 5585.53 77.00
3982 25.9860 6651.00 6219.07 82.00
3983 25.9920 7078.00 6957.57 84.00
3984 25.9980 7294.00 7633.20 85.00
3985 26.0040 7272.00 7994.60 85.00
3986 26.0100 7112.00 7880.06 84.00
3987 26.0160 7145.00 7463.16 85.00
3988 26.0220 7245.00 7046.92 85.00
3989 26.0280 7466.00 6852.08 86.00
3990 26.0340 7866.00 6989.83 89.00
3991 26.0400 8209.00 7508.07 91.00
3992 26.0460 8780.00 8367.55 94.00
3993 26.0520 9249.00 9416.71 96.00
3994 26.0580 10092.00 10298.60 100.00
3995 26.0640 10801.00 10530.30 104.00
3996 26.0700 10499.00 9914.09 102.00
3997 26.0760 9176.00 8783.68 96.00
3998 26.0820 7565.00 7584.72 87.00
3999 26.0880 6408.00 6560.68 80.00
4000 26.0940 5522.00 5783.73 74.00
4001 26.1000 5018.00 5236.73 71.00
4002 26.1060 4642.00 4880.83 68.00
4003 26.1120 4526.00 4656.49 67.00
4004 26.1180 4560.00 4517.90 68.00
4005 26.1240 4318.00 4433.77 66.00
4006 26.1300 4233.00 4385.52 65.00
4007 26.1360 4233.00 4363.40 65.00
4008 26.1420 4402.00 4362.69 66.00
4009 26.1480 4314.00 4382.61 66.00
4010 26.1540 4438.00 4426.54 67.00
4011 26.1600 4540.00 4499.05 67.00
4012 26.1660 4780.00 4611.56 69.00
4013 26.1720 5012.00 4785.24 71.00
4014 26.1780 5404.00 5055.62 74.00
4015 26.1840 6054.00 5475.46 78.00
4016 26.1900 6819.00 6110.17 83.00
4017 26.1960 8049.00 7022.51 90.00
4018 26.2020 9743.00 8244.82 99.00
4019 26.2080 11215.00 9727.57 106.00
4020 26.2140 11705.00 11251.00 108.00
4021 26.2200 12094.00 12359.70 110.00
4022 26.2260 11927.00 12634.30 109.00
4023 26.2320 11627.00 12213.50 108.00
4024 26.2380 11728.00 11648.60 108.00
4025 26.2440 11797.00 11324.80 109.00
4026 26.2500 12184.00 11265.70 110.00
4027 26.2560 12231.00 11136.40 111.00
4028 26.2620 11452.00 10558.20 107.00
4029 26.2680 9717.00 9510.78 99.00
4030 26.2740 8165.00 8317.71 90.00
4031 26.2800 6872.00 7279.18 83.00
4032 26.2860 6375.00 6490.51 80.00
4033 26.2920 5916.00 5997.93 77.00
4034 26.2980 5895.00 5791.36 77.00
4035 26.3040 6041.00 5840.40 78.00
4036 26.3100 6645.00 6099.10 82.00
4037 26.3160 6677.00 6491.02 82.00
4038 26.3220 6543.00 6871.60 81.00
4039 26.3280 6075.00 7021.56 78.00
4040 26.3340 5834.00 6797.06 76.00
4041 26.3400 5596.00 6295.06 75.00
4042 26.3460 5546.00 5715.14 74.00
4043 26.3520 5262.00 5215.81 73.00
4044 26.3580 5247.00 4841.99 72.00
4045 26.3640 5140.00 4601.83 72.00
4046 26.3700 5047.00 4481.03 71.00
4047 26.3760 4942.00 4453.88 70.00
4048 26.3820 4869.00 4485.84 70.00
4049 26.3880 4843.00 4527.58 70.00
4050 26.3940 4709.00 4517.68 69.00
4051 26.4000 4497.00 4423.24 67.00
4052 26.4060 4214.00 4255.80 65.00
4053 26.4120 4000.00 4096.01 63.00
4054 26.4180 3852.00 3956.42 62.00
4055 26.4240 3768.00 3847.33 61.00
4056 26.4300 3658.00 3766.48 60.00
4057 26.4360 3555.00 3709.50 60.00
4058 26.4420 3622.00 3670.17 60.00
4059 26.4480 3465.00 3642.99 59.00
4060 26.4540 3503.00 3624.05 59.00
4061 26.4600 3499.00 3610.90 59.00
4062 26.4660 3451.00 3602.17 59.00
4063 26.4720 3502.00 3598.53 59.00
4064 26.4780 3417.00 3601.03 58.00
4065 26.4840 3521.00 3606.96 59.00
4066 26.4900 3499.00 3616.50 59.00
4067 26.4960 3517.00 3629.96 59.00
4068 26.5020 3731.00 3647.88 61.00
4069 26.5080 3675.00 3670.99 61.00
4070 26.5140 3605.00 3700.38 60.00
4071 26.5200 3683.00 3737.61 61.00
4072 26.5260 3651.00 3785.06 60.00
4073 26.5320 3659.00 3846.93 60.00
4074 26.5380 3830.00 3929.40 62.00
4075 26.5440 3865.00 4044.21 62.00
4076 26.5500 4014.00 4210.03 63.00
4077 26.5560 4064.00 4454.57 64.00
4078 26.5620 4504.00 4816.36 67.00
4079 26.5680 4875.00 5309.57 70.00
4080 26.5740 5726.00 6006.18 76.00
4081 26.5800 7126.00 6890.66 84.00
4082 26.5860 9132.00 7897.49 96.00
4083 26.5920 10271.00 8855.86 101.00
4084 26.5980 9848.00 9565.07 99.00
4085 26.6040 10321.00 10032.00 102.00
4086 26.6100 10763.00 10461.60 104.00
4087 26.6160 11177.00 10846.40 106.00
4088 26.6220 11220.00 10893.40 106.00
4089 26.6280 10552.00 10293.90 103.00
4090 26.6340 8753.00 9151.26 94.00
4091 26.6400 7275.00 7853.90 85.00
4092 26.6460 5989.00 6688.75 77.00
4093 26.6520 5313.00 5764.90 73.00
4094 26.6580 4854.00 5088.69 70.00
4095 26.6640 4455.00 4620.60 67.00
4096 26.6700 4336.00 4306.82 66.00
4097 26.6760 3886.00 4090.19 62.00
4098 26.6820 3917.00 3947.41 63.00
4099 26.6880 3658.00 3845.61 60.00
4100 26.6940 3603.00 3769.78 60.00
4101 26.7000 3476.00 3711.49 59.00
4102 26.7060 3418.00 3666.10 58.00
4103 26.7120 3330.00 3631.18 58.00
4104 26.7180 3471.00 3605.78 59.00
4105 26.7240 3398.00 3587.08 58.00
4106 26.7300 3442.00 3576.22 59.00
4107 26.7360 3378.00 3577.90 58.00
4108 26.7420 3298.00 3591.54 57.00
4109 26.7480 3414.00 3620.14 58.00
4110 26.7540 3444.00 3656.91 59.00
4111 26.7600 3477.00 3688.74 59.00
4112 26.7660 3553.00 3694.98 60.00
4113 26.7720 3501.00 3662.87 59.00
4114 26.7780 3467.00 3603.40 59.00
4115 26.7840 3386.00 3537.21 58.00
4116 26.7900 3267.00 3477.71 57.00
4117 26.7960 3273.00 3429.98 57.00
4118 26.8020 3403.00 3394.41 58.00
4119 26.8080 3375.00 3369.37 58.00
4120 26.8140 3374.00 3352.66 58.00
4121 26.8200 3447.00 3342.33 59.00
4122 26.8260 3464.00 3337.23 59.00
4123 26.8320 3484.00 3337.05 59.00
4124 26.8380 3522.00 3342.41 59.00
4125 26.8440 3454.00 3354.80 59.00
4126 26.8500 3469.00 3376.73 59.00
4127 26.8560 3350.00 3411.86 58.00
4128 26.8620 3444.00 3465.06 59.00
4129 26.8680 3589.00 3541.85 60.00
4130 26.8740 3571.00 3646.38 60.00
4131 26.8800 3643.00 3780.70 60.00
4132 26.8860 3850.00 3947.51 62.00
4133 26.8920 4106.00 4147.25 64.00
4134 26.8980 4264.00 4361.51 65.00
4135 26.9040 4282.00 4539.60 65.00
4136 26.9100 4370.00 4629.89 66.00
4137 26.9160 4322.00 4647.40 66.00
4138 26.9220 4458.00 4664.67 67.00
4139 26.9280 4502.00 4723.65 67.00
4140 26.9340 4765.00 4807.67 69.00
4141 26.9400 4721.00 4833.64 69.00
4142 26.9460 4658.00 4705.97 68.00
4143 26.9520 4332.00 4451.81 66.00
4144 26.9580 3977.00 4147.34 63.00
4145 26.9640 3628.00 3864.25 60.00
4146 26.9700 3513.00 3617.58 59.00
4147 26.9760 3341.00 3446.05 58.00
4148 26.9820 3265.00 3321.86 57.00
4149 26.9880 3152.00 3235.50 56.00
4150 26.9940 3156.00 3175.31 56.00
4151 27.0000 3173.00 3131.98 56.00
4152 27.0060 3079.00 3099.15 55.00
4153 27.0120 3065.00 3072.93 55.00
4154 27.0180 3072.00 3051.06 55.00
4155 27.0240 2997.00 3032.24 55.00
4156 27.0300 3022.00 3015.70 55.00
4157 27.0360 3071.00 3000.95 55.00
4158 27.0420 2974.00 2987.65 55.00
4159 27.0480 2962.00 2975.56 54.00
4160 27.0540 3033.00 2964.55 55.00
4161 27.0600 2922.00 2954.58 54.00
4162 27.0660 3051.00 2945.68 55.00
4163 27.0720 3006.00 2941.53 55.00
4164 27.0780 2933.00 2942.41 54.00
4165 27.0840 2965.00 2945.17 54.00
4166 27.0900 3033.00 2950.08 55.00
4167 27.0960 3000.00 2957.09 55.00
4168 27.1020 3046.00 2965.48 55.00
4169 27.1080 3076.00 2973.25 55.00
4170 27.1140 3076.00 2977.07 55.00
4171 27.1200 3117.00 2973.83 56.00
4172 27.1260 3145.00 2966.49 56.00
4173 27.1320 3091.00 2957.68 56.00
4174 27.1380 2998.00 2949.83 55.00
4175 27.1440 2989.00 2943.94 55.00
4176 27.1500 3011.00 2940.20 55.00
4177 27.1560 3037.00 2938.40 55.00
4178 27.1620 2997.00 2938.19 55.00
4179 27.1680 3005.00 2939.27 55.00
4180 27.1740 3064.00 2941.45 55.00
4181 27.1800 3087.00 2944.60 56.00
4182 27.1860 3101.00 2948.76 56.00
4183 27.1920 3088.00 2954.09 56.00
4184 27.1980 3068.00 2960.94 55.00
4185 27.2040 3067.00 2969.64 55.00
4186 27.2100 3098.00 2981.08 56.00
4187 27.2160 3129.00 2996.77 56.00
4188 27.2220 3144.00 3019.23 56.00
4189 27.2280 3144.00 3052.40 56.00
4190 27.2340 3218.00 3101.46 57.00
4191 27.2400 3385.00 3173.27 58.00
4192 27.2460 3508.00 3273.00 59.00
4193 27.2520 3721.00 3402.27 61.00
4194 27.2580 3841.00 3550.95 62.00
4195 27.2640 3880.00 3699.97 62.00
4196 27.2700 3883.00 3799.16 62.00
4197 27.2760 3719.00 3805.52 61.00
4198 27.2820 3661.00 3729.96 61.00
4199 27.2880 3684.00 3628.30 61.00
4200 27.2940 3573.00 3546.86 60.00
4201 27.3000 3548.00 3519.78 60.00
4202 27.3060 3708.00 3551.36 61.00
4203 27.3120 3758.00 3634.98 61.00
4204 27.3180 3665.00 3745.89 61.00
4205 27.3240 3742.00 3834.90 61.00
4206 27.3300 3833.00 3842.43 62.00
4207 27.3360 3758.00 3749.80 61.00
4208 27.3420 3611.00 3597.98 60.00
4209 27.3480 3415.00 3438.34 58.00
4210 27.3540 3275.00 3299.82 57.00
4211 27.3600 3209.00 3191.76 57.00
4212 27.3660 3188.00 3113.42 56.00
4213 27.3720 3172.00 3059.33 56.00
4214 27.3780 3116.00 3022.92 56.00
4215 27.3840 3113.00 2998.33 56.00
4216 27.3900 3078.00 2981.20 55.00
4217 27.3960 3010.00 2968.70 55.00
4218 27.4020 2968.00 2959.16 54.00
4219 27.4080 2955.00 2951.63 54.00
4220 27.4140 3053.00 2946.10 55.00
4221 27.4200 3081.00 2941.09 56.00
4222 27.4260 3052.00 2936.94 55.00
4223 27.4320 2977.00 2933.47 55.00
4224 27.4380 3015.00 2930.61 55.00
4225 27.4440 3102.00 2928.16 56.00
4226 27.4500 3012.00 2926.11 55.00
4227 27.4560 3011.00 2924.39 55.00
4228 27.4620 3033.00 2922.98 55.00
4229 27.4680 2977.00 2921.71 55.00
4230 27.4740 3026.00 2923.67 55.00
4231 27.4800 2936.00 2923.21 54.00
4232 27.4860 2897.00 2923.09 54.00
4233 27.4920 2952.00 2923.20 54.00
4234 27.4980 2931.00 2923.83 54.00
4235 27.5040 2981.00 2925.19 55.00
4236 27.5100 2972.00 2927.45 55.00
4237 27.5160 2966.00 2930.71 54.00
4238 27.5220 3020.00 2934.87 55.00
4239 27.5280 3060.00 2939.47 55.00
4240 27.5340 3037.00 2943.86 55.00
4241 27.5400 3099.00 2947.57 56.00
4242 27.5460 3130.00 2949.80 56.00
4243 27.5520 3097.00 2949.22 56.00
4244 27.5580 3127.00 2945.32 56.00
4245 27.5640 3116.00 2939.46 56.00
4246 27.5700 3059.00 2933.43 55.00
4247 27.5760 3101.00 2928.26 56.00
4248 27.5820 3104.00 2924.31 56.00
4249 27.5880 3017.00 2921.50 55.00
4250 27.5940 2967.00 2919.66 54.00
4251 27.6000 3012.00 2918.53 55.00
4252 27.6060 2969.00 2917.92 54.00
4253 27.6120 2946.00 2917.64 54.00
4254 27.6180 2957.00 2917.61 54.00
4255 27.6240 2908.00 2917.78 54.00
4256 27.6300 2944.00 2916.63 54.00
4257 27.6360 2983.00 2918.39 55.00
4258 27.6420 2943.00 2920.29 54.00
4259 27.6480 2969.00 2922.35 54.00
4260 27.6540 2957.00 2924.56 54.00
4261 27.6600 2924.00 2926.95 54.00
4262 27.6660 2981.00 2935.86 55.00
4263 27.6720 3030.00 2946.40 55.00
4264 27.6780 2961.00 2949.98 54.00
4265 27.6840 2922.00 2951.68 54.00
4266 27.6900 2955.00 2956.11 54.00
4267 27.6960 2997.00 2961.08 55.00
4268 27.7020 2978.00 2966.74 55.00
4269 27.7080 3021.00 2973.37 55.00
4270 27.7140 3038.00 2981.41 55.00
4271 27.7200 2991.00 2991.58 55.00
4272 27.7260 2938.00 3005.01 54.00
4273 27.7320 2945.00 3023.17 54.00
4274 27.7380 3053.00 3047.81 55.00
4275 27.7440 3086.00 3083.38 56.00
4276 27.7500 3159.00 3124.81 56.00
4277 27.7560 3301.00 3173.45 57.00
4278 27.7620 3367.00 3223.72 58.00
4279 27.7680 3392.00 3264.59 58.00
4280 27.7740 3370.00 3285.59 58.00
4281 27.7800 3308.00 3289.59 58.00
4282 27.7860 3457.00 3292.95 59.00
4283 27.7920 3614.00 3312.96 60.00
4284 27.7980 3665.00 3362.03 61.00
4285 27.8040 3689.00 3448.42 61.00
4286 27.8100 3782.00 3576.14 61.00
4287 27.8160 3955.00 3740.70 63.00
4288 27.8220 4039.00 3919.98 64.00
4289 27.8280 4165.00 4064.11 65.00
4290 27.8340 4297.00 4109.78 66.00
4291 27.8400 4294.00 4026.05 66.00
4292 27.8460 4155.00 3860.05 64.00
4293 27.8520 3968.00 3680.90 63.00
4294 27.8580 3737.00 3517.13 61.00
4295 27.8640 3455.00 3388.40 59.00
4296 27.8700 3312.00 3295.74 58.00
4297 27.8760 3246.00 3233.77 57.00
4298 27.8820 3208.00 3195.01 57.00
4299 27.8880 3191.00 3172.43 56.00
4300 27.8940 3157.00 3160.58 56.00
4301 27.9000 3153.00 3155.96 56.00
4302 27.9060 3173.00 3156.45 56.00
4303 27.9120 3286.00 3160.91 57.00
4304 27.9180 3206.00 3169.03 57.00
4305 27.9240 3180.00 3180.67 56.00
4306 27.9300 3187.00 3196.02 56.00
4307 27.9360 3265.00 3215.53 57.00
4308 27.9420 3251.00 3240.77 57.00
4309 27.9480 3276.00 3271.10 57.00
4310 27.9540 3373.00 3309.07 58.00
4311 27.9600 3371.00 3357.43 58.00
4312 27.9660 3409.00 3420.99 58.00
4313 27.9720 3494.00 3507.99 59.00
4314 27.9780 3625.00 3632.26 60.00
4315 27.9840 3721.00 3815.14 61.00
4316 27.9900 4011.00 4086.27 63.00
4317 27.9960 4366.00 4480.34 66.00
4318 28.0020 4991.00 5029.06 71.00
4319 28.0080 5792.00 5745.86 76.00
4320 28.0140 7138.00 6601.41 84.00
4321 28.0200 8825.00 7480.35 94.00
4322 28.0260 9692.00 8153.44 98.00
4323 28.0320 9682.00 8356.96 98.00
4324 28.0380 8726.00 7998.01 93.00
4325 28.0440 7236.00 7249.21 85.00
4326 28.0500 6019.00 6387.91 78.00
4327 28.0560 5296.00 5610.02 73.00
4328 28.0620 4811.00 5001.68 69.00
4329 28.0680 4570.00 4581.13 68.00
4330 28.0740 4314.00 4334.20 66.00
4331 28.0800 4127.00 4233.16 64.00
4332 28.0860 3988.00 4246.07 63.00
4333 28.0920 4009.00 4336.49 63.00
4334 28.0980 3990.00 4455.17 63.00
4335 28.1040 3934.00 4531.61 63.00
4336 28.1100 3912.00 4504.17 63.00
4337 28.1160 3878.00 4360.73 62.00
4338 28.1220 3970.00 4163.27 63.00
4339 28.1280 3907.00 3970.09 63.00
4340 28.1340 3839.00 3811.65 62.00
4341 28.1400 3872.00 3700.06 62.00
4342 28.1460 3999.00 3636.30 63.00
4343 28.1520 4030.00 3619.45 63.00
4344 28.1580 4215.00 3650.43 65.00
4345 28.1640 4354.00 3734.41 66.00
4346 28.1700 4531.00 3881.42 67.00
4347 28.1760 4667.00 4103.43 68.00
4348 28.1820 4666.00 4408.45 68.00
4349 28.1880 4710.00 4789.45 69.00
4350 28.1940 4854.00 5207.86 70.00
4351 28.2000 4973.00 5588.13 71.00
4352 28.2060 5134.00 5860.06 72.00
4353 28.2120 5218.00 5955.75 72.00
4354 28.2180 5440.00 5820.26 74.00
4355 28.2240 5547.00 5469.40 74.00
4356 28.2300 5258.00 5014.60 73.00
4357 28.2360 5126.00 4570.99 72.00
4358 28.2420 4849.00 4198.03 70.00
4359 28.2480 4479.00 3912.87 67.00
4360 28.2540 4092.00 3709.63 64.00
4361 28.2600 3903.00 3574.02 62.00
4362 28.2660 3722.00 3490.41 61.00
4363 28.2720 3641.00 3445.92 60.00
4364 28.2780 3620.00 3431.48 60.00
4365 28.2840 3622.00 3441.03 60.00
4366 28.2900 3569.00 3469.23 60.00
4367 28.2960 3522.00 3508.00 59.00
4368 28.3020 3508.00 3542.77 59.00
4369 28.3080 3393.00 3552.46 58.00
4370 28.3140 3423.00 3524.63 59.00
4371 28.3200 3401.00 3468.24 58.00
4372 28.3260 3328.00 3402.87 58.00
4373 28.3320 3244.00 3342.62 57.00
4374 28.3380 3255.00 3293.53 57.00
4375 28.3440 3185.00 3256.71 56.00
4376 28.3500 3140.00 3231.15 56.00
4377 28.3560 3133.00 3214.18 56.00
4378 28.3620 3108.00 3203.76 56.00
4379 28.3680 3133.00 3198.04 56.00
4380 28.3740 3161.00 3195.75 56.00
4381 28.3800 3108.00 3196.18 56.00
4382 28.3860 3154.00 3199.00 56.00
4383 28.3920 3063.00 3204.19 55.00
4384 28.3980 3117.00 3205.79 56.00
4385 28.4040 3132.00 3209.42 56.00
4386 28.4100 3149.00 3226.69 56.00
4387 28.4160 3113.00 3247.77 56.00
4388 28.4220 3232.00 3277.81 57.00
4389 28.4280 3206.00 3321.88 57.00
4390 28.4340 3314.00 3387.70 58.00
4391 28.4400 3486.00 3489.00 59.00
4392 28.4460 3437.00 3629.89 59.00
4393 28.4520 3645.00 3823.08 60.00
4394 28.4580 3973.00 4070.33 63.00
4395 28.4640 4405.00 4357.39 66.00
4396 28.4700 5299.00 4639.28 73.00
4397 28.4760 5905.00 4827.81 77.00
4398 28.4820 5663.00 4840.40 75.00
4399 28.4880 5010.00 4668.92 71.00
4400 28.4940 4388.00 4397.72 66.00
4401 28.5000 3885.00 4115.56 62.00
4402 28.5060 3634.00 3871.41 60.00
4403 28.5120 3480.00 3682.36 59.00
4404 28.5180 3467.00 3548.29 59.00
4405 28.5240 3395.00 3461.91 58.00
4406 28.5300 3373.00 3414.19 58.00
4407 28.5360 3388.00 3397.89 58.00
4408 28.5420 3339.00 3408.98 58.00
4409 28.5480 3333.00 3446.40 58.00
4410 28.5540 3516.00 3509.61 59.00
4411 28.5600 3524.00 3597.37 59.00
4412 28.5660 3656.00 3700.76 60.00
4413 28.5720 3829.00 3798.21 62.00
4414 28.5780 3862.00 3864.28 62.00
4415 28.5840 4035.00 3869.26 64.00
4416 28.5900 3913.00 3830.96 63.00
4417 28.5960 3804.00 3767.78 62.00
4418 28.6020 3882.00 3694.17 62.00
4419 28.6080 3844.00 3612.09 62.00
4420 28.6140 3636.00 3525.63 60.00
4421 28.6200 3458.00 3445.08 59.00
4422 28.6260 3540.00 3378.68 59.00
4423 28.6320 3510.00 3328.92 59.00
4424 28.6380 3567.00 3294.81 60.00
4425 28.6440 3245.00 3273.97 57.00
4426 28.6500 3374.00 3263.69 58.00
4427 28.6560 3527.00 3261.14 59.00
4428 28.6620 3370.00 3263.29 58.00
4429 28.6680 3278.00 3266.27 57.00
4430 28.6740 3351.00 3267.24 58.00
4431 28.6800 3171.00 3265.33 56.00
4432 28.6860 3076.00 3265.20 55.00
4433 28.6920 3184.00 3268.99 56.00
4434 28.6980 3103.00 3278.60 56.00
4435 28.7040 3142.00 3294.75 56.00
4436 28.7100 3123.00 3318.70 56.00
4437 28.7160 3139.00 3345.13 56.00
4438 28.7220 3249.00 3372.27 57.00
4439 28.7280 3338.00 3398.24 58.00
4440 28.7340 3321.00 3427.32 58.00
4441 28.7400 3330.00 3469.45 58.00
4442 28.7460 3334.00 3535.13 58.00
4443 28.7520 3436.00 3632.56 59.00
4444 28.7580 3685.00 3766.24 61.00
4445 28.7640 3761.00 3934.26 61.00
4446 28.7700 4014.00 4122.38 63.00
4447 28.7760 4123.00 4299.39 64.00
4448 28.7820 4112.00 4432.70 64.00
4449 28.7880 3970.00 4524.14 63.00
4450 28.7940 3914.00 4608.04 63.00
4451 28.8000 4367.00 4704.47 66.00
4452 28.8060 4584.00 4787.35 68.00
4453 28.8120 4561.00 4788.99 68.00
4454 28.8180 4505.00 4661.95 67.00
4455 28.8240 4072.00 4433.64 64.00
4456 28.8300 3807.00 4173.72 62.00
4457 28.8360 3630.00 3934.49 60.00
4458 28.8420 3511.00 3738.48 59.00
4459 28.8480 3314.00 3589.51 58.00
4460 28.8540 3235.00 3478.89 57.00
4461 28.8600 3224.00 3406.30 57.00
4462 28.8660 3276.00 3358.67 57.00
4463 28.8720 3193.00 3328.62 57.00
4464 28.8780 3315.00 3311.47 58.00
4465 28.8840 3253.00 3304.76 57.00
4466 28.8900 3321.00 3307.72 58.00
4467 28.8960 3419.00 3320.43 58.00
4468 28.9020 3350.00 3342.92 58.00
4469 28.9080 3336.00 3373.98 58.00
4470 28.9140 3408.00 3409.54 58.00
4471 28.9200 3528.00 3441.79 59.00
4472 28.9260 3417.00 3460.34 58.00
4473 28.9320 3354.00 3456.30 58.00
4474 28.9380 3358.00 3428.75 58.00
4475 28.9440 3461.00 3388.59 59.00
4476 28.9500 3460.00 3344.87 59.00
4477 28.9560 3484.00 3305.32 59.00
4478 28.9620 3411.00 3274.67 58.00
4479 28.9680 3500.00 3252.64 59.00
4480 28.9740 3539.00 3239.01 59.00
4481 28.9800 3512.00 3229.40 59.00
4482 28.9860 3478.00 3224.83 59.00
4483 28.9920 3394.00 3223.79 58.00
4484 28.9980 3535.00 3225.83 59.00
4485 29.0040 3510.00 3231.87 59.00
4486 29.0100 3362.00 3240.07 58.00
4487 29.0160 3389.00 3251.60 58.00
4488 29.0220 3322.00 3266.57 58.00
4489 29.0280 3428.00 3284.70 59.00
4490 29.0340 3463.00 3305.30 59.00
4491 29.0400 3482.00 3328.62 59.00
4492 29.0460 3643.00 3357.47 60.00
4493 29.0520 3736.00 3398.54 61.00
4494 29.0580 3794.00 3457.80 62.00
4495 29.0640 3888.00 3538.16 62.00
4496 29.0700 3809.00 3640.90 62.00
4497 29.0760 3776.00 3746.02 61.00
4498 29.0820 3674.00 3830.19 61.00
4499 29.0880 3555.00 3858.26 60.00
4500 29.0940 3586.00 3815.17 60.00
4501 29.1000 3583.00 3721.79 60.00
4502 29.1060 3535.00 3613.65 59.00
4503 29.1120 3455.00 3514.15 59.00
4504 29.1180 3528.00 3433.26 59.00
4505 29.1240 3424.00 3373.30 59.00
4506 29.1300 3404.00 3332.50 58.00
4507 29.1360 3335.00 3307.66 58.00
4508 29.1420 3449.00 3295.75 59.00
4509 29.1480 3318.00 3294.55 58.00
4510 29.1540 3308.00 3302.79 58.00
4511 29.1600 3380.00 3317.74 58.00
4512 29.1660 3316.00 3342.36 58.00
4513 29.1720 3321.00 3372.72 58.00
4514 29.1780 3390.00 3401.30 58.00
4515 29.1840 3371.00 3418.92 58.00
4516 29.1900 3363.00 3413.24 58.00
4517 29.1960 3407.00 3392.25 58.00
4518 29.2020 3411.00 3361.90 58.00
4519 29.2080 3354.00 3331.38 58.00
4520 29.2140 3255.00 3305.62 57.00
4521 29.2200 3240.00 3286.31 57.00
4522 29.2260 3210.00 3273.40 57.00
4523 29.2320 3256.00 3266.06 57.00
4524 29.2380 3221.00 3263.19 57.00
4525 29.2440 3192.00 3263.87 56.00
4526 29.2500 3329.00 3269.10 58.00
4527 29.2560 3297.00 3277.89 57.00
4528 29.2620 3301.00 3289.69 57.00
4529 29.2680 3401.00 3305.42 58.00
4530 29.2740 3456.00 3326.71 59.00
4531 29.2800 3370.00 3358.55 58.00
4532 29.2860 3406.00 3399.45 58.00
4533 29.2920 3472.00 3455.78 59.00
4534 29.2980 3598.00 3531.08 60.00
4535 29.3040 3642.00 3627.96 60.00
4536 29.3100 3861.00 3744.18 62.00
4537 29.3160 3839.00 3871.66 62.00
4538 29.3220 3933.00 3988.89 63.00
4539 29.3280 3948.00 4070.32 63.00
4540 29.3340 3873.00 4109.30 62.00
4541 29.3400 3824.00 4125.48 62.00
4542 29.3460 3848.00 4139.17 62.00
4543 29.3520 3777.00 4150.28 61.00
4544 29.3580 3745.00 4145.01 61.00
4545 29.3640 3846.00 4120.07 62.00
4546 29.3700 3845.00 4089.73 62.00
4547 29.3760 3959.00 4065.48 63.00
4548 29.3820 4014.00 4041.62 63.00
4549 29.3880 3967.00 4004.06 63.00
4550 29.3940 3926.00 3951.93 63.00
4551 29.4000 3950.00 3903.04 63.00
4552 29.4060 4115.00 3878.70 64.00
4553 29.4120 4047.00 3904.67 64.00
4554 29.4180 4097.00 3968.10 64.00
4555 29.4240 4068.00 4083.79 64.00
4556 29.4300 4161.00 4252.03 65.00
4557 29.4360 4412.00 4466.68 66.00
4558 29.4420 4495.00 4703.92 67.00
4559 29.4480 4644.00 4908.98 68.00
4560 29.4540 4834.00 5002.30 70.00
4561 29.4600 4925.00 4936.34 70.00
4562 29.4660 4985.00 4744.36 71.00
4563 29.4720 4884.00 4498.70 70.00
4564 29.4780 4741.00 4258.19 69.00
4565 29.4840 4252.00 4048.95 65.00
4566 29.4900 4066.00 3882.34 64.00
4567 29.4960 4002.00 3759.45 63.00
4568 29.5020 3866.00 3675.16 62.00
4569 29.5080 3842.00 3628.36 62.00
4570 29.5140 3793.00 3600.17 62.00
4571 29.5200 3776.00 3595.65 61.00
4572 29.5260 3739.00 3604.42 61.00
4573 29.5320 3749.00 3628.15 61.00
4574 29.5380 3620.00 3664.46 60.00
4575 29.5440 3589.00 3708.52 60.00
4576 29.5500 3586.00 3758.32 60.00
4577 29.5560 3662.00 3783.30 61.00
4578 29.5620 3504.00 3779.02 59.00
4579 29.5680 3451.00 3747.97 59.00
4580 29.5740 3495.00 3705.71 59.00
4581 29.5800 3562.00 3670.07 60.00
4582 29.5860 3553.00 3638.08 60.00
4583 29.5920 3586.00 3614.34 60.00
4584 29.5980 3583.00 3602.30 60.00
4585 29.6040 3620.00 3603.00 60.00
4586 29.6100 3693.00 3620.11 61.00
4587 29.6160 3696.00 3650.90 61.00
4588 29.6220 3732.00 3701.76 61.00
4589 29.6280 3670.00 3777.17 61.00
4590 29.6340 3785.00 3880.77 62.00
4591 29.6400 3881.00 4012.62 62.00
4592 29.6460 4028.00 4165.49 63.00
4593 29.6520 4093.00 4317.66 64.00
4594 29.6580 4250.00 4428.29 65.00
4595 29.6640 4477.00 4452.66 67.00
4596 29.6700 4456.00 4381.72 67.00
4597 29.6760 4389.00 4252.30 66.00
4598 29.6820 4274.00 4110.43 65.00
4599 29.6880 4190.00 3984.58 65.00
4600 29.6940 4127.00 3886.63 64.00
4601 29.7000 3997.00 3818.85 63.00
4602 29.7060 3959.00 3778.64 63.00
4603 29.7120 3911.00 3760.19 63.00
4604 29.7180 3973.00 3762.37 63.00
4605 29.7240 4097.00 3781.18 64.00
4606 29.7300 4116.00 3816.59 64.00
4607 29.7360 4185.00 3871.85 65.00
4608 29.7420 4397.00 3953.31 66.00
4609 29.7480 4643.00 4076.08 68.00
4610 29.7540 5120.00 4257.54 72.00
4611 29.7600 5649.00 4520.65 75.00
4612 29.7660 6324.00 4888.32 80.00
4613 29.7720 6630.00 5375.46 81.00
4614 29.7780 6718.00 5982.00 82.00
4615 29.7840 6845.00 6676.36 83.00
4616 29.7900 6727.00 7333.37 82.00
4617 29.7960 6527.00 7763.77 81.00
4618 29.8020 6377.00 7789.80 80.00
4619 29.8080 6177.00 7409.36 79.00
4620 29.8140 6006.00 6804.30 77.00
4621 29.8200 5992.00 6167.66 77.00
4622 29.8260 5753.00 5613.43 76.00
4623 29.8320 5607.00 5187.28 75.00
4624 29.8380 5548.00 4899.25 74.00
4625 29.8440 5525.00 4739.50 74.00
4626 29.8500 5521.00 4704.62 74.00
4627 29.8560 5636.00 4786.54 75.00
4628 29.8620 5806.00 4987.03 76.00
4629 29.8680 5940.00 5312.73 77.00
4630 29.8740 6188.00 5766.96 79.00
4631 29.8800 6505.00 6339.86 81.00
4632 29.8860 6869.00 6981.27 83.00
4633 29.8920 7286.00 7587.71 85.00
4634 29.8980 7716.00 8035.13 88.00
4635 29.9040 8059.00 8259.11 90.00
4636 29.9100 8253.00 8297.24 91.00
4637 29.9160 8409.00 8251.11 92.00
4638 29.9220 8813.00 8231.48 94.00
4639 29.9280 9201.00 8286.85 96.00
4640 29.9340 9160.00 8359.10 96.00
4641 29.9400 8766.00 8328.30 94.00
4642 29.9460 8395.00 8144.62 92.00
4643 29.9520 8262.00 7890.87 91.00
4644 29.9580 8276.00 7667.91 91.00
4645 29.9640 8265.00 7497.70 91.00
4646 29.9700 8301.00 7316.36 91.00
4647 29.9760 8044.00 7057.28 90.00
4648 29.9820 7535.00 6728.89 87.00
4649 29.9880 6880.00 6379.70 83.00
4650 29.9940 6357.00 6024.80 80.00
4651 30.0000 5915.00 5651.31 77.00
4652 30.0060 5447.00 5268.22 74.00
4653 30.0120 5134.00 4912.25 72.00
4654 30.0180 4906.00 4608.04 70.00
4655 30.0240 4633.00 4366.10 68.00
4656 30.0300 4380.00 4182.27 66.00
4657 30.0360 4241.00 4047.20 65.00
4658 30.0420 4084.00 3950.44 64.00
4659 30.0480 3879.00 3882.47 62.00
4660 30.0540 3839.00 3833.33 62.00
4661 30.0600 3838.00 3801.94 62.00
4662 30.0660 3855.00 3782.22 62.00
4663 30.0720 3861.00 3771.94 62.00
4664 30.0780 3796.00 3769.96 62.00
4665 30.0840 3779.00 3775.98 61.00
4666 30.0900 3755.00 3790.39 61.00
4667 30.0960 3759.00 3814.35 61.00
4668 30.1020 3865.00 3850.09 62.00
4669 30.1080 4053.00 3904.26 64.00
4670 30.1140 4222.00 3978.69 65.00
4671 30.1200 4373.00 4087.34 66.00
4672 30.1260 4482.00 4247.62 67.00
4673 30.1320 4630.00 4483.59 68.00
4674 30.1380 4867.00 4824.40 70.00
4675 30.1440 5215.00 5299.07 72.00
4676 30.1500 5867.00 5928.57 77.00
4677 30.1560 6910.00 6709.58 83.00
4678 30.1620 8355.00 7591.09 91.00
4679 30.1680 10191.00 8439.13 101.00
4680 30.1740 11109.00 9028.04 105.00
4681 30.1800 10197.00 9142.70 101.00
4682 30.1860 8512.00 8749.12 92.00
4683 30.1920 7199.00 8006.44 85.00
4684 30.1980 6306.00 7168.75 79.00
4685 30.2040 5656.00 6397.34 75.00
4686 30.2100 5170.00 5777.30 72.00
4687 30.2160 4892.00 5331.41 70.00
4688 30.2220 4654.00 5047.41 68.00
4689 30.2280 4508.00 4894.90 67.00
4690 30.2340 4491.00 4836.07 67.00
4691 30.2400 4505.00 4842.51 67.00
4692 30.2460 4606.00 4906.16 68.00
4693 30.2520 4762.00 5029.63 69.00
4694 30.2580 4989.00 5203.03 71.00
4695 30.2640 5174.00 5388.73 72.00
4696 30.2700 5422.00 5516.22 74.00
4697 30.2760 5374.00 5510.35 73.00
4698 30.2820 5010.00 5347.10 71.00
4699 30.2880 4691.00 5069.90 68.00
4700 30.2940 4423.00 4765.75 67.00
4701 30.3000 4209.00 4484.02 65.00
4702 30.3060 4195.00 4261.01 65.00
4703 30.3120 4241.00 4101.42 65.00
4704 30.3180 4144.00 4002.59 64.00
4705 30.3240 4181.00 3955.62 65.00
4706 30.3300 4200.00 3947.40 65.00
4707 30.3360 4086.00 3952.92 64.00
4708 30.3420 4002.00 3964.64 63.00
4709 30.3480 3871.00 3953.30 62.00
4710 30.3540 3806.00 3913.43 62.00
4711 30.3600 3788.00 3859.54 62.00
4712 30.3660 3774.00 3806.74 61.00
4713 30.3720 3699.00 3779.84 61.00
4714 30.3780 3700.00 3781.31 61.00
4715 30.3840 3737.00 3813.37 61.00
4716 30.3900 3706.00 3870.27 61.00
4717 30.3960 3667.00 3946.46 61.00
4718 30.4020 3649.00 4017.77 60.00
4719 30.4080 3667.00 4053.38 61.00
4720 30.4140 3663.00 4031.77 61.00
4721 30.4200 3595.00 3960.71 60.00
4722 30.4260 3580.00 3868.22 60.00
4723 30.4320 3497.00 3779.08 59.00
4724 30.4380 3446.00 3706.30 59.00
4725 30.4440 3585.00 3654.29 60.00
4726 30.4500 3733.00 3623.63 61.00
4727 30.4560 3683.00 3615.22 61.00
4728 30.4620 3631.00 3632.03 60.00
4729 30.4680 3693.00 3677.97 61.00
4730 30.4740 3787.00 3756.15 62.00
4731 30.4800 3749.00 3866.67 61.00
4732 30.4860 3823.00 4004.15 62.00
4733 30.4920 3841.00 4151.77 62.00
4734 30.4980 4036.00 4275.17 64.00
4735 30.5040 4129.00 4327.45 64.00
4736 30.5100 4137.00 4280.82 64.00
4737 30.5160 4239.00 4154.52 65.00
4738 30.5220 4134.00 3994.43 64.00
4739 30.5280 3987.00 3837.47 63.00
4740 30.5340 3733.00 3702.53 61.00
4741 30.5400 3630.00 3595.72 60.00
4742 30.5460 3593.00 3516.32 60.00
4743 30.5520 3520.00 3460.37 59.00
4744 30.5580 3439.00 3422.94 59.00
4745 30.5640 3376.00 3399.56 58.00
4746 30.5700 3329.00 3386.96 58.00
4747 30.5760 3237.00 3373.32 57.00
4748 30.5820 3209.00 3373.46 57.00
4749 30.5880 3182.00 3385.47 56.00
4750 30.5940 3296.00 3400.91 57.00
4751 30.6000 3359.00 3421.54 58.00
4752 30.6060 3426.00 3443.50 59.00
4753 30.6120 3423.00 3460.45 59.00
4754 30.6180 3398.00 3466.77 58.00
4755 30.6240 3402.00 3462.80 58.00
4756 30.6300 3458.00 3453.92 59.00
4757 30.6360 3448.00 3443.99 59.00
4758 30.6420 3486.00 3437.44 59.00
4759 30.6480 3458.00 3436.69 59.00
4760 30.6540 3569.00 3446.94 60.00
4761 30.6600 3589.00 3472.89 60.00
4762 30.6660 3584.00 3515.76 60.00
4763 30.6720 3735.00 3569.51 61.00
4764 30.6780 3909.00 3626.27 63.00
4765 30.6840 3921.00 3668.12 63.00
4766 30.6900 3862.00 3670.78 62.00
4767 30.6960 3729.00 3627.37 61.00
4768 30.7020 3651.00 3552.87 60.00
4769 30.7080 3551.00 3468.93 60.00
4770 30.7140 3405.00 3390.33 58.00
4771 30.7200 3366.00 3323.75 58.00
4772 30.7260 3219.00 3270.71 57.00
4773 30.7320 3167.00 3230.21 56.00
4774 30.7380 3106.00 3199.95 56.00
4775 30.7440 3137.00 3176.37 56.00
4776 30.7500 3157.00 3159.20 56.00
4777 30.7560 3116.00 3145.61 56.00
4778 30.7620 3031.00 3134.37 55.00
4779 30.7680 3070.00 3124.66 55.00
4780 30.7740 3030.00 3116.02 55.00
4781 30.7800 2997.00 3108.14 55.00
4782 30.7860 2992.00 3100.83 55.00
4783 30.7920 3021.00 3093.98 55.00
4784 30.7980 3063.00 3087.48 55.00
4785 30.8040 3035.00 3081.28 55.00
4786 30.8100 3012.00 3073.74 55.00
4787 30.8160 2963.00 3068.05 54.00
4788 30.8220 3008.00 3065.08 55.00
4789 30.8280 3042.00 3061.85 55.00
4790 30.8340 3058.00 3058.75 55.00
4791 30.8400 2942.00 3055.76 54.00
4792 30.8460 3019.00 3052.88 55.00
4793 30.8520 3030.00 3051.50 55.00
4794 30.8580 2985.00 3048.84 55.00
4795 30.8640 2947.00 3046.31 54.00
4796 30.8700 2937.00 3043.80 54.00
4797 30.8760 2970.00 3044.97 54.00
4798 30.8820 2923.00 3042.71 54.00
4799 30.8880 2966.00 3040.53 54.00
4800 30.8940 3066.00 3038.43 55.00
4801 30.9000 3033.00 3036.42 55.00
4802 30.9060 2963.00 3031.99 54.00
4803 30.9120 2891.00 3030.31 54.00
4804 30.9180 2902.00 3028.81 54.00
4805 30.9240 2972.00 3027.59 55.00
4806 30.9300 3065.00 3026.76 55.00
4807 30.9360 2991.00 3026.47 55.00
4808 30.9420 2992.00 3026.92 55.00
4809 30.9480 2993.00 3028.26 55.00
4810 30.9540 3033.00 3030.59 55.00
4811 30.9600 3041.00 3033.82 55.00
4812 30.9660 2989.00 3037.58 55.00
4813 30.9720 3030.00 3040.92 55.00
4814 30.9780 3122.00 3045.01 56.00
4815 30.9840 3008.00 3043.35 55.00
4816 30.9900 2937.00 3038.64 54.00
4817 30.9960 2952.00 3032.30 54.00
4818 31.0020 3024.00 3025.81 55.00
4819 31.0080 3015.00 3020.07 55.00
4820 31.0140 2917.00 3015.45 54.00
4821 31.0200 2918.00 3015.08 54.00
4822 31.0260 2960.00 3017.75 54.00
4823 31.0320 2958.00 3024.30 54.00
4824 31.0380 2986.00 3027.63 55.00
4825 31.0440 3034.00 3030.61 55.00
4826 31.0500 3061.00 3039.80 55.00
4827 31.0560 3002.00 3043.21 55.00
4828 31.0620 3099.00 3046.94 56.00
4829 31.0680 3062.00 3051.09 55.00
4830 31.0740 3053.00 3055.69 55.00
4831 31.0800 2984.00 3060.74 55.00
4832 31.0860 2971.00 3066.23 55.00
4833 31.0920 3054.00 3070.87 55.00
4834 31.0980 3060.00 3077.08 55.00
4835 31.1040 3055.00 3083.47 55.00
4836 31.1100 3065.00 3089.99 55.00
4837 31.1160 3118.00 3096.71 56.00
4838 31.1220 3110.00 3107.37 56.00
4839 31.1280 3227.00 3115.14 57.00
4840 31.1340 3237.00 3123.64 57.00
4841 31.1400 3296.00 3133.04 57.00
4842 31.1460 3300.00 3143.53 57.00
4843 31.1520 3304.00 3155.36 57.00
4844 31.1580 3374.00 3168.89 58.00
4845 31.1640 3274.00 3184.67 57.00
4846 31.1700 3287.00 3200.24 57.00
4847 31.1760 3308.00 3219.46 58.00
4848 31.1820 3278.00 3244.65 57.00
4849 31.1880 3262.00 3277.97 57.00
4850 31.1940 3249.00 3326.44 57.00
4851 31.2000 3168.00 3386.52 56.00
4852 31.2060 3297.00 3459.12 57.00
4853 31.2120 3410.00 3547.76 58.00
4854 31.2180 3381.00 3650.19 58.00
4855 31.2240 3532.00 3760.09 59.00
4856 31.2300 3570.00 3871.17 60.00
4857 31.2360 3758.00 3986.45 61.00
4858 31.2420 3857.00 4118.18 62.00
4859 31.2480 4165.00 4274.69 65.00
4860 31.2540 4271.00 4448.53 65.00
4861 31.2600 4440.00 4619.49 67.00
4862 31.2660 4487.00 4770.73 67.00
4863 31.2720 4340.00 4894.45 66.00
4864 31.2780 4243.00 4963.50 65.00
4865 31.2840 4150.00 4938.38 64.00
4866 31.2900 4004.00 4798.11 63.00
4867 31.2960 3859.00 4574.36 62.00
4868 31.3020 3765.00 4325.04 61.00
4869 31.3080 3566.00 4095.30 60.00
4870 31.3140 3665.00 3907.29 61.00
4871 31.3200 3525.00 3767.78 59.00
4872 31.3260 3582.00 3676.10 60.00
4873 31.3320 3628.00 3629.97 60.00
4874 31.3380 3517.00 3623.68 59.00
4875 31.3440 3612.00 3656.26 60.00
4876 31.3500 3736.00 3726.94 61.00
4877 31.3560 3804.00 3835.03 62.00
4878 31.3620 3793.00 3977.46 62.00
4879 31.3680 3981.00 4145.26 63.00
4880 31.3740 4158.00 4317.30 64.00
4881 31.3800 4202.00 4457.94 65.00
4882 31.3860 4426.00 4536.61 67.00
4883 31.3920 4576.00 4543.01 68.00
4884 31.3980 4570.00 4523.32 68.00
4885 31.4040 4646.00 4532.04 68.00
4886 31.4100 4636.00 4611.27 68.00
4887 31.4160 4935.00 4785.54 70.00
4888 31.4220 5414.00 5062.28 74.00
4889 31.4280 6016.00 5426.62 78.00
4890 31.4340 6875.00 5843.28 83.00
4891 31.4400 7476.00 6223.51 86.00
4892 31.4460 7664.00 6506.99 88.00
4893 31.4520 7534.00 6642.09 87.00
4894 31.4580 7465.00 6583.12 86.00
4895 31.4640 6777.00 6315.76 82.00
4896 31.4700 5876.00 5903.51 77.00
4897 31.4760 5166.00 5453.77 72.00
4898 31.4820 4640.00 5053.25 68.00
4899 31.4880 4409.00 4748.21 66.00
4900 31.4940 4256.00 4554.86 65.00
4901 31.5000 4177.00 4472.30 65.00
4902 31.5060 4134.00 4489.05 64.00
4903 31.5120 4256.00 4583.62 65.00
4904 31.5180 4109.00 4721.39 64.00
4905 31.5240 4209.00 4848.30 65.00
4906 31.5300 4142.00 4901.25 64.00
4907 31.5360 4163.00 4846.75 65.00
4908 31.5420 4113.00 4706.34 64.00
4909 31.5480 4095.00 4541.02 64.00
4910 31.5540 4195.00 4404.75 65.00
4911 31.5600 4452.00 4332.35 67.00
4912 31.5660 4616.00 4344.63 68.00
4913 31.5720 4877.00 4453.45 70.00
4914 31.5780 5083.00 4662.12 71.00
4915 31.5840 5388.00 4962.35 73.00
4916 31.5900 5728.00 5326.52 76.00
4917 31.5960 5862.00 5695.74 77.00
4918 31.6020 5931.00 5976.52 77.00
4919 31.6080 5998.00 6074.48 77.00
4920 31.6140 5843.00 5954.19 76.00
4921 31.6200 5595.00 5653.80 75.00
4922 31.6260 5291.00 5265.42 73.00
4923 31.6320 5037.00 4875.29 71.00
4924 31.6380 4651.00 4538.33 68.00
4925 31.6440 4694.00 4281.26 69.00
4926 31.6500 4510.00 4109.07 67.00
4927 31.6560 4326.00 4016.91 66.00
4928 31.6620 4309.00 3993.87 66.00
4929 31.6680 4310.00 4024.73 66.00
4930 31.6740 4411.00 4088.53 66.00
4931 31.6800 4490.00 4156.31 67.00
4932 31.6860 4526.00 4191.71 67.00
4933 31.6920 4454.00 4170.59 67.00
4934 31.6980 4270.00 4096.94 65.00
4935 31.7040 4160.00 4008.73 64.00
4936 31.7100 3924.00 3932.00 63.00
4937 31.7160 3925.00 3884.18 63.00
4938 31.7220 3942.00 3871.75 63.00
4939 31.7280 3897.00 3892.99 62.00
4940 31.7340 4031.00 3938.55 63.00
4941 31.7400 3937.00 3992.63 63.00
4942 31.7460 4075.00 4040.68 64.00
4943 31.7520 3985.00 4083.89 63.00
4944 31.7580 4042.00 4142.00 64.00
4945 31.7640 4169.00 4242.45 65.00
4946 31.7700 4223.00 4396.64 65.00
4947 31.7760 4535.00 4612.11 67.00
4948 31.7820 4879.00 4878.02 70.00
4949 31.7880 5265.00 5161.22 73.00
4950 31.7940 5568.00 5405.16 75.00
4951 31.8000 5545.00 5556.00 74.00
4952 31.8060 5445.00 5624.94 74.00
4953 31.8120 5481.00 5677.75 74.00
4954 31.8180 5704.00 5791.38 76.00
4955 31.8240 5775.00 6007.20 76.00
4956 31.8300 6171.00 6317.24 79.00
4957 31.8360 6513.00 6655.26 81.00
4958 31.8420 6881.00 6894.13 83.00
4959 31.8480 7053.00 6894.81 84.00
4960 31.8540 6782.00 6609.86 82.00
4961 31.8600 6149.00 6130.83 78.00
4962 31.8660 5335.00 5584.83 73.00
4963 31.8720 4689.00 5059.28 68.00
4964 31.8780 4238.00 4614.45 65.00
4965 31.8840 4147.00 4260.82 64.00
4966 31.8900 4014.00 3996.90 63.00
4967 31.8960 3775.00 3811.92 61.00
4968 31.9020 3605.00 3692.03 60.00
4969 31.9080 3681.00 3624.18 61.00
4970 31.9140 3525.00 3597.95 59.00
4971 31.9200 3561.00 3605.40 60.00
4972 31.9260 3510.00 3639.82 59.00
4973 31.9320 3678.00 3692.13 61.00
4974 31.9380 3711.00 3752.53 61.00
4975 31.9440 3837.00 3807.74 62.00
4976 31.9500 4053.00 3838.32 64.00
4977 31.9560 4031.00 3833.36 63.00
4978 31.9620 3865.00 3783.36 62.00
4979 31.9680 3677.00 3702.94 61.00
4980 31.9740 3563.00 3616.19 60.00
4981 31.9800 3564.00 3542.41 60.00
4982 31.9860 3419.00 3493.06 58.00
4983 31.9920 3570.00 3474.11 60.00
4984 31.9980 3571.00 3488.15 60.00
4985 32.0040 3577.00 3535.14 60.00
4986 32.0100 4020.00 3611.61 63.00
4987 32.0160 4284.00 3709.26 65.00
4988 32.0220 4579.00 3806.76 68.00
4989 32.0280 4698.00 3885.06 69.00
4990 32.0340 4627.00 3906.90 68.00
4991 32.0400 4417.00 3867.11 66.00
4992 32.0460 4032.00 3783.51 63.00
4993 32.0520 3872.00 3689.02 62.00
4994 32.0580 3749.00 3608.83 61.00
4995 32.0640 3577.00 3556.35 60.00
4996 32.0700 3602.00 3535.83 60.00
4997 32.0760 3544.00 3544.55 60.00
4998 32.0820 3344.00 3572.94 58.00
4999 32.0880 3380.00 3603.59 58.00
5000 32.0940 3366.00 3614.17 58.00
5001 32.1000 3520.00 3589.67 59.00
5002 32.1060 3388.00 3532.14 58.00
5003 32.1120 3234.00 3463.64 57.00
5004 32.1180 3216.00 3398.69 57.00
5005 32.1240 3430.00 3347.70 59.00
5006 32.1300 3496.00 3317.59 59.00
5007 32.1360 3362.00 3312.46 58.00
5008 32.1420 3453.00 3335.53 59.00
5009 32.1480 3426.00 3389.55 59.00
5010 32.1540 3502.00 3476.16 59.00
5011 32.1600 3510.00 3594.54 59.00
5012 32.1660 3576.00 3737.75 60.00
5013 32.1720 3693.00 3892.67 61.00
5014 32.1780 3732.00 4027.80 61.00
5015 32.1840 4012.00 4100.27 63.00
5016 32.1900 4047.00 4078.50 64.00
5017 32.1960 3880.00 3970.20 62.00
5018 32.2020 4014.00 3814.79 63.00
5019 32.2080 3775.00 3653.48 61.00
5020 32.2140 3622.00 3506.99 60.00
5021 32.2200 3451.00 3383.28 59.00
5022 32.2260 3319.00 3293.80 58.00
5023 32.2320 3273.00 3232.72 57.00
5024 32.2380 3396.00 3198.03 58.00
5025 32.2440 3442.00 3182.70 59.00
5026 32.2500 3376.00 3183.90 58.00
5027 32.2560 3401.00 3197.09 58.00
5028 32.2620 3281.00 3216.56 57.00
5029 32.2680 3366.00 3225.61 58.00
5030 32.2740 3222.00 3231.90 57.00
5031 32.2800 3417.00 3220.48 58.00
5032 32.2860 3240.00 3193.71 57.00
5033 32.2920 3170.00 3160.99 56.00
5034 32.2980 3116.00 3129.77 56.00
5035 32.3040 3196.00 3105.59 57.00
5036 32.3100 3154.00 3091.14 56.00
5037 32.3160 3100.00 3087.51 56.00
5038 32.3220 3186.00 3094.64 56.00
5039 32.3280 3152.00 3111.30 56.00
5040 32.3340 3151.00 3134.68 56.00
5041 32.3400 3215.00 3159.65 57.00
5042 32.3460 3103.00 3179.13 56.00
5043 32.3520 3097.00 3186.72 56.00
5044 32.3580 3139.00 3179.83 56.00
5045 32.3640 3064.00 3160.17 55.00
5046 32.3700 3054.00 3130.82 55.00
5047 32.3760 2977.00 3095.71 55.00
5048 32.3820 2944.00 3063.04 54.00
5049 32.3880 2871.00 3034.84 54.00
5050 32.3940 2831.00 3012.55 53.00
5051 32.4000 2944.00 2995.85 54.00
5052 32.4060 2890.00 2984.46 54.00
5053 32.4120 2917.00 2979.44 54.00
5054 32.4180 2992.00 2978.35 55.00
5055 32.4240 2913.00 2981.90 54.00
5056 32.4300 2891.00 2989.79 54.00
5057 32.4360 2943.00 3001.55 54.00
5058 32.4420 2982.00 3016.09 55.00
5059 32.4480 3003.00 3031.21 55.00
5060 32.4540 2988.00 3041.24 55.00
5061 32.4600 2948.00 3046.14 54.00
5062 32.4660 2969.00 3042.47 54.00
5063 32.4720 2935.00 3033.18 54.00
5064 32.4780 3006.00 3023.27 55.00
5065 32.4840 3064.00 3018.88 55.00
5066 32.4900 2878.00 3019.84 54.00
5067 32.4960 3041.00 3033.44 55.00
5068 32.5020 3011.00 3055.08 55.00
5069 32.5080 3081.00 3089.07 56.00
5070 32.5140 3141.00 3135.41 56.00
5071 32.5200 3251.00 3190.88 57.00
5072 32.5260 3272.00 3252.36 57.00
5073 32.5320 3444.00 3307.80 59.00
5074 32.5380 3416.00 3342.20 58.00
5075 32.5440 3356.00 3343.82 58.00
5076 32.5500 3260.00 3313.26 57.00
5077 32.5560 3183.00 3263.11 56.00
5078 32.5620 3073.00 3208.81 55.00
5079 32.5680 3107.00 3161.52 56.00
5080 32.5740 3025.00 3127.64 55.00
5081 32.5800 3062.00 3110.71 55.00
5082 32.5860 3078.00 3112.93 55.00
5083 32.5920 3179.00 3136.09 56.00
5084 32.5980 3154.00 3181.79 56.00
5085 32.6040 3107.00 3251.15 56.00
5086 32.6100 3258.00 3341.20 57.00
5087 32.6160 3462.00 3454.18 59.00
5088 32.6220 3588.00 3577.54 60.00
5089 32.6280 3583.00 3692.55 60.00
5090 32.6340 3693.00 3776.49 61.00
5091 32.6400 3790.00 3817.92 62.00
5092 32.6460 4035.00 3825.41 64.00
5093 32.6520 3989.00 3812.99 63.00
5094 32.6580 3926.00 3782.30 63.00
5095 32.6640 3917.00 3723.25 63.00
5096 32.6700 3726.00 3631.50 61.00
5097 32.6760 3486.00 3519.32 59.00
5098 32.6820 3243.00 3406.79 57.00
5099 32.6880 3202.00 3308.52 57.00
5100 32.6940 3114.00 3230.56 56.00
5101 32.7000 3054.00 3172.59 55.00
5102 32.7060 3133.00 3132.63 56.00
5103 32.7120 3112.00 3104.88 56.00
5104 32.7180 3084.00 3087.25 56.00
5105 32.7240 3004.00 3064.11 55.00
5106 32.7300 2963.00 3037.91 54.00
5107 32.7360 2922.00 3010.74 54.00
5108 32.7420 2914.00 2985.80 54.00
5109 32.7480 2842.00 2965.22 53.00
5110 32.7540 2846.00 2949.81 53.00
5111 32.7600 2811.00 2939.44 53.00
5112 32.7660 2904.00 2933.37 54.00
5113 32.7720 2821.00 2930.56 53.00
5114 32.7780 2790.00 2929.94 53.00
5115 32.7840 2837.00 2932.63 53.00
5116 32.7900 2856.00 2940.83 53.00
5117 32.7960 2878.00 2958.46 54.00
5118 32.8020 2886.00 2986.82 54.00
5119 32.8080 2926.00 3023.30 54.00
5120 32.8140 2874.00 3071.19 54.00
5121 32.8200 2929.00 3130.32 54.00
5122 32.8260 2981.00 3198.11 55.00
5123 32.8320 2950.00 3267.98 54.00
5124 32.8380 3010.00 3327.88 55.00
5125 32.8440 3114.00 3363.91 56.00
5126 32.8500 3044.00 3370.48 55.00
5127 32.8560 2995.00 3357.24 55.00
5128 32.8620 3063.00 3342.64 55.00
5129 32.8680 3167.00 3344.15 56.00
5130 32.8740 3290.00 3374.94 57.00
5131 32.8800 3362.00 3444.80 58.00
5132 32.8860 3364.00 3563.78 58.00
5133 32.8920 3512.00 3728.33 59.00
5134 32.8980 3661.00 3938.85 61.00
5135 32.9040 3884.00 4180.48 62.00
5136 32.9100 4191.00 4423.01 65.00
5137 32.9160 4474.00 4622.47 67.00
5138 32.9220 4623.00 4733.17 68.00
5139 32.9280 4557.00 4722.59 68.00
5140 32.9340 4313.00 4587.26 66.00
5141 32.9400 3957.00 4362.16 63.00
5142 32.9460 3768.00 4102.17 61.00
5143 32.9520 3562.00 3851.86 60.00
5144 32.9580 3342.00 3635.19 58.00
5145 32.9640 3188.00 3460.33 56.00
5146 32.9700 3106.00 3325.84 56.00
5147 32.9760 3046.00 3226.84 55.00
5148 32.9820 3034.00 3156.86 55.00
5149 32.9880 3029.00 3107.99 55.00
5150 32.9940 3001.00 3074.31 55.00
5151 33.0000 3064.00 3051.13 55.00
5152 33.0060 3027.00 3035.19 55.00
5153 33.0120 2954.00 3024.38 54.00
5154 33.0180 2979.00 3017.34 55.00
5155 33.0240 3025.00 3013.31 55.00
5156 33.0300 2968.00 3011.79 54.00
5157 33.0360 2923.00 3017.38 54.00
5158 33.0420 2955.00 3017.54 54.00
5159 33.0480 3016.00 3019.33 55.00
5160 33.0540 3031.00 3026.99 55.00
5161 33.0600 3002.00 3035.00 55.00
5162 33.0660 3036.00 3043.60 55.00
5163 33.0720 3055.00 3058.11 55.00
5164 33.0780 3115.00 3078.46 56.00
5165 33.0840 3191.00 3107.20 56.00
5166 33.0900 3233.00 3148.18 57.00
5167 33.0960 3347.00 3205.27 58.00
5168 33.1020 3573.00 3288.15 60.00
5169 33.1080 3871.00 3403.25 62.00
5170 33.1140 4091.00 3556.34 64.00
5171 33.1200 4478.00 3752.08 67.00
5172 33.1260 4701.00 3989.76 69.00
5173 33.1320 4791.00 4253.70 69.00
5174 33.1380 4664.00 4513.46 68.00
5175 33.1440 4532.00 4713.31 67.00
5176 33.1500 4511.00 4789.22 67.00
5177 33.1560 4456.00 4712.79 67.00
5178 33.1620 4412.00 4518.54 66.00
5179 33.1680 4337.00 4272.12 66.00
5180 33.1740 4196.00 4028.92 65.00
5181 33.1800 4094.00 3821.02 64.00
5182 33.1860 3944.00 3663.12 63.00
5183 33.1920 3775.00 3560.58 61.00
5184 33.1980 3702.00 3511.45 61.00
5185 33.2040 3625.00 3512.37 60.00
5186 33.2100 3627.00 3557.13 60.00
5187 33.2160 3685.00 3637.03 61.00
5188 33.2220 3682.00 3738.46 61.00
5189 33.2280 3662.00 3838.97 61.00
5190 33.2340 3632.00 3907.30 60.00
5191 33.2400 3711.00 3914.76 61.00
5192 33.2460 3790.00 3856.82 62.00
5193 33.2520 3721.00 3757.11 61.00
5194 33.2580 3566.00 3648.18 60.00
5195 33.2640 3479.00 3554.96 59.00
5196 33.2700 3468.00 3492.50 59.00
5197 33.2760 3483.00 3469.28 59.00
5198 33.2820 3496.00 3488.59 59.00
5199 33.2880 3482.00 3553.46 59.00
5200 33.2940 3589.00 3660.20 60.00
5201 33.3000 3839.00 3800.57 62.00
5202 33.3060 4141.00 3957.09 64.00
5203 33.3120 4306.00 4098.20 66.00
5204 33.3180 4367.00 4180.13 66.00
5205 33.3240 4222.00 4167.90 65.00
5206 33.3300 3941.00 4063.30 63.00
5207 33.3360 3671.00 3902.63 61.00
5208 33.3420 3334.00 3726.85 58.00
5209 33.3480 3201.00 3563.43 57.00
5210 33.3540 3089.00 3423.84 56.00
5211 33.3600 2992.00 3315.44 55.00
5212 33.3660 3084.00 3232.73 56.00
5213 33.3720 3078.00 3177.65 55.00
5214 33.3780 3039.00 3142.89 55.00
5215 33.3840 3078.00 3124.19 55.00
5216 33.3900 3086.00 3118.34 56.00
5217 33.3960 3139.00 3123.45 56.00
5218 33.4020 3199.00 3139.14 57.00
5219 33.4080 3262.00 3166.69 57.00
5220 33.4140 3273.00 3209.23 57.00
5221 33.4200 3338.00 3272.05 58.00
5222 33.4260 3346.00 3362.93 58.00
5223 33.4320 3390.00 3491.75 58.00
5224 33.4380 3513.00 3669.94 59.00
5225 33.4440 3648.00 3908.77 60.00
5226 33.4500 3902.00 4216.49 62.00
5227 33.4560 4311.00 4593.66 66.00
5228 33.4620 4916.00 5025.36 70.00
5229 33.4680 5632.00 5470.93 75.00
5230 33.4740 6100.00 5862.55 78.00
5231 33.4800 6320.00 6127.12 79.00
5232 33.4860 6150.00 6224.40 78.00
5233 33.4920 5876.00 6150.15 77.00
5234 33.4980 5404.00 5917.69 74.00
5235 33.5040 4875.00 5564.98 70.00
5236 33.5100 4420.00 5158.89 66.00
5237 33.5160 4174.00 4768.21 65.00
5238 33.5220 4081.00 4436.84 64.00
5239 33.5280 4022.00 4184.11 63.00
5240 33.5340 3998.00 4009.25 63.00
5241 33.5400 4026.00 3898.75 63.00
5242 33.5460 4112.00 3831.36 64.00
5243 33.5520 4033.00 3783.62 64.00
5244 33.5580 3871.00 3733.62 62.00
5245 33.5640 3758.00 3665.28 61.00
5246 33.5700 3658.00 3574.37 60.00
5247 33.5760 3505.00 3470.62 59.00
5248 33.5820 3441.00 3369.04 59.00
5249 33.5880 3410.00 3276.44 58.00
5250 33.5940 3412.00 3208.11 58.00
5251 33.6000 3343.00 3161.08 58.00
5252 33.6060 3253.00 3134.36 57.00
5253 33.6120 3341.00 3124.95 58.00
5254 33.6180 3368.00 3127.59 58.00
5255 33.6240 3381.00 3134.34 58.00
5256 33.6300 3363.00 3135.24 58.00
5257 33.6360 3397.00 3122.46 58.00
5258 33.6420 3412.00 3095.40 58.00
5259 33.6480 3289.00 3059.63 57.00
5260 33.6540 3168.00 3021.22 56.00
5261 33.6600 3135.00 2983.37 56.00
5262 33.6660 3088.00 2947.17 56.00
5263 33.6720 3088.00 2913.58 56.00
5264 33.6780 3001.00 2881.56 55.00
5265 33.6840 2914.00 2856.35 54.00
5266 33.6900 2875.00 2835.67 54.00
5267 33.6960 2824.00 2819.14 53.00
5268 33.7020 2739.00 2805.90 52.00
5269 33.7080 2734.00 2795.40 52.00
5270 33.7140 2756.00 2787.08 52.00
5271 33.7200 2721.00 2780.50 52.00
5272 33.7260 2704.00 2775.37 52.00
5273 33.7320 2744.00 2771.52 52.00
5274 33.7380 2703.00 2768.94 52.00
5275 33.7440 2685.00 2767.80 52.00
5276 33.7500 2694.00 2768.43 52.00
5277 33.7560 2721.00 2771.33 52.00
5278 33.7620 2645.00 2774.05 51.00
5279 33.7680 2741.00 2782.71 52.00
5280 33.7740 2770.00 2795.45 53.00
5281 33.7800 2831.00 2812.44 53.00
5282 33.7860 2830.00 2833.17 53.00
5283 33.7920 2860.00 2855.87 53.00
5284 33.7980 2875.00 2876.79 54.00
5285 33.8040 3010.00 2890.10 55.00
5286 33.8100 2955.00 2890.22 54.00
5287 33.8160 2943.00 2875.95 54.00
5288 33.8220 2826.00 2851.61 53.00
5289 33.8280 2800.00 2823.35 53.00
5290 33.8340 2711.00 2795.82 52.00
5291 33.8400 2689.00 2771.50 52.00
5292 33.8460 2686.00 2751.35 52.00
5293 33.8520 2665.00 2735.40 52.00
5294 33.8580 2783.00 2723.25 53.00
5295 33.8640 2655.00 2714.28 52.00
5296 33.8700 2650.00 2707.85 51.00
5297 33.8760 2647.00 2703.47 51.00
5298 33.8820 2596.00 2701.32 51.00
5299 33.8880 2698.00 2700.33 52.00
5300 33.8940 2576.00 2701.18 51.00
5301 33.9000 2691.00 2704.34 52.00
5302 33.9060 2706.00 2710.53 52.00
5303 33.9120 2696.00 2720.74 52.00
5304 33.9180 2704.00 2736.02 52.00
5305 33.9240 2771.00 2752.66 53.00
5306 33.9300 2787.00 2780.68 53.00
5307 33.9360 2730.00 2814.89 52.00
5308 33.9420 2793.00 2848.81 53.00
5309 33.9480 2921.00 2886.76 54.00
5310 33.9540 2941.00 2915.89 54.00
5311 33.9600 2920.00 2926.52 54.00
5312 33.9660 2846.00 2914.98 53.00
5313 33.9720 2807.00 2884.62 53.00
5314 33.9780 2812.00 2842.38 53.00
5315 33.9840 2844.00 2798.81 53.00
5316 33.9900 2809.00 2758.54 53.00
5317 33.9960 2655.00 2724.79 52.00
5318 34.0020 2659.00 2697.53 52.00
5319 34.0080 2777.00 2675.18 53.00
5320 34.0140 2775.00 2659.09 53.00
5321 34.0200 2749.00 2646.99 52.00
5322 34.0260 2672.00 2637.86 52.00
5323 34.0320 2642.00 2630.86 51.00
5324 34.0380 2648.00 2627.82 51.00
5325 34.0440 2684.00 2623.48 52.00
5326 34.0500 2631.00 2619.94 51.00
5327 34.0560 2639.00 2617.03 51.00
5328 34.0620 2623.00 2614.58 51.00
5329 34.0680 2606.00 2612.46 51.00
5330 34.0740 2649.00 2610.49 51.00
5331 34.0800 2699.00 2607.96 52.00
5332 34.0860 2632.00 2606.63 51.00
5333 34.0920 2572.00 2605.08 51.00
5334 34.0980 2610.00 2604.11 51.00
5335 34.1040 2655.00 2606.37 52.00
5336 34.1100 2579.00 2610.71 51.00
5337 34.1160 2621.00 2616.27 51.00
5338 34.1220 2650.00 2622.80 51.00
5339 34.1280 2707.00 2629.91 52.00
5340 34.1340 2693.00 2638.68 52.00
5341 34.1400 2717.00 2644.22 52.00
5342 34.1460 2776.00 2647.27 53.00
5343 34.1520 2641.00 2647.67 51.00
5344 34.1580 2623.00 2646.24 51.00
5345 34.1640 2715.00 2644.01 52.00
5346 34.1700 2742.00 2641.63 52.00
5347 34.1760 2774.00 2639.37 53.00
5348 34.1820 2763.00 2637.44 53.00
5349 34.1880 2756.00 2636.08 52.00
5350 34.1940 2613.00 2635.46 51.00
5351 34.2000 2689.00 2635.63 52.00
5352 34.2060 2693.00 2636.55 52.00
5353 34.2120 2692.00 2638.13 52.00
5354 34.2180 2651.00 2640.31 51.00
5355 34.2240 2625.00 2643.01 51.00
5356 34.2300 2696.00 2646.21 52.00
5357 34.2360 2647.00 2649.89 51.00
5358 34.2420 2601.00 2654.08 51.00
5359 34.2480 2718.00 2657.61 52.00
5360 34.2540 2718.00 2661.87 52.00
5361 34.2600 2646.00 2666.62 51.00
5362 34.2660 2591.00 2673.13 51.00
5363 34.2720 2647.00 2681.42 51.00
5364 34.2780 2709.00 2692.11 52.00
5365 34.2840 2708.00 2705.96 52.00
5366 34.2900 2703.00 2723.72 52.00
5367 34.2960 2717.00 2746.05 52.00
5368 34.3020 2695.00 2773.20 52.00
5369 34.3080 2703.00 2804.82 52.00
5370 34.3140 2730.00 2839.28 52.00
5371 34.3200 2831.00 2873.07 53.00
5372 34.3260 2745.00 2900.60 52.00
5373 34.3320 2691.00 2916.41 52.00
5374 34.3380 2709.00 2919.42 52.00
5375 34.3440 2784.00 2914.57 53.00
5376 34.3500 2742.00 2909.72 52.00
5377 34.3560 2890.00 2912.17 54.00
5378 34.3620 2925.00 2928.13 54.00
5379 34.3680 3088.00 2962.43 56.00
5380 34.3740 2973.00 3019.86 55.00
5381 34.3800 3036.00 3103.94 55.00
5382 34.3860 3208.00 3218.90 57.00
5383 34.3920 3379.00 3362.56 58.00
5384 34.3980 3592.00 3531.23 60.00
5385 34.4040 3616.00 3711.51 60.00
5386 34.4100 3626.00 3877.36 60.00
5387 34.4160 3781.00 3994.40 61.00
5388 34.4220 3801.00 4030.50 62.00
5389 34.4280 3756.00 3979.86 61.00
5390 34.4340 3664.00 3869.82 61.00
5391 34.4400 3604.00 3738.10 60.00
5392 34.4460 3528.00 3620.73 59.00
5393 34.4520 3437.00 3539.19 59.00
5394 34.4580 3409.00 3503.59 58.00
5395 34.4640 3409.00 3515.52 58.00
5396 34.4700 3536.00 3569.24 59.00
5397 34.4760 3478.00 3650.69 59.00
5398 34.4820 3501.00 3735.40 59.00
5399 34.4880 3628.00 3790.62 60.00
5400 34.4940 3707.00 3788.71 61.00
5401 34.5000 3574.00 3726.47 60.00
5402 34.5060 3575.00 3626.19 60.00
5403 34.5120 3313.00 3516.84 58.00
5404 34.5180 3277.00 3419.37 57.00
5405 34.5240 3247.00 3342.21 57.00
5406 34.5300 3304.00 3286.35 57.00
5407 34.5360 3331.00 3247.80 58.00
5408 34.5420 3273.00 3223.00 57.00
5409 34.5480 3267.00 3212.87 57.00
5410 34.5540 3192.00 3221.56 56.00
5411 34.5600 3096.00 3252.03 56.00
5412 34.5660 3309.00 3303.12 58.00
5413 34.5720 3340.00 3367.67 58.00
5414 34.5780 3466.00 3430.74 59.00
5415 34.5840 3568.00 3469.84 60.00
5416 34.5900 3541.00 3463.71 60.00
5417 34.5960 3491.00 3407.06 59.00
5418 34.6020 3342.00 3314.65 58.00
5419 34.6080 3155.00 3208.20 56.00
5420 34.6140 2932.00 3104.62 54.00
5421 34.6200 2951.00 3012.97 54.00
5422 34.6260 2880.00 2936.83 54.00
5423 34.6320 2842.00 2876.52 53.00
5424 34.6380 2832.00 2830.46 53.00
5425 34.6440 2809.00 2796.24 53.00
5426 34.6500 2668.00 2771.22 52.00
5427 34.6560 2727.00 2753.04 52.00
5428 34.6620 2782.00 2739.71 53.00
5429 34.6680 2694.00 2729.82 52.00
5430 34.6740 2683.00 2722.38 52.00
5431 34.6800 2677.00 2716.72 52.00
5432 34.6860 2707.00 2712.45 52.00
5433 34.6920 2809.00 2709.31 53.00
5434 34.6980 2740.00 2707.13 52.00
5435 34.7040 2670.00 2705.84 52.00
5436 34.7100 2669.00 2705.37 52.00
5437 34.7160 2671.00 2705.15 52.00
5438 34.7220 2651.00 2705.20 51.00
5439 34.7280 2638.00 2706.15 51.00
5440 34.7340 2797.00 2708.10 53.00
5441 34.7400 2709.00 2711.25 52.00
5442 34.7460 2693.00 2715.88 52.00
5443 34.7520 2757.00 2722.47 53.00
5444 34.7580 2713.00 2731.72 52.00
5445 34.7640 2766.00 2744.67 53.00
5446 34.7700 2734.00 2762.76 52.00
5447 34.7760 2858.00 2787.85 53.00
5448 34.7820 2802.00 2822.16 53.00
5449 34.7880 2870.00 2867.57 54.00
5450 34.7940 2884.00 2927.26 54.00
5451 34.8000 2972.00 3002.00 55.00
5452 34.8060 3137.00 3091.15 56.00
5453 34.8120 3278.00 3190.63 57.00
5454 34.8180 3430.00 3291.84 59.00
5455 34.8240 3536.00 3381.50 59.00
5456 34.8300 3679.00 3448.07 61.00
5457 34.8360 3629.00 3484.87 60.00
5458 34.8420 3560.00 3490.63 60.00
5459 34.8480 3598.00 3468.31 60.00
5460 34.8540 3686.00 3427.84 61.00
5461 34.8600 3497.00 3384.80 59.00
5462 34.8660 3563.00 3352.53 60.00
5463 34.8720 3533.00 3335.39 59.00
5464 34.8780 3391.00 3331.90 58.00
5465 34.8840 3341.00 3325.66 58.00
5466 34.8900 3268.00 3303.56 57.00
5467 34.8960 3207.00 3253.47 57.00
5468 34.9020 3140.00 3179.45 56.00
5469 34.9080 3127.00 3094.81 56.00
5470 34.9140 3087.00 3012.30 56.00
5471 34.9200 3163.00 2939.82 56.00
5472 34.9260 3086.00 2880.93 56.00
5473 34.9320 2995.00 2836.76 55.00
5474 34.9380 3037.00 2806.91 55.00
5475 34.9440 2986.00 2790.18 55.00
5476 34.9500 2891.00 2783.00 54.00
5477 34.9560 2927.00 2786.83 54.00
5478 34.9620 2811.00 2796.93 53.00
5479 34.9680 2876.00 2809.26 54.00
5480 34.9740 2818.00 2818.31 53.00
5481 34.9800 2876.00 2818.20 54.00
5482 34.9860 2822.00 2805.89 53.00
5483 34.9920 2783.00 2783.34 53.00
5484 34.9980 2864.00 2755.58 54.00
5485 35.0040 2843.00 2727.22 53.00
5486 35.0100 2770.00 2701.16 53.00
5487 35.0160 2744.00 2679.07 52.00
5488 35.0220 2775.00 2660.55 53.00
5489 35.0280 2759.00 2645.77 53.00
5490 35.0340 2676.00 2634.70 52.00
5491 35.0400 2646.00 2625.73 51.00
5492 35.0460 2621.00 2616.92 51.00
5493 35.0520 2597.00 2611.47 51.00
5494 35.0580 2680.00 2608.78 52.00
5495 35.0640 2669.00 2607.75 52.00
5496 35.0700 2630.00 2607.34 51.00
5497 35.0760 2737.00 2607.44 52.00
5498 35.0820 2745.00 2607.97 52.00
5499 35.0880 2676.00 2609.01 52.00
5500 35.0940 2672.00 2611.42 52.00
5501 35.1000 2755.00 2612.93 52.00
5502 35.1060 2753.00 2615.30 52.00
5503 35.1120 2799.00 2616.84 53.00
5504 35.1180 2744.00 2618.07 52.00
5505 35.1240 2704.00 2618.93 52.00
5506 35.1300 2680.00 2619.51 52.00
5507 35.1360 2752.00 2620.00 52.00
5508 35.1420 2753.00 2620.58 52.00
5509 35.1480 2704.00 2621.33 52.00
5510 35.1540 2712.00 2622.32 52.00
5511 35.1600 2715.00 2624.62 52.00
5512 35.1660 2776.00 2626.12 53.00
5513 35.1720 2790.00 2628.22 53.00
5514 35.1780 2786.00 2630.19 53.00
5515 35.1840 2756.00 2632.39 52.00
5516 35.1900 2827.00 2634.83 53.00
5517 35.1960 2873.00 2637.54 54.00
5518 35.2020 2880.00 2640.61 54.00
5519 35.2080 2877.00 2644.13 54.00
5520 35.2140 2849.00 2648.28 53.00
5521 35.2200 2853.00 2653.93 53.00
5522 35.2260 2856.00 2660.16 53.00
5523 35.2320 2797.00 2667.95 53.00
5524 35.2380 2748.00 2678.54 52.00
5525 35.2440 2796.00 2690.60 53.00
5526 35.2500 2849.00 2705.12 53.00
5527 35.2560 2828.00 2722.72 53.00
5528 35.2620 2830.00 2741.27 53.00
5529 35.2680 2918.00 2759.93 54.00
5530 35.2740 2901.00 2776.24 54.00
5531 35.2800 2879.00 2786.64 54.00
5532 35.2860 2870.00 2789.05 54.00
5533 35.2920 2809.00 2785.56 53.00
5534 35.2980 2908.00 2779.56 54.00
5535 35.3040 2923.00 2773.53 54.00
5536 35.3100 2918.00 2768.54 54.00
5537 35.3160 2890.00 2765.50 54.00
5538 35.3220 2883.00 2763.13 54.00
5539 35.3280 2847.00 2760.43 53.00
5540 35.3340 2812.00 2757.23 53.00
5541 35.3400 2829.00 2754.34 53.00
5542 35.3460 2808.00 2752.97 53.00
5543 35.3520 2796.00 2754.19 53.00
5544 35.3580 2836.00 2757.55 53.00
5545 35.3640 2909.00 2766.46 54.00
5546 35.3700 2912.00 2780.34 54.00
5547 35.3760 2909.00 2799.84 54.00
5548 35.3820 2948.00 2825.42 54.00
5549 35.3880 2949.00 2857.14 54.00
5550 35.3940 2962.00 2894.25 54.00
5551 35.4000 2982.00 2934.70 55.00
5552 35.4060 3029.00 2974.39 55.00
5553 35.4120 3091.00 3007.50 56.00
5554 35.4180 3051.00 3029.02 55.00
5555 35.4240 3098.00 3039.03 56.00
5556 35.4300 3188.00 3043.46 56.00
5557 35.4360 3183.00 3050.06 56.00
5558 35.4420 3290.00 3064.57 57.00
5559 35.4480 3357.00 3088.77 58.00
5560 35.4540 3322.00 3122.03 58.00
5561 35.4600 3335.00 3158.96 58.00
5562 35.4660 3384.00 3192.80 58.00
5563 35.4720 3448.00 3218.49 59.00
5564 35.4780 3484.00 3234.55 59.00
5565 35.4840 3498.00 3241.80 59.00
5566 35.4900 3499.00 3242.00 59.00
5567 35.4960 3565.00 3237.07 60.00
5568 35.5020 3564.00 3228.12 60.00
5569 35.5080 3404.00 3216.53 58.00
5570 35.5140 3299.00 3206.77 57.00
5571 35.5200 3274.00 3206.18 57.00
5572 35.5260 3290.00 3221.82 57.00
5573 35.5320 3343.00 3257.88 58.00
5574 35.5380 3383.00 3316.62 58.00
5575 35.5440 3494.00 3390.65 59.00
5576 35.5500 3703.00 3472.43 61.00
5577 35.5560 3897.00 3547.42 62.00
5578 35.5620 3942.00 3599.60 63.00
5579 35.5680 3791.00 3619.11 62.00
5580 35.5740 3747.00 3605.99 61.00
5581 35.5800 3624.00 3567.91 60.00
5582 35.5860 3485.00 3521.14 59.00
5583 35.5920 3500.00 3474.42 59.00
5584 35.5980 3522.00 3440.49 59.00
5585 35.6040 3472.00 3427.58 59.00
5586 35.6100 3466.00 3435.65 59.00
5587 35.6160 3465.00 3458.10 59.00
5588 35.6220 3433.00 3482.45 59.00
5589 35.6280 3437.00 3497.94 59.00
5590 35.6340 3406.00 3488.22 58.00
5591 35.6400 3418.00 3458.06 58.00
5592 35.6460 3439.00 3416.36 59.00
5593 35.6520 3418.00 3374.80 58.00
5594 35.6580 3328.00 3344.12 58.00
5595 35.6640 3313.00 3332.79 58.00
5596 35.6700 3312.00 3342.59 58.00
5597 35.6760 3288.00 3375.20 57.00
5598 35.6820 3337.00 3423.43 58.00
5599 35.6880 3369.00 3480.26 58.00
5600 35.6940 3392.00 3536.46 58.00
5601 35.7000 3492.00 3584.84 59.00
5602 35.7060 3475.00 3620.09 59.00
5603 35.7120 3521.00 3637.84 59.00
5604 35.7180 3575.00 3636.19 60.00
5605 35.7240 3589.00 3618.66 60.00
5606 35.7300 3575.00 3583.70 60.00
5607 35.7360 3498.00 3537.35 59.00
5608 35.7420 3521.00 3485.84 59.00
5609 35.7480 3527.00 3435.91 59.00
5610 35.7540 3399.00 3392.40 58.00
5611 35.7600 3328.00 3358.56 58.00
5612 35.7660 3307.00 3333.08 58.00
5613 35.7720 3255.00 3310.56 57.00
5614 35.7780 3229.00 3283.01 57.00
5615 35.7840 3239.00 3244.92 57.00
5616 35.7900 3253.00 3197.25 57.00
5617 35.7960 3235.00 3146.15 57.00
5618 35.8020 3225.00 3096.69 57.00
5619 35.8080 3127.00 3052.92 56.00
5620 35.8140 3053.00 3016.42 55.00
5621 35.8200 3034.00 2987.34 55.00
5622 35.8260 3004.00 2965.13 55.00
5623 35.8320 2933.00 2948.84 54.00
5624 35.8380 2881.00 2938.85 54.00
5625 35.8440 2885.00 2931.30 54.00
5626 35.8500 2880.00 2926.70 54.00
5627 35.8560 2913.00 2923.18 54.00
5628 35.8620 2892.00 2920.82 54.00
5629 35.8680 2907.00 2919.87 54.00
5630 35.8740 2913.00 2920.11 54.00
5631 35.8800 2928.00 2921.42 54.00
5632 35.8860 2948.00 2923.17 54.00
5633 35.8920 2935.00 2926.51 54.00
5634 35.8980 2956.00 2930.90 54.00
5635 35.9040 3050.00 2936.41 55.00
5636 35.9100 3095.00 2944.68 56.00
5637 35.9160 3129.00 2952.85 56.00
5638 35.9220 3198.00 2965.15 57.00
5639 35.9280 3176.00 2977.05 56.00
5640 35.9340 3207.00 2991.51 57.00
5641 35.9400 3326.00 3010.82 58.00
5642 35.9460 3415.00 3033.93 58.00
5643 35.9520 3479.00 3062.44 59.00
5644 35.9580 3534.00 3098.73 59.00
5645 35.9640 3654.00 3146.02 60.00
5646 35.9700 3786.00 3206.69 62.00
5647 35.9760 3824.00 3283.01 62.00
5648 35.9820 3731.00 3378.06 61.00
5649 35.9880 3868.00 3494.07 62.00
5650 35.9940 3917.00 3627.75 63.00
5651 36.0000 3962.00 3775.93 63.00
5652 36.0060 4105.00 3929.03 64.00
5653 36.0120 4268.00 4074.12 65.00
5654 36.0180 4465.00 4203.35 67.00
5655 36.0240 4543.00 4324.38 67.00
5656 36.0300 4925.00 4458.79 70.00
5657 36.0360 5305.00 4627.92 73.00
5658 36.0420 5584.00 4845.36 75.00
5659 36.0480 5700.00 5104.52 75.00
5660 36.0540 5912.00 5376.75 77.00
5661 36.0600 6003.00 5616.55 77.00
5662 36.0660 5980.00 5773.09 77.00
5663 36.0720 6090.00 5825.42 78.00
5664 36.0780 6211.00 5796.14 79.00
5665 36.0840 6174.00 5728.30 79.00
5666 36.0900 6322.00 5650.75 80.00
5667 36.0960 6524.00 5563.07 81.00
5668 36.1020 6319.00 5442.30 79.00
5669 36.1080 5985.00 5279.37 77.00
5670 36.1140 5676.00 5088.91 75.00
5671 36.1200 5274.00 4902.71 73.00
5672 36.1260 4884.00 4748.16 70.00
5673 36.1320 4645.00 4634.51 68.00
5674 36.1380 4464.00 4552.10 67.00
5675 36.1440 4368.00 4482.50 66.00
5676 36.1500 4209.00 4407.15 65.00
5677 36.1560 4215.00 4319.77 65.00
5678 36.1620 4060.00 4229.30 64.00
5679 36.1680 4052.00 4151.41 64.00
5680 36.1740 3968.00 4099.93 63.00
5681 36.1800 4016.00 4077.99 63.00
5682 36.1860 3899.00 4076.21 62.00
5683 36.1920 3928.00 4078.66 63.00
5684 36.1980 3917.00 4060.30 63.00
5685 36.2040 3936.00 4002.44 63.00
5686 36.2100 4009.00 3906.86 63.00
5687 36.2160 4012.00 3789.55 63.00
5688 36.2220 3955.00 3670.40 63.00
5689 36.2280 3754.00 3564.48 61.00
5690 36.2340 3583.00 3479.48 60.00
5691 36.2400 3515.00 3418.62 59.00
5692 36.2460 3470.00 3382.63 59.00
5693 36.2520 3416.00 3368.79 58.00
5694 36.2580 3329.00 3373.55 58.00
5695 36.2640 3457.00 3392.99 59.00
5696 36.2700 3396.00 3419.98 58.00
5697 36.2760 3375.00 3449.04 58.00
5698 36.2820 3360.00 3478.90 58.00
5699 36.2880 3523.00 3512.68 59.00
5700 36.2940 3587.00 3554.20 60.00
5701 36.3000 3538.00 3603.49 59.00
5702 36.3060 3517.00 3654.51 59.00
5703 36.3120 3516.00 3695.29 59.00
5704 36.3180 3618.00 3713.03 60.00
5705 36.3240 3667.00 3703.50 61.00
5706 36.3300 3620.00 3676.07 60.00
5707 36.3360 3628.00 3648.24 60.00
5708 36.3420 3713.00 3637.05 61.00
5709 36.3480 3789.00 3655.48 62.00
5710 36.3540 3907.00 3712.56 63.00
5711 36.3600 4081.00 3814.10 64.00
5712 36.3660 4378.00 3962.62 66.00
5713 36.3720 4693.00 4156.31 69.00
5714 36.3780 4953.00 4385.21 70.00
5715 36.3840 5063.00 4631.30 71.00
5716 36.3900 5229.00 4867.77 72.00
5717 36.3960 5343.00 5066.08 73.00
5718 36.4020 5526.00 5202.09 74.00
5719 36.4080 5554.00 5259.96 75.00
5720 36.4140 5515.00 5234.81 74.00
5721 36.4200 5278.00 5131.24 73.00
5722 36.4260 5025.00 4961.50 71.00
5723 36.4320 4751.00 4749.12 69.00
5724 36.4380 4313.00 4525.79 66.00
5725 36.4440 4037.00 4320.05 64.00
5726 36.4500 3911.00 4148.29 63.00
5727 36.4560 3697.00 4013.05 61.00
5728 36.4620 3641.00 3905.54 60.00
5729 36.4680 3704.00 3810.99 61.00
5730 36.4740 3540.00 3716.94 59.00
5731 36.4800 3521.00 3620.52 59.00
5732 36.4860 3428.00 3526.93 59.00
5733 36.4920 3288.00 3442.97 57.00
5734 36.4980 3268.00 3371.53 57.00
5735 36.5040 3174.00 3317.32 56.00
5736 36.5100 3160.00 3278.82 56.00
5737 36.5160 3119.00 3254.48 56.00
5738 36.5220 3184.00 3240.94 56.00
5739 36.5280 3103.00 3233.72 56.00
5740 36.5340 3075.00 3228.69 55.00
5741 36.5400 3039.00 3224.66 55.00
5742 36.5460 3070.00 3219.96 55.00
5743 36.5520 3076.00 3224.01 55.00
5744 36.5580 3119.00 3238.49 56.00
5745 36.5640 3184.00 3261.42 56.00
5746 36.5700 3178.00 3289.30 56.00
5747 36.5760 3215.00 3315.81 57.00
5748 36.5820 3161.00 3334.40 56.00
5749 36.5880 3233.00 3338.96 57.00
5750 36.5940 3237.00 3339.62 57.00
5751 36.6000 3222.00 3337.51 57.00
5752 36.6060 3224.00 3334.72 57.00
5753 36.6120 3220.00 3328.90 57.00
5754 36.6180 3221.00 3315.17 57.00
5755 36.6240 3181.00 3289.94 56.00
5756 36.6300 3208.00 3257.94 57.00
5757 36.6360 3240.00 3223.63 57.00
5758 36.6420 3106.00 3197.20 56.00
5759 36.6480 3192.00 3178.13 56.00
5760 36.6540 3183.00 3164.18 56.00
5761 36.6600 3189.00 3152.93 56.00
5762 36.6660 3114.00 3139.12 56.00
5763 36.6720 3135.00 3119.27 56.00
5764 36.6780 3189.00 3094.20 56.00
5765 36.6840 3178.00 3065.95 56.00
5766 36.6900 3215.00 3043.08 57.00
5767 36.6960 3159.00 3026.48 56.00
5768 36.7020 3123.00 3017.44 56.00
5769 36.7080 3022.00 3015.81 55.00
5770 36.7140 3010.00 3020.05 55.00
5771 36.7200 3060.00 3027.04 55.00
5772 36.7260 3003.00 3032.05 55.00
5773 36.7320 2992.00 3030.03 55.00
5774 36.7380 2981.00 3018.17 55.00
5775 36.7440 2822.00 2997.70 53.00
5776 36.7500 2887.00 2973.52 54.00
5777 36.7560 2948.00 2947.63 54.00
5778 36.7620 2861.00 2923.10 53.00
5779 36.7680 2914.00 2902.38 54.00
5780 36.7740 2936.00 2885.42 54.00
5781 36.7800 2873.00 2872.21 54.00
5782 36.7860 2788.00 2862.51 53.00
5783 36.7920 2883.00 2855.97 54.00
5784 36.7980 2869.00 2852.29 54.00
5785 36.8040 2833.00 2849.86 53.00
5786 36.8100 2889.00 2851.47 54.00
5787 36.8160 2826.00 2855.69 53.00
5788 36.8220 2834.00 2862.59 53.00
5789 36.8280 2886.00 2872.18 54.00
5790 36.8340 2840.00 2884.22 53.00
5791 36.8400 2857.00 2898.08 53.00
5792 36.8460 2990.00 2912.39 55.00
5793 36.8520 2962.00 2924.77 54.00
5794 36.8580 2888.00 2932.22 54.00
5795 36.8640 2833.00 2932.25 53.00
5796 36.8700 2884.00 2924.72 54.00
5797 36.8760 2956.00 2911.87 54.00
5798 36.8820 2894.00 2896.95 54.00
5799 36.8880 2857.00 2882.28 53.00
5800 36.8940 2924.00 2866.91 54.00
5801 36.9000 2832.00 2856.39 53.00
5802 36.9060 2898.00 2846.54 54.00
5803 36.9120 2816.00 2840.67 53.00
5804 36.9180 2811.00 2838.08 53.00
5805 36.9240 2804.00 2837.92 53.00
5806 36.9300 2837.00 2839.93 53.00
5807 36.9360 2789.00 2845.24 53.00
5808 36.9420 2835.00 2852.52 53.00
5809 36.9480 2908.00 2862.63 54.00
5810 36.9540 2936.00 2875.60 54.00
5811 36.9600 2818.00 2890.13 53.00
5812 36.9660 2949.00 2909.05 54.00
5813 36.9720 2931.00 2927.17 54.00
5814 36.9780 2954.00 2943.31 54.00
5815 36.9840 2995.00 2954.52 55.00
5816 36.9900 2953.00 2959.06 54.00
5817 36.9960 2940.00 2957.33 54.00
5818 37.0020 2974.00 2951.45 55.00
5819 37.0080 2931.00 2943.69 54.00
5820 37.0140 2977.00 2935.70 55.00
5821 37.0200 2992.00 2928.15 55.00
5822 37.0260 2996.00 2922.30 55.00
5823 37.0320 2995.00 2917.92 55.00
5824 37.0380 2926.00 2915.35 54.00
5825 37.0440 2914.00 2915.32 54.00
5826 37.0500 2904.00 2918.91 54.00
5827 37.0560 2949.00 2927.37 54.00
5828 37.0620 2918.00 2942.21 54.00
5829 37.0680 2843.00 2964.70 53.00
5830 37.0740 2897.00 2998.80 54.00
5831 37.0800 3057.00 3046.87 55.00
5832 37.0860 3181.00 3112.18 56.00
5833 37.0920 3150.00 3198.03 56.00
5834 37.0980 3342.00 3306.56 58.00
5835 37.1040 3570.00 3437.96 60.00
5836 37.1100 3761.00 3588.09 61.00
5837 37.1160 3964.00 3749.09 63.00
5838 37.1220 4233.00 3902.14 65.00
5839 37.1280 4530.00 4019.59 67.00
5840 37.1340 4398.00 4072.64 66.00
5841 37.1400 4307.00 4045.72 66.00
5842 37.1460 3990.00 3948.04 63.00
5843 37.1520 3705.00 3806.83 61.00
5844 37.1580 3430.00 3650.82 59.00
5845 37.1640 3360.00 3502.10 58.00
5846 37.1700 3191.00 3372.09 56.00
5847 37.1760 3262.00 3265.86 57.00
5848 37.1820 3265.00 3184.87 57.00
5849 37.1880 3093.00 3128.46 56.00
5850 37.1940 3139.00 3094.60 56.00
5851 37.2000 3199.00 3081.64 57.00
5852 37.2060 3165.00 3085.61 56.00
5853 37.2120 3064.00 3104.26 55.00
5854 37.2180 3059.00 3134.01 55.00
5855 37.2240 3099.00 3169.51 56.00
5856 37.2300 2978.00 3204.26 55.00
5857 37.2360 3061.00 3228.03 55.00
5858 37.2420 2890.00 3231.64 54.00
5859 37.2480 3047.00 3211.77 55.00
5860 37.2540 2996.00 3173.22 55.00
5861 37.2600 3077.00 3126.86 55.00
5862 37.2660 3039.00 3079.79 55.00
5863 37.2720 2942.00 3035.02 54.00
5864 37.2780 2977.00 2997.40 55.00
5865 37.2840 3016.00 2968.19 55.00
5866 37.2900 3013.00 2947.70 55.00
5867 37.2960 2924.00 2935.89 54.00
5868 37.3020 3033.00 2932.64 55.00
5869 37.3080 2910.00 2938.05 54.00
5870 37.3140 3188.00 2952.51 56.00
5871 37.3200 3171.00 2976.68 56.00
5872 37.3260 3156.00 3012.53 56.00
5873 37.3320 3214.00 3061.07 57.00
5874 37.3380 3177.00 3118.45 56.00
5875 37.3440 3197.00 3185.03 57.00
5876 37.3500 3227.00 3257.20 57.00
5877 37.3560 3290.00 3327.03 57.00
5878 37.3620 3456.00 3383.22 59.00
5879 37.3680 3348.00 3412.80 58.00
5880 37.3740 3450.00 3409.76 59.00
5881 37.3800 3513.00 3379.89 59.00
5882 37.3860 3505.00 3337.88 59.00
5883 37.3920 3489.00 3296.61 59.00
5884 37.3980 3382.00 3267.08 58.00
5885 37.4040 3312.00 3255.26 58.00
5886 37.4100 3342.00 3263.52 58.00
5887 37.4160 3382.00 3291.11 58.00
5888 37.4220 3398.00 3334.08 58.00
5889 37.4280 3446.00 3384.44 59.00
5890 37.4340 3536.00 3433.23 59.00
5891 37.4400 3668.00 3473.06 61.00
5892 37.4460 3591.00 3499.68 60.00
5893 37.4520 3613.00 3509.12 60.00
5894 37.4580 3496.00 3495.25 59.00
5895 37.4640 3442.00 3453.23 59.00
5896 37.4700 3372.00 3386.03 58.00
5897 37.4760 3284.00 3303.23 57.00
5898 37.4820 3075.00 3216.89 55.00
5899 37.4880 3025.00 3136.23 55.00
5900 37.4940 3034.00 3065.65 55.00
5901 37.5000 2890.00 3006.71 54.00
5902 37.5060 2948.00 2959.74 54.00
5903 37.5120 2900.00 2922.76 54.00
5904 37.5180 2900.00 2895.16 54.00
5905 37.5240 2809.00 2873.94 53.00
5906 37.5300 2851.00 2858.22 53.00
5907 37.5360 2850.00 2846.58 53.00
5908 37.5420 2844.00 2837.94 53.00
5909 37.5480 2800.00 2831.54 53.00
5910 37.5540 2808.00 2827.45 53.00
5911 37.5600 2839.00 2824.04 53.00
5912 37.5660 2800.00 2821.70 53.00
5913 37.5720 2835.00 2820.28 53.00
5914 37.5780 2833.00 2819.70 53.00
5915 37.5840 2751.00 2820.72 52.00
5916 37.5900 2806.00 2822.93 53.00
5917 37.5960 2900.00 2825.96 54.00
5918 37.6020 2860.00 2830.41 53.00
5919 37.6080 2746.00 2835.32 52.00
5920 37.6140 2800.00 2841.40 53.00
5921 37.6200 2926.00 2848.92 54.00
5922 37.6260 2945.00 2858.27 54.00
5923 37.6320 2934.00 2868.30 54.00
5924 37.6380 2958.00 2881.57 54.00
5925 37.6440 2903.00 2900.19 54.00
5926 37.6500 2894.00 2923.53 54.00
5927 37.6560 2994.00 2952.46 55.00
5928 37.6620 3084.00 2987.73 56.00
5929 37.6680 3086.00 3029.71 56.00
5930 37.6740 3245.00 3078.15 57.00
5931 37.6800 3289.00 3131.89 57.00
5932 37.6860 3405.00 3188.54 58.00
5933 37.6920 3556.00 3244.55 60.00
5934 37.6980 3700.00 3296.30 61.00
5935 37.7040 3617.00 3342.38 60.00
5936 37.7100 3553.00 3386.82 60.00
5937 37.7160 3593.00 3438.45 60.00
5938 37.7220 3748.00 3507.67 61.00
5939 37.7280 3855.00 3602.72 62.00
5940 37.7340 4016.00 3727.80 63.00
5941 37.7400 4249.00 3881.08 65.00
5942 37.7460 4420.00 4057.05 66.00
5943 37.7520 4765.00 4237.44 69.00
5944 37.7580 4758.00 4395.20 69.00
5945 37.7640 4777.00 4498.90 69.00
5946 37.7700 4669.00 4529.28 68.00
5947 37.7760 4531.00 4494.22 67.00
5948 37.7820 4339.00 4425.08 66.00
5949 37.7880 4407.00 4358.67 66.00
5950 37.7940 4293.00 4322.75 66.00
5951 37.8000 4304.00 4332.18 66.00
5952 37.8060 4556.00 4389.34 67.00
5953 37.8120 4928.00 4484.31 70.00
5954 37.8180 5250.00 4593.75 72.00
5955 37.8240 5518.00 4682.04 74.00
5956 37.8300 5285.00 4711.16 73.00
5957 37.8360 5221.00 4659.18 72.00
5958 37.8420 4841.00 4532.59 70.00
5959 37.8480 4503.00 4359.79 67.00
5960 37.8540 4098.00 4174.38 64.00
5961 37.8600 4088.00 4000.06 64.00
5962 37.8660 3954.00 3850.87 63.00
5963 37.8720 3776.00 3729.12 61.00
5964 37.8780 3647.00 3633.86 60.00
5965 37.8840 3656.00 3555.23 60.00
5966 37.8900 3598.00 3484.93 60.00
5967 37.8960 3448.00 3418.91 59.00
5968 37.9020 3448.00 3358.11 59.00
5969 37.9080 3369.00 3304.29 58.00
5970 37.9140 3322.00 3258.70 58.00
5971 37.9200 3307.00 3220.44 58.00
5972 37.9260 3425.00 3187.86 59.00
5973 37.9320 3278.00 3160.31 57.00
5974 37.9380 3240.00 3137.92 57.00
5975 37.9440 3324.00 3123.78 58.00
5976 37.9500 3201.00 3118.35 57.00
5977 37.9560 3172.00 3122.45 56.00
5978 37.9620 3117.00 3133.02 56.00
5979 37.9680 3146.00 3151.19 56.00
5980 37.9740 3221.00 3173.07 57.00
5981 37.9800 3169.00 3196.58 56.00
5982 37.9860 3231.00 3221.62 57.00
5983 37.9920 3187.00 3249.61 56.00
5984 37.9980 3163.00 3281.48 56.00
5985 38.0040 3224.00 3315.60 57.00
5986 38.0100 3348.00 3347.38 58.00
5987 38.0160 3199.00 3371.11 57.00
5988 38.0220 3138.00 3381.88 56.00
5989 38.0280 3178.00 3379.21 56.00
5990 38.0340 3101.00 3366.87 56.00
5991 38.0400 3088.00 3350.74 56.00
5992 38.0460 3123.00 3335.08 56.00
5993 38.0520 3164.00 3320.23 56.00
5994 38.0580 3090.00 3303.26 56.00
5995 38.0640 3127.00 3281.90 56.00
5996 38.0700 3109.00 3255.36 56.00
5997 38.0760 3038.00 3228.15 55.00
5998 38.0820 3001.00 3204.58 55.00
5999 38.0880 3014.00 3186.81 55.00
6000 38.0940 3025.00 3173.87 55.00
6001 38.1000 3020.00 3162.00 55.00
6002 38.1060 3101.00 3146.08 56.00
6003 38.1120 3128.00 3122.53 56.00
6004 38.1180 3117.00 3091.51 56.00
6005 38.1240 3126.00 3056.36 56.00
6006 38.1300 3062.00 3021.03 55.00
6007 38.1360 3027.00 2988.44 55.00
6008 38.1420 3056.00 2960.05 55.00
6009 38.1480 2959.00 2937.84 54.00
6010 38.1540 2940.00 2918.78 54.00
6011 38.1600 2940.00 2903.97 54.00
6012 38.1660 2926.00 2892.86 54.00
6013 38.1720 2859.00 2884.88 53.00
6014 38.1780 2911.00 2879.55 54.00
6015 38.1840 2963.00 2876.50 54.00
6016 38.1900 2924.00 2875.52 54.00
6017 38.1960 2868.00 2876.46 54.00
6018 38.2020 2926.00 2879.57 54.00
6019 38.2080 3002.00 2884.23 55.00
6020 38.2140 2975.00 2891.93 55.00
6021 38.2200 2991.00 2902.06 55.00
6022 38.2260 3083.00 2914.46 56.00
6023 38.2320 3019.00 2928.61 55.00
6024 38.2380 3037.00 2943.46 55.00
6025 38.2440 2997.00 2957.05 55.00
6026 38.2500 2991.00 2966.77 55.00
6027 38.2560 2970.00 2970.18 54.00
6028 38.2620 3043.00 2966.53 55.00
6029 38.2680 3056.00 2959.14 55.00
6030 38.2740 2929.00 2943.85 54.00
6031 38.2800 2891.00 2931.83 54.00
6032 38.2860 2969.00 2921.43 54.00
6033 38.2920 2978.00 2913.75 55.00
6034 38.2980 2903.00 2911.85 54.00
6035 38.3040 2886.00 2911.51 54.00
6036 38.3100 2968.00 2915.41 54.00
6037 38.3160 2995.00 2923.83 55.00
6038 38.3220 3087.00 2936.98 56.00
6039 38.3280 3070.00 2954.93 55.00
6040 38.3340 3028.00 2976.36 55.00
6041 38.3400 2979.00 3000.25 55.00
6042 38.3460 3057.00 3029.22 55.00
6043 38.3520 3188.00 3057.39 56.00
6044 38.3580 3194.00 3081.44 57.00
6045 38.3640 3149.00 3096.63 56.00
6046 38.3700 3160.00 3100.89 56.00
6047 38.3760 3221.00 3096.83 57.00
6048 38.3820 3135.00 3087.13 56.00
6049 38.3880 3050.00 3077.01 55.00
6050 38.3940 3049.00 3068.39 55.00
6051 38.4000 3106.00 3063.42 56.00
6052 38.4060 3145.00 3062.55 56.00
6053 38.4120 3079.00 3060.09 55.00
6054 38.4180 3035.00 3059.36 55.00
6055 38.4240 3078.00 3057.77 55.00
6056 38.4300 3101.00 3059.00 56.00
6057 38.4360 3048.00 3064.38 55.00
6058 38.4420 2989.00 3074.78 55.00
6059 38.4480 2976.00 3088.91 55.00
6060 38.4540 3036.00 3105.81 55.00
6061 38.4600 3017.00 3117.83 55.00
6062 38.4660 3017.00 3122.28 55.00
6063 38.4720 2950.00 3116.96 54.00
6064 38.4780 2999.00 3103.43 55.00
6065 38.4840 3106.00 3085.84 56.00
6066 38.4900 3041.00 3068.16 55.00
6067 38.4960 3046.00 3054.19 55.00
6068 38.5020 3061.00 3045.34 55.00
6069 38.5080 3038.00 3040.72 55.00
6070 38.5140 3066.00 3041.74 55.00
6071 38.5200 3092.00 3047.57 56.00
6072 38.5260 3046.00 3056.66 55.00
6073 38.5320 3107.00 3068.43 56.00
6074 38.5380 3132.00 3081.86 56.00
6075 38.5440 3114.00 3098.79 56.00
6076 38.5500 3121.00 3119.07 56.00
6077 38.5560 3183.00 3141.96 56.00
6078 38.5620 3152.00 3164.79 56.00
6079 38.5680 3065.00 3183.91 55.00
6080 38.5740 3107.00 3191.90 56.00
6081 38.5800 3107.00 3190.43 56.00
6082 38.5860 3220.00 3176.94 57.00
6083 38.5920 3221.00 3158.90 57.00
6084 38.5980 3171.00 3142.46 56.00
6085 38.6040 3182.00 3132.55 56.00
6086 38.6100 3232.00 3132.64 57.00
6087 38.6160 3245.00 3145.01 57.00
6088 38.6220 3293.00 3170.46 57.00
6089 38.6280 3234.00 3210.35 57.00
6090 38.6340 3310.00 3263.19 58.00
6091 38.6400 3334.00 3328.66 58.00
6092 38.6460 3263.00 3396.16 57.00
6093 38.6520 3279.00 3458.78 57.00
6094 38.6580 3259.00 3504.63 57.00
6095 38.6640 3299.00 3520.19 57.00
6096 38.6700 3318.00 3501.99 58.00
6097 38.6760 3376.00 3458.90 58.00
6098 38.6820 3396.00 3399.09 58.00
6099 38.6880 3352.00 3335.22 58.00
6100 38.6940 3354.00 3276.49 58.00
6101 38.7000 3374.00 3229.84 58.00
6102 38.7060 3387.00 3193.52 58.00
6103 38.7120 3363.00 3170.84 58.00
6104 38.7180 3363.00 3162.94 58.00
6105 38.7240 3372.00 3169.51 58.00
6106 38.7300 3487.00 3191.89 59.00
6107 38.7360 3540.00 3231.38 59.00
6108 38.7420 3525.00 3289.63 59.00
6109 38.7480 3635.00 3368.44 60.00
6110 38.7540 3734.00 3469.26 61.00
6111 38.7600 3895.00 3592.27 62.00
6112 38.7660 4138.00 3735.37 64.00
6113 38.7720 4284.00 3891.64 65.00
6114 38.7780 4449.00 4049.90 67.00
6115 38.7840 4560.00 4192.09 68.00
6116 38.7900 4630.00 4304.04 68.00
6117 38.7960 4705.00 4379.78 69.00
6118 38.8020 4591.00 4420.70 68.00
6119 38.8080 4493.00 4427.00 67.00
6120 38.8140 4416.00 4393.20 66.00
6121 38.8200 4313.00 4314.92 66.00
6122 38.8260 4200.00 4198.96 65.00
6123 38.8320 4153.00 4063.82 64.00
6124 38.8380 4122.00 3930.86 64.00
6125 38.8440 4094.00 3816.57 64.00
6126 38.8500 4106.00 3731.22 64.00
6127 38.8560 4098.00 3679.63 64.00
6128 38.8620 4041.00 3663.95 64.00
6129 38.8680 4024.00 3684.01 63.00
6130 38.8740 3957.00 3737.76 63.00
6131 38.8800 3960.00 3820.94 63.00
6132 38.8860 4145.00 3927.02 64.00
6133 38.8920 4446.00 4049.01 67.00
6134 38.8980 4691.00 4182.51 68.00
6135 38.9040 4881.00 4325.45 70.00
6136 38.9100 5086.00 4473.87 71.00
6137 38.9160 5260.00 4616.38 73.00
6138 38.9220 5313.00 4733.86 73.00
6139 38.9280 5391.00 4805.82 73.00
6140 38.9340 5491.00 4821.92 74.00
6141 38.9400 5381.00 4784.49 73.00
6142 38.9460 5170.00 4708.35 72.00
6143 38.9520 5069.00 4613.81 71.00
6144 38.9580 5059.00 4517.02 71.00
6145 38.9640 4997.00 4423.21 71.00
6146 38.9700 4763.00 4327.34 69.00
6147 38.9760 4593.00 4221.89 68.00
6148 38.9820 4334.00 4105.61 66.00
6149 38.9880 3992.00 3987.51 63.00
6150 38.9940 3908.00 3878.27 63.00
6151 39.0000 3784.00 3786.00 62.00
6152 39.0060 3628.00 3713.27 60.00
6153 39.0120 3602.00 3657.94 60.00
6154 39.0180 3473.00 3615.88 59.00
6155 39.0240 3427.00 3583.87 59.00
6156 39.0300 3468.00 3561.89 59.00
6157 39.0360 3474.00 3553.10 59.00
6158 39.0420 3456.00 3560.32 59.00
6159 39.0480 3463.00 3586.64 59.00
6160 39.0540 3446.00 3634.70 59.00
6161 39.0600 3564.00 3705.76 60.00
6162 39.0660 3697.00 3799.25 61.00
6163 39.0720 3814.00 3910.95 62.00
6164 39.0780 3935.00 4031.92 63.00
6165 39.0840 3938.00 4148.11 63.00
6166 39.0900 3988.00 4243.05 63.00
6167 39.0960 4027.00 4301.85 63.00
6168 39.1020 3946.00 4319.29 63.00
6169 39.1080 3986.00 4301.17 63.00
6170 39.1140 3905.00 4266.25 62.00
6171 39.1200 3869.00 4238.09 62.00
6172 39.1260 3925.00 4236.87 63.00
6173 39.1320 4032.00 4275.72 63.00
6174 39.1380 4181.00 4360.14 65.00
6175 39.1440 4219.00 4488.08 65.00
6176 39.1500 4349.00 4649.13 66.00
6177 39.1560 4526.00 4825.49 67.00
6178 39.1620 4756.00 4996.62 69.00
6179 39.1680 5080.00 5150.30 71.00
6180 39.1740 5245.00 5285.53 72.00
6181 39.1800 5522.00 5405.23 74.00
6182 39.1860 5733.00 5504.33 76.00
6183 39.1920 5706.00 5572.50 76.00
6184 39.1980 5606.00 5591.44 75.00
6185 39.2040 5559.00 5549.69 75.00
6186 39.2100 5311.00 5449.78 73.00
6187 39.2160 5079.00 5301.46 71.00
6188 39.2220 4921.00 5113.61 70.00
6189 39.2280 4656.00 4894.32 68.00
6190 39.2340 4380.00 4655.81 66.00
6191 39.2400 4042.00 4413.90 64.00
6192 39.2460 3857.00 4183.22 62.00
6193 39.2520 3674.00 3974.12 61.00
6194 39.2580 3442.00 3793.57 59.00
6195 39.2640 3393.00 3644.82 58.00
6196 39.2700 3312.00 3527.77 58.00
6197 39.2760 3200.00 3439.61 57.00
6198 39.2820 3152.00 3375.67 56.00
6199 39.2880 3134.00 3329.63 56.00
6200 39.2940 3094.00 3293.94 56.00
6201 39.3000 3081.00 3260.99 56.00
6202 39.3060 2991.00 3225.14 55.00
6203 39.3120 2971.00 3182.75 55.00
6204 39.3180 3003.00 3140.45 55.00
6205 39.3240 2988.00 3098.08 55.00
6206 39.3300 2945.00 3059.22 54.00
6207 39.3360 2986.00 3027.15 55.00
6208 39.3420 2985.00 2997.66 55.00
6209 39.3480 2892.00 2977.36 54.00
6210 39.3540 2967.00 2964.10 54.00
6211 39.3600 2991.00 2957.92 55.00
6212 39.3660 3037.00 2958.69 55.00
6213 39.3720 2966.00 2966.09 54.00
6214 39.3780 2913.00 2979.51 54.00
6215 39.3840 2878.00 2997.89 54.00
6216 39.3900 2897.00 3019.50 54.00
6217 39.3960 2867.00 3040.88 54.00
6218 39.4020 2952.00 3057.83 54.00
6219 39.4080 3074.00 3065.81 55.00
6220 39.4140 3027.00 3061.60 55.00
6221 39.4200 2948.00 3048.30 54.00
6222 39.4260 3003.00 3029.02 55.00
6223 39.4320 2987.00 3007.98 55.00
6224 39.4380 2922.00 2988.10 54.00
6225 39.4440 2902.00 2969.55 54.00
6226 39.4500 2889.00 2949.99 54.00
6227 39.4560 2909.00 2932.61 54.00
6228 39.4620 2962.00 2912.96 54.00
6229 39.4680 2875.00 2895.25 54.00
6230 39.4740 2856.00 2877.90 53.00
6231 39.4800 2825.00 2862.26 53.00
6232 39.4860 2822.00 2849.23 53.00
6233 39.4920 2890.00 2839.36 54.00
6234 39.4980 2779.00 2831.25 53.00
6235 39.5040 2864.00 2828.50 54.00
6236 39.5100 2881.00 2829.30 54.00
6237 39.5160 2908.00 2833.74 54.00
6238 39.5220 3001.00 2840.78 55.00
6239 39.5280 2947.00 2850.02 54.00
6240 39.5340 2958.00 2860.66 54.00
6241 39.5400 2898.00 2871.95 54.00
6242 39.5460 2922.00 2882.54 54.00
6243 39.5520 2848.00 2892.11 53.00
6244 39.5580 2923.00 2897.96 54.00
6245 39.5640 2854.00 2897.71 53.00
6246 39.5700 2856.00 2890.09 53.00
6247 39.5760 2921.00 2876.43 54.00
6248 39.5820 2773.00 2859.68 53.00
6249 39.5880 2770.00 2842.30 53.00
6250 39.5940 2811.00 2825.23 53.00
6251 39.6000 2747.00 2810.43 52.00
6252 39.6060 2769.00 2798.49 53.00
6253 39.6120 2820.00 2788.82 53.00
6254 39.6180 2834.00 2783.31 53.00
6255 39.6240 2809.00 2781.08 53.00
6256 39.6300 2768.00 2780.20 53.00
6257 39.6360 2830.00 2784.69 53.00
6258 39.6420 2780.00 2792.60 53.00
6259 39.6480 2810.00 2803.99 53.00
6260 39.6540 2730.00 2820.00 52.00
6261 39.6600 2912.00 2838.02 54.00
6262 39.6660 2886.00 2858.52 54.00
6263 39.6720 2910.00 2880.10 54.00
6264 39.6780 2865.00 2900.60 54.00
6265 39.6840 2912.00 2917.60 54.00
6266 39.6900 2957.00 2927.21 54.00
6267 39.6960 2971.00 2934.96 55.00
6268 39.7020 3036.00 2940.24 55.00
6269 39.7080 3005.00 2945.85 55.00
6270 39.7140 2992.00 2949.10 55.00
6271 39.7200 2958.00 2950.98 54.00
6272 39.7260 2911.00 2945.38 54.00
6273 39.7320 3001.00 2934.53 55.00
6274 39.7380 2865.00 2917.96 54.00
6275 39.7440 2849.00 2897.29 53.00
6276 39.7500 2805.00 2873.65 53.00
6277 39.7560 2831.00 2854.00 53.00
6278 39.7620 2717.00 2837.85 52.00
6279 39.7680 2802.00 2826.21 53.00
6280 39.7740 2706.00 2820.10 52.00
6281 39.7800 2745.00 2819.51 52.00
6282 39.7860 2731.00 2825.26 52.00
6283 39.7920 2746.00 2838.17 52.00
6284 39.7980 2773.00 2859.32 53.00
6285 39.8040 2829.00 2889.99 53.00
6286 39.8100 2948.00 2931.57 54.00
6287 39.8160 3002.00 2985.21 55.00
6288 39.8220 3027.00 3051.52 55.00
6289 39.8280 2992.00 3130.04 55.00
6290 39.8340 3222.00 3217.78 57.00
6291 39.8400 3414.00 3310.52 58.00
6292 39.8460 3562.00 3399.08 60.00
6293 39.8520 3651.00 3472.02 60.00
6294 39.8580 3810.00 3517.88 62.00
6295 39.8640 3732.00 3528.08 61.00
6296 39.8700 3566.00 3500.26 60.00
6297 39.8760 3385.00 3439.97 58.00
6298 39.8820 3166.00 3359.59 56.00
6299 39.8880 3111.00 3272.67 56.00
6300 39.8940 3061.00 3189.74 55.00
6301 39.9000 2983.00 3117.04 55.00
6302 39.9060 2975.00 3057.30 55.00
6303 39.9120 2822.00 3010.62 53.00
6304 39.9180 2961.00 2975.52 54.00
6305 39.9240 2792.00 2949.75 53.00
6306 39.9300 2818.00 2931.28 53.00
6307 39.9360 2801.00 2918.97 53.00
6308 39.9420 2796.00 2911.89 53.00
6309 39.9480 2811.00 2910.83 53.00
6310 39.9540 2829.00 2914.31 53.00
6311 39.9600 2822.00 2920.60 53.00
6312 39.9660 2881.00 2927.40 54.00
6313 39.9720 2831.00 2932.69 53.00
6314 39.9780 2764.00 2935.84 53.00
6315 39.9840 2947.00 2937.27 54.00
6316 39.9900 2932.00 2938.79 54.00
6317 39.9960 2949.00 2939.11 54.00
6318 40.0020 2821.00 2937.91 53.00
6319 40.0080 2887.00 2934.24 54.00
6320 40.0140 2915.00 2928.40 54.00
6321 40.0200 2843.00 2922.02 53.00
6322 40.0260 2799.00 2917.06 53.00
6323 40.0320 2844.00 2914.65 53.00
6324 40.0380 2942.00 2914.69 54.00
6325 40.0440 2802.00 2916.06 53.00
6326 40.0500 2866.00 2917.97 54.00
6327 40.0560 2904.00 2919.36 54.00
6328 40.0620 2909.00 2922.30 54.00
6329 40.0680 2880.00 2929.50 54.00
6330 40.0740 2856.00 2943.92 53.00
6331 40.0800 2961.00 2967.52 54.00
6332 40.0860 2987.00 3001.23 55.00
6333 40.0920 3055.00 3044.74 55.00
6334 40.0980 3078.00 3095.72 55.00
6335 40.1040 3008.00 3150.68 55.00
6336 40.1100 3120.00 3202.64 56.00
6337 40.1160 3108.00 3243.77 56.00
6338 40.1220 3197.00 3265.79 57.00
6339 40.1280 3156.00 3266.38 56.00
6340 40.1340 3131.00 3249.10 56.00
6341 40.1400 3070.00 3222.45 55.00
6342 40.1460 3011.00 3196.13 55.00
6343 40.1520 2980.00 3177.81 55.00
6344 40.1580 3082.00 3172.02 56.00
6345 40.1640 3168.00 3180.21 56.00
6346 40.1700 3186.00 3200.90 56.00
6347 40.1760 3119.00 3229.57 56.00
6348 40.1820 3180.00 3258.58 56.00
6349 40.1880 3285.00 3278.77 57.00
6350 40.1940 3330.00 3283.33 58.00
6351 40.2000 3359.00 3271.89 58.00
6352 40.2060 3326.00 3250.64 58.00
6353 40.2120 3279.00 3228.20 57.00
6354 40.2180 3162.00 3212.14 56.00
6355 40.2240 3112.00 3204.48 56.00
6356 40.2300 3118.00 3206.19 56.00
6357 40.2360 3094.00 3213.01 56.00
6358 40.2420 3087.00 3217.92 56.00
6359 40.2480 3037.00 3213.01 55.00
6360 40.2540 3042.00 3193.55 55.00
6361 40.2600 3067.00 3161.05 55.00
6362 40.2660 3112.00 3121.20 56.00
6363 40.2720 3193.00 3082.49 57.00
6364 40.2780 3125.00 3050.17 56.00
6365 40.2840 3065.00 3027.41 55.00
6366 40.2900 3116.00 3014.98 56.00
6367 40.2960 3272.00 3011.59 57.00
6368 40.3020 3344.00 3013.82 58.00
6369 40.3080 3304.00 3016.36 57.00
6370 40.3140 3416.00 3012.51 58.00
6371 40.3200 3327.00 2997.54 58.00
6372 40.3260 3199.00 2970.63 57.00
6373 40.3320 3107.00 2935.06 56.00
6374 40.3380 3005.00 2895.77 55.00
6375 40.3440 2922.00 2857.06 54.00
6376 40.3500 2924.00 2821.74 54.00
6377 40.3560 2885.00 2791.23 54.00
6378 40.3620 2754.00 2766.12 52.00
6379 40.3680 2728.00 2746.39 52.00
6380 40.3740 2758.00 2731.66 53.00
6381 40.3800 2746.00 2721.29 52.00
6382 40.3860 2730.00 2714.46 52.00
6383 40.3920 2745.00 2709.49 52.00
6384 40.3980 2704.00 2706.72 52.00
6385 40.4040 2659.00 2702.84 52.00
6386 40.4100 2654.00 2699.68 52.00
6387 40.4160 2700.00 2695.33 52.00
6388 40.4220 2657.00 2689.98 52.00
6389 40.4280 2684.00 2684.26 52.00
6390 40.4340 2643.00 2678.88 51.00
6391 40.4400 2696.00 2674.38 52.00
6392 40.4460 2681.00 2671.18 52.00
6393 40.4520 2580.00 2669.59 51.00
6394 40.4580 2593.00 2669.93 51.00
6395 40.4640 2575.00 2673.19 51.00
6396 40.4700 2611.00 2678.43 51.00
6397 40.4760 2702.00 2686.71 52.00
6398 40.4820 2642.00 2698.84 51.00
6399 40.4880 2768.00 2714.38 53.00
6400 40.4940 2763.00 2733.91 53.00
6401 40.5000 2772.00 2757.33 53.00
6402 40.5060 2840.00 2784.77 53.00
6403 40.5120 2901.00 2813.23 54.00
6404 40.5180 2896.00 2841.97 54.00
6405 40.5240 2904.00 2867.08 54.00
6406 40.5300 2842.00 2885.11 53.00
6407 40.5360 2963.00 2893.28 54.00
6408 40.5420 2850.00 2891.43 53.00
6409 40.5480 2853.00 2882.15 53.00
6410 40.5540 2958.00 2870.52 54.00
6411 40.5600 2884.00 2860.70 54.00
6412 40.5660 2896.00 2854.24 54.00
6413 40.5720 2857.00 2852.33 53.00
6414 40.5780 2802.00 2854.06 53.00
6415 40.5840 2788.00 2857.00 53.00
6416 40.5900 2858.00 2857.63 53.00
6417 40.5960 2809.00 2854.02 53.00
6418 40.6020 2770.00 2844.41 53.00
6419 40.6080 2812.00 2831.19 53.00
6420 40.6140 2833.00 2817.62 53.00
6421 40.6200 2677.00 2806.79 52.00
6422 40.6260 2662.00 2800.45 52.00
6423 40.6320 2717.00 2799.55 52.00
6424 40.6380 2703.00 2804.07 52.00
6425 40.6440 2730.00 2812.33 52.00
6426 40.6500 2609.00 2822.03 51.00
6427 40.6560 2612.00 2829.57 51.00
6428 40.6620 2678.00 2830.62 52.00
6429 40.6680 2721.00 2823.08 52.00
6430 40.6740 2626.00 2808.47 51.00
6431 40.6800 2666.00 2788.81 52.00
6432 40.6860 2639.00 2767.56 51.00
6433 40.6920 2609.00 2747.60 51.00
6434 40.6980 2663.00 2730.86 52.00
6435 40.7040 2607.00 2718.55 51.00
6436 40.7100 2667.00 2711.40 52.00
6437 40.7160 2707.00 2709.84 52.00
6438 40.7220 2649.00 2714.09 51.00
6439 40.7280 2604.00 2724.06 51.00
6440 40.7340 2571.00 2738.21 51.00
6441 40.7400 2714.00 2758.07 52.00
6442 40.7460 2694.00 2780.90 52.00
6443 40.7520 2602.00 2804.24 51.00
6444 40.7580 2803.00 2824.45 53.00
6445 40.7640 2823.00 2837.77 53.00
6446 40.7700 2695.00 2840.46 52.00
6447 40.7760 2922.00 2832.82 54.00
6448 40.7820 2763.00 2817.60 53.00
6449 40.7880 2764.00 2798.62 53.00
6450 40.7940 2730.00 2777.86 52.00
6451 40.8000 2829.00 2759.10 53.00
6452 40.8060 2722.00 2741.87 52.00
6453 40.8120 2781.00 2726.39 53.00
6454 40.8180 2657.00 2713.00 52.00
6455 40.8240 2674.00 2702.14 52.00
6456 40.8300 2682.00 2694.03 52.00
6457 40.8360 2651.00 2688.39 51.00
6458 40.8420 2730.00 2684.41 52.00
6459 40.8480 2705.00 2680.83 52.00
6460 40.8540 2713.00 2676.35 52.00
6461 40.8600 2566.00 2669.59 51.00
6462 40.8660 2724.00 2661.87 52.00
6463 40.8720 2530.00 2653.32 50.00
6464 40.8780 2689.00 2645.15 52.00
6465 40.8840 2594.00 2637.52 51.00
6466 40.8900 2495.00 2631.11 50.00
6467 40.8960 2621.00 2626.42 51.00
6468 40.9020 2608.00 2623.25 51.00
6469 40.9080 2629.00 2621.60 51.00
6470 40.9140 2674.00 2621.47 52.00
6471 40.9200 2727.00 2622.88 52.00
6472 40.9260 2598.00 2625.90 51.00
6473 40.9320 2642.00 2630.72 51.00
6474 40.9380 2641.00 2637.66 51.00
6475 40.9440 2693.00 2647.22 52.00
6476 40.9500 2693.00 2660.86 52.00
6477 40.9560 2812.00 2677.81 53.00
6478 40.9620 2682.00 2700.04 52.00
6479 40.9680 2812.00 2729.72 53.00
6480 40.9740 2810.00 2765.68 53.00
6481 40.9800 2863.00 2809.94 54.00
6482 40.9860 2934.00 2862.95 54.00
6483 40.9920 3091.00 2924.43 56.00
6484 40.9980 3135.00 2992.63 56.00
6485 41.0040 3365.00 3063.95 58.00
6486 41.0100 3457.00 3132.93 59.00
6487 41.0160 3557.00 3191.76 60.00
6488 41.0220 3493.00 3235.88 59.00
6489 41.0280 3454.00 3261.80 59.00
6490 41.0340 3401.00 3272.08 58.00
6491 41.0400 3436.00 3270.35 59.00
6492 41.0460 3466.00 3259.38 59.00
6493 41.0520 3269.00 3239.89 57.00
6494 41.0580 3216.00 3211.42 57.00
6495 41.0640 3099.00 3174.81 56.00
6496 41.0700 3044.00 3134.15 55.00
6497 41.0760 2923.00 3092.31 54.00
6498 41.0820 2989.00 3054.42 55.00
6499 41.0880 3016.00 3025.59 55.00
6500 41.0940 3028.00 3005.93 55.00
6501 41.1000 2890.00 2995.22 54.00
6502 41.1060 2991.00 2990.87 55.00
6503 41.1120 3098.00 2989.36 56.00
6504 41.1180 2999.00 2987.81 55.00
6505 41.1240 2986.00 2985.10 55.00
6506 41.1300 3050.00 2981.35 55.00
6507 41.1360 3125.00 2976.29 56.00
6508 41.1420 3081.00 2967.97 56.00
6509 41.1480 2992.00 2955.29 55.00
6510 41.1540 2938.00 2937.66 54.00
6511 41.1600 2898.00 2914.98 54.00
6512 41.1660 2826.00 2890.11 53.00
6513 41.1720 2774.00 2864.87 53.00
6514 41.1780 2766.00 2840.00 53.00
6515 41.1840 2750.00 2815.41 52.00
6516 41.1900 2716.00 2790.63 52.00
6517 41.1960 2663.00 2765.46 52.00
6518 41.2020 2700.00 2740.33 52.00
6519 41.2080 2683.00 2716.24 52.00
6520 41.2140 2668.00 2693.73 52.00
6521 41.2200 2622.00 2676.32 51.00
6522 41.2260 2611.00 2660.25 51.00
6523 41.2320 2616.00 2647.34 51.00
6524 41.2380 2582.00 2637.49 51.00
6525 41.2440 2601.00 2631.70 51.00
6526 41.2500 2628.00 2627.90 51.00
6527 41.2560 2569.00 2626.89 51.00
6528 41.2620 2583.00 2628.26 51.00
6529 41.2680 2612.00 2632.80 51.00
6530 41.2740 2553.00 2639.74 51.00
6531 41.2800 2557.00 2648.77 51.00
6532 41.2860 2638.00 2660.45 51.00
6533 41.2920 2656.00 2675.70 52.00
6534 41.2980 2595.00 2691.17 51.00
6535 41.3040 2605.00 2706.73 51.00
6536 41.3100 2709.00 2720.24 52.00
6537 41.3160 2672.00 2729.09 52.00
6538 41.3220 2657.00 2730.61 52.00
6539 41.3280 2629.00 2725.47 51.00
6540 41.3340 2629.00 2714.67 51.00
6541 41.3400 2677.00 2700.89 52.00
6542 41.3460 2678.00 2687.02 52.00
6543 41.3520 2661.00 2674.38 52.00
6544 41.3580 2615.00 2664.39 51.00
6545 41.3640 2647.00 2658.05 51.00
6546 41.3700 2683.00 2655.66 52.00
6547 41.3760 2693.00 2657.42 52.00
6548 41.3820 2720.00 2663.31 52.00
6549 41.3880 2677.00 2673.16 52.00
6550 41.3940 2762.00 2686.50 53.00
6551 41.4000 2746.00 2702.57 52.00
6552 41.4060 2764.00 2720.06 53.00
6553 41.4120 2828.00 2737.85 53.00
6554 41.4180 2747.00 2754.31 52.00
6555 41.4240 2849.00 2768.27 53.00
6556 41.4300 2963.00 2779.05 54.00
6557 41.4360 3000.00 2786.82 55.00
6558 41.4420 2964.00 2793.01 54.00
6559 41.4480 2914.00 2800.30 54.00
6560 41.4540 2840.00 2811.95 53.00
6561 41.4600 2741.00 2831.01 52.00
6562 41.4660 2793.00 2859.82 53.00
6563 41.4720 3031.00 2899.87 55.00
6564 41.4780 3039.00 2951.65 55.00
6565 41.4840 3156.00 3014.77 56.00
6566 41.4900 3181.00 3085.97 56.00
6567 41.4960 3223.00 3160.57 57.00
6568 41.5020 3293.00 3232.59 57.00
6569 41.5080 3370.00 3295.35 58.00
6570 41.5140 3366.00 3344.29 58.00
6571 41.5200 3284.00 3376.54 57.00
6572 41.5260 3328.00 3390.63 58.00
6573 41.5320 3290.00 3386.63 57.00
6574 41.5380 3343.00 3369.27 58.00
6575 41.5440 3341.00 3346.48 58.00
6576 41.5500 3429.00 3326.45 59.00
6577 41.5560 3465.00 3313.93 59.00
6578 41.5620 3387.00 3309.75 58.00
6579 41.5680 3373.00 3310.83 58.00
6580 41.5740 3420.00 3311.11 58.00
6581 41.5800 3400.00 3307.53 58.00
6582 41.5860 3352.00 3297.05 58.00
6583 41.5920 3381.00 3282.73 58.00
6584 41.5980 3339.00 3269.16 58.00
6585 41.6040 3384.00 3261.43 58.00
6586 41.6100 3409.00 3261.02 58.00
6587 41.6160 3399.00 3267.05 58.00
6588 41.6220 3515.00 3274.45 59.00
6589 41.6280 3517.00 3275.46 59.00
6590 41.6340 3477.00 3264.43 59.00
6591 41.6400 3414.00 3238.89 58.00
6592 41.6460 3415.00 3200.63 58.00
6593 41.6520 3413.00 3153.90 58.00
6594 41.6580 3292.00 3104.06 57.00
6595 41.6640 3228.00 3056.74 57.00
6596 41.6700 3232.00 3016.33 57.00
6597 41.6760 3151.00 2986.97 56.00
6598 41.6820 3083.00 2969.73 56.00
6599 41.6880 3027.00 2964.48 55.00
6600 41.6940 3006.00 2969.61 55.00
6601 41.7000 3049.00 2982.01 55.00
6602 41.7060 3057.00 2997.31 55.00
6603 41.7120 3036.00 3012.45 55.00
6604 41.7180 2988.00 3025.43 55.00
6605 41.7240 3056.00 3038.40 55.00
6606 41.7300 3130.00 3056.51 56.00
6607 41.7360 3200.00 3085.75 57.00
6608 41.7420 3282.00 3131.54 57.00
6609 41.7480 3306.00 3197.34 57.00
6610 41.7540 3436.00 3284.52 59.00
6611 41.7600 3621.00 3392.45 60.00
6612 41.7660 3787.00 3516.77 62.00
6613 41.7720 3909.00 3648.88 63.00
6614 41.7780 4007.00 3776.19 63.00
6615 41.7840 4105.00 3884.78 64.00
6616 41.7900 4186.00 3964.13 65.00
6617 41.7960 4228.00 4009.75 65.00
6618 41.8020 4159.00 4021.90 64.00
6619 41.8080 4029.00 4003.13 63.00
6620 41.8140 3977.00 3958.25 63.00
6621 41.8200 3882.00 3894.80 62.00
6622 41.8260 3696.00 3821.65 61.00
6623 41.8320 3546.00 3746.52 60.00
6624 41.8380 3450.00 3674.22 59.00
6625 41.8440 3425.00 3605.51 59.00
6626 41.8500 3404.00 3536.77 58.00
6627 41.8560 3349.00 3462.18 58.00
6628 41.8620 3320.00 3378.38 58.00
6629 41.8680 3326.00 3287.06 58.00
6630 41.8740 3295.00 3194.27 57.00
6631 41.8800 3186.00 3106.18 56.00
6632 41.8860 3092.00 3028.42 56.00
6633 41.8920 3050.00 2961.66 55.00
6634 41.8980 3032.00 2905.82 55.00
6635 41.9040 3019.00 2858.74 55.00
6636 41.9100 2995.00 2817.35 55.00
6637 41.9160 2965.00 2778.89 54.00
6638 41.9220 2964.00 2741.96 54.00
6639 41.9280 2889.00 2706.68 54.00
6640 41.9340 2788.00 2674.19 53.00
6641 41.9400 2736.00 2644.75 52.00
6642 41.9460 2662.00 2619.09 52.00
6643 41.9520 2645.00 2597.32 51.00
6644 41.9580 2617.00 2579.35 51.00
6645 41.9640 2550.00 2565.02 50.00
6646 41.9700 2555.00 2554.19 51.00
6647 41.9760 2622.00 2547.08 51.00
6648 41.9820 2569.00 2543.02 51.00
6649 41.9880 2515.00 2542.41 50.00
6650 41.9940 2594.00 2545.49 51.00
6651 42.0000 2644.00 2552.28 51.00
6652 42.0060 2613.00 2563.64 51.00
6653 42.0120 2583.00 2579.62 51.00
6654 42.0180 2583.00 2600.36 51.00
6655 42.0240 2672.00 2625.69 52.00
6656 42.0300 2792.00 2655.25 53.00
6657 42.0360 2854.00 2686.91 53.00
6658 42.0420 2855.00 2718.32 53.00
6659 42.0480 2809.00 2746.19 53.00
6660 42.0540 2782.00 2766.28 53.00
6661 42.0600 2762.00 2775.03 53.00
6662 42.0660 2773.00 2772.92 53.00
6663 42.0720 2778.00 2761.39 53.00
6664 42.0780 2739.00 2745.18 52.00
6665 42.0840 2736.00 2726.32 52.00
6666 42.0900 2747.00 2705.28 52.00
6667 42.0960 2702.00 2684.87 52.00
6668 42.1020 2722.00 2663.99 52.00
6669 42.1080 2635.00 2642.84 51.00
6670 42.1140 2624.00 2621.84 51.00
6671 42.1200 2662.00 2601.49 52.00
6672 42.1260 2667.00 2582.54 52.00
6673 42.1320 2636.00 2565.85 51.00
6674 42.1380 2626.00 2551.70 51.00
6675 42.1440 2639.00 2541.68 51.00
6676 42.1500 2602.00 2533.56 51.00
6677 42.1560 2575.00 2528.46 51.00
6678 42.1620 2575.00 2524.29 51.00
6679 42.1680 2533.00 2519.45 50.00
6680 42.1740 2566.00 2512.54 51.00
6681 42.1800 2606.00 2502.97 51.00
6682 42.1860 2644.00 2491.18 51.00
6683 42.1920 2605.00 2478.24 51.00
6684 42.1980 2545.00 2464.25 50.00
6685 42.2040 2545.00 2451.99 50.00
6686 42.2100 2566.00 2441.11 51.00
6687 42.2160 2576.00 2430.94 51.00
6688 42.2220 2563.00 2422.59 51.00
6689 42.2280 2566.00 2415.58 51.00
6690 42.2340 2543.00 2409.77 50.00
6691 42.2400 2516.00 2405.02 50.00
6692 42.2460 2503.00 2401.15 50.00
6693 42.2520 2451.00 2398.04 50.00
6694 42.2580 2381.00 2395.53 49.00
6695 42.2640 2493.00 2393.55 50.00
6696 42.2700 2537.00 2392.93 50.00
6697 42.2760 2509.00 2392.89 50.00
6698 42.2820 2579.00 2392.59 51.00
6699 42.2880 2470.00 2393.29 50.00
6700 42.2940 2385.00 2394.33 49.00
6701 42.3000 2474.00 2395.70 50.00
6702 42.3060 2500.00 2397.39 50.00
6703 42.3120 2474.00 2399.82 50.00
6704 42.3180 2430.00 2402.09 49.00
6705 42.3240 2416.00 2404.68 49.00
6706 42.3300 2538.00 2407.63 50.00
6707 42.3360 2545.00 2411.06 50.00
6708 42.3420 2535.00 2415.14 50.00
6709 42.3480 2577.00 2419.93 51.00
6710 42.3540 2546.00 2423.71 50.00
6711 42.3600 2507.00 2430.16 50.00
6712 42.3660 2522.00 2438.71 50.00
6713 42.3720 2547.00 2446.41 50.00
6714 42.3780 2552.00 2456.82 51.00
6715 42.3840 2543.00 2469.18 50.00
6716 42.3900 2514.00 2484.38 50.00
6717 42.3960 2560.00 2501.92 51.00
6718 42.4020 2633.00 2522.78 51.00
6719 42.4080 2663.00 2546.13 52.00
6720 42.4140 2664.00 2571.91 52.00
6721 42.4200 2685.00 2599.81 52.00
6722 42.4260 2693.00 2628.30 52.00
6723 42.4320 2752.00 2659.23 52.00
6724 42.4380 2886.00 2689.53 54.00
6725 42.4440 2901.00 2716.28 54.00
6726 42.4500 2862.00 2735.76 53.00
6727 42.4560 2879.00 2744.83 54.00
6728 42.4620 2865.00 2743.69 54.00
6729 42.4680 2891.00 2732.27 54.00
6730 42.4740 2864.00 2715.82 54.00
6731 42.4800 2750.00 2700.14 52.00
6732 42.4860 2717.00 2685.42 52.00
6733 42.4920 2688.00 2675.32 52.00
6734 42.4980 2617.00 2670.91 51.00
6735 42.5040 2669.00 2668.91 52.00
6736 42.5100 2658.00 2669.45 52.00
6737 42.5160 2603.00 2671.99 51.00
6738 42.5220 2655.00 2676.75 52.00
6739 42.5280 2684.00 2684.05 52.00
6740 42.5340 2596.00 2693.58 51.00
6741 42.5400 2633.00 2703.91 51.00
6742 42.5460 2682.00 2713.23 52.00
6743 42.5520 2631.00 2719.13 51.00
6744 42.5580 2634.00 2722.05 51.00
6745 42.5640 2629.00 2724.33 51.00
6746 42.5700 2690.00 2729.40 52.00
6747 42.5760 2737.00 2740.54 52.00
6748 42.5820 2671.00 2759.87 52.00
6749 42.5880 2689.00 2787.97 52.00
6750 42.5940 2808.00 2823.78 53.00
6751 42.6000 2845.00 2864.49 53.00
6752 42.6060 2884.00 2905.73 54.00
6753 42.6120 2851.00 2941.84 53.00
6754 42.6180 2814.00 2966.89 53.00
6755 42.6240 2931.00 2973.84 54.00
6756 42.6300 2906.00 2960.16 54.00
6757 42.6360 2780.00 2926.71 53.00
6758 42.6420 2767.00 2878.67 53.00
6759 42.6480 2712.00 2823.80 52.00
6760 42.6540 2678.00 2768.81 52.00
6761 42.6600 2629.00 2718.54 51.00
6762 42.6660 2624.00 2675.87 51.00
6763 42.6720 2607.00 2642.00 51.00
6764 42.6780 2515.00 2617.72 50.00
6765 42.6840 2504.00 2602.48 50.00
6766 42.6900 2614.00 2595.26 51.00
6767 42.6960 2766.00 2594.96 53.00
6768 42.7020 2697.00 2599.54 52.00
6769 42.7080 2549.00 2606.50 50.00
6770 42.7140 2550.00 2612.91 50.00
6771 42.7200 2603.00 2615.76 51.00
6772 42.7260 2583.00 2613.36 51.00
6773 42.7320 2559.00 2605.90 51.00
6774 42.7380 2639.00 2595.21 51.00
6775 42.7440 2582.00 2583.73 51.00
6776 42.7500 2619.00 2573.28 51.00
6777 42.7560 2635.00 2565.46 51.00
6778 42.7620 2565.00 2560.46 51.00
6779 42.7680 2587.00 2557.93 51.00
6780 42.7740 2519.00 2556.80 50.00
6781 42.7800 2531.00 2555.53 50.00
6782 42.7860 2504.00 2552.60 50.00
6783 42.7920 2540.00 2547.21 50.00
6784 42.7980 2583.00 2539.69 51.00
6785 42.8040 2509.00 2531.21 50.00
6786 42.8100 2470.00 2523.20 50.00
6787 42.8160 2545.00 2516.88 50.00
6788 42.8220 2557.00 2513.32 51.00
6789 42.8280 2548.00 2512.89 50.00
6790 42.8340 2500.00 2516.24 50.00
6791 42.8400 2501.00 2523.77 50.00
6792 42.8460 2616.00 2535.77 51.00
6793 42.8520 2575.00 2552.46 51.00
6794 42.8580 2623.00 2573.89 51.00
6795 42.8640 2734.00 2599.91 52.00
6796 42.8700 2633.00 2630.20 51.00
6797 42.8760 2641.00 2663.51 51.00
6798 42.8820 2669.00 2698.23 52.00
6799 42.8880 2677.00 2732.43 52.00
6800 42.8940 2809.00 2764.69 53.00
6801 42.9000 2927.00 2795.24 54.00
6802 42.9060 2882.00 2826.04 54.00
6803 42.9120 3004.00 2859.80 55.00
6804 42.9180 2982.00 2898.50 55.00
6805 42.9240 2983.00 2942.25 55.00
6806 42.9300 2857.00 2988.69 53.00
6807 42.9360 2894.00 3033.04 54.00
6808 42.9420 2889.00 3067.63 54.00
6809 42.9480 2964.00 3086.24 54.00
6810 42.9540 2973.00 3085.93 55.00
6811 42.9600 2922.00 3069.11 54.00
6812 42.9660 2828.00 3042.00 53.00
6813 42.9720 2936.00 3011.71 54.00
6814 42.9780 2960.00 2984.38 54.00
6815 42.9840 2980.00 2964.84 55.00
6816 42.9900 3014.00 2956.82 55.00
6817 42.9960 3085.00 2963.96 56.00
6818 43.0020 3008.00 2989.51 55.00
6819 43.0080 3063.00 3036.21 55.00
6820 43.0140 3240.00 3102.76 57.00
6821 43.0200 3422.00 3188.60 58.00
6822 43.0260 3497.00 3289.64 59.00
6823 43.0320 3623.00 3398.99 60.00
6824 43.0380 3632.00 3506.69 60.00
6825 43.0440 3738.00 3602.96 61.00
6826 43.0500 3905.00 3677.73 62.00
6827 43.0560 3812.00 3723.98 62.00
6828 43.0620 3768.00 3737.62 61.00
6829 43.0680 3848.00 3717.72 62.00
6830 43.0740 3906.00 3666.49 62.00
6831 43.0800 3839.00 3588.10 62.00
6832 43.0860 3655.00 3489.19 60.00
6833 43.0920 3426.00 3379.24 59.00
6834 43.0980 3368.00 3267.95 58.00
6835 43.1040 3228.00 3163.90 57.00
6836 43.1100 3103.00 3071.15 56.00
6837 43.1160 2993.00 2991.59 55.00
6838 43.1220 3097.00 2923.84 56.00
6839 43.1280 3019.00 2865.46 55.00
6840 43.1340 2931.00 2813.41 54.00
6841 43.1400 2818.00 2767.44 53.00
6842 43.1460 2869.00 2727.13 54.00
6843 43.1520 2966.00 2693.02 54.00
6844 43.1580 2858.00 2665.28 53.00
6845 43.1640 2894.00 2644.17 54.00
6846 43.1700 2780.00 2629.81 53.00
6847 43.1760 2831.00 2620.74 53.00
6848 43.1820 2872.00 2616.22 54.00
6849 43.1880 2929.00 2614.24 54.00
6850 43.1940 2770.00 2613.07 53.00
6851 43.2000 2804.00 2609.79 53.00
6852 43.2060 2716.00 2601.76 52.00
6853 43.2120 2861.00 2588.45 53.00
6854 43.2180 2792.00 2571.56 53.00
6855 43.2240 2771.00 2552.25 53.00
6856 43.2300 2679.00 2532.47 52.00
6857 43.2360 2604.00 2514.39 51.00
6858 43.2420 2581.00 2497.45 51.00
6859 43.2480 2465.00 2482.83 50.00
6860 43.2540 2560.00 2470.68 51.00
6861 43.2600 2502.00 2460.96 50.00
6862 43.2660 2526.00 2453.46 50.00
6863 43.2720 2453.00 2447.89 50.00
6864 43.2780 2438.00 2443.87 49.00
6865 43.2840 2438.00 2440.96 49.00
6866 43.2900 2407.00 2438.49 49.00
6867 43.2960 2469.00 2436.06 50.00
6868 43.3020 2510.00 2433.42 50.00
6869 43.3080 2430.00 2430.81 49.00
6870 43.3140 2378.00 2427.91 49.00
6871 43.3200 2421.00 2426.02 49.00
6872 43.3260 2447.00 2423.37 49.00
6873 43.3320 2525.00 2421.49 50.00
6874 43.3380 2416.00 2420.14 49.00
6875 43.3440 2453.00 2419.65 50.00
6876 43.3500 2490.00 2420.13 50.00
6877 43.3560 2469.00 2421.66 50.00
6878 43.3620 2484.00 2424.31 50.00
6879 43.3680 2478.00 2427.87 50.00
6880 43.3740 2526.00 2432.81 50.00
6881 43.3800 2478.00 2438.80 50.00
6882 43.3860 2499.00 2445.65 50.00
6883 43.3920 2472.00 2452.97 50.00
6884 43.3980 2484.00 2460.21 50.00
6885 43.4040 2407.00 2466.68 49.00
6886 43.4100 2464.00 2471.82 50.00
6887 43.4160 2498.00 2475.52 50.00
6888 43.4220 2506.00 2478.22 50.00
6889 43.4280 2478.00 2480.68 50.00
6890 43.4340 2487.00 2483.58 50.00
6891 43.4400 2599.00 2487.28 51.00
6892 43.4460 2448.00 2491.71 49.00
6893 43.4520 2475.00 2496.37 50.00
6894 43.4580 2539.00 2500.59 50.00
6895 43.4640 2511.00 2503.85 50.00
6896 43.4700 2576.00 2506.20 51.00
6897 43.4760 2576.00 2507.87 51.00
6898 43.4820 2616.00 2511.77 51.00
6899 43.4880 2577.00 2516.49 51.00
6900 43.4940 2606.00 2523.63 51.00
6901 43.5000 2601.00 2533.51 51.00
6902 43.5060 2583.00 2545.86 51.00
6903 43.5120 2571.00 2559.97 51.00
6904 43.5180 2606.00 2574.63 51.00
6905 43.5240 2755.00 2588.54 52.00
6906 43.5300 2618.00 2600.98 51.00
6907 43.5360 2771.00 2611.28 53.00
6908 43.5420 2736.00 2623.07 52.00
6909 43.5480 2827.00 2637.57 53.00
6910 43.5540 2792.00 2656.09 53.00
6911 43.5600 2769.00 2679.25 53.00
6912 43.5660 2630.00 2706.29 51.00
6913 43.5720 2829.00 2736.22 53.00
6914 43.5780 2821.00 2766.15 53.00
6915 43.5840 2856.00 2793.05 53.00
6916 43.5900 2872.00 2812.30 54.00
6917 43.5960 2732.00 2819.18 52.00
6918 43.6020 2800.00 2811.63 53.00
6919 43.6080 2812.00 2790.73 53.00
6920 43.6140 2672.00 2760.72 52.00
6921 43.6200 2776.00 2727.00 53.00
6922 43.6260 2688.00 2694.33 52.00
6923 43.6320 2772.00 2665.03 53.00
6924 43.6380 2727.00 2643.21 52.00
6925 43.6440 2772.00 2628.72 53.00
6926 43.6500 2830.00 2620.27 53.00
6927 43.6560 2862.00 2620.02 53.00
6928 43.6620 2835.00 2625.52 53.00
6929 43.6680 2833.00 2634.27 53.00
6930 43.6740 2875.00 2647.53 54.00
6931 43.6800 2976.00 2662.14 55.00
6932 43.6860 2939.00 2676.50 54.00
6933 43.6920 2902.00 2688.91 54.00
6934 43.6980 2907.00 2697.17 54.00
6935 43.7040 3026.00 2701.70 55.00
6936 43.7100 2938.00 2702.93 54.00
6937 43.7160 2966.00 2702.66 54.00
6938 43.7220 2940.00 2703.45 54.00
6939 43.7280 2873.00 2705.87 54.00
6940 43.7340 2930.00 2709.86 54.00
6941 43.7400 2831.00 2714.49 53.00
6942 43.7460 2914.00 2718.50 54.00
6943 43.7520 2857.00 2720.89 53.00
6944 43.7580 2862.00 2720.15 53.00
6945 43.7640 2791.00 2716.33 53.00
6946 43.7700 2873.00 2710.32 54.00
6947 43.7760 2896.00 2704.15 54.00
6948 43.7820 2917.00 2700.39 54.00
6949 43.7880 2919.00 2701.45 54.00
6950 43.7940 2790.00 2707.96 53.00
6951 43.8000 2692.00 2721.10 52.00
6952 43.8060 2896.00 2739.62 54.00
6953 43.8120 2830.00 2761.37 53.00
6954 43.8180 2806.00 2783.03 53.00
6955 43.8240 2804.00 2800.75 53.00
6956 43.8300 2754.00 2811.67 52.00
6957 43.8360 2718.00 2815.67 52.00
6958 43.8420 2836.00 2815.86 53.00
6959 43.8480 2863.00 2817.20 54.00
6960 43.8540 2955.00 2824.81 54.00
6961 43.8600 2938.00 2842.67 54.00
6962 43.8660 2899.00 2873.30 54.00
6963 43.8720 3040.00 2917.69 55.00
6964 43.8780 3055.00 2974.88 55.00
6965 43.8840 2976.00 3042.13 55.00
6966 43.8900 3075.00 3113.91 55.00
6967 43.8960 2954.00 3182.11 54.00
6968 43.9020 3050.00 3236.52 55.00
6969 43.9080 3005.00 3267.71 55.00
6970 43.9140 3002.00 3267.53 55.00
6971 43.9200 2951.00 3235.13 54.00
6972 43.9260 2884.00 3175.06 54.00
6973 43.9320 2851.00 3096.10 53.00
6974 43.9380 2798.00 3008.12 53.00
6975 43.9440 2829.00 2919.52 53.00
6976 43.9500 2789.00 2836.30 53.00
6977 43.9560 2661.00 2761.83 52.00
6978 43.9620 2730.00 2697.80 52.00
6979 43.9680 2618.00 2644.61 51.00
6980 43.9740 2572.00 2601.80 51.00
6981 43.9800 2572.00 2568.52 51.00
6982 43.9860 2613.00 2543.74 51.00
6983 43.9920 2621.00 2526.46 51.00
6984 43.9980 2618.00 2515.83 51.00
6985 44.0040 2652.00 2511.11 51.00
6986 44.0100 2625.00 2512.21 51.00
6987 44.0160 2538.00 2518.91 50.00
6988 44.0220 2536.00 2531.24 50.00
6989 44.0280 2728.00 2549.31 52.00
6990 44.0340 2587.00 2573.33 51.00
6991 44.0400 2628.00 2602.72 51.00
6992 44.0460 2616.00 2636.96 51.00
6993 44.0520 2619.00 2674.62 51.00
6994 44.0580 2628.00 2713.08 51.00
6995 44.0640 2616.00 2748.58 51.00
6996 44.0700 2650.00 2775.89 51.00
6997 44.0760 2637.00 2789.76 51.00
6998 44.0820 2663.00 2787.24 52.00
6999 44.0880 2641.00 2769.20 51.00
7000 44.0940 2711.00 2739.99 52.00
7001 44.1000 2627.00 2705.34 51.00
7002 44.1060 2645.00 2670.50 51.00
7003 44.1120 2587.00 2638.90 51.00
7004 44.1180 2568.00 2613.15 51.00
7005 44.1240 2563.00 2594.45 51.00
7006 44.1300 2633.00 2584.36 51.00
7007 44.1360 2530.00 2582.42 50.00
7008 44.1420 2610.00 2588.59 51.00
7009 44.1480 2647.00 2602.20 51.00
7010 44.1540 2594.00 2622.02 51.00
7011 44.1600 2555.00 2646.16 51.00
7012 44.1660 2593.00 2671.87 51.00
7013 44.1720 2620.00 2695.41 51.00
7014 44.1780 2682.00 2712.93 52.00
7015 44.1840 2595.00 2720.68 51.00
7016 44.1900 2673.00 2716.59 52.00
7017 44.1960 2649.00 2700.74 51.00
7018 44.2020 2591.00 2678.23 51.00
7019 44.2080 2607.00 2652.33 51.00
7020 44.2140 2521.00 2627.11 50.00
7021 44.2200 2550.00 2605.61 50.00
7022 44.2260 2552.00 2589.91 51.00
7023 44.2320 2605.00 2581.34 51.00
7024 44.2380 2588.00 2580.62 51.00
7025 44.2440 2628.00 2588.06 51.00
7026 44.2500 2660.00 2603.49 52.00
7027 44.2560 2680.00 2626.23 52.00
7028 44.2620 2747.00 2654.82 52.00
7029 44.2680 2765.00 2687.55 53.00
7030 44.2740 2680.00 2721.03 52.00
7031 44.2800 2872.00 2752.05 54.00
7032 44.2860 2967.00 2777.23 54.00
7033 44.2920 2917.00 2793.73 54.00
7034 44.2980 2983.00 2799.56 55.00
7035 44.3040 2942.00 2794.36 54.00
7036 44.3100 2807.00 2779.31 53.00
7037 44.3160 2699.00 2757.12 52.00
7038 44.3220 2797.00 2731.53 53.00
7039 44.3280 2736.00 2706.07 52.00
7040 44.3340 2612.00 2683.13 51.00
7041 44.3400 2541.00 2663.38 50.00
7042 44.3460 2492.00 2646.78 50.00
7043 44.3520 2506.00 2631.78 50.00
7044 44.3580 2541.00 2617.01 50.00
7045 44.3640 2476.00 2601.41 50.00
7046 44.3700 2424.00 2585.72 49.00
7047 44.3760 2460.00 2569.90 50.00
7048 44.3820 2407.00 2554.24 49.00
7049 44.3880 2436.00 2538.00 49.00
7050 44.3940 2473.00 2521.30 50.00
7051 44.4000 2410.00 2504.46 49.00
7052 44.4060 2373.00 2488.26 49.00
7053 44.4120 2434.00 2473.54 49.00
7054 44.4180 2476.00 2461.08 50.00
7055 44.4240 2425.00 2451.37 49.00
7056 44.4300 2372.00 2444.00 49.00
7057 44.4360 2427.00 2440.65 49.00
7058 44.4420 2431.00 2440.69 49.00
7059 44.4480 2426.00 2444.20 49.00
7060 44.4540 2420.00 2451.18 49.00
7061 44.4600 2466.00 2461.52 50.00
7062 44.4660 2418.00 2474.98 49.00
7063 44.4720 2441.00 2491.17 49.00
7064 44.4780 2482.00 2509.64 50.00
7065 44.4840 2507.00 2529.85 50.00
7066 44.4900 2471.00 2551.23 50.00
7067 44.4960 2541.00 2572.07 50.00
7068 44.5020 2621.00 2589.83 51.00
7069 44.5080 2596.00 2602.72 51.00
7070 44.5140 2508.00 2607.22 50.00
7071 44.5200 2527.00 2601.29 50.00
7072 44.5260 2505.00 2587.88 50.00
7073 44.5320 2501.00 2568.18 50.00
7074 44.5380 2562.00 2545.63 51.00
7075 44.5440 2534.00 2522.26 50.00
7076 44.5500 2491.00 2499.41 50.00
7077 44.5560 2472.00 2478.82 50.00
7078 44.5620 2407.00 2460.21 49.00
7079 44.5680 2402.00 2443.83 49.00
7080 44.5740 2364.00 2430.34 49.00
7081 44.5800 2336.00 2419.86 48.00
7082 44.5860 2400.00 2412.53 49.00
7083 44.5920 2391.00 2408.16 49.00
7084 44.5980 2425.00 2406.76 49.00
7085 44.6040 2434.00 2407.50 49.00
7086 44.6100 2430.00 2410.35 49.00
7087 44.6160 2506.00 2414.90 50.00
7088 44.6220 2483.00 2420.95 50.00
7089 44.6280 2536.00 2427.06 50.00
7090 44.6340 2440.00 2432.65 49.00
7091 44.6400 2385.00 2436.78 49.00
7092 44.6460 2482.00 2438.82 50.00
7093 44.6520 2500.00 2438.85 50.00
7094 44.6580 2484.00 2437.64 50.00
7095 44.6640 2477.00 2436.32 50.00
7096 44.6700 2424.00 2435.96 49.00
7097 44.6760 2486.00 2437.40 50.00
7098 44.6820 2458.00 2440.15 50.00
7099 44.6880 2449.00 2446.30 49.00
7100 44.6940 2535.00 2454.69 50.00
7101 44.7000 2513.00 2465.32 50.00
7102 44.7060 2434.00 2476.04 49.00
7103 44.7120 2457.00 2486.12 50.00
7104 44.7180 2507.00 2494.26 50.00
7105 44.7240 2524.00 2499.47 50.00
7106 44.7300 2490.00 2501.24 50.00
7107 44.7360 2384.00 2499.46 49.00
7108 44.7420 2351.00 2494.63 48.00
7109 44.7480 2399.00 2487.72 49.00
7110 44.7540 2422.00 2480.04 49.00
7111 44.7600 2433.00 2473.16 49.00
7112 44.7660 2381.00 2467.27 49.00
7113 44.7720 2430.00 2463.03 49.00
7114 44.7780 2388.00 2460.15 49.00
7115 44.7840 2359.00 2458.43 49.00
7116 44.7900 2415.00 2456.37 49.00
7117 44.7960 2404.00 2453.83 49.00
7118 44.8020 2374.00 2450.95 49.00
7119 44.8080 2417.00 2447.43 49.00
7120 44.8140 2409.00 2443.74 49.00
7121 44.8200 2339.00 2440.52 48.00
7122 44.8260 2303.00 2438.54 48.00
7123 44.8320 2358.00 2438.53 49.00
7124 44.8380 2365.00 2441.63 49.00
7125 44.8440 2417.00 2447.17 49.00
7126 44.8500 2433.00 2455.82 49.00
7127 44.8560 2393.00 2467.46 49.00
7128 44.8620 2382.00 2481.60 49.00
7129 44.8680 2406.00 2497.34 49.00
7130 44.8740 2433.00 2513.36 49.00
7131 44.8800 2464.00 2528.10 50.00
7132 44.8860 2483.00 2539.77 50.00
7133 44.8920 2516.00 2547.50 50.00
7134 44.8980 2527.00 2549.75 50.00
7135 44.9040 2512.00 2546.55 50.00
7136 44.9100 2431.00 2537.43 49.00
7137 44.9160 2410.00 2524.40 49.00
7138 44.9220 2410.00 2509.26 49.00
7139 44.9280 2408.00 2493.98 49.00
7140 44.9340 2416.00 2480.25 49.00
7141 44.9400 2399.00 2469.20 49.00
7142 44.9460 2401.00 2461.40 49.00
7143 44.9520 2413.00 2457.12 49.00
7144 44.9580 2457.00 2456.28 50.00
7145 44.9640 2463.00 2458.24 50.00
7146 44.9700 2395.00 2463.20 49.00
7147 44.9760 2406.00 2469.31 49.00
7148 44.9820 2443.00 2475.49 49.00
7149 44.9880 2407.00 2480.19 49.00
7150 44.9940 2386.00 2482.05 49.00
7151 45.0000 2352.00 2480.28 48.00
7152 45.0060 2364.00 2475.62 49.00
7153 45.0120 2387.00 2469.08 49.00
7154 45.0180 2335.00 2462.05 48.00
7155 45.0240 2344.00 2455.77 48.00
7156 45.0300 2431.00 2451.14 49.00
7157 45.0360 2419.00 2448.86 49.00
7158 45.0420 2422.00 2449.43 49.00
7159 45.0480 2408.00 2453.24 49.00
7160 45.0540 2372.00 2460.62 49.00
7161 45.0600 2454.00 2471.80 50.00
7162 45.0660 2485.00 2487.21 50.00
7163 45.0720 2468.00 2507.11 50.00
7164 45.0780 2459.00 2531.80 50.00
7165 45.0840 2508.00 2561.17 50.00
7166 45.0900 2561.00 2595.27 51.00
7167 45.0960 2575.00 2633.56 51.00
7168 45.1020 2592.00 2675.47 51.00
7169 45.1080 2631.00 2720.28 51.00
7170 45.1140 2675.00 2767.77 52.00
7171 45.1200 2738.00 2817.99 52.00
7172 45.1260 2790.00 2870.57 53.00
7173 45.1320 2794.00 2925.21 53.00
7174 45.1380 2874.00 2979.50 54.00
7175 45.1440 2869.00 3029.86 54.00
7176 45.1500 2892.00 3072.15 54.00
7177 45.1560 2951.00 3102.62 54.00
7178 45.1620 2916.00 3118.71 54.00
7179 45.1680 2991.00 3119.08 55.00
7180 45.1740 3028.00 3103.79 55.00
7181 45.1800 2981.00 3074.67 55.00
7182 45.1860 2976.00 3035.58 55.00
7183 45.1920 2947.00 2991.81 54.00
7184 45.1980 2849.00 2948.22 53.00
7185 45.2040 2878.00 2907.92 54.00
7186 45.2100 2820.00 2871.82 53.00
7187 45.2160 2790.00 2839.23 53.00
7188 45.2220 2806.00 2808.68 53.00
7189 45.2280 2799.00 2778.69 53.00
7190 45.2340 2749.00 2748.30 52.00
7191 45.2400 2701.00 2717.31 52.00
7192 45.2460 2677.00 2686.64 52.00
7193 45.2520 2646.00 2657.90 51.00
7194 45.2580 2556.00 2632.65 51.00
7195 45.2640 2567.00 2612.96 51.00
7196 45.2700 2543.00 2599.66 50.00
7197 45.2760 2554.00 2593.22 51.00
7198 45.2820 2584.00 2593.59 51.00
7199 45.2880 2600.00 2600.25 51.00
7200 45.2940 2549.00 2612.24 50.00
7201 45.3000 2521.00 2627.60 50.00
7202 45.3060 2609.00 2643.91 51.00
7203 45.3120 2635.00 2658.08 51.00
7204 45.3180 2613.00 2667.15 51.00
7205 45.3240 2580.00 2669.51 51.00
7206 45.3300 2578.00 2665.28 51.00
7207 45.3360 2604.00 2657.42 51.00
7208 45.3420 2674.00 2647.87 52.00
7209 45.3480 2708.00 2638.93 52.00
7210 45.3540 2667.00 2632.04 52.00
7211 45.3600 2579.00 2628.18 51.00
7212 45.3660 2658.00 2626.99 52.00
7213 45.3720 2611.00 2626.90 51.00
7214 45.3780 2621.00 2626.70 51.00
7215 45.3840 2636.00 2625.14 51.00
7216 45.3900 2633.00 2621.67 51.00
7217 45.3960 2609.00 2616.60 51.00
7218 45.4020 2660.00 2610.65 52.00
7219 45.4080 2682.00 2604.55 52.00
7220 45.4140 2677.00 2599.35 52.00
7221 45.4200 2630.00 2595.78 51.00
7222 45.4260 2620.00 2594.43 51.00
7223 45.4320 2749.00 2595.83 52.00
7224 45.4380 2806.00 2598.91 53.00
7225 45.4440 2850.00 2602.39 53.00
7226 45.4500 2772.00 2603.96 53.00
7227 45.4560 2731.00 2600.92 52.00
7228 45.4620 2774.00 2591.43 53.00
7229 45.4680 2705.00 2575.29 52.00
7230 45.4740 2611.00 2554.18 51.00
7231 45.4800 2559.00 2530.08 51.00
7232 45.4860 2472.00 2505.51 50.00
7233 45.4920 2415.00 2482.23 49.00
7234 45.4980 2488.00 2461.16 50.00
7235 45.5040 2481.00 2443.29 50.00
7236 45.5100 2427.00 2428.76 49.00
7237 45.5160 2392.00 2417.63 49.00
7238 45.5220 2378.00 2409.78 49.00
7239 45.5280 2385.00 2405.28 49.00
7240 45.5340 2428.00 2403.83 49.00
7241 45.5400 2395.00 2405.20 49.00
7242 45.5460 2390.00 2409.05 49.00
7243 45.5520 2382.00 2415.00 49.00
7244 45.5580 2412.00 2422.56 49.00
7245 45.5640 2433.00 2431.10 49.00
7246 45.5700 2435.00 2439.89 49.00
7247 45.5760 2385.00 2447.98 49.00
7248 45.5820 2333.00 2454.22 48.00
7249 45.5880 2331.00 2457.37 48.00
7250 45.5940 2356.00 2456.46 49.00
7251 45.6000 2363.00 2451.28 49.00
7252 45.6060 2341.00 2442.57 48.00
7253 45.6120 2383.00 2431.40 49.00
7254 45.6180 2350.00 2419.68 48.00
7255 45.6240 2371.00 2408.27 49.00
7256 45.6300 2394.00 2397.96 49.00
7257 45.6360 2410.00 2389.21 49.00
7258 45.6420 2275.00 2382.30 48.00
7259 45.6480 2348.00 2377.34 48.00
7260 45.6540 2378.00 2374.41 49.00
7261 45.6600 2308.00 2373.74 48.00
7262 45.6660 2420.00 2374.85 49.00
7263 45.6720 2355.00 2377.94 49.00
7264 45.6780 2409.00 2382.93 49.00
7265 45.6840 2379.00 2389.71 49.00
7266 45.6900 2377.00 2398.12 49.00
7267 45.6960 2334.00 2407.90 48.00
7268 45.7020 2410.00 2418.80 49.00
7269 45.7080 2335.00 2430.55 48.00
7270 45.7140 2492.00 2442.90 50.00
7271 45.7200 2473.00 2455.45 50.00
7272 45.7260 2459.00 2467.45 50.00
7273 45.7320 2420.00 2479.23 49.00
7274 45.7380 2502.00 2487.80 50.00
7275 45.7440 2470.00 2493.10 50.00
7276 45.7500 2409.00 2494.57 49.00
7277 45.7560 2416.00 2490.81 49.00
7278 45.7620 2582.00 2483.11 51.00
7279 45.7680 2463.00 2472.55 50.00
7280 45.7740 2511.00 2461.80 50.00
7281 45.7800 2367.00 2450.37 49.00
7282 45.7860 2363.00 2439.96 49.00
7283 45.7920 2437.00 2430.55 49.00
7284 45.7980 2311.00 2421.27 48.00
7285 45.8040 2382.00 2413.99 49.00
7286 45.8100 2409.00 2407.88 49.00
7287 45.8160 2396.00 2403.10 49.00
7288 45.8220 2492.00 2399.88 50.00
7289 45.8280 2395.00 2398.42 49.00
7290 45.8340 2448.00 2398.88 49.00
7291 45.8400 2390.00 2401.00 49.00
7292 45.8460 2491.00 2405.27 50.00
7293 45.8520 2439.00 2411.17 49.00
7294 45.8580 2481.00 2417.95 50.00
7295 45.8640 2552.00 2425.90 51.00
7296 45.8700 2490.00 2434.01 50.00
7297 45.8760 2510.00 2441.74 50.00
7298 45.8820 2524.00 2448.96 50.00
7299 45.8880 2539.00 2455.98 50.00
7300 45.8940 2522.00 2463.51 50.00
7301 45.9000 2567.00 2472.93 51.00
7302 45.9060 2607.00 2484.02 51.00
7303 45.9120 2604.00 2497.73 51.00
7304 45.9180 2541.00 2514.25 50.00
7305 45.9240 2601.00 2533.95 51.00
7306 45.9300 2570.00 2556.11 51.00
7307 45.9360 2592.00 2581.42 51.00
7308 45.9420 2707.00 2607.93 52.00
7309 45.9480 2790.00 2636.02 53.00
7310 45.9540 2823.00 2662.94 53.00
7311 45.9600 2946.00 2686.33 54.00
7312 45.9660 2905.00 2702.80 54.00
7313 45.9720 2894.00 2711.64 54.00
7314 45.9780 2680.00 2710.85 52.00
7315 45.9840 2794.00 2702.02 53.00
7316 45.9900 2779.00 2687.04 53.00
7317 45.9960 2695.00 2665.95 52.00
7318 46.0020 2703.00 2641.05 52.00
7319 46.0080 2629.00 2614.20 51.00
7320 46.0140 2597.00 2588.46 51.00
7321 46.0200 2515.00 2565.37 50.00
7322 46.0260 2544.00 2547.39 50.00
7323 46.0320 2548.00 2533.61 50.00
7324 46.0380 2562.00 2524.68 51.00
7325 46.0440 2558.00 2520.26 51.00
7326 46.0500 2503.00 2519.45 50.00
7327 46.0560 2542.00 2522.05 50.00
7328 46.0620 2580.00 2524.54 51.00
7329 46.0680 2651.00 2526.32 51.00
7330 46.0740 2531.00 2527.15 50.00
7331 46.0800 2587.00 2527.05 51.00
7332 46.0860 2480.00 2525.77 50.00
7333 46.0920 2546.00 2524.47 50.00
7334 46.0980 2664.00 2522.80 52.00
7335 46.1040 2595.00 2519.77 51.00
7336 46.1100 2521.00 2515.68 50.00
7337 46.1160 2613.00 2510.96 51.00
7338 46.1220 2634.00 2506.26 51.00
7339 46.1280 2541.00 2502.17 50.00
7340 46.1340 2574.00 2498.82 51.00
7341 46.1400 2547.00 2495.76 50.00
7342 46.1460 2575.00 2492.28 51.00
7343 46.1520 2476.00 2486.94 50.00
7344 46.1580 2517.00 2479.36 50.00
7345 46.1640 2559.00 2469.61 51.00
7346 46.1700 2498.00 2458.39 50.00
7347 46.1760 2474.00 2446.61 50.00
7348 46.1820 2493.00 2435.15 50.00
7349 46.1880 2498.00 2424.88 50.00
7350 46.1940 2454.00 2415.94 50.00
7351 46.2000 2434.00 2408.59 49.00
7352 46.2060 2394.00 2403.10 49.00
7353 46.2120 2403.00 2399.54 49.00
7354 46.2180 2452.00 2397.93 50.00
7355 46.2240 2415.00 2398.02 49.00
7356 46.2300 2483.00 2400.37 50.00
7357 46.2360 2454.00 2404.73 50.00
7358 46.2420 2437.00 2411.12 49.00
7359 46.2480 2444.00 2419.93 49.00
7360 46.2540 2520.00 2430.44 50.00
7361 46.2600 2497.00 2442.97 50.00
7362 46.2660 2484.00 2457.43 50.00
7363 46.2720 2493.00 2473.84 50.00
7364 46.2780 2462.00 2491.30 50.00
7365 46.2840 2507.00 2509.47 50.00
7366 46.2900 2514.00 2527.73 50.00
7367 46.2960 2644.00 2545.80 51.00
7368 46.3020 2667.00 2564.10 52.00
7369 46.3080 2664.00 2583.97 52.00
7370 46.3140 2728.00 2607.30 52.00
7371 46.3200 2758.00 2636.00 53.00
7372 46.3260 2845.00 2671.65 53.00
7373 46.3320 3018.00 2715.15 55.00
7374 46.3380 2944.00 2766.71 54.00
7375 46.3440 2986.00 2825.31 55.00
7376 46.3500 3054.00 2888.61 55.00
7377 46.3560 3083.00 2952.77 56.00
7378 46.3620 3169.00 3012.85 56.00
7379 46.3680 3139.00 3063.57 56.00
7380 46.3740 3146.00 3100.84 56.00
7381 46.3800 3147.00 3122.23 56.00
7382 46.3860 3223.00 3128.14 57.00
7383 46.3920 3240.00 3119.05 57.00
7384 46.3980 3156.00 3095.98 56.00
7385 46.4040 3081.00 3059.84 56.00
7386 46.4100 3073.00 3011.96 55.00
7387 46.4160 2992.00 2954.96 55.00
7388 46.4220 2986.00 2892.83 55.00
7389 46.4280 2805.00 2830.22 53.00
7390 46.4340 2663.00 2771.13 52.00
7391 46.4400 2732.00 2718.06 52.00
7392 46.4460 2635.00 2672.76 51.00
7393 46.4520 2761.00 2635.85 53.00
7394 46.4580 2596.00 2607.74 51.00
7395 46.4640 2582.00 2587.73 51.00
7396 46.4700 2506.00 2575.81 50.00
7397 46.4760 2677.00 2571.70 52.00
7398 46.4820 2640.00 2575.15 51.00
7399 46.4880 2630.00 2586.01 51.00
7400 46.4940 2649.00 2604.19 51.00
7401 46.5000 2602.00 2629.62 51.00
7402 46.5060 2678.00 2662.13 52.00
7403 46.5120 2647.00 2701.62 51.00
7404 46.5180 2795.00 2747.87 53.00
7405 46.5240 2779.00 2798.23 53.00
7406 46.5300 2801.00 2851.67 53.00
7407 46.5360 2798.00 2906.12 53.00
7408 46.5420 2881.00 2959.89 54.00
7409 46.5480 3035.00 3012.13 55.00
7410 46.5540 3019.00 3062.53 55.00
7411 46.5600 3102.00 3111.26 56.00
7412 46.5660 3254.00 3158.02 57.00
7413 46.5720 3147.00 3202.48 56.00
7414 46.5780 3210.00 3245.41 57.00
7415 46.5840 3197.00 3287.74 57.00
7416 46.5900 3247.00 3330.36 57.00
7417 46.5960 3237.00 3373.22 57.00
7418 46.6020 3260.00 3414.26 57.00
7419 46.6080 3461.00 3451.37 59.00
7420 46.6140 3308.00 3481.88 58.00
7421 46.6200 3405.00 3504.29 58.00
7422 46.6260 3295.00 3519.17 57.00
7423 46.6320 3403.00 3529.37 58.00
7424 46.6380 3466.00 3538.03 59.00
7425 46.6440 3623.00 3548.79 60.00
7426 46.6500 3717.00 3563.33 61.00
7427 46.6560 3696.00 3580.62 61.00
7428 46.6620 3834.00 3597.20 62.00
7429 46.6680 3790.00 3608.60 62.00
7430 46.6740 3806.00 3611.28 62.00
7431 46.6800 3764.00 3603.26 61.00
7432 46.6860 3825.00 3583.24 62.00
7433 46.6920 3673.00 3549.54 61.00
7434 46.6980 3660.00 3500.26 60.00
7435 46.7040 3402.00 3436.39 58.00
7436 46.7100 3306.00 3360.01 57.00
7437 46.7160 3178.00 3276.86 56.00
7438 46.7220 2989.00 3192.68 55.00
7439 46.7280 2947.00 3111.42 54.00
7440 46.7340 2907.00 3035.23 54.00
7441 46.7400 2795.00 2964.82 53.00
7442 46.7460 2731.00 2901.28 52.00
7443 46.7520 2716.00 2845.16 52.00
7444 46.7580 2637.00 2797.29 51.00
7445 46.7640 2621.00 2758.05 51.00
7446 46.7700 2661.00 2727.11 52.00
7447 46.7760 2659.00 2703.48 52.00
7448 46.7820 2629.00 2685.86 51.00
7449 46.7880 2686.00 2672.12 52.00
7450 46.7940 2501.00 2661.72 50.00
7451 46.8000 2557.00 2653.81 51.00
7452 46.8060 2509.00 2648.45 50.00
7453 46.8120 2602.00 2644.79 51.00
7454 46.8180 2520.00 2642.50 50.00
7455 46.8240 2529.00 2640.56 50.00
7456 46.8300 2483.00 2637.94 50.00
7457 46.8360 2464.00 2634.09 50.00
7458 46.8420 2591.00 2629.71 51.00
7459 46.8480 2502.00 2624.98 50.00
7460 46.8540 2567.00 2621.55 51.00
7461 46.8600 2547.00 2620.41 50.00
7462 46.8660 2558.00 2621.98 51.00
7463 46.8720 2614.00 2625.85 51.00
7464 46.8780 2578.00 2630.85 51.00
7465 46.8840 2596.00 2635.14 51.00
7466 46.8900 2637.00 2636.66 51.00
7467 46.8960 2669.00 2634.04 52.00
7468 46.9020 2573.00 2625.82 51.00
7469 46.9080 2531.00 2612.30 50.00
7470 46.9140 2452.00 2594.08 50.00
7471 46.9200 2507.00 2572.24 50.00
7472 46.9260 2541.00 2548.18 50.00
7473 46.9320 2363.00 2523.47 49.00
7474 46.9380 2473.00 2499.24 50.00
7475 46.9440 2439.00 2477.01 49.00
7476 46.9500 2348.00 2457.12 48.00
7477 46.9560 2422.00 2439.85 49.00
7478 46.9620 2422.00 2425.20 49.00
7479 46.9680 2426.00 2413.08 49.00
7480 46.9740 2316.00 2403.25 48.00
7481 46.9800 2269.00 2395.46 48.00
7482 46.9860 2336.00 2389.44 48.00
7483 46.9920 2269.00 2384.97 48.00
7484 46.9980 2366.00 2381.82 49.00
7485 47.0040 2328.00 2379.84 48.00
7486 47.0100 2318.00 2378.14 48.00
7487 47.0160 2280.00 2378.27 48.00
7488 47.0220 2273.00 2378.88 48.00
7489 47.0280 2276.00 2381.16 48.00
7490 47.0340 2281.00 2384.59 48.00
7491 47.0400 2275.00 2389.37 48.00
7492 47.0460 2338.00 2394.87 48.00
7493 47.0520 2385.00 2402.94 49.00
7494 47.0580 2365.00 2413.12 49.00
7495 47.0640 2314.00 2425.25 48.00
7496 47.0700 2417.00 2439.66 49.00
7497 47.0760 2466.00 2457.00 50.00
7498 47.0820 2529.00 2476.02 50.00
7499 47.0880 2491.00 2497.00 50.00
7500 47.0940 2633.00 2519.35 51.00
7501 47.1000 2633.00 2542.31 51.00
7502 47.1060 2644.00 2565.24 51.00
7503 47.1120 2676.00 2587.94 52.00
7504 47.1180 2661.00 2610.89 52.00
7505 47.1240 2597.00 2634.97 51.00
7506 47.1300 2625.00 2660.84 51.00
7507 47.1360 2661.00 2688.48 52.00
7508 47.1420 2757.00 2716.56 53.00
7509 47.1480 2788.00 2743.23 53.00
7510 47.1540 2823.00 2763.67 53.00
7511 47.1600 2775.00 2774.82 53.00
7512 47.1660 2704.00 2774.97 52.00
7513 47.1720 2682.00 2763.18 52.00
7514 47.1780 2604.00 2742.64 51.00
7515 47.1840 2569.00 2716.71 51.00
7516 47.1900 2548.00 2689.84 50.00
7517 47.1960 2515.00 2664.09 50.00
7518 47.2020 2509.00 2641.01 50.00
7519 47.2080 2535.00 2620.40 50.00
7520 47.2140 2492.00 2603.01 50.00
7521 47.2200 2493.00 2588.28 50.00
7522 47.2260 2466.00 2577.45 50.00
7523 47.2320 2451.00 2570.54 50.00
7524 47.2380 2455.00 2567.91 50.00
7525 47.2440 2427.00 2569.29 49.00
7526 47.2500 2526.00 2575.00 50.00
7527 47.2560 2496.00 2583.12 50.00
7528 47.2620 2505.00 2593.84 50.00
7529 47.2680 2574.00 2604.39 51.00
7530 47.2740 2598.00 2612.01 51.00
7531 47.2800 2605.00 2615.24 51.00
7532 47.2860 2512.00 2613.23 50.00
7533 47.2920 2503.00 2606.23 50.00
7534 47.2980 2483.00 2596.03 50.00
7535 47.3040 2449.00 2584.70 49.00
7536 47.3100 2511.00 2573.41 50.00
7537 47.3160 2457.00 2565.00 50.00
7538 47.3220 2459.00 2559.43 50.00
7539 47.3280 2470.00 2556.56 50.00
7540 47.3340 2483.00 2555.77 50.00
7541 47.3400 2466.00 2555.56 50.00
7542 47.3460 2424.00 2554.07 49.00
7543 47.3520 2373.00 2551.05 49.00
7544 47.3580 2412.00 2544.94 49.00
7545 47.3640 2423.00 2535.81 49.00
7546 47.3700 2471.00 2524.84 50.00
7547 47.3760 2432.00 2513.71 49.00
7548 47.3820 2396.00 2503.62 49.00
7549 47.3880 2433.00 2496.52 49.00
7550 47.3940 2506.00 2492.87 50.00
7551 47.4000 2471.00 2493.13 50.00
7552 47.4060 2440.00 2497.45 49.00
7553 47.4120 2458.00 2505.68 50.00
7554 47.4180 2468.00 2517.32 50.00
7555 47.4240 2499.00 2531.52 50.00
7556 47.4300 2520.00 2547.16 50.00
7557 47.4360 2569.00 2562.77 51.00
7558 47.4420 2585.00 2577.69 51.00
7559 47.4480 2595.00 2590.82 51.00
7560 47.4540 2606.00 2601.53 51.00
7561 47.4600 2599.00 2609.57 51.00
7562 47.4660 2609.00 2614.79 51.00
7563 47.4720 2614.00 2617.55 51.00
7564 47.4780 2549.00 2617.90 50.00
7565 47.4840 2544.00 2616.00 50.00
7566 47.4900 2631.00 2611.47 51.00
7567 47.4960 2696.00 2603.94 52.00
7568 47.5020 2646.00 2593.63 51.00
7569 47.5080 2578.00 2581.75 51.00
7570 47.5140 2573.00 2569.77 51.00
7571 47.5200 2482.00 2558.93 50.00
7572 47.5260 2410.00 2549.81 49.00
7573 47.5320 2411.00 2542.24 49.00
7574 47.5380 2481.00 2534.98 50.00
7575 47.5440 2516.00 2527.49 50.00
7576 47.5500 2469.00 2518.10 50.00
7577 47.5560 2449.00 2506.12 49.00
7578 47.5620 2447.00 2491.57 49.00
7579 47.5680 2390.00 2475.66 49.00
7580 47.5740 2386.00 2459.37 49.00
7581 47.5800 2386.00 2443.69 49.00
7582 47.5860 2372.00 2429.34 49.00
7583 47.5920 2346.00 2416.79 48.00
7584 47.5980 2314.00 2406.10 48.00
7585 47.6040 2364.00 2397.58 49.00
7586 47.6100 2363.00 2390.98 49.00
7587 47.6160 2352.00 2386.25 48.00
7588 47.6220 2339.00 2383.60 48.00
7589 47.6280 2320.00 2382.99 48.00
7590 47.6340 2319.00 2384.39 48.00
7591 47.6400 2308.00 2387.33 48.00
7592 47.6460 2377.00 2392.36 49.00
7593 47.6520 2425.00 2400.08 49.00
7594 47.6580 2359.00 2409.96 49.00
7595 47.6640 2333.00 2422.65 48.00
7596 47.6700 2320.00 2438.68 48.00
7597 47.6760 2361.00 2457.74 49.00
7598 47.6820 2465.00 2480.16 50.00
7599 47.6880 2463.00 2505.82 50.00
7600 47.6940 2500.00 2534.29 50.00
7601 47.7000 2528.00 2564.77 50.00
7602 47.7060 2459.00 2595.96 50.00
7603 47.7120 2372.00 2626.23 49.00
7604 47.7180 2409.00 2653.60 49.00
7605 47.7240 2517.00 2676.22 50.00
7606 47.7300 2499.00 2692.46 50.00
7607 47.7360 2501.00 2701.68 50.00
7608 47.7420 2534.00 2704.74 50.00
7609 47.7480 2544.00 2703.98 50.00
7610 47.7540 2497.00 2702.59 50.00
7611 47.7600 2432.00 2703.41 49.00
7612 47.7660 2435.00 2709.46 49.00
7613 47.7720 2529.00 2721.51 50.00
7614 47.7780 2566.00 2739.75 51.00
7615 47.7840 2524.00 2763.37 50.00
7616 47.7900 2580.00 2789.85 51.00
7617 47.7960 2665.00 2816.10 52.00
7618 47.8020 2745.00 2838.33 52.00
7619 47.8080 2804.00 2853.12 53.00
7620 47.8140 2743.00 2857.90 52.00
7621 47.8200 2680.00 2851.51 52.00
7622 47.8260 2673.00 2835.96 52.00
7623 47.8320 2647.00 2812.67 51.00
7624 47.8380 2612.00 2784.53 51.00
7625 47.8440 2586.00 2754.28 51.00
7626 47.8500 2570.00 2723.79 51.00
7627 47.8560 2583.00 2693.69 51.00
7628 47.8620 2551.00 2663.69 51.00
7629 47.8680 2494.00 2633.36 50.00
7630 47.8740 2512.00 2602.77 50.00
7631 47.8800 2475.00 2572.36 50.00
7632 47.8860 2439.00 2543.12 49.00
7633 47.8920 2395.00 2516.10 49.00
7634 47.8980 2378.00 2492.14 49.00
7635 47.9040 2381.00 2471.71 49.00
7636 47.9100 2341.00 2455.02 48.00
7637 47.9160 2292.00 2442.12 48.00
7638 47.9220 2324.00 2432.83 48.00
7639 47.9280 2255.00 2427.00 47.00
7640 47.9340 2315.00 2424.09 48.00
7641 47.9400 2346.00 2424.34 48.00
7642 47.9460 2330.00 2427.33 48.00
7643 47.9520 2310.00 2432.43 48.00
7644 47.9580 2352.00 2439.59 48.00
7645 47.9640 2277.00 2446.75 48.00
7646 47.9700 2263.00 2453.52 48.00
7647 47.9760 2299.00 2459.03 48.00
7648 47.9820 2293.00 2462.75 48.00
7649 47.9880 2298.00 2464.41 48.00
7650 47.9940 2346.00 2464.29 48.00
7651 48.0000 2407.00 2462.60 49.00
7652 48.0060 2391.00 2459.33 49.00
7653 48.0120 2340.00 2453.87 48.00
7654 48.0180 2287.00 2446.80 48.00
7655 48.0240 2324.00 2437.87 48.00
7656 48.0300 2301.00 2427.61 48.00
7657 48.0360 2250.00 2416.82 47.00
7658 48.0420 2226.00 2406.28 47.00
7659 48.0480 2260.00 2396.63 48.00
7660 48.0540 2284.00 2388.27 48.00
7661 48.0600 2364.00 2381.44 49.00
7662 48.0660 2351.00 2376.68 48.00
7663 48.0720 2353.00 2373.75 49.00
7664 48.0780 2296.00 2371.81 48.00
7665 48.0840 2336.00 2371.37 48.00
7666 48.0900 2315.00 2372.28 48.00
7667 48.0960 2371.00 2374.16 49.00
7668 48.1020 2417.00 2377.57 49.00
7669 48.1080 2345.00 2381.10 48.00
7670 48.1140 2382.00 2384.80 49.00
7671 48.1200 2353.00 2388.05 49.00
7672 48.1260 2312.00 2391.23 48.00
7673 48.1320 2315.00 2393.86 48.00
7674 48.1380 2282.00 2396.13 48.00
7675 48.1440 2288.00 2398.19 48.00
7676 48.1500 2307.00 2400.04 48.00
7677 48.1560 2329.00 2401.85 48.00
7678 48.1620 2393.00 2403.61 49.00
7679 48.1680 2343.00 2405.65 48.00
7680 48.1740 2323.00 2408.11 48.00
7681 48.1800 2370.00 2411.65 49.00
7682 48.1860 2423.00 2416.80 49.00
7683 48.1920 2414.00 2424.10 49.00
7684 48.1980 2435.00 2433.98 49.00
7685 48.2040 2406.00 2447.02 49.00
7686 48.2100 2480.00 2462.91 50.00
7687 48.2160 2512.00 2482.69 50.00
7688 48.2220 2515.00 2506.36 50.00
7689 48.2280 2505.00 2533.74 50.00
7690 48.2340 2475.00 2565.11 50.00
7691 48.2400 2606.00 2600.61 51.00
7692 48.2460 2754.00 2640.84 52.00
7693 48.2520 2723.00 2684.63 52.00
7694 48.2580 2785.00 2730.85 53.00
7695 48.2640 2777.00 2778.46 53.00
7696 48.2700 2769.00 2825.58 53.00
7697 48.2760 2926.00 2870.14 54.00
7698 48.2820 3010.00 2909.38 55.00
7699 48.2880 3044.00 2940.73 55.00
7700 48.2940 3016.00 2961.38 55.00
7701 48.3000 3002.00 2969.60 55.00
7702 48.3060 2918.00 2965.15 54.00
7703 48.3120 2853.00 2947.34 53.00
7704 48.3180 2851.00 2918.67 53.00
7705 48.3240 2829.00 2881.34 53.00
7706 48.3300 2792.00 2837.74 53.00
7707 48.3360 2687.00 2790.81 52.00
7708 48.3420 2641.00 2741.67 51.00
7709 48.3480 2654.00 2693.19 52.00
7710 48.3540 2586.00 2647.72 51.00
7711 48.3600 2572.00 2606.29 51.00
7712 48.3660 2603.00 2570.31 51.00
7713 48.3720 2516.00 2540.34 50.00
7714 48.3780 2480.00 2516.40 50.00
7715 48.3840 2496.00 2498.64 50.00
7716 48.3900 2434.00 2486.55 49.00
7717 48.3960 2433.00 2479.05 49.00
7718 48.4020 2470.00 2476.72 50.00
7719 48.4080 2536.00 2478.21 50.00
7720 48.4140 2491.00 2482.62 50.00
7721 48.4200 2499.00 2488.82 50.00
7722 48.4260 2422.00 2495.44 49.00
7723 48.4320 2412.00 2500.95 49.00
7724 48.4380 2411.00 2503.87 49.00
7725 48.4440 2467.00 2503.11 50.00
7726 48.4500 2519.00 2498.22 50.00
7727 48.4560 2394.00 2489.48 49.00
7728 48.4620 2382.00 2477.74 49.00
7729 48.4680 2323.00 2464.07 48.00
7730 48.4740 2369.00 2449.90 49.00
7731 48.4800 2420.00 2436.08 49.00
7732 48.4860 2339.00 2422.74 48.00
7733 48.4920 2283.00 2411.50 48.00
7734 48.4980 2374.00 2401.31 49.00
7735 48.5040 2361.00 2392.98 49.00
7736 48.5100 2365.00 2386.51 49.00
7737 48.5160 2403.00 2381.89 49.00
7738 48.5220 2296.00 2379.09 48.00
7739 48.5280 2291.00 2377.91 48.00
7740 48.5340 2321.00 2378.68 48.00
7741 48.5400 2320.00 2381.32 48.00
7742 48.5460 2312.00 2385.91 48.00
7743 48.5520 2378.00 2392.57 49.00
7744 48.5580 2391.00 2401.48 49.00
7745 48.5640 2399.00 2412.78 49.00
7746 48.5700 2439.00 2426.58 49.00
7747 48.5760 2462.00 2442.93 50.00
7748 48.5820 2518.00 2461.72 50.00
7749 48.5880 2465.00 2482.79 50.00
7750 48.5940 2525.00 2505.79 50.00
7751 48.6000 2527.00 2530.09 50.00
7752 48.6060 2423.00 2554.69 49.00
7753 48.6120 2539.00 2577.97 50.00
7754 48.6180 2472.00 2597.78 50.00
7755 48.6240 2521.00 2611.89 50.00
7756 48.6300 2465.00 2618.71 50.00
7757 48.6360 2486.00 2617.98 50.00
7758 48.6420 2475.00 2610.79 50.00
7759 48.6480 2476.00 2599.73 50.00
7760 48.6540 2494.00 2587.11 50.00
7761 48.6600 2524.00 2575.20 50.00
7762 48.6660 2513.00 2565.98 50.00
7763 48.6720 2526.00 2561.09 50.00
7764 48.6780 2514.00 2561.86 50.00
7765 48.6840 2604.00 2569.05 51.00
7766 48.6900 2603.00 2583.67 51.00
7767 48.6960 2586.00 2605.78 51.00
7768 48.7020 2639.00 2635.20 51.00
7769 48.7080 2696.00 2671.22 52.00
7770 48.7140 2797.00 2712.47 53.00
7771 48.7200 2838.00 2757.03 53.00
7772 48.7260 2886.00 2800.94 54.00
7773 48.7320 2815.00 2840.54 53.00
7774 48.7380 2856.00 2871.90 53.00
7775 48.7440 3016.00 2892.21 55.00
7776 48.7500 3055.00 2900.82 55.00
7777 48.7560 3106.00 2899.28 56.00
7778 48.7620 3108.00 2889.80 56.00
7779 48.7680 3102.00 2874.77 56.00
7780 48.7740 3037.00 2855.85 55.00
7781 48.7800 3009.00 2834.24 55.00
7782 48.7860 2855.00 2811.32 53.00
7783 48.7920 2808.00 2788.58 53.00
7784 48.7980 2785.00 2767.74 53.00
7785 48.8040 2678.00 2749.83 52.00
7786 48.8100 2682.00 2735.32 52.00
7787 48.8160 2762.00 2723.95 53.00
7788 48.8220 2643.00 2714.97 51.00
7789 48.8280 2696.00 2707.44 52.00
7790 48.8340 2553.00 2701.06 51.00
7791 48.8400 2638.00 2696.00 51.00
7792 48.8460 2717.00 2693.15 52.00
7793 48.8520 2739.00 2693.77 52.00
7794 48.8580 2638.00 2699.07 51.00
7795 48.8640 2654.00 2709.89 52.00
7796 48.8700 2805.00 2726.68 53.00
7797 48.8760 2794.00 2749.51 53.00
7798 48.8820 2735.00 2777.78 52.00
7799 48.8880 2913.00 2811.18 54.00
7800 48.8940 3066.00 2849.10 55.00
7801 48.9000 3047.00 2890.55 55.00
7802 48.9060 3072.00 2934.25 55.00
7803 48.9120 3085.00 2978.00 56.00
7804 48.9180 3103.00 3019.07 56.00
7805 48.9240 3217.00 3054.32 57.00
7806 48.9300 3200.00 3081.83 57.00
7807 48.9360 3162.00 3101.67 56.00
7808 48.9420 3201.00 3115.31 57.00
7809 48.9480 3146.00 3125.54 56.00
7810 48.9540 3226.00 3134.42 57.00
7811 48.9600 3099.00 3142.15 56.00
7812 48.9660 3187.00 3148.05 56.00
7813 48.9720 3210.00 3150.28 57.00
7814 48.9780 3174.00 3147.24 56.00
7815 48.9840 3190.00 3137.01 56.00
7816 48.9900 3261.00 3119.05 57.00
7817 48.9960 3027.00 3095.03 55.00
7818 49.0020 3037.00 3065.54 55.00
7819 49.0080 3017.00 3030.65 55.00
7820 49.0140 2925.00 2990.62 54.00
7821 49.0200 2944.00 2944.86 54.00
7822 49.0260 2939.00 2893.77 54.00
7823 49.0320 2783.00 2838.57 53.00
7824 49.0380 2629.00 2781.21 51.00
7825 49.0440 2695.00 2723.86 52.00
7826 49.0500 2592.00 2668.88 51.00
7827 49.0560 2542.00 2617.94 50.00
7828 49.0620 2382.00 2572.46 49.00
7829 49.0680 2415.00 2533.26 49.00
7830 49.0740 2353.00 2500.65 49.00
7831 49.0800 2342.00 2474.66 48.00
7832 49.0860 2334.00 2455.09 48.00
7833 49.0920 2433.00 2441.58 49.00
7834 49.0980 2336.00 2433.70 48.00
7835 49.1040 2385.00 2430.95 49.00
7836 49.1100 2319.00 2432.56 48.00
7837 49.1160 2368.00 2438.07 49.00
7838 49.1220 2551.00 2446.50 51.00
7839 49.1280 2482.00 2456.42 50.00
7840 49.1340 2449.00 2466.65 49.00
7841 49.1400 2390.00 2475.19 49.00
7842 49.1460 2472.00 2480.19 50.00
7843 49.1520 2469.00 2480.34 50.00
7844 49.1580 2472.00 2475.35 50.00
7845 49.1640 2471.00 2466.00 50.00
7846 49.1700 2400.00 2453.83 49.00
7847 49.1760 2325.00 2440.42 48.00
7848 49.1820 2371.00 2427.06 49.00
7849 49.1880 2368.00 2414.46 49.00
7850 49.1940 2347.00 2402.80 48.00
7851 49.2000 2313.00 2391.82 48.00
7852 49.2060 2270.00 2380.99 48.00
7853 49.2120 2221.00 2369.77 47.00
7854 49.2180 2261.00 2357.85 48.00
7855 49.2240 2288.00 2345.27 48.00
7856 49.2300 2239.00 2332.40 47.00
7857 49.2360 2234.00 2319.71 47.00
7858 49.2420 2239.00 2307.64 47.00
7859 49.2480 2341.00 2296.51 48.00
7860 49.2540 2135.00 2286.48 46.00
7861 49.2600 2176.00 2277.65 47.00
7862 49.2660 2156.00 2269.95 46.00
7863 49.2720 2213.00 2263.44 47.00
7864 49.2780 2204.00 2258.27 47.00
7865 49.2840 2179.00 2253.84 47.00
7866 49.2900 2201.00 2250.37 47.00
7867 49.2960 2135.00 2247.79 46.00
7868 49.3020 2301.00 2246.09 48.00
7869 49.3080 2180.00 2244.68 47.00
7870 49.3140 2194.00 2244.79 47.00
7871 49.3200 2163.00 2245.90 47.00
7872 49.3260 2158.00 2248.10 46.00
7873 49.3320 2158.00 2251.45 46.00
7874 49.3380 2229.00 2256.35 47.00
7875 49.3440 2298.00 2262.68 48.00
7876 49.3500 2173.00 2270.66 47.00
7877 49.3560 2251.00 2280.36 47.00
7878 49.3620 2281.00 2291.76 48.00
7879 49.3680 2230.00 2304.73 47.00
7880 49.3740 2199.00 2318.94 47.00
7881 49.3800 2282.00 2333.82 48.00
7882 49.3860 2344.00 2348.45 48.00
7883 49.3920 2394.00 2361.58 49.00
7884 49.3980 2441.00 2371.80 49.00
7885 49.4040 2468.00 2377.85 50.00
7886 49.4100 2427.00 2379.32 49.00
7887 49.4160 2312.00 2375.42 48.00
7888 49.4220 2415.00 2367.44 49.00
7889 49.4280 2248.00 2357.15 47.00
7890 49.4340 2276.00 2344.83 48.00
7891 49.4400 2277.00 2331.15 48.00
7892 49.4460 2266.00 2316.72 48.00
7893 49.4520 2297.00 2302.18 48.00
7894 49.4580 2286.00 2287.69 48.00
7895 49.4640 2170.00 2274.70 47.00
7896 49.4700 2209.00 2263.14 47.00
7897 49.4760 2201.00 2253.17 47.00
7898 49.4820 2140.00 2245.06 46.00
7899 49.4880 2172.00 2238.98 47.00
7900 49.4940 2154.00 2234.43 46.00
7901 49.5000 2216.00 2231.59 47.00
7902 49.5060 2208.00 2230.04 47.00
7903 49.5120 2263.00 2230.35 48.00
7904 49.5180 2206.00 2232.08 47.00
7905 49.5240 2271.00 2234.99 48.00
7906 49.5300 2182.00 2239.15 47.00
7907 49.5360 2174.00 2244.21 47.00
7908 49.5420 2233.00 2249.85 47.00
7909 49.5480 2235.00 2255.63 47.00
7910 49.5540 2276.00 2261.11 48.00
7911 49.5600 2274.00 2265.63 48.00
7912 49.5660 2247.00 2269.24 47.00
7913 49.5720 2279.00 2271.73 48.00
7914 49.5780 2232.00 2273.33 47.00
7915 49.5840 2285.00 2274.18 48.00
7916 49.5900 2185.00 2274.68 47.00
7917 49.5960 2161.00 2274.82 46.00
7918 49.6020 2299.00 2274.13 48.00
7919 49.6080 2231.00 2271.94 47.00
7920 49.6140 2248.00 2269.14 47.00
7921 49.6200 2322.00 2265.99 48.00
7922 49.6260 2304.00 2262.21 48.00
7923 49.6320 2364.00 2257.81 49.00
7924 49.6380 2330.00 2252.56 48.00
7925 49.6440 2271.00 2246.49 48.00
7926 49.6500 2273.00 2239.85 48.00
7927 49.6560 2196.00 2232.47 47.00
7928 49.6620 2286.00 2224.81 48.00
7929 49.6680 2241.00 2217.42 47.00
7930 49.6740 2211.00 2211.15 47.00
7931 49.6800 2280.00 2205.81 48.00
7932 49.6860 2259.00 2201.52 48.00
7933 49.6920 2196.00 2198.34 47.00
7934 49.6980 2188.00 2195.70 47.00
7935 49.7040 2255.00 2194.67 47.00
7936 49.7100 2265.00 2194.49 48.00
7937 49.7160 2240.00 2194.77 47.00
7938 49.7220 2249.00 2195.29 47.00
7939 49.7280 2244.00 2195.83 47.00
7940 49.7340 2275.00 2195.78 48.00
7941 49.7400 2239.00 2194.75 47.00
7942 49.7460 2227.00 2192.55 47.00
7943 49.7520 2238.00 2189.23 47.00
7944 49.7580 2107.00 2185.28 46.00
7945 49.7640 2087.00 2180.61 46.00
7946 49.7700 2181.00 2176.46 47.00
7947 49.7760 2177.00 2172.27 47.00
7948 49.7820 2134.00 2168.36 46.00
7949 49.7880 2154.00 2164.82 46.00
7950 49.7940 2153.00 2161.72 46.00
7951 49.8000 2159.00 2159.05 46.00
7952 49.8060 2149.00 2156.83 46.00
7953 49.8120 2207.00 2155.02 47.00
7954 49.8180 2191.00 2153.66 47.00
7955 49.8240 2151.00 2152.58 46.00
7956 49.8300 2166.00 2151.81 47.00
7957 49.8360 2196.00 2151.26 47.00
7958 49.8420 2122.00 2151.03 46.00
7959 49.8480 2117.00 2151.05 46.00
7960 49.8540 2182.00 2151.32 47.00
7961 49.8600 2141.00 2152.10 46.00
7962 49.8660 2219.00 2152.88 47.00
7963 49.8720 2169.00 2154.10 47.00
7964 49.8780 2123.00 2155.56 46.00
7965 49.8840 2152.00 2157.49 46.00
7966 49.8900 2212.00 2159.95 47.00
7967 49.8960 2211.00 2162.97 47.00
7968 49.9020 2219.00 2166.68 47.00
7969 49.9080 2260.00 2171.49 48.00
7970 49.9140 2232.00 2177.13 47.00
7971 49.9200 2186.00 2183.80 47.00
7972 49.9260 2236.00 2191.54 47.00
7973 49.9320 2191.00 2200.37 47.00
7974 49.9380 2216.00 2210.12 47.00
7975 49.9440 2208.00 2220.60 47.00
7976 49.9500 2252.00 2231.39 47.00
7977 49.9560 2324.00 2241.96 48.00
7978 49.9620 2267.00 2251.30 48.00
7979 49.9680 2286.00 2258.62 48.00
7980 49.9740 2273.00 2262.99 48.00
7981 49.9800 2302.00 2264.13 48.00
7982 49.9860 2263.00 2262.34 48.00
7983 49.9920 2240.00 2258.37 47.00
7984 49.9980 2218.00 2253.18 47.00
7985 50.0040 2158.00 2247.64 46.00
7986 50.0100 2208.00 2242.39 47.00
7987 50.0160 2201.00 2237.75 47.00
7988 50.0220 2190.00 2233.93 47.00
7989 50.0280 2196.00 2230.77 47.00
7990 50.0340 2229.00 2228.24 47.00
7991 50.0400 2265.00 2226.33 48.00
7992 50.0460 2176.00 2225.13 47.00
7993 50.0520 2164.00 2224.86 47.00
7994 50.0580 2139.00 2225.76 46.00
7995 50.0640 2206.00 2228.04 47.00
7996 50.0700 2216.00 2231.74 47.00
7997 50.0760 2264.00 2236.80 48.00
7998 50.0820 2213.00 2242.91 47.00
7999 50.0880 2192.00 2249.61 47.00
8000 50.0940 2278.00 2256.02 48.00
8001 50.1000 2304.00 2261.58 48.00
8002 50.1060 2316.00 2265.32 48.00
8003 50.1120 2254.00 2266.80 47.00
8004 50.1180 2287.00 2265.95 48.00
8005 50.1240 2361.00 2263.41 49.00
8006 50.1300 2290.00 2259.94 48.00
8007 50.1360 2291.00 2256.91 48.00
8008 50.1420 2298.00 2254.38 48.00
8009 50.1480 2189.00 2252.96 47.00
8010 50.1540 2253.00 2252.76 47.00
8011 50.1600 2269.00 2253.64 48.00
8012 50.1660 2264.00 2254.94 48.00
8013 50.1720 2221.00 2256.01 47.00
8014 50.1780 2235.00 2256.00 47.00
8015 50.1840 2273.00 2254.19 48.00
8016 50.1900 2204.00 2250.38 47.00
8017 50.1960 2218.00 2244.48 47.00
8018 50.2020 2171.00 2237.22 47.00
8019 50.2080 2215.00 2229.71 47.00
8020 50.2140 2227.00 2222.04 47.00
8021 50.2200 2137.00 2215.13 46.00
8022 50.2260 2149.00 2209.40 46.00
8023 50.2320 2151.00 2205.33 46.00
8024 50.2380 2235.00 2202.62 47.00
8025 50.2440 2211.00 2201.53 47.00
8026 50.2500 2263.00 2202.03 48.00
8027 50.2560 2227.00 2203.85 47.00
8028 50.2620 2220.00 2207.04 47.00
8029 50.2680 2284.00 2211.12 48.00
8030 50.2740 2191.00 2215.62 47.00
8031 50.2800 2195.00 2219.96 47.00
8032 50.2860 2231.00 2223.50 47.00
8033 50.2920 2189.00 2225.79 47.00
8034 50.2980 2220.00 2226.30 47.00
8035 50.3040 2219.00 2224.99 47.00
8036 50.3100 2222.00 2222.28 47.00
8037 50.3160 2264.00 2218.69 48.00
8038 50.3220 2237.00 2215.07 47.00
8039 50.3280 2187.00 2211.15 47.00
8040 50.3340 2172.00 2207.75 47.00
8041 50.3400 2184.00 2204.78 47.00
8042 50.3460 2188.00 2201.72 47.00
8043 50.3520 2146.00 2199.06 46.00
8044 50.3580 2200.00 2196.49 47.00
8045 50.3640 2214.00 2194.25 47.00
8046 50.3700 2195.00 2192.58 47.00
8047 50.3760 2196.00 2191.93 47.00
8048 50.3820 2193.00 2192.14 47.00
8049 50.3880 2284.00 2193.73 48.00
8050 50.3940 2233.00 2196.64 47.00
8051 50.4000 2200.00 2201.15 47.00
8052 50.4060 2244.00 2207.36 47.00
8053 50.4120 2312.00 2215.38 48.00
8054 50.4180 2297.00 2225.25 48.00
8055 50.4240 2288.00 2236.93 48.00
8056 50.4300 2345.00 2250.42 48.00
8057 50.4360 2383.00 2265.13 49.00
8058 50.4420 2356.00 2280.91 49.00
8059 50.4480 2400.00 2296.99 49.00
8060 50.4540 2411.00 2312.49 49.00
8061 50.4600 2393.00 2326.55 49.00
8062 50.4660 2375.00 2338.50 49.00
8063 50.4720 2406.00 2348.73 49.00
8064 50.4780 2410.00 2356.77 49.00
8065 50.4840 2387.00 2364.21 49.00
8066 50.4900 2384.00 2372.34 49.00
8067 50.4960 2385.00 2382.05 49.00
8068 50.5020 2402.00 2394.31 49.00
8069 50.5080 2401.00 2409.36 49.00
8070 50.5140 2437.00 2426.95 49.00
8071 50.5200 2421.00 2446.29 49.00
8072 50.5260 2481.00 2466.09 50.00
8073 50.5320 2563.00 2484.70 51.00
8074 50.5380 2560.00 2500.32 51.00
8075 50.5440 2575.00 2511.34 51.00
8076 50.5500 2551.00 2516.63 51.00
8077 50.5560 2535.00 2515.70 50.00
8078 50.5620 2587.00 2508.64 51.00
8079 50.5680 2543.00 2496.10 50.00
8080 50.5740 2525.00 2479.20 50.00
8081 50.5800 2576.00 2459.40 51.00
8082 50.5860 2477.00 2438.24 50.00
8083 50.5920 2373.00 2417.02 49.00
8084 50.5980 2402.00 2396.71 49.00
8085 50.6040 2414.00 2377.84 49.00
8086 50.6100 2428.00 2360.61 49.00
8087 50.6160 2405.00 2345.07 49.00
8088 50.6220 2413.00 2331.32 49.00
8089 50.6280 2380.00 2319.38 49.00
8090 50.6340 2348.00 2309.38 48.00
8091 50.6400 2367.00 2301.11 49.00
8092 50.6460 2397.00 2294.37 49.00
8093 50.6520 2388.00 2288.75 49.00
8094 50.6580 2369.00 2283.76 49.00
8095 50.6640 2352.00 2278.95 48.00
8096 50.6700 2329.00 2273.98 48.00
8097 50.6760 2256.00 2268.47 47.00
8098 50.6820 2249.00 2263.12 47.00
8099 50.6880 2278.00 2257.79 48.00
8100 50.6940 2265.00 2252.86 48.00
8101 50.7000 2296.00 2248.62 48.00
8102 50.7060 2249.00 2245.22 47.00
8103 50.7120 2268.00 2242.67 48.00
8104 50.7180 2257.00 2240.88 48.00
8105 50.7240 2248.00 2239.73 47.00
8106 50.7300 2266.00 2239.48 48.00
8107 50.7360 2291.00 2239.84 48.00
8108 50.7420 2295.00 2240.98 48.00
8109 50.7480 2318.00 2243.45 48.00
8110 50.7540 2294.00 2247.60 48.00
8111 50.7600 2288.00 2253.69 48.00
8112 50.7660 2333.00 2261.88 48.00
8113 50.7720 2338.00 2272.14 48.00
8114 50.7780 2308.00 2284.30 48.00
8115 50.7840 2266.00 2297.95 48.00
8116 50.7900 2338.00 2312.47 48.00
8117 50.7960 2376.00 2327.03 49.00
8118 50.8020 2262.00 2340.77 48.00
8119 50.8080 2223.00 2353.06 47.00
8120 50.8140 2313.00 2363.35 48.00
8121 50.8200 2316.00 2372.24 48.00
8122 50.8260 2310.00 2379.85 48.00
8123 50.8320 2269.00 2386.32 48.00
8124 50.8380 2256.00 2391.78 47.00
8125 50.8440 2342.00 2396.19 48.00
8126 50.8500 2366.00 2399.63 49.00
8127 50.8560 2348.00 2402.41 48.00
8128 50.8620 2314.00 2405.14 48.00
8129 50.8680 2334.00 2408.51 48.00
8130 50.8740 2387.00 2413.17 49.00
8131 50.8800 2398.00 2419.58 49.00
8132 50.8860 2362.00 2427.68 49.00
8133 50.8920 2369.00 2437.65 49.00
8134 50.8980 2418.00 2448.31 49.00
8135 50.9040 2468.00 2458.82 50.00
8136 50.9100 2496.00 2468.09 50.00
8137 50.9160 2483.00 2475.20 50.00
8138 50.9220 2415.00 2479.64 49.00
8139 50.9280 2443.00 2481.76 49.00
8140 50.9340 2458.00 2481.34 50.00
8141 50.9400 2420.00 2479.41 49.00
8142 50.9460 2476.00 2476.93 50.00
8143 50.9520 2453.00 2475.05 50.00
8144 50.9580 2415.00 2475.09 49.00
8145 50.9640 2469.00 2478.41 50.00
8146 50.9700 2508.00 2486.35 50.00
8147 50.9760 2553.00 2499.48 51.00
8148 50.9820 2630.00 2518.17 51.00
8149 50.9880 2630.00 2542.12 51.00
8150 50.9940 2596.00 2570.48 51.00
8151 51.0000 2695.00 2601.88 52.00
8152 51.0060 2703.00 2635.00 52.00
8153 51.0120 2679.00 2668.32 52.00
8154 51.0180 2758.00 2700.68 53.00
8155 51.0240 2749.00 2730.27 52.00
8156 51.0300 2732.00 2755.60 52.00
8157 51.0360 2735.00 2774.86 52.00
8158 51.0420 2727.00 2785.88 52.00
8159 51.0480 2704.00 2787.55 52.00
8160 51.0540 2743.00 2779.45 52.00
8161 51.0600 2757.00 2762.28 53.00
8162 51.0660 2665.00 2737.70 52.00
8163 51.0720 2621.00 2707.72 51.00
8164 51.0780 2616.00 2674.33 51.00
8165 51.0840 2628.00 2639.29 51.00
8166 51.0900 2599.00 2604.01 51.00
8167 51.0960 2569.00 2569.68 51.00
8168 51.1020 2464.00 2537.47 50.00
8169 51.1080 2417.00 2508.50 49.00
8170 51.1140 2503.00 2483.95 50.00
8171 51.1200 2472.00 2464.26 50.00
8172 51.1260 2438.00 2450.03 49.00
8173 51.1320 2436.00 2441.24 49.00
8174 51.1380 2437.00 2437.56 49.00
8175 51.1440 2516.00 2438.46 50.00
8176 51.1500 2515.00 2443.14 50.00
8177 51.1560 2501.00 2450.44 50.00
8178 51.1620 2483.00 2459.40 50.00
8179 51.1680 2507.00 2468.31 50.00
8180 51.1740 2504.00 2475.75 50.00
8181 51.1800 2465.00 2479.38 50.00
8182 51.1860 2523.00 2477.85 50.00
8183 51.1920 2470.00 2470.14 50.00
8184 51.1980 2468.00 2456.33 50.00
8185 51.2040 2418.00 2437.23 49.00
8186 51.2100 2441.00 2414.23 49.00
8187 51.2160 2445.00 2388.44 49.00
8188 51.2220 2379.00 2361.49 49.00
8189 51.2280 2319.00 2334.69 48.00
8190 51.2340 2284.00 2309.03 48.00
8191 51.2400 2247.00 2285.41 47.00
8192 51.2460 2261.00 2264.24 48.00
8193 51.2520 2233.00 2245.31 47.00
8194 51.2580 2242.00 2229.70 47.00
8195 51.2640 2229.00 2216.42 47.00
8196 51.2700 2200.00 2205.28 47.00
8197 51.2760 2173.00 2196.63 47.00
8198 51.2820 2189.00 2189.84 47.00
8199 51.2880 2219.00 2184.97 47.00
8200 51.2940 2204.00 2181.90 47.00
8201 51.3000 2204.00 2180.03 47.00
8202 51.3060 2242.00 2179.43 47.00
8203 51.3120 2262.00 2180.10 48.00
8204 51.3180 2271.00 2181.55 48.00
8205 51.3240 2244.00 2183.64 47.00
8206 51.3300 2176.00 2186.43 47.00
8207 51.3360 2170.00 2189.62 47.00
8208 51.3420 2169.00 2193.30 47.00
8209 51.3480 2263.00 2196.89 48.00
8210 51.3540 2272.00 2200.74 48.00
8211 51.3600 2193.00 2205.01 47.00
8212 51.3660 2187.00 2210.00 47.00
8213 51.3720 2254.00 2216.00 47.00
8214 51.3780 2242.00 2223.46 47.00
8215 51.3840 2288.00 2232.53 48.00
8216 51.3900 2280.00 2243.19 48.00
8217 51.3960 2315.00 2255.73 48.00
8218 51.4020 2296.00 2269.64 48.00
8219 51.4080 2318.00 2284.95 48.00
8220 51.4140 2403.00 2301.47 49.00
8221 51.4200 2486.00 2318.69 50.00
8222 51.4260 2474.00 2335.93 50.00
8223 51.4320 2487.00 2351.93 50.00
8224 51.4380 2482.00 2364.98 50.00
8225 51.4440 2418.00 2373.39 49.00
8226 51.4500 2404.00 2375.60 49.00
8227 51.4560 2401.00 2371.04 49.00
8228 51.4620 2268.00 2360.22 48.00
8229 51.4680 2280.00 2344.96 48.00
8230 51.4740 2307.00 2326.41 48.00
8231 51.4800 2256.00 2306.67 47.00
8232 51.4860 2258.00 2287.11 48.00
8233 51.4920 2203.00 2268.86 47.00
8234 51.4980 2290.00 2252.35 48.00
8235 51.5040 2225.00 2238.09 47.00
8236 51.5100 2165.00 2226.45 47.00
8237 51.5160 2166.00 2217.02 47.00
8238 51.5220 2263.00 2210.32 48.00
8239 51.5280 2247.00 2205.99 47.00
8240 51.5340 2172.00 2203.75 47.00
8241 51.5400 2219.00 2203.49 47.00
8242 51.5460 2165.00 2204.94 47.00
8243 51.5520 2195.00 2207.97 47.00
8244 51.5580 2156.00 2212.38 46.00
8245 51.5640 2144.00 2219.07 46.00
8246 51.5700 2137.00 2227.30 46.00
8247 51.5760 2157.00 2237.64 46.00
8248 51.5820 2102.00 2250.32 46.00
8249 51.5880 2196.00 2265.27 47.00
8250 51.5940 2365.00 2281.88 49.00
8251 51.6000 2378.00 2299.59 49.00
8252 51.6060 2329.00 2317.78 48.00
8253 51.6120 2381.00 2335.35 49.00
8254 51.6180 2297.00 2351.64 48.00
8255 51.6240 2377.00 2366.08 49.00
8256 51.6300 2341.00 2378.20 48.00
8257 51.6360 2356.00 2387.20 49.00
8258 51.6420 2328.00 2393.20 48.00
8259 51.6480 2384.00 2395.49 49.00
8260 51.6540 2381.00 2394.09 49.00
8261 51.6600 2355.00 2389.39 49.00
8262 51.6660 2437.00 2382.96 49.00
8263 51.6720 2416.00 2375.80 49.00
8264 51.6780 2409.00 2368.99 49.00
8265 51.6840 2400.00 2363.23 49.00
8266 51.6900 2428.00 2358.88 49.00
8267 51.6960 2360.00 2356.05 49.00
8268 51.7020 2364.00 2354.84 49.00
8269 51.7080 2344.00 2354.95 48.00
8270 51.7140 2418.00 2356.26 49.00
8271 51.7200 2357.00 2358.23 49.00
8272 51.7260 2363.00 2360.36 49.00
8273 51.7320 2324.00 2362.20 48.00
8274 51.7380 2378.00 2362.79 49.00
8275 51.7440 2323.00 2361.43 48.00
8276 51.7500 2273.00 2357.31 48.00
8277 51.7560 2319.00 2350.82 48.00
8278 51.7620 2279.00 2341.60 48.00
8279 51.7680 2315.00 2330.28 48.00
8280 51.7740 2412.00 2318.59 49.00
8281 51.7800 2373.00 2306.95 49.00
8282 51.7860 2414.00 2296.24 49.00
8283 51.7920 2346.00 2287.69 48.00
8284 51.7980 2307.00 2281.56 48.00
8285 51.8040 2349.00 2277.95 48.00
8286 51.8100 2282.00 2277.33 48.00
8287 51.8160 2318.00 2279.31 48.00
8288 51.8220 2307.00 2283.41 48.00
8289 51.8280 2320.00 2289.33 48.00
8290 51.8340 2290.00 2296.19 48.00
8291 51.8400 2381.00 2303.33 49.00
8292 51.8460 2345.00 2310.14 48.00
8293 51.8520 2361.00 2316.21 49.00
8294 51.8580 2265.00 2321.19 48.00
8295 51.8640 2211.00 2324.63 47.00
8296 51.8700 2330.00 2326.42 48.00
8297 51.8760 2422.00 2326.23 49.00
8298 51.8820 2332.00 2324.11 48.00
8299 51.8880 2345.00 2320.52 48.00
8300 51.8940 2286.00 2316.25 48.00
8301 51.9000 2313.00 2312.14 48.00
8302 51.9060 2401.00 2308.48 49.00
8303 51.9120 2336.00 2306.76 48.00
8304 51.9180 2376.00 2306.77 49.00
8305 51.9240 2400.00 2308.28 49.00
8306 51.9300 2389.00 2310.91 49.00
8307 51.9360 2373.00 2314.62 49.00
8308 51.9420 2392.00 2318.99 49.00
8309 51.9480 2426.00 2324.04 49.00
8310 51.9540 2375.00 2330.05 49.00
8311 51.9600 2387.00 2337.10 49.00
8312 51.9660 2501.00 2345.22 50.00
8313 51.9720 2393.00 2354.36 49.00
8314 51.9780 2435.00 2363.98 49.00
8315 51.9840 2467.00 2373.57 50.00
8316 51.9900 2490.00 2382.48 50.00
8317 51.9960 2487.00 2390.47 50.00
8318 52.0020 2464.00 2397.54 50.00
8319 52.0080 2491.00 2403.72 50.00
8320 52.0140 2400.00 2408.98 49.00
8321 52.0200 2499.00 2413.12 50.00
8322 52.0260 2490.00 2415.87 50.00
8323 52.0320 2541.00 2417.05 50.00
8324 52.0380 2465.00 2416.57 50.00
8325 52.0440 2383.00 2414.47 49.00
8326 52.0500 2311.00 2410.81 48.00
8327 52.0560 2445.00 2405.65 49.00
8328 52.0620 2418.00 2399.09 49.00
8329 52.0680 2489.00 2391.27 50.00
8330 52.0740 2456.00 2382.19 50.00
8331 52.0800 2422.00 2372.53 49.00
8332 52.0860 2334.00 2363.05 48.00
8333 52.0920 2318.00 2354.22 48.00
8334 52.0980 2306.00 2346.74 48.00
8335 52.1040 2375.00 2341.11 49.00
8336 52.1100 2380.00 2336.85 49.00
8337 52.1160 2335.00 2333.96 48.00
8338 52.1220 2340.00 2332.02 48.00
8339 52.1280 2365.00 2331.04 49.00
8340 52.1340 2343.00 2330.82 48.00
8341 52.1400 2310.00 2331.46 48.00
8342 52.1460 2410.00 2333.45 49.00
8343 52.1520 2284.00 2337.19 48.00
8344 52.1580 2401.00 2342.99 49.00
8345 52.1640 2385.00 2350.97 49.00
8346 52.1700 2421.00 2360.75 49.00
8347 52.1760 2385.00 2372.08 49.00
8348 52.1820 2409.00 2384.57 49.00
8349 52.1880 2299.00 2396.81 48.00
8350 52.1940 2364.00 2407.60 49.00
8351 52.2000 2450.00 2416.14 49.00
8352 52.2060 2294.00 2421.44 48.00
8353 52.2120 2338.00 2423.49 48.00
8354 52.2180 2404.00 2422.82 49.00
8355 52.2240 2442.00 2420.43 49.00
8356 52.2300 2377.00 2416.33 49.00
8357 52.2360 2324.00 2411.60 48.00
8358 52.2420 2395.00 2406.96 49.00
8359 52.2480 2381.00 2403.07 49.00
8360 52.2540 2343.00 2400.58 48.00
8361 52.2600 2368.00 2400.00 49.00
8362 52.2660 2380.00 2401.57 49.00
8363 52.2720 2390.00 2405.14 49.00
8364 52.2780 2419.00 2410.09 49.00
8365 52.2840 2371.00 2415.66 49.00
8366 52.2900 2398.00 2420.29 49.00
8367 52.2960 2388.00 2423.18 49.00
8368 52.3020 2377.00 2423.09 49.00
8369 52.3080 2404.00 2420.03 49.00
8370 52.3140 2420.00 2414.40 49.00
8371 52.3200 2355.00 2406.78 49.00
8372 52.3260 2403.00 2397.75 49.00
8373 52.3320 2429.00 2387.60 49.00
8374 52.3380 2325.00 2376.44 48.00
8375 52.3440 2352.00 2364.01 48.00
8376 52.3500 2338.00 2350.79 48.00
8377 52.3560 2279.00 2336.78 48.00
8378 52.3620 2348.00 2322.44 48.00
8379 52.3680 2357.00 2308.35 49.00
8380 52.3740 2333.00 2294.76 48.00
8381 52.3800 2172.00 2282.90 47.00
8382 52.3860 2198.00 2272.66 47.00
8383 52.3920 2285.00 2264.33 48.00
8384 52.3980 2197.00 2257.87 47.00
8385 52.4040 2150.00 2253.52 46.00
8386 52.4100 2206.00 2250.41 47.00
8387 52.4160 2172.00 2248.57 47.00
8388 52.4220 2159.00 2247.52 46.00
8389 52.4280 2176.00 2247.06 47.00
8390 52.4340 2274.00 2246.73 48.00
8391 52.4400 2222.00 2246.15 47.00
8392 52.4460 2178.00 2245.41 47.00
8393 52.4520 2193.00 2244.27 47.00
8394 52.4580 2241.00 2243.25 47.00
8395 52.4640 2224.00 2242.48 47.00
8396 52.4700 2284.00 2241.93 48.00
8397 52.4760 2157.00 2242.12 46.00
8398 52.4820 2198.00 2242.53 47.00
8399 52.4880 2257.00 2243.05 48.00
8400 52.4940 2226.00 2243.77 47.00
8401 52.5000 2186.00 2244.41 47.00
8402 52.5060 2174.00 2245.29 47.00
8403 52.5120 2208.00 2245.14 47.00
8404 52.5180 2134.00 2244.39 46.00
8405 52.5240 2115.00 2243.02 46.00
8406 52.5300 2184.00 2241.10 47.00
8407 52.5360 2268.00 2238.80 48.00
8408 52.5420 2207.00 2236.31 47.00
8409 52.5480 2151.00 2233.83 46.00
8410 52.5540 2162.00 2231.52 46.00
8411 52.5600 2208.00 2229.47 47.00
8412 52.5660 2172.00 2227.77 47.00
8413 52.5720 2152.00 2226.33 46.00
8414 52.5780 2169.00 2225.30 47.00
8415 52.5840 2177.00 2224.36 47.00
8416 52.5900 2168.00 2224.30 47.00
8417 52.5960 2187.00 2225.25 47.00
8418 52.6020 2184.00 2227.38 47.00
8419 52.6080 2202.00 2230.77 47.00
8420 52.6140 2234.00 2235.40 47.00
8421 52.6200 2317.00 2241.50 48.00
8422 52.6260 2252.00 2248.93 47.00
8423 52.6320 2239.00 2257.58 47.00
8424 52.6380 2276.00 2267.22 48.00
8425 52.6440 2354.00 2277.89 49.00
8426 52.6500 2366.00 2288.40 49.00
8427 52.6560 2399.00 2298.63 49.00
8428 52.6620 2386.00 2308.14 49.00
8429 52.6680 2317.00 2316.63 48.00
8430 52.6740 2282.00 2323.72 48.00
8431 52.6800 2244.00 2329.57 47.00
8432 52.6860 2262.00 2333.78 48.00
8433 52.6920 2266.00 2336.08 48.00
8434 52.6980 2309.00 2336.04 48.00
8435 52.7040 2221.00 2333.66 47.00
8436 52.7100 2315.00 2329.09 48.00
8437 52.7160 2305.00 2322.78 48.00
8438 52.7220 2291.00 2315.13 48.00
8439 52.7280 2273.00 2307.19 48.00
8440 52.7340 2242.00 2299.38 47.00
8441 52.7400 2233.00 2292.40 47.00
8442 52.7460 2266.00 2286.82 48.00
8443 52.7520 2346.00 2283.11 48.00
8444 52.7580 2284.00 2281.61 48.00
8445 52.7640 2316.00 2282.65 48.00
8446 52.7700 2348.00 2286.31 48.00
8447 52.7760 2287.00 2292.54 48.00
8448 52.7820 2315.00 2301.37 48.00
8449 52.7880 2338.00 2312.64 48.00
8450 52.7940 2352.00 2325.65 48.00
8451 52.8000 2450.00 2340.03 49.00
8452 52.8060 2452.00 2354.98 50.00
8453 52.8120 2486.00 2370.16 50.00
8454 52.8180 2518.00 2384.81 50.00
8455 52.8240 2460.00 2398.49 50.00
8456 52.8300 2389.00 2410.21 49.00
8457 52.8360 2414.00 2420.05 49.00
8458 52.8420 2317.00 2426.92 48.00
8459 52.8480 2286.00 2430.90 48.00
8460 52.8540 2328.00 2431.96 48.00
8461 52.8600 2311.00 2430.11 48.00
8462 52.8660 2338.00 2426.12 48.00
8463 52.8720 2317.00 2420.43 48.00
8464 52.8780 2333.00 2413.78 48.00
8465 52.8840 2380.00 2407.07 49.00
8466 52.8900 2355.00 2401.40 49.00
8467 52.8960 2361.00 2397.79 49.00
8468 52.9020 2370.00 2396.90 49.00
8469 52.9080 2417.00 2399.28 49.00
8470 52.9140 2426.00 2405.03 49.00
8471 52.9200 2472.00 2413.86 50.00
8472 52.9260 2470.00 2425.12 50.00
8473 52.9320 2434.00 2437.71 49.00
8474 52.9380 2434.00 2449.94 49.00
8475 52.9440 2332.00 2461.01 48.00
8476 52.9500 2431.00 2469.22 49.00
8477 52.9560 2351.00 2473.61 48.00
8478 52.9620 2376.00 2473.56 49.00
8479 52.9680 2354.00 2469.38 49.00
8480 52.9740 2387.00 2461.58 49.00
8481 52.9800 2330.00 2451.27 48.00
8482 52.9860 2319.00 2439.81 48.00
8483 52.9920 2321.00 2428.78 48.00
8484 52.9980 2278.00 2418.68 48.00
8485 53.0040 2242.00 2410.31 47.00
8486 53.0100 2290.00 2403.77 48.00
8487 53.0160 2377.00 2398.62 49.00
8488 53.0220 2298.00 2394.14 48.00
8489 53.0280 2359.00 2389.36 49.00
8490 53.0340 2316.00 2383.06 48.00
8491 53.0400 2398.00 2375.36 49.00
8492 53.0460 2306.00 2365.57 48.00
8493 53.0520 2298.00 2354.02 48.00
8494 53.0580 2311.00 2341.56 48.00
8495 53.0640 2317.00 2329.06 48.00
8496 53.0700 2304.00 2317.45 48.00
8497 53.0760 2252.00 2307.50 47.00
8498 53.0820 2325.00 2299.73 48.00
8499 53.0880 2281.00 2294.70 48.00
8500 53.0940 2267.00 2292.45 48.00
8501 53.1000 2223.00 2293.35 47.00
8502 53.1060 2258.00 2297.32 48.00
8503 53.1120 2226.00 2304.06 47.00
8504 53.1180 2249.00 2313.39 47.00
8505 53.1240 2288.00 2324.63 48.00
8506 53.1300 2357.00 2337.13 49.00
8507 53.1360 2310.00 2350.05 48.00
8508 53.1420 2301.00 2362.22 48.00
8509 53.1480 2295.00 2372.87 48.00
8510 53.1540 2355.00 2381.56 49.00
8511 53.1600 2353.00 2388.52 49.00
8512 53.1660 2320.00 2394.12 48.00
8513 53.1720 2366.00 2398.92 49.00
8514 53.1780 2296.00 2403.58 48.00
8515 53.1840 2303.00 2408.71 48.00
8516 53.1900 2394.00 2414.48 49.00
8517 53.1960 2336.00 2421.20 48.00
8518 53.2020 2414.00 2428.67 49.00
8519 53.2080 2446.00 2437.07 49.00
8520 53.2140 2434.00 2446.26 49.00
8521 53.2200 2344.00 2455.83 48.00
8522 53.2260 2406.00 2465.06 49.00
8523 53.2320 2421.00 2473.07 49.00
8524 53.2380 2385.00 2478.67 49.00
8525 53.2440 2433.00 2480.68 49.00
8526 53.2500 2375.00 2477.75 49.00
8527 53.2560 2287.00 2469.20 48.00
8528 53.2620 2356.00 2455.24 49.00
8529 53.2680 2253.00 2436.79 47.00
8530 53.2740 2330.00 2415.66 48.00
8531 53.2800 2335.00 2393.32 48.00
8532 53.2860 2350.00 2371.59 48.00
8533 53.2920 2216.00 2351.89 47.00
8534 53.2980 2215.00 2334.86 47.00
8535 53.3040 2254.00 2321.21 47.00
8536 53.3100 2324.00 2311.19 48.00
8537 53.3160 2234.00 2304.93 47.00
8538 53.3220 2244.00 2302.28 47.00
8539 53.3280 2318.00 2303.07 48.00
8540 53.3340 2266.00 2306.65 48.00
8541 53.3400 2238.00 2312.35 47.00
8542 53.3460 2251.00 2319.56 47.00
8543 53.3520 2283.00 2327.56 48.00
8544 53.3580 2273.00 2335.76 48.00
8545 53.3640 2300.00 2343.67 48.00
8546 53.3700 2311.00 2350.92 48.00
8547 53.3760 2251.00 2357.12 47.00
8548 53.3820 2219.00 2361.76 47.00
8549 53.3880 2350.00 2364.24 48.00
8550 53.3940 2387.00 2364.02 49.00
8551 53.4000 2257.00 2360.88 48.00
8552 53.4060 2254.00 2354.94 47.00
8553 53.4120 2309.00 2347.24 48.00
8554 53.4180 2296.00 2338.63 48.00
8555 53.4240 2389.00 2330.10 49.00
8556 53.4300 2323.00 2322.35 48.00
8557 53.4360 2400.00 2315.88 49.00
8558 53.4420 2252.00 2310.87 47.00
8559 53.4480 2312.00 2307.62 48.00
8560 53.4540 2363.00 2306.29 49.00
8561 53.4600 2349.00 2306.95 48.00
8562 53.4660 2312.00 2309.57 48.00
8563 53.4720 2337.00 2314.03 48.00
8564 53.4780 2363.00 2320.33 49.00
8565 53.4840 2461.00 2328.28 50.00
8566 53.4900 2403.00 2337.75 49.00
8567 53.4960 2359.00 2348.54 49.00
8568 53.5020 2479.00 2360.41 50.00
8569 53.5080 2446.00 2372.99 49.00
8570 53.5140 2360.00 2385.85 49.00
8571 53.5200 2366.00 2398.56 49.00
8572 53.5260 2492.00 2410.77 50.00
8573 53.5320 2484.00 2422.21 50.00
8574 53.5380 2404.00 2432.69 49.00
8575 53.5440 2526.00 2442.18 50.00
8576 53.5500 2443.00 2450.66 49.00
8577 53.5560 2477.00 2458.04 50.00
8578 53.5620 2522.00 2464.22 50.00
8579 53.5680 2596.00 2468.56 51.00
8580 53.5740 2437.00 2470.00 49.00
8581 53.5800 2530.00 2467.76 50.00
8582 53.5860 2499.00 2460.82 50.00
8583 53.5920 2507.00 2448.80 50.00
8584 53.5980 2468.00 2431.73 50.00
8585 53.6040 2444.00 2411.04 49.00
8586 53.6100 2332.00 2387.82 48.00
8587 53.6160 2347.00 2363.53 48.00
8588 53.6220 2313.00 2339.26 48.00
8589 53.6280 2230.00 2316.43 47.00
8590 53.6340 2234.00 2295.47 47.00
8591 53.6400 2210.00 2276.73 47.00
8592 53.6460 2277.00 2260.33 48.00
8593 53.6520 2277.00 2246.30 48.00
8594 53.6580 2244.00 2234.59 47.00
8595 53.6640 2194.00 2225.29 47.00
8596 53.6700 2234.00 2218.26 47.00
8597 53.6760 2160.00 2213.68 46.00
8598 53.6820 2152.00 2211.55 46.00
8599 53.6880 2164.00 2211.88 47.00
8600 53.6940 2202.00 2214.34 47.00
8601 53.7000 2259.00 2219.15 48.00
8602 53.7060 2265.00 2225.98 48.00
8603 53.7120 2353.00 2234.32 49.00
8604 53.7180 2326.00 2243.26 48.00
8605 53.7240 2317.00 2252.74 48.00
8606 53.7300 2390.00 2261.52 49.00
8607 53.7360 2366.00 2268.65 49.00
8608 53.7420 2277.00 2273.30 48.00
8609 53.7480 2201.00 2274.89 47.00
8610 53.7540 2323.00 2273.32 48.00
8611 53.7600 2247.00 2268.93 47.00
8612 53.7660 2257.00 2262.43 48.00
8613 53.7720 2236.00 2254.69 47.00
8614 53.7780 2222.00 2246.40 47.00
8615 53.7840 2198.00 2238.42 47.00
8616 53.7900 2180.00 2231.02 47.00
8617 53.7960 2201.00 2224.21 47.00
8618 53.8020 2179.00 2218.65 47.00
8619 53.8080 2137.00 2214.34 46.00
8620 53.8140 2140.00 2211.49 46.00
8621 53.8200 2150.00 2210.26 46.00
8622 53.8260 2217.00 2210.81 47.00
8623 53.8320 2237.00 2213.13 47.00
8624 53.8380 2173.00 2217.23 47.00
8625 53.8440 2233.00 2222.73 47.00
8626 53.8500 2234.00 2229.49 47.00
8627 53.8560 2213.00 2237.23 47.00
8628 53.8620 2242.00 2245.63 47.00
8629 53.8680 2253.00 2254.34 47.00
8630 53.8740 2215.00 2263.02 47.00
8631 53.8800 2265.00 2271.38 48.00
8632 53.8860 2238.00 2279.24 47.00
8633 53.8920 2242.00 2286.35 47.00
8634 53.8980 2346.00 2292.62 48.00
8635 53.9040 2321.00 2297.52 48.00
8636 53.9100 2307.00 2301.48 48.00
8637 53.9160 2289.00 2303.84 48.00
8638 53.9220 2244.00 2304.33 47.00
8639 53.9280 2231.00 2302.83 47.00
8640 53.9340 2209.00 2299.42 47.00
8641 53.9400 2273.00 2294.64 48.00
8642 53.9460 2298.00 2288.54 48.00
8643 53.9520 2211.00 2281.87 47.00
8644 53.9580 2198.00 2274.80 47.00
8645 53.9640 2214.00 2267.68 47.00
8646 53.9700 2224.00 2260.82 47.00
8647 53.9760 2193.00 2254.75 47.00
8648 53.9820 2117.00 2249.91 46.00
8649 53.9880 2135.00 2246.64 46.00
8650 53.9940 2173.00 2245.35 47.00
8651 54.0000 2163.00 2245.63 47.00
8652 54.0060 2117.00 2247.48 46.00
8653 54.0120 2179.00 2250.15 47.00
8654 54.0180 2267.00 2254.37 48.00
8655 54.0240 2206.00 2259.09 47.00
8656 54.0300 2220.00 2263.69 47.00
8657 54.0360 2242.00 2267.58 47.00
8658 54.0420 2225.00 2269.98 47.00
8659 54.0480 2244.00 2270.28 47.00
8660 54.0540 2239.00 2268.48 47.00
8661 54.0600 2176.00 2264.87 47.00
8662 54.0660 2148.00 2259.45 46.00
8663 54.0720 2223.00 2252.70 47.00
8664 54.0780 2163.00 2244.88 47.00
8665 54.0840 2125.00 2235.84 46.00
8666 54.0900 2195.00 2225.56 47.00
8667 54.0960 2171.00 2213.92 47.00
8668 54.1020 2110.00 2201.02 46.00
8669 54.1080 2145.00 2187.07 46.00
8670 54.1140 2197.00 2172.77 47.00
8671 54.1200 2126.00 2158.47 46.00
8672 54.1260 2058.00 2144.81 45.00
8673 54.1320 2116.00 2132.06 46.00
8674 54.1380 2137.00 2120.44 46.00
8675 54.1440 2083.00 2110.07 46.00
8676 54.1500 2071.00 2100.94 46.00
8677 54.1560 2115.00 2092.66 46.00
8678 54.1620 2077.00 2085.85 46.00
8679 54.1680 2029.00 2080.02 45.00
8680 54.1740 2086.00 2075.08 46.00
8681 54.1800 2036.00 2070.80 45.00
8682 54.1860 1993.00 2067.05 45.00
8683 54.1920 2041.00 2063.70 45.00
8684 54.1980 2107.00 2060.64 46.00
8685 54.2040 2132.00 2057.72 46.00
8686 54.2100 2074.00 2055.07 46.00
8687 54.2160 2004.00 2052.60 45.00
8688 54.2220 2012.00 2050.32 45.00
8689 54.2280 2005.00 2048.23 45.00
8690 54.2340 2021.00 2046.26 45.00
8691 54.2400 2002.00 2044.57 45.00
8692 54.2460 1969.00 2043.23 44.00
8693 54.2520 1987.00 2043.07 45.00
8694 54.2580 2019.00 2043.11 45.00
8695 54.2640 2053.00 2043.34 45.00
8696 54.2700 2073.00 2043.62 46.00
8697 54.2760 2060.00 2044.25 45.00
8698 54.2820 2083.00 2045.06 46.00
8699 54.2880 2096.00 2045.94 46.00
8700 54.2940 2059.00 2047.10 45.00
8701 54.3000 2076.00 2048.25 46.00
8702 54.3060 2092.00 2049.67 46.00
8703 54.3120 2062.00 2051.18 45.00
8704 54.3180 2039.00 2052.66 45.00
8705 54.3240 2029.00 2054.18 45.00
8706 54.3300 2015.00 2055.79 45.00
8707 54.3360 2038.00 2057.11 45.00
8708 54.3420 2093.00 2058.16 46.00
8709 54.3480 2107.00 2059.63 46.00
8710 54.3540 2097.00 2060.63 46.00
8711 54.3600 2072.00 2062.14 46.00
8712 54.3660 2093.00 2063.92 46.00
8713 54.3720 2105.00 2066.06 46.00
8714 54.3780 2100.00 2068.58 46.00
8715 54.3840 2149.00 2071.61 46.00
8716 54.3900 2111.00 2074.95 46.00
8717 54.3960 2049.00 2078.66 45.00
8718 54.4020 2114.00 2082.63 46.00
8719 54.4080 2125.00 2086.70 46.00
8720 54.4140 2105.00 2090.59 46.00
8721 54.4200 2057.00 2094.14 45.00
8722 54.4260 2083.00 2096.98 46.00
8723 54.4320 2121.00 2098.85 46.00
8724 54.4380 2079.00 2099.57 46.00
8725 54.4440 2114.00 2099.14 46.00
8726 54.4500 2114.00 2097.72 46.00
8727 54.4560 2061.00 2095.55 45.00
8728 54.4620 2067.00 2092.92 45.00
8729 54.4680 2105.00 2090.11 46.00
8730 54.4740 2110.00 2087.34 46.00
8731 54.4800 2100.00 2084.92 46.00
8732 54.4860 2096.00 2082.67 46.00
8733 54.4920 2098.00 2080.95 46.00
8734 54.4980 2061.00 2079.44 45.00
8735 54.5040 2065.00 2078.53 45.00
8736 54.5100 2064.00 2078.14 45.00
8737 54.5160 2067.00 2077.96 45.00
8738 54.5220 2094.00 2078.73 46.00
8739 54.5280 2071.00 2079.81 46.00
8740 54.5340 2090.00 2081.48 46.00
8741 54.5400 2094.00 2083.56 46.00
8742 54.5460 2108.00 2086.14 46.00
8743 54.5520 2084.00 2089.21 46.00
8744 54.5580 2004.00 2092.76 45.00
8745 54.5640 2049.00 2096.71 45.00
8746 54.5700 2097.00 2101.21 46.00
8747 54.5760 2057.00 2106.04 45.00
8748 54.5820 2078.00 2111.14 46.00
8749 54.5880 2089.00 2116.49 46.00
8750 54.5940 2126.00 2121.66 46.00
8751 54.6000 2110.00 2126.53 46.00
8752 54.6060 2081.00 2131.26 46.00
8753 54.6120 2108.00 2135.12 46.00
8754 54.6180 2069.00 2138.16 45.00
8755 54.6240 2099.00 2140.66 46.00
8756 54.6300 2178.00 2142.86 47.00
8757 54.6360 2162.00 2145.06 46.00
8758 54.6420 2067.00 2147.79 45.00
8759 54.6480 2091.00 2150.59 46.00
8760 54.6540 2127.00 2154.07 46.00
8761 54.6600 2053.00 2158.30 45.00
8762 54.6660 2060.00 2163.38 45.00
8763 54.6720 2156.00 2169.58 46.00
8764 54.6780 2164.00 2177.14 47.00
8765 54.6840 2153.00 2186.03 46.00
8766 54.6900 2216.00 2196.34 47.00
8767 54.6960 2198.00 2208.21 47.00
8768 54.7020 2216.00 2221.71 47.00
8769 54.7080 2233.00 2236.51 47.00
8770 54.7140 2311.00 2252.40 48.00
8771 54.7200 2315.00 2269.12 48.00
8772 54.7260 2389.00 2286.21 49.00
8773 54.7320 2378.00 2303.68 49.00
8774 54.7380 2346.00 2321.01 48.00
8775 54.7440 2426.00 2337.69 49.00
8776 54.7500 2481.00 2353.20 50.00
8777 54.7560 2445.00 2366.99 49.00
8778 54.7620 2465.00 2378.60 50.00
8779 54.7680 2496.00 2387.72 50.00
8780 54.7740 2498.00 2394.26 50.00
8781 54.7800 2448.00 2398.34 49.00
8782 54.7860 2380.00 2400.39 49.00
8783 54.7920 2383.00 2400.88 49.00
8784 54.7980 2481.00 2400.16 50.00
8785 54.8040 2504.00 2398.23 50.00
8786 54.8100 2510.00 2394.64 50.00
8787 54.8160 2501.00 2389.45 50.00
8788 54.8220 2454.00 2381.99 50.00
8789 54.8280 2354.00 2372.36 49.00
8790 54.8340 2319.00 2360.47 48.00
8791 54.8400 2308.00 2346.53 48.00
8792 54.8460 2289.00 2330.88 48.00
8793 54.8520 2332.00 2313.97 48.00
8794 54.8580 2267.00 2296.51 48.00
8795 54.8640 2184.00 2278.64 47.00
8796 54.8700 2160.00 2261.26 46.00
8797 54.8760 2138.00 2244.90 46.00
8798 54.8820 2126.00 2229.89 46.00
8799 54.8880 2148.00 2216.46 46.00
8800 54.8940 2142.00 2204.89 46.00
8801 54.9000 2154.00 2194.95 46.00
8802 54.9060 2121.00 2186.72 46.00
8803 54.9120 2138.00 2180.10 46.00
8804 54.9180 2096.00 2174.93 46.00
8805 54.9240 2101.00 2171.03 46.00
8806 54.9300 2110.00 2168.18 46.00
8807 54.9360 2111.00 2166.14 46.00
8808 54.9420 2144.00 2164.65 46.00
8809 54.9480 2085.00 2163.53 46.00
8810 54.9540 2101.00 2162.52 46.00
8811 54.9600 2089.00 2161.46 46.00
8812 54.9660 2103.00 2160.30 46.00
8813 54.9720 2103.00 2159.10 46.00
8814 54.9780 2102.00 2157.90 46.00
8815 54.9840 2125.00 2156.79 46.00
8816 54.9900 2100.00 2155.88 46.00
8817 54.9960 2127.00 2155.27 46.00
8818 55.0020 2122.00 2155.08 46.00
8819 55.0080 2077.00 2155.39 46.00
8820 55.0140 2051.00 2156.31 45.00
8821 55.0200 2122.00 2156.83 46.00
8822 55.0260 2178.00 2158.14 47.00
8823 55.0320 2109.00 2160.32 46.00
8824 55.0380 2151.00 2163.48 46.00
8825 55.0440 2127.00 2167.85 46.00
8826 55.0500 2135.00 2173.23 46.00
8827 55.0560 2123.00 2179.82 46.00
8828 55.0620 2176.00 2187.67 47.00
8829 55.0680 2201.00 2196.78 47.00
8830 55.0740 2175.00 2207.10 47.00
8831 55.0800 2187.00 2218.47 47.00
8832 55.0860 2159.00 2230.67 46.00
8833 55.0920 2152.00 2243.26 46.00
8834 55.0980 2137.00 2255.71 46.00
8835 55.1040 2176.00 2267.39 47.00
8836 55.1100 2147.00 2277.56 46.00
8837 55.1160 2180.00 2285.64 47.00
8838 55.1220 2152.00 2291.16 46.00
8839 55.1280 2208.00 2293.90 47.00
8840 55.1340 2136.00 2293.76 46.00
8841 55.1400 2161.00 2291.07 46.00
8842 55.1460 2163.00 2286.23 47.00
8843 55.1520 2184.00 2279.69 47.00
8844 55.1580 2131.00 2271.93 46.00
8845 55.1640 2126.00 2263.48 46.00
8846 55.1700 2261.00 2254.64 48.00
8847 55.1760 2209.00 2245.99 47.00
8848 55.1820 2255.00 2238.05 47.00
8849 55.1880 2251.00 2231.30 47.00
8850 55.1940 2157.00 2226.38 46.00
8851 55.2000 2197.00 2223.15 47.00
8852 55.2060 2189.00 2222.16 47.00
8853 55.2120 2158.00 2223.33 46.00
8854 55.2180 2203.00 2226.84 47.00
8855 55.2240 2221.00 2232.67 47.00
8856 55.2300 2197.00 2240.78 47.00
8857 55.2360 2167.00 2250.99 47.00
8858 55.2420 2165.00 2263.03 47.00
8859 55.2480 2265.00 2276.49 48.00
8860 55.2540 2246.00 2290.83 47.00
8861 55.2600 2249.00 2305.38 47.00
8862 55.2660 2195.00 2319.50 47.00
8863 55.2720 2234.00 2332.56 47.00
8864 55.2780 2282.00 2344.16 48.00
8865 55.2840 2276.00 2354.08 48.00
8866 55.2900 2336.00 2362.39 48.00
8867 55.2960 2271.00 2368.92 48.00
8868 55.3020 2330.00 2374.00 48.00
8869 55.3080 2355.00 2377.78 49.00
8870 55.3140 2318.00 2380.84 48.00
8871 55.3200 2228.00 2383.63 47.00
8872 55.3260 2389.00 2387.01 49.00
8873 55.3320 2406.00 2391.79 49.00
8874 55.3380 2375.00 2398.67 49.00
8875 55.3440 2420.00 2408.11 49.00
8876 55.3500 2457.00 2420.27 50.00
8877 55.3560 2473.00 2435.02 50.00
8878 55.3620 2491.00 2451.90 50.00
8879 55.3680 2501.00 2470.05 50.00
8880 55.3740 2519.00 2488.47 50.00
8881 55.3800 2545.00 2505.92 50.00
8882 55.3860 2527.00 2521.04 50.00
8883 55.3920 2516.00 2532.54 50.00
8884 55.3980 2539.00 2539.40 50.00
8885 55.4040 2579.00 2541.11 51.00
8886 55.4100 2631.00 2537.67 51.00
8887 55.4160 2547.00 2529.41 50.00
8888 55.4220 2534.00 2516.78 50.00
8889 55.4280 2503.00 2500.30 50.00
8890 55.4340 2434.00 2480.56 49.00
8891 55.4400 2435.00 2458.23 49.00
8892 55.4460 2364.00 2434.20 49.00
8893 55.4520 2332.00 2409.24 48.00
8894 55.4580 2348.00 2384.05 48.00
8895 55.4640 2224.00 2359.19 47.00
8896 55.4700 2228.00 2335.04 47.00
8897 55.4760 2177.00 2312.05 47.00
8898 55.4820 2163.00 2290.80 47.00
8899 55.4880 2163.00 2271.14 47.00
8900 55.4940 2202.00 2253.47 47.00
8901 55.5000 2149.00 2238.12 46.00
8902 55.5060 2196.00 2225.08 47.00
8903 55.5120 2201.00 2214.34 47.00
8904 55.5180 2183.00 2205.80 47.00
8905 55.5240 2117.00 2199.38 46.00
8906 55.5300 2070.00 2194.74 45.00
8907 55.5360 2163.00 2191.88 47.00
8908 55.5420 2118.00 2190.33 46.00
8909 55.5480 2169.00 2189.81 47.00
8910 55.5540 2208.00 2189.81 47.00
8911 55.5600 2183.00 2190.02 47.00
8912 55.5660 2226.00 2190.22 47.00
8913 55.5720 2262.00 2190.34 48.00
8914 55.5780 2165.00 2189.92 47.00
8915 55.5840 2218.00 2189.32 47.00
8916 55.5900 2121.00 2188.90 46.00
8917 55.5960 2107.00 2188.38 46.00
8918 55.6020 2247.00 2188.35 47.00
8919 55.6080 2200.00 2189.16 47.00
8920 55.6140 2168.00 2190.75 47.00
8921 55.6200 2090.00 2193.00 46.00
8922 55.6260 2112.00 2196.10 46.00
8923 55.6320 2243.00 2199.59 47.00
8924 55.6380 2239.00 2202.81 47.00
8925 55.6440 2168.00 2205.65 47.00
8926 55.6500 2229.00 2207.85 47.00
8927 55.6560 2215.00 2208.78 47.00
8928 55.6620 2178.00 2208.81 47.00
8929 55.6680 2204.00 2207.49 47.00
8930 55.6740 2170.00 2205.09 47.00
8931 55.6800 2215.00 2201.68 47.00
8932 55.6860 2221.00 2197.32 47.00
8933 55.6920 2236.00 2192.17 47.00
8934 55.6980 2247.00 2186.51 47.00
8935 55.7040 2123.00 2180.65 46.00
8936 55.7100 2109.00 2174.89 46.00
8937 55.7160 2192.00 2169.48 47.00
8938 55.7220 2173.00 2164.53 47.00
8939 55.7280 2099.00 2160.02 46.00
8940 55.7340 2127.00 2155.85 46.00
8941 55.7400 2027.00 2151.97 45.00
8942 55.7460 2164.00 2148.26 47.00
8943 55.7520 2083.00 2144.74 46.00
8944 55.7580 2084.00 2141.51 46.00
8945 55.7640 2022.00 2139.02 45.00
8946 55.7700 2124.00 2137.22 46.00
8947 55.7760 2111.00 2136.18 46.00
8948 55.7820 2102.00 2136.10 46.00
8949 55.7880 2074.00 2136.88 46.00
8950 55.7940 2079.00 2138.59 46.00
8951 55.8000 2158.00 2141.18 46.00
8952 55.8060 2141.00 2144.54 46.00
8953 55.8120 2135.00 2148.47 46.00
8954 55.8180 2091.00 2152.70 46.00
8955 55.8240 2195.00 2156.90 47.00
8956 55.8300 2193.00 2160.70 47.00
8957 55.8360 2131.00 2163.79 46.00
8958 55.8420 2163.00 2165.99 47.00
8959 55.8480 2206.00 2167.33 47.00
8960 55.8540 2163.00 2168.03 47.00
8961 55.8600 2118.00 2168.39 46.00
8962 55.8660 2109.00 2168.77 46.00
8963 55.8720 2196.00 2169.46 47.00
8964 55.8780 2128.00 2170.68 46.00
8965 55.8840 2282.00 2172.62 48.00
8966 55.8900 2197.00 2175.43 47.00
8967 55.8960 2190.00 2179.06 47.00
8968 55.9020 2201.00 2183.86 47.00
8969 55.9080 2177.00 2189.70 47.00
8970 55.9140 2207.00 2196.31 47.00
8971 55.9200 2269.00 2203.98 48.00
8972 55.9260 2314.00 2212.45 48.00
8973 55.9320 2228.00 2221.63 47.00
8974 55.9380 2242.00 2231.44 47.00
8975 55.9440 2235.00 2241.89 47.00
8976 55.9500 2192.00 2252.63 47.00
8977 55.9560 2151.00 2263.59 46.00
8978 55.9620 2215.00 2274.30 47.00
8979 55.9680 2241.00 2284.26 47.00
8980 55.9740 2165.00 2292.94 47.00
8981 55.9800 2295.00 2299.61 48.00
8982 55.9860 2271.00 2303.62 48.00
8983 55.9920 2240.00 2304.30 47.00
8984 55.9980 2204.00 2301.36 47.00
8985 56.0040 2136.00 2295.09 46.00
8986 56.0100 2235.00 2285.82 47.00
8987 56.0160 2239.00 2274.62 47.00
8988 56.0220 2302.00 2262.72 48.00
8989 56.0280 2215.00 2250.81 47.00
8990 56.0340 2183.00 2239.88 47.00
8991 56.0400 2161.00 2230.58 46.00
8992 56.0460 2151.00 2223.14 46.00
8993 56.0520 2165.00 2217.80 47.00
8994 56.0580 2172.00 2214.37 47.00
8995 56.0640 2184.00 2212.95 47.00
8996 56.0700 2243.00 2213.12 47.00
8997 56.0760 2187.00 2214.22 47.00
8998 56.0820 2160.00 2215.75 46.00
8999 56.0880 2275.00 2217.06 48.00
9000 56.0940 2114.00 2217.49 46.00
9001 56.1000 2288.00 2217.11 48.00
9002 56.1060 2309.00 2215.41 48.00
9003 56.1120 2292.00 2212.43 48.00
9004 56.1180 2308.00 2208.58 48.00
9005 56.1240 2263.00 2204.19 48.00
9006 56.1300 2195.00 2199.54 47.00
9007 56.1360 2105.00 2195.02 46.00
9008 56.1420 2238.00 2191.03 47.00
9009 56.1480 2236.00 2187.56 47.00
9010 56.1540 2229.00 2184.83 47.00
9011 56.1600 2257.00 2182.74 48.00
9012 56.1660 2164.00 2181.08 47.00
9013 56.1720 2270.00 2179.94 48.00
9014 56.1780 2208.00 2179.10 47.00
9015 56.1840 2124.00 2178.20 46.00
9016 56.1900 2093.00 2176.88 46.00
9017 56.1960 2100.00 2176.06 46.00
9018 56.2020 2224.00 2175.07 47.00
9019 56.2080 2147.00 2174.26 46.00
9020 56.2140 2149.00 2173.83 46.00
9021 56.2200 2211.00 2174.24 47.00
9022 56.2260 2109.00 2175.34 46.00
9023 56.2320 2175.00 2177.90 47.00
9024 56.2380 2187.00 2181.66 47.00
9025 56.2440 2149.00 2186.58 46.00
9026 56.2500 2209.00 2192.43 47.00
9027 56.2560 2222.00 2199.02 47.00
9028 56.2620 2172.00 2205.84 47.00
9029 56.2680 2107.00 2212.64 46.00
9030 56.2740 2188.00 2218.85 47.00
9031 56.2800 2167.00 2224.13 47.00
9032 56.2860 2179.00 2228.34 47.00
9033 56.2920 2115.00 2231.70 46.00
9034 56.2980 2261.00 2234.63 48.00
9035 56.3040 2179.00 2237.79 47.00
9036 56.3100 2190.00 2241.85 47.00
9037 56.3160 2149.00 2247.43 46.00
9038 56.3220 2166.00 2254.88 47.00
9039 56.3280 2242.00 2264.46 47.00
9040 56.3340 2269.00 2276.19 48.00
9041 56.3400 2340.00 2289.85 48.00
9042 56.3460 2311.00 2305.19 48.00
9043 56.3520 2356.00 2321.51 49.00
9044 56.3580 2356.00 2337.79 49.00
9045 56.3640 2348.00 2353.34 48.00
9046 56.3700 2456.00 2367.64 50.00
9047 56.3760 2470.00 2379.93 50.00
9048 56.3820 2384.00 2389.78 49.00
9049 56.3880 2370.00 2397.14 49.00
9050 56.3940 2401.00 2402.37 49.00
9051 56.4000 2381.00 2405.51 49.00
9052 56.4060 2403.00 2407.36 49.00
9053 56.4120 2425.00 2408.43 49.00
9054 56.4180 2427.00 2408.98 49.00
9055 56.4240 2402.00 2408.94 49.00
9056 56.4300 2342.00 2407.97 48.00
9057 56.4360 2406.00 2405.50 49.00
9058 56.4420 2450.00 2400.94 49.00
9059 56.4480 2433.00 2393.61 49.00
9060 56.4540 2401.00 2383.45 49.00
9061 56.4600 2361.00 2370.10 49.00
9062 56.4660 2334.00 2353.67 48.00
9063 56.4720 2294.00 2334.54 48.00
9064 56.4780 2264.00 2313.41 48.00
9065 56.4840 2263.00 2291.07 48.00
9066 56.4900 2229.00 2268.60 47.00
9067 56.4960 2216.00 2246.76 47.00
9068 56.5020 2216.00 2226.17 47.00
9069 56.5080 2233.00 2207.29 47.00
9070 56.5140 2232.00 2190.50 47.00
9071 56.5200 2156.00 2175.72 46.00
9072 56.5260 2129.00 2163.30 46.00
9073 56.5320 2209.00 2152.70 47.00
9074 56.5380 2180.00 2143.98 47.00
9075 56.5440 2122.00 2137.18 46.00
9076 56.5500 2194.00 2131.77 47.00
9077 56.5560 2156.00 2127.70 46.00
9078 56.5620 2124.00 2124.58 46.00
9079 56.5680 2144.00 2122.14 46.00
9080 56.5740 2189.00 2120.36 47.00
9081 56.5800 2183.00 2118.41 47.00
9082 56.5860 2224.00 2116.20 47.00
9083 56.5920 2151.00 2113.62 46.00
9084 56.5980 2046.00 2110.64 45.00
9085 56.6040 2075.00 2107.56 46.00
9086 56.6100 2105.00 2104.06 46.00
9087 56.6160 2162.00 2100.51 46.00
9088 56.6220 2080.00 2097.05 46.00
9089 56.6280 2116.00 2093.81 46.00
9090 56.6340 2192.00 2090.84 47.00
9091 56.6400 2163.00 2088.06 47.00
9092 56.6460 2127.00 2085.86 46.00
9093 56.6520 2187.00 2083.99 47.00
9094 56.6580 2180.00 2082.60 47.00
9095 56.6640 2097.00 2081.53 46.00
9096 56.6700 2101.00 2080.88 46.00
9097 56.6760 2116.00 2080.87 46.00
9098 56.6820 2055.00 2081.09 45.00
9099 56.6880 2151.00 2081.68 46.00
9100 56.6940 2149.00 2082.72 46.00
9101 56.7000 2131.00 2084.21 46.00
9102 56.7060 2082.00 2086.19 46.00
9103 56.7120 2143.00 2088.75 46.00
9104 56.7180 2133.00 2091.79 46.00
9105 56.7240 2182.00 2095.37 47.00
9106 56.7300 2149.00 2099.68 46.00
9107 56.7360 2102.00 2104.71 46.00
9108 56.7420 2153.00 2110.40 46.00
9109 56.7480 2161.00 2116.83 46.00
9110 56.7540 2122.00 2124.10 46.00
9111 56.7600 2095.00 2132.03 46.00
9112 56.7660 2175.00 2140.95 47.00
9113 56.7720 2218.00 2150.80 47.00
9114 56.7780 2158.00 2161.60 46.00
9115 56.7840 2193.00 2173.28 47.00
9116 56.7900 2203.00 2185.48 47.00
9117 56.7960 2257.00 2198.40 48.00
9118 56.8020 2243.00 2211.23 47.00
9119 56.8080 2235.00 2223.98 47.00
9120 56.8140 2153.00 2235.96 46.00
9121 56.8200 2193.00 2246.68 47.00
9122 56.8260 2247.00 2255.79 47.00
9123 56.8320 2273.00 2263.07 48.00
9124 56.8380 2303.00 2268.48 48.00
9125 56.8440 2396.00 2272.16 49.00
9126 56.8500 2321.00 2274.36 48.00
9127 56.8560 2244.00 2275.40 47.00
9128 56.8620 2156.00 2275.53 46.00
9129 56.8680 2211.00 2274.71 47.00
9130 56.8740 2262.00 2273.10 48.00
9131 56.8800 2292.00 2270.90 48.00
9132 56.8860 2357.00 2267.92 49.00
9133 56.8920 2244.00 2264.37 47.00
9134 56.8980 2286.00 2260.73 48.00
9135 56.9040 2252.00 2257.06 47.00
9136 56.9100 2270.00 2253.69 48.00
9137 56.9160 2259.00 2250.61 48.00
9138 56.9220 2296.00 2247.72 48.00
9139 56.9280 2256.00 2245.14 47.00
9140 56.9340 2236.00 2242.66 47.00
9141 56.9400 2326.00 2240.15 48.00
9142 56.9460 2322.00 2237.62 48.00
9143 56.9520 2292.00 2234.90 48.00
9144 56.9580 2245.00 2232.16 47.00
9145 56.9640 2280.00 2229.49 48.00
9146 56.9700 2308.00 2226.93 48.00
9147 56.9760 2247.00 2224.67 47.00
9148 56.9820 2202.00 2222.29 47.00
9149 56.9880 2226.00 2219.62 47.00
9150 56.9940 2289.00 2216.30 48.00
9151 57.0000 2177.00 2211.86 47.00
9152 57.0060 2180.00 2206.33 47.00
9153 57.0120 2173.00 2199.47 47.00
9154 57.0180 2212.00 2191.49 47.00
9155 57.0240 2177.00 2182.76 47.00
9156 57.0300 2161.00 2173.76 46.00
9157 57.0360 2143.00 2164.94 46.00
9158 57.0420 2123.00 2156.77 46.00
9159 57.0480 2146.00 2149.46 46.00
9160 57.0540 2165.00 2143.28 47.00
9161 57.0600 2128.00 2138.42 46.00
9162 57.0660 2095.00 2135.14 46.00
9163 57.0720 2107.00 2133.22 46.00
9164 57.0780 2171.00 2132.93 47.00
9165 57.0840 2202.00 2134.31 47.00
9166 57.0900 2190.00 2137.16 47.00
9167 57.0960 2156.00 2141.96 46.00
9168 57.1020 2140.00 2148.47 46.00
9169 57.1080 2178.00 2156.64 47.00
9170 57.1140 2222.00 2166.36 47.00
9171 57.1200 2185.00 2177.52 47.00
9172 57.1260 2167.00 2189.83 47.00
9173 57.1320 2233.00 2202.98 47.00
9174 57.1380 2261.00 2216.57 48.00
9175 57.1440 2275.00 2230.14 48.00
9176 57.1500 2211.00 2242.96 47.00
9177 57.1560 2213.00 2254.37 47.00
9178 57.1620 2257.00 2263.76 48.00
9179 57.1680 2226.00 2270.64 47.00
9180 57.1740 2279.00 2274.72 48.00
9181 57.1800 2224.00 2276.10 47.00
9182 57.1860 2237.00 2274.91 47.00
9183 57.1920 2295.00 2271.99 48.00
9184 57.1980 2268.00 2267.53 48.00
9185 57.2040 2279.00 2261.44 48.00
9186 57.2100 2237.00 2254.32 47.00
9187 57.2160 2254.00 2246.09 47.00
9188 57.2220 2269.00 2237.00 48.00
9189 57.2280 2197.00 2227.47 47.00
9190 57.2340 2167.00 2218.11 47.00
9191 57.2400 2255.00 2209.39 47.00
9192 57.2460 2204.00 2201.74 47.00
9193 57.2520 2192.00 2195.99 47.00
9194 57.2580 2162.00 2192.29 46.00
9195 57.2640 2145.00 2190.65 46.00
9196 57.2700 2093.00 2191.67 46.00
9197 57.2760 2115.00 2195.32 46.00
9198 57.2820 2201.00 2201.18 47.00
9199 57.2880 2181.00 2209.78 47.00
9200 57.2940 2206.00 2220.82 47.00
9201 57.3000 2242.00 2234.18 47.00
9202 57.3060 2214.00 2249.66 47.00
9203 57.3120 2282.00 2267.09 48.00
9204 57.3180 2328.00 2286.12 48.00
9205 57.3240 2325.00 2306.39 48.00
9206 57.3300 2357.00 2327.26 49.00
9207 57.3360 2350.00 2347.96 48.00
9208 57.3420 2364.00 2367.77 49.00
9209 57.3480 2346.00 2385.91 48.00
9210 57.3540 2317.00 2401.83 48.00
9211 57.3600 2375.00 2415.12 49.00
9212 57.3660 2408.00 2425.71 49.00
9213 57.3720 2421.00 2433.59 49.00
9214 57.3780 2411.00 2438.85 49.00
9215 57.3840 2360.00 2441.56 49.00
9216 57.3900 2326.00 2441.70 48.00
9217 57.3960 2322.00 2439.25 48.00
9218 57.4020 2368.00 2434.24 49.00
9219 57.4080 2383.00 2427.06 49.00
9220 57.4140 2421.00 2418.08 49.00
9221 57.4200 2449.00 2407.70 49.00
9222 57.4260 2371.00 2396.50 49.00
9223 57.4320 2323.00 2385.02 48.00
9224 57.4380 2335.00 2373.87 48.00
9225 57.4440 2394.00 2363.61 49.00
9226 57.4500 2415.00 2354.72 49.00
9227 57.4560 2389.00 2347.46 49.00
9228 57.4620 2385.00 2341.87 49.00
9229 57.4680 2377.00 2337.68 49.00
9230 57.4740 2316.00 2334.44 48.00
9231 57.4800 2324.00 2331.53 48.00
9232 57.4860 2302.00 2328.24 48.00
9233 57.4920 2272.00 2323.91 48.00
9234 57.4980 2287.00 2318.04 48.00
9235 57.5040 2316.00 2310.40 48.00
9236 57.5100 2332.00 2301.05 48.00
9237 57.5160 2302.00 2290.36 48.00
9238 57.5220 2289.00 2278.70 48.00
9239 57.5280 2248.00 2266.62 47.00
9240 57.5340 2214.00 2254.48 47.00
9241 57.5400 2198.00 2242.57 47.00
9242 57.5460 2199.00 2231.03 47.00
9243 57.5520 2161.00 2219.97 46.00
9244 57.5580 2096.00 2209.38 46.00
9245 57.5640 2130.00 2199.26 46.00
9246 57.5700 2165.00 2189.47 47.00
9247 57.5760 2130.00 2180.09 46.00
9248 57.5820 2138.00 2171.16 46.00
9249 57.5880 2171.00 2162.80 47.00
9250 57.5940 2166.00 2155.34 47.00
9251 57.6000 2152.00 2148.72 46.00
9252 57.6060 2116.00 2143.29 46.00
9253 57.6120 2081.00 2139.13 46.00
9254 57.6180 2106.00 2136.41 46.00
9255 57.6240 2132.00 2135.18 46.00
9256 57.6300 2125.00 2135.43 46.00
9257 57.6360 2061.00 2137.01 45.00
9258 57.6420 2096.00 2140.10 46.00
9259 57.6480 2199.00 2144.43 47.00
9260 57.6540 2165.00 2149.65 47.00
9261 57.6600 2160.00 2155.81 46.00
9262 57.6660 2181.00 2162.41 47.00
9263 57.6720 2132.00 2168.80 46.00
9264 57.6780 2165.00 2174.66 47.00
9265 57.6840 2210.00 2179.41 47.00
9266 57.6900 2191.00 2182.64 47.00
9267 57.6960 2196.00 2183.88 47.00
9268 57.7020 2215.00 2183.47 47.00
9269 57.7080 2185.00 2181.34 47.00
9270 57.7140 2163.00 2177.86 47.00
9271 57.7200 2230.00 2173.47 47.00
9272 57.7260 2212.00 2168.77 47.00
9273 57.7320 2136.00 2164.06 46.00
9274 57.7380 2129.00 2159.92 46.00
9275 57.7440 2083.00 2156.59 46.00
9276 57.7500 2026.00 2154.19 45.00
9277 57.7560 2063.00 2152.68 45.00
9278 57.7620 2152.00 2152.16 46.00
9279 57.7680 2180.00 2152.33 47.00
9280 57.7740 2188.00 2152.94 47.00
9281 57.7800 2191.00 2153.91 47.00
9282 57.7860 2158.00 2154.97 46.00
9283 57.7920 2150.00 2155.93 46.00
9284 57.7980 2130.00 2156.64 46.00
9285 57.8040 2178.00 2157.00 47.00
9286 57.8100 2213.00 2156.92 47.00
9287 57.8160 2195.00 2156.54 47.00
9288 57.8220 2110.00 2155.84 46.00
9289 57.8280 2043.00 2154.94 45.00
9290 57.8340 2091.00 2154.25 46.00
9291 57.8400 2099.00 2153.75 46.00
9292 57.8460 2062.00 2153.56 45.00
9293 57.8520 2085.00 2153.72 46.00
9294 57.8580 2135.00 2154.22 46.00
9295 57.8640 2135.00 2154.98 46.00
9296 57.8700 2159.00 2155.89 46.00
9297 57.8760 2185.00 2156.75 47.00
9298 57.8820 2175.00 2157.38 47.00
9299 57.8880 2181.00 2157.62 47.00
9300 57.8940 2155.00 2157.33 46.00
9301 57.9000 2110.00 2156.46 46.00
9302 57.9060 2119.00 2155.08 46.00
9303 57.9120 2177.00 2153.41 47.00
9304 57.9180 2167.00 2151.72 47.00
9305 57.9240 2159.00 2150.31 46.00
9306 57.9300 2106.00 2149.43 46.00
9307 57.9360 2080.00 2149.27 46.00
9308 57.9420 2080.00 2149.96 46.00
9309 57.9480 2120.00 2151.42 46.00
9310 57.9540 2174.00 2153.65 47.00
9311 57.9600 2110.00 2156.53 46.00
9312 57.9660 2098.00 2160.05 46.00
9313 57.9720 2135.00 2163.80 46.00
9314 57.9780 2134.00 2167.59 46.00
9315 57.9840 2122.00 2170.96 46.00
9316 57.9900 2186.00 2173.86 47.00
9317 57.9960 2139.00 2175.68 46.00
9318 58.0020 2117.00 2176.59 46.00
9319 58.0080 2106.00 2176.34 46.00
9320 58.0140 2159.00 2174.97 46.00
9321 58.0200 2165.00 2172.64 47.00
9322 58.0260 2130.00 2169.61 46.00
9323 58.0320 2114.00 2165.95 46.00
9324 58.0380 2108.00 2161.73 46.00
9325 58.0440 2196.00 2157.45 47.00
9326 58.0500 2214.00 2153.16 47.00
9327 58.0560 2150.00 2148.97 46.00
9328 58.0620 2099.00 2145.05 46.00
9329 58.0680 2083.00 2141.47 46.00
9330 58.0740 2230.00 2138.30 47.00
9331 58.0800 2113.00 2135.58 46.00
9332 58.0860 2089.00 2133.22 46.00
9333 58.0920 2120.00 2131.17 46.00
9334 58.0980 2072.00 2129.34 46.00
9335 58.1040 2119.00 2127.43 46.00
9336 58.1100 2133.00 2125.38 46.00
9337 58.1160 2111.00 2123.09 46.00
9338 58.1220 2116.00 2120.54 46.00
9339 58.1280 2136.00 2117.81 46.00
9340 58.1340 2060.00 2115.07 45.00
9341 58.1400 2081.00 2112.37 46.00
9342 58.1460 2074.00 2109.83 46.00
9343 58.1520 2082.00 2107.15 46.00
9344 58.1580 2100.00 2104.34 46.00
9345 58.1640 2035.00 2101.23 45.00
9346 58.1700 2100.00 2097.94 46.00
9347 58.1760 2076.00 2094.17 46.00
9348 58.1820 2110.00 2090.50 46.00
9349 58.1880 1996.00 2086.75 45.00
9350 58.1940 2081.00 2083.18 46.00
9351 58.2000 2132.00 2080.06 46.00
9352 58.2060 2183.00 2077.21 47.00
9353 58.2120 2104.00 2074.89 46.00
9354 58.2180 2045.00 2073.17 45.00
9355 58.2240 2121.00 2071.45 46.00
9356 58.2300 2100.00 2070.32 46.00
9357 58.2360 2040.00 2069.50 45.00
9358 58.2420 2077.00 2068.81 46.00
9359 58.2480 2089.00 2068.14 46.00
9360 58.2540 2095.00 2067.18 46.00
9361 58.2600 2113.00 2066.37 46.00
9362 58.2660 2120.00 2065.51 46.00
9363 58.2720 2058.00 2064.86 45.00
9364 58.2780 2119.00 2064.15 46.00
9365 58.2840 2128.00 2063.68 46.00
9366 58.2900 2090.00 2063.53 46.00
9367 58.2960 2092.00 2063.74 46.00
9368 58.3020 2042.00 2064.31 45.00
9369 58.3080 2026.00 2065.34 45.00
9370 58.3140 2087.00 2066.70 46.00
9371 58.3200 2108.00 2068.54 46.00
9372 58.3260 2067.00 2070.47 45.00
9373 58.3320 2043.00 2072.82 45.00
9374 58.3380 2109.00 2075.44 46.00
9375 58.3440 2056.00 2078.18 45.00
9376 58.3500 2075.00 2080.92 46.00
9377 58.3560 2060.00 2083.64 45.00
9378 58.3620 2064.00 2086.36 45.00
9379 58.3680 2077.00 2089.05 46.00
9380 58.3740 2003.00 2092.08 45.00
9381 58.3800 2080.00 2095.20 46.00
9382 58.3860 2133.00 2098.57 46.00
9383 58.3920 2092.00 2102.28 46.00
9384 58.3980 2116.00 2106.02 46.00
9385 58.4040 2062.00 2109.78 45.00
9386 58.4100 2100.00 2113.32 46.00
9387 58.4160 2174.00 2116.73 47.00
9388 58.4220 2117.00 2119.47 46.00
9389 58.4280 2170.00 2121.47 47.00
9390 58.4340 2144.00 2122.57 46.00
9391 58.4400 2134.00 2122.71 46.00
9392 58.4460 2132.00 2122.00 46.00
9393 58.4520 2121.00 2120.64 46.00
9394 58.4580 2244.00 2118.60 47.00
9395 58.4640 2122.00 2116.32 46.00
9396 58.4700 2179.00 2114.11 47.00
9397 58.4760 2172.00 2111.99 47.00
9398 58.4820 2081.00 2110.18 46.00
9399 58.4880 2082.00 2108.75 46.00
9400 58.4940 2094.00 2107.53 46.00
9401 58.5000 2109.00 2106.51 46.00
9402 58.5060 2121.00 2105.75 46.00
9403 58.5120 2084.00 2104.90 46.00
9404 58.5180 2135.00 2103.95 46.00
9405 58.5240 2051.00 2103.29 45.00
9406 58.5300 2175.00 2102.71 47.00
9407 58.5360 2146.00 2102.30 46.00
9408 58.5420 2127.00 2101.95 46.00
9409 58.5480 2105.00 2101.89 46.00
9410 58.5540 2045.00 2101.88 45.00
9411 58.5600 2129.00 2101.79 46.00
9412 58.5660 2049.00 2101.54 45.00
9413 58.5720 2086.00 2100.94 46.00
9414 58.5780 2032.00 2100.02 45.00
9415 58.5840 2096.00 2098.79 46.00
9416 58.5900 2137.00 2097.28 46.00
9417 58.5960 2047.00 2095.61 45.00
9418 58.6020 2177.00 2093.64 47.00
9419 58.6080 2099.00 2091.44 46.00
9420 58.6140 2119.00 2089.05 46.00
9421 58.6200 2106.00 2086.54 46.00
9422 58.6260 2081.00 2084.18 46.00
9423 58.6320 2099.00 2081.69 46.00
9424 58.6380 2132.00 2079.35 46.00
9425 58.6440 2098.00 2077.08 46.00
9426 58.6500 2159.00 2075.12 46.00
9427 58.6560 2045.00 2073.34 45.00
9428 58.6620 2180.00 2071.74 47.00
9429 58.6680 2020.00 2070.40 45.00
9430 58.6740 2040.00 2069.14 45.00
9431 58.6800 2072.00 2068.17 46.00
9432 58.6860 2013.00 2067.48 45.00
9433 58.6920 2058.00 2067.12 45.00
9434 58.6980 2091.00 2067.16 46.00
9435 58.7040 2052.00 2067.43 45.00
9436 58.7100 2103.00 2068.07 46.00
9437 58.7160 2072.00 2069.02 46.00
9438 58.7220 2136.00 2070.27 46.00
9439 58.7280 2112.00 2071.81 46.00
9440 58.7340 2150.00 2073.52 46.00
9441 58.7400 2156.00 2075.71 46.00
9442 58.7460 2087.00 2078.33 46.00
9443 58.7520 2050.00 2081.22 45.00
9444 58.7580 2146.00 2084.47 46.00
9445 58.7640 2153.00 2088.02 46.00
9446 58.7700 2096.00 2091.79 46.00
9447 58.7760 2196.00 2095.67 47.00
9448 58.7820 2124.00 2099.57 46.00
9449 58.7880 2152.00 2103.41 46.00
9450 58.7940 2031.00 2106.99 45.00
9451 58.8000 2078.00 2110.36 46.00
9452 58.8060 2068.00 2113.36 45.00
9453 58.8120 2063.00 2116.04 45.00
9454 58.8180 2161.00 2118.40 46.00
9455 58.8240 2136.00 2120.62 46.00
9456 58.8300 2175.00 2122.65 47.00
9457 58.8360 2238.00 2124.65 47.00
9458 58.8420 2129.00 2126.67 46.00
9459 58.8480 2154.00 2128.83 46.00
9460 58.8540 2135.00 2131.08 46.00
9461 58.8600 2126.00 2133.38 46.00
9462 58.8660 2100.00 2135.62 46.00
9463 58.8720 2195.00 2137.61 47.00
9464 58.8780 2178.00 2139.41 47.00
9465 58.8840 2200.00 2140.89 47.00
9466 58.8900 2169.00 2142.06 47.00
9467 58.8960 2185.00 2143.01 47.00
9468 58.9020 2124.00 2143.90 46.00
9469 58.9080 2188.00 2144.82 47.00
9470 58.9140 2143.00 2146.05 46.00
9471 58.9200 2203.00 2147.63 47.00
9472 58.9260 2156.00 2149.59 46.00
9473 58.9320 2075.00 2152.00 46.00
9474 58.9380 2211.00 2154.55 47.00
9475 58.9440 2156.00 2157.22 46.00
9476 58.9500 2142.00 2159.75 46.00
9477 58.9560 2107.00 2162.26 46.00
9478 58.9620 2204.00 2164.56 47.00
9479 58.9680 2182.00 2166.61 47.00
9480 58.9740 2227.00 2168.45 47.00
9481 58.9800 2190.00 2170.06 47.00
9482 58.9860 2191.00 2171.45 47.00
9483 58.9920 2142.00 2172.64 46.00
9484 58.9980 2252.00 2173.68 47.00
9485 59.0040 2145.00 2174.64 46.00
9486 59.0100 2166.00 2175.75 47.00
9487 59.0160 2176.00 2177.26 47.00
9488 59.0220 2141.00 2179.43 46.00
9489 59.0280 2205.00 2182.13 47.00
9490 59.0340 2195.00 2185.49 47.00
9491 59.0400 2262.00 2189.25 48.00
9492 59.0460 2218.00 2193.21 47.00
9493 59.0520 2216.00 2197.00 47.00
9494 59.0580 2173.00 2200.27 47.00
9495 59.0640 2198.00 2202.73 47.00
9496 59.0700 2185.00 2204.14 47.00
9497 59.0760 2139.00 2204.57 46.00
9498 59.0820 2090.00 2204.12 46.00
9499 59.0880 2138.00 2203.09 46.00
9500 59.0940 2119.00 2201.74 46.00
9501 59.1000 2122.00 2200.40 46.00
9502 59.1060 2183.00 2199.12 47.00
9503 59.1120 2076.00 2197.85 46.00
9504 59.1180 2190.00 2196.65 47.00
9505 59.1240 2183.00 2195.08 47.00
9506 59.1300 2137.00 2193.12 46.00
9507 59.1360 2148.00 2191.03 46.00
9508 59.1420 2163.00 2188.66 47.00
9509 59.1480 2226.00 2186.44 47.00
9510 59.1540 2093.00 2184.65 46.00
9511 59.1600 2150.00 2183.62 46.00
9512 59.1660 2164.00 2183.49 47.00
9513 59.1720 2168.00 2184.49 47.00
9514 59.1780 2216.00 2186.76 47.00
9515 59.1840 2194.00 2190.51 47.00
9516 59.1900 2212.00 2195.65 47.00
9517 59.1960 2263.00 2202.21 48.00
9518 59.2020 2259.00 2210.22 48.00
9519 59.2080 2221.00 2219.48 47.00
9520 59.2140 2308.00 2229.72 48.00
9521 59.2200 2359.00 2240.63 49.00
9522 59.2260 2306.00 2251.91 48.00
9523 59.2320 2273.00 2262.91 48.00
9524 59.2380 2228.00 2273.39 47.00
9525 59.2440 2261.00 2283.02 48.00
9526 59.2500 2293.00 2291.56 48.00
9527 59.2560 2306.00 2299.00 48.00
9528 59.2620 2299.00 2305.32 48.00
9529 59.2680 2334.00 2310.65 48.00
9530 59.2740 2391.00 2315.18 49.00
9531 59.2800 2356.00 2318.82 49.00
9532 59.2860 2311.00 2321.94 48.00
9533 59.2920 2264.00 2324.37 48.00
9534 59.2980 2274.00 2326.08 48.00
9535 59.3040 2307.00 2326.83 48.00
9536 59.3100 2322.00 2326.57 48.00
9537 59.3160 2294.00 2325.17 48.00
9538 59.3220 2277.00 2322.79 48.00
9539 59.3280 2301.00 2319.54 48.00
9540 59.3340 2274.00 2315.60 48.00
9541 59.3400 2284.00 2311.06 48.00
9542 59.3460 2292.00 2306.02 48.00
9543 59.3520 2236.00 2300.32 47.00
9544 59.3580 2225.00 2293.96 47.00
9545 59.3640 2216.00 2287.03 47.00
9546 59.3700 2224.00 2279.51 47.00
9547 59.3760 2226.00 2271.57 47.00
9548 59.3820 2292.00 2263.41 48.00
9549 59.3880 2258.00 2255.37 48.00
9550 59.3940 2197.00 2247.81 47.00
9551 59.4000 2231.00 2241.08 47.00
9552 59.4060 2266.00 2235.47 48.00
9553 59.4120 2200.00 2231.32 47.00
9554 59.4180 2108.00 2228.35 46.00
9555 59.4240 2106.00 2226.85 46.00
9556 59.4300 2136.00 2226.62 46.00
9557 59.4360 2237.00 2227.51 47.00
9558 59.4420 2247.00 2229.37 47.00
9559 59.4480 2247.00 2231.71 47.00
9560 59.4540 2275.00 2234.26 48.00
9561 59.4600 2234.00 2236.55 47.00
9562 59.4660 2202.00 2238.24 47.00
9563 59.4720 2171.00 2238.90 47.00
9564 59.4780 2211.00 2238.21 47.00
9565 59.4840 2263.00 2236.04 48.00
9566 59.4900 2267.00 2232.51 48.00
9567 59.4960 2243.00 2227.72 47.00
9568 59.5020 2261.00 2222.09 48.00
9569 59.5080 2182.00 2215.98 47.00
9570 59.5140 2214.00 2209.73 47.00
9571 59.5200 2204.00 2203.53 47.00
9572 59.5260 2135.00 2197.50 46.00
9573 59.5320 2168.00 2191.71 47.00
9574 59.5380 2137.00 2186.21 46.00
9575 59.5440 2094.00 2181.03 46.00
9576 59.5500 2118.00 2176.28 46.00
9577 59.5560 2169.00 2172.08 47.00
9578 59.5620 2101.00 2168.30 46.00
9579 59.5680 2063.00 2165.10 45.00
9580 59.5740 2147.00 2162.59 46.00
9581 59.5800 2111.00 2160.87 46.00
9582 59.5860 2089.00 2159.97 46.00
9583 59.5920 2107.00 2159.88 46.00
9584 59.5980 2088.00 2160.52 46.00
9585 59.6040 2096.00 2161.82 46.00
9586 59.6100 2123.00 2163.66 46.00
9587 59.6160 2108.00 2166.02 46.00
9588 59.6220 2091.00 2168.72 46.00
9589 59.6280 2084.00 2171.73 46.00
9590 59.6340 2083.00 2174.95 46.00
9591 59.6400 2120.00 2178.17 46.00
9592 59.6460 2155.00 2181.29 46.00
9593 59.6520 2176.00 2184.05 47.00
9594 59.6580 2118.00 2186.26 46.00
9595 59.6640 2046.00 2187.78 45.00
9596 59.6700 2092.00 2188.47 46.00
9597 59.6760 2146.00 2188.42 46.00
9598 59.6820 2176.00 2187.53 47.00
9599 59.6880 2168.00 2185.75 47.00
9600 59.6940 2178.00 2183.00 47.00
9601 59.7000 2162.00 2179.28 46.00
9602 59.7060 2093.00 2174.57 46.00
9603 59.7120 2089.00 2168.99 46.00
9604 59.7180 2082.00 2162.73 46.00
9605 59.7240 2111.00 2156.04 46.00
9606 59.7300 2122.00 2149.38 46.00
9607 59.7360 2094.00 2143.06 46.00
9608 59.7420 2095.00 2137.23 46.00
9609 59.7480 2100.00 2132.25 46.00
9610 59.7540 2094.00 2128.18 46.00
9611 59.7600 2103.00 2125.09 46.00
9612 59.7660 2088.00 2122.94 46.00
9613 59.7720 2034.00 2121.66 45.00
9614 59.7780 2031.00 2121.07 45.00
9615 59.7840 2081.00 2120.91 46.00
9616 59.7900 2076.00 2121.13 46.00
9617 59.7960 2054.00 2121.41 45.00
9618 59.8020 2055.00 2121.67 45.00
9619 59.8080 2050.00 2121.80 45.00
9620 59.8140 2119.00 2121.98 46.00
9621 59.8200 2139.00 2122.24 46.00
9622 59.8260 2107.00 2122.89 46.00
9623 59.8320 2090.00 2123.98 46.00
9624 59.8380 2105.00 2125.69 46.00
9625 59.8440 2159.00 2128.11 46.00
9626 59.8500 2123.00 2131.15 46.00
9627 59.8560 2123.00 2135.07 46.00
9628 59.8620 2111.00 2139.66 46.00
9629 59.8680 2082.00 2144.77 46.00
9630 59.8740 2150.00 2150.19 46.00
9631 59.8800 2151.00 2155.69 46.00
9632 59.8860 2121.00 2161.02 46.00
9633 59.8920 2175.00 2165.96 47.00
9634 59.8980 2129.00 2170.46 46.00
9635 59.9040 2123.00 2174.54 46.00
9636 59.9100 2128.00 2178.30 46.00
9637 59.9160 2109.00 2182.04 46.00
9638 59.9220 2113.00 2185.87 46.00
9639 59.9280 2119.00 2189.88 46.00
9640 59.9340 2105.00 2194.30 46.00
9641 59.9400 2116.00 2199.13 46.00
9642 59.9460 2157.00 2204.40 46.00
9643 59.9520 2219.00 2210.11 47.00
9644 59.9580 2167.00 2216.21 47.00
9645 59.9640 2219.00 2222.47 47.00
9646 59.9700 2259.00 2228.66 48.00
9647 59.9760 2269.00 2234.37 48.00
9648 59.9820 2280.00 2239.14 48.00
9649 59.9880 2133.00 2242.34 46.00
9650 59.9940 2108.00 2243.95 46.00
9651 60.0000 2210.00 2243.65 47.00
9652 60.0060 2193.00 2241.42 47.00
9653 60.0120 2219.00 2237.48 47.00
9654 60.0180 2200.00 2232.07 47.00
9655 60.0240 2206.00 2225.69 47.00
9656 60.0300 2188.00 2218.57 47.00
9657 60.0360 2186.00 2211.09 47.00
9658 60.0420 2213.00 2203.49 47.00
9659 60.0480 2198.00 2195.92 47.00
9660 60.0540 2146.00 2188.55 46.00
9661 60.0600 2142.00 2181.51 46.00
9662 60.0660 2106.00 2174.94 46.00
9663 60.0720 2075.00 2168.92 46.00
9664 60.0780 2139.00 2163.47 46.00
9665 60.0840 2130.00 2158.54 46.00
9666 60.0900 2103.00 2153.95 46.00
9667 60.0960 2106.00 2149.87 46.00
9668 60.1020 2097.00 2146.15 46.00
9669 60.1080 2086.00 2142.79 46.00
9670 60.1140 2134.00 2139.67 46.00
9671 60.1200 2075.00 2137.17 46.00
9672 60.1260 2103.00 2135.15 46.00
9673 60.1320 2136.00 2133.42 46.00
9674 60.1380 2116.00 2132.20 46.00
9675 60.1440 2153.00 2131.21 46.00
9676 60.1500 2172.00 2130.37 47.00
9677 60.1560 2153.00 2129.63 46.00
9678 60.1620 2172.00 2128.97 47.00
9679 60.1680 2126.00 2128.09 46.00
9680 60.1740 2163.00 2127.50 47.00
9681 60.1800 2108.00 2126.96 46.00
9682 60.1860 2114.00 2126.39 46.00
9683 60.1920 2129.00 2125.97 46.00
9684 60.1980 2132.00 2125.73 46.00
9685 60.2040 2133.00 2125.49 46.00
9686 60.2100 2151.00 2125.30 46.00
9687 60.2160 2121.00 2125.32 46.00
9688 60.2220 2136.00 2125.53 46.00
9689 60.2280 2184.00 2125.89 47.00
9690 60.2340 2153.00 2126.74 46.00
9691 60.2400 2076.00 2128.02 46.00
9692 60.2460 2123.00 2129.77 46.00
9693 60.2520 2178.00 2132.26 47.00
9694 60.2580 2180.00 2135.20 47.00
9695 60.2640 2135.00 2138.49 46.00
9696 60.2700 2135.00 2141.90 46.00
9697 60.2760 2059.00 2145.19 45.00
9698 60.2820 2092.00 2148.00 46.00
9699 60.2880 2066.00 2150.13 45.00
9700 60.2940 2110.00 2151.39 46.00
9701 60.3000 2085.00 2151.83 46.00
9702 60.3060 2087.00 2151.49 46.00
9703 60.3120 2079.00 2150.44 46.00
9704 60.3180 2101.00 2148.85 46.00
9705 60.3240 2054.00 2146.89 45.00
9706 60.3300 2136.00 2144.91 46.00
9707 60.3360 2187.00 2143.10 47.00
9708 60.3420 2218.00 2141.58 47.00
9709 60.3480 2202.00 2140.46 47.00
9710 60.3540 2179.00 2140.14 47.00
9711 60.3600 2142.00 2140.43 46.00
9712 60.3660 2076.00 2141.31 46.00
9713 60.3720 2077.00 2142.85 46.00
9714 60.3780 2110.00 2144.81 46.00
9715 60.3840 2179.00 2147.25 47.00
9716 60.3900 2172.00 2150.15 47.00
9717 60.3960 2095.00 2153.30 46.00
9718 60.4020 2186.00 2156.72 47.00
9719 60.4080 2072.00 2160.11 46.00
9720 60.4140 2087.00 2163.30 46.00
9721 60.4200 2118.00 2165.58 46.00
9722 60.4260 2064.00 2166.77 45.00
9723 60.4320 2093.00 2166.36 46.00
9724 60.4380 2091.00 2164.21 46.00
9725 60.4440 2082.00 2160.40 46.00
9726 60.4500 2130.00 2155.06 46.00
9727 60.4560 2174.00 2148.61 47.00
9728 60.4620 2063.00 2141.39 45.00
9729 60.4680 2048.00 2133.83 45.00
9730 60.4740 2027.00 2126.14 45.00
9731 60.4800 2147.00 2118.68 46.00
9732 60.4860 2043.00 2111.44 45.00
9733 60.4920 2039.00 2104.51 45.00
9734 60.4980 2077.00 2097.91 46.00
9735 60.5040 2059.00 2091.71 45.00
9736 60.5100 2140.00 2085.97 46.00
9737 60.5160 2139.00 2080.71 46.00
9738 60.5220 2045.00 2075.90 45.00
9739 60.5280 2030.00 2071.70 45.00
9740 60.5340 2085.00 2068.15 46.00
9741 60.5400 2098.00 2065.16 46.00
9742 60.5460 1977.00 2062.72 44.00
9743 60.5520 2012.00 2060.84 45.00
9744 60.5580 2051.00 2059.37 45.00
9745 60.5640 2066.00 2058.44 45.00
9746 60.5700 2083.00 2057.96 46.00
9747 60.5760 2080.00 2057.89 46.00
9748 60.5820 2007.00 2058.16 45.00
9749 60.5880 2047.00 2058.74 45.00
9750 60.5940 2107.00 2059.45 46.00
9751 60.6000 2095.00 2060.23 46.00
9752 60.6060 2050.00 2060.96 45.00
9753 60.6120 2058.00 2061.57 45.00
9754 60.6180 2113.00 2062.00 46.00
9755 60.6240 2077.00 2062.25 46.00
9756 60.6300 2068.00 2062.34 45.00
9757 60.6360 2071.00 2062.42 46.00
9758 60.6420 2030.00 2062.36 45.00
9759 60.6480 2077.00 2062.25 46.00
9760 60.6540 2051.00 2062.16 45.00
9761 60.6600 2069.00 2061.91 45.00
9762 60.6660 2099.00 2061.53 46.00
9763 60.6720 2050.00 2060.92 45.00
9764 60.6780 2065.00 2060.20 45.00
9765 60.6840 2087.00 2059.33 46.00
9766 60.6900 2014.00 2058.45 45.00
9767 60.6960 2149.00 2057.47 46.00
9768 60.7020 1994.00 2056.52 45.00
9769 60.7080 2086.00 2055.68 46.00
9770 60.7140 2072.00 2054.99 46.00
9771 60.7200 2063.00 2054.54 45.00
9772 60.7260 2045.00 2054.38 45.00
9773 60.7320 2022.00 2054.59 45.00
9774 60.7380 2000.00 2055.22 45.00
9775 60.7440 2020.00 2056.32 45.00
9776 60.7500 2029.00 2057.91 45.00
9777 60.7560 2042.00 2059.99 45.00
9778 60.7620 2102.00 2062.41 46.00
9779 60.7680 2028.00 2065.39 45.00
9780 60.7740 2103.00 2068.70 46.00
9781 60.7800 2148.00 2072.35 46.00
9782 60.7860 2080.00 2076.18 46.00
9783 60.7920 2153.00 2080.08 46.00
9784 60.7980 2074.00 2083.87 46.00
9785 60.8040 2200.00 2087.42 47.00
9786 60.8100 2100.00 2090.58 46.00
9787 60.8160 2153.00 2093.36 46.00
9788 60.8220 2093.00 2095.67 46.00
9789 60.8280 2060.00 2097.66 45.00
9790 60.8340 2089.00 2099.37 46.00
9791 60.8400 2093.00 2100.89 46.00
9792 60.8460 2143.00 2102.34 46.00
9793 60.8520 2080.00 2103.64 46.00
9794 60.8580 2128.00 2104.89 46.00
9795 60.8640 2047.00 2105.87 45.00
9796 60.8700 2180.00 2106.92 47.00
9797 60.8760 2065.00 2107.75 45.00
9798 60.8820 2139.00 2108.04 46.00
9799 60.8880 2070.00 2107.95 45.00
9800 60.8940 2067.00 2107.18 45.00
9801 60.9000 2148.00 2105.71 46.00
9802 60.9060 2052.00 2103.38 45.00
9803 60.9120 2160.00 2100.32 46.00
9804 60.9180 2153.00 2096.60 46.00
9805 60.9240 2043.00 2092.38 45.00
9806 60.9300 2043.00 2087.79 45.00
9807 60.9360 1990.00 2083.08 45.00
9808 60.9420 2089.00 2078.39 46.00
9809 60.9480 2051.00 2073.93 45.00
9810 60.9540 1994.00 2069.78 45.00
9811 60.9600 2016.00 2066.10 45.00
9812 60.9660 2021.00 2063.00 45.00
9813 60.9720 1955.00 2060.44 44.00
9814 60.9780 2096.00 2058.66 46.00
9815 60.9840 2013.00 2057.64 45.00
9816 60.9900 1998.00 2057.37 45.00
9817 60.9960 1946.00 2057.76 44.00
9818 61.0020 1990.00 2058.99 45.00
9819 61.0080 1992.00 2060.72 45.00
9820 61.0140 2037.00 2063.06 45.00
9821 61.0200 2045.00 2065.87 45.00
9822 61.0260 2034.00 2069.23 45.00
9823 61.0320 2018.00 2073.04 45.00
9824 61.0380 2094.00 2077.27 46.00
9825 61.0440 2019.00 2081.84 45.00
9826 61.0500 2055.00 2086.72 45.00
9827 61.0560 2059.00 2092.07 45.00
9828 61.0620 2123.00 2097.53 46.00
9829 61.0680 2075.00 2103.22 46.00
9830 61.0740 2122.00 2108.98 46.00
9831 61.0800 2088.00 2114.64 46.00
9832 61.0860 2048.00 2120.04 45.00
9833 61.0920 2104.00 2125.04 46.00
9834 61.0980 2062.00 2129.45 45.00
9835 61.1040 2075.00 2133.35 46.00
9836 61.1100 2098.00 2136.64 46.00
9837 61.1160 2131.00 2139.07 46.00
9838 61.1220 2103.00 2140.68 46.00
9839 61.1280 2088.00 2141.37 46.00
9840 61.1340 2051.00 2141.08 45.00
9841 61.1400 2164.00 2139.78 47.00
9842 61.1460 2058.00 2137.52 45.00
9843 61.1520 2095.00 2134.42 46.00
9844 61.1580 2033.00 2130.70 45.00
9845 61.1640 2067.00 2126.40 45.00
9846 61.1700 2139.00 2122.14 46.00
9847 61.1760 2143.00 2118.04 46.00
9848 61.1820 2107.00 2114.35 46.00
9849 61.1880 2071.00 2111.28 46.00
9850 61.1940 2076.00 2108.99 46.00
9851 61.2000 2066.00 2107.53 45.00
9852 61.2060 2089.00 2107.29 46.00
9853 61.2120 2076.00 2108.12 46.00
9854 61.2180 2094.00 2110.18 46.00
9855 61.2240 2121.00 2113.52 46.00
9856 61.2300 2108.00 2118.19 46.00
9857 61.2360 2142.00 2124.00 46.00
9858 61.2420 2139.00 2130.88 46.00
9859 61.2480 2196.00 2138.55 47.00
9860 61.2540 2150.00 2146.92 46.00
9861 61.2600 2210.00 2155.60 47.00
9862 61.2660 2227.00 2164.33 47.00
9863 61.2720 2153.00 2172.84 46.00
9864 61.2780 2134.00 2180.90 46.00
9865 61.2840 2237.00 2188.27 47.00
9866 61.2900 2307.00 2194.66 48.00
9867 61.2960 2196.00 2199.82 47.00
9868 61.3020 2071.00 2203.45 46.00
9869 61.3080 2126.00 2205.26 46.00
9870 61.3140 2167.00 2205.06 47.00
9871 61.3200 2165.00 2202.68 47.00
9872 61.3260 2109.00 2198.55 46.00
9873 61.3320 2098.00 2192.78 46.00
9874 61.3380 2130.00 2185.64 46.00
9875 61.3440 2130.00 2177.55 46.00
9876 61.3500 2168.00 2168.87 47.00
9877 61.3560 2142.00 2159.97 46.00
9878 61.3620 2213.00 2151.21 47.00
9879 61.3680 2179.00 2142.88 47.00
9880 61.3740 2204.00 2135.22 47.00
9881 61.3800 2156.00 2128.40 46.00
9882 61.3860 2094.00 2122.69 46.00
9883 61.3920 2078.00 2118.18 46.00
9884 61.3980 2114.00 2114.95 46.00
9885 61.4040 2183.00 2113.01 47.00
9886 61.4100 2113.00 2112.37 46.00
9887 61.4160 2169.00 2112.95 47.00
9888 61.4220 2146.00 2114.67 46.00
9889 61.4280 2160.00 2117.28 46.00
9890 61.4340 2133.00 2120.58 46.00
9891 61.4400 2147.00 2124.36 46.00
9892 61.4460 2112.00 2128.27 46.00
9893 61.4520 2078.00 2132.07 46.00
9894 61.4580 2116.00 2135.37 46.00
9895 61.4640 2122.00 2137.97 46.00
9896 61.4700 2098.00 2139.69 46.00
9897 61.4760 2079.00 2140.47 46.00
9898 61.4820 2065.00 2140.38 45.00
9899 61.4880 2124.00 2139.56 46.00
9900 61.4940 2058.00 2138.29 45.00
9901 61.5000 2241.00 2136.74 47.00
9902 61.5060 2178.00 2135.20 47.00
9903 61.5120 2108.00 2133.77 46.00
9904 61.5180 2120.00 2132.42 46.00
9905 61.5240 2168.00 2131.11 47.00
9906 61.5300 2138.00 2129.71 46.00
9907 61.5360 2142.00 2128.07 46.00
9908 61.5420 2135.00 2126.06 46.00
9909 61.5480 2063.00 2123.56 45.00
9910 61.5540 2188.00 2120.51 47.00
9911 61.5600 2116.00 2116.80 46.00
9912 61.5660 2083.00 2112.53 46.00
9913 61.5720 2080.00 2107.68 46.00
9914 61.5780 2064.00 2102.30 45.00
9915 61.5840 2090.00 2096.46 46.00
9916 61.5900 2045.00 2090.28 45.00
9917 61.5960 2094.00 2083.87 46.00
9918 61.6020 2115.00 2077.43 46.00
9919 61.6080 2118.00 2071.12 46.00
9920 61.6140 2083.00 2065.07 46.00
9921 61.6200 2071.00 2059.42 46.00
9922 61.6260 2035.00 2054.26 45.00
9923 61.6320 2052.00 2049.65 45.00
9924 61.6380 2032.00 2045.64 45.00
9925 61.6440 2033.00 2042.25 45.00
9926 61.6500 2018.00 2039.51 45.00
9927 61.6560 2049.00 2037.36 45.00
9928 61.6620 2034.00 2035.84 45.00
9929 61.6680 2000.00 2034.93 45.00
9930 61.6740 1982.00 2034.60 45.00
9931 61.6800 2030.00 2034.83 45.00
9932 61.6860 1982.00 2035.62 45.00
9933 61.6920 1999.00 2036.93 45.00
9934 61.6980 2034.00 2038.66 45.00
9935 61.7040 2073.00 2040.97 46.00
9936 61.7100 2119.00 2043.72 46.00
9937 61.7160 2126.00 2046.92 46.00
9938 61.7220 2061.00 2050.43 45.00
9939 61.7280 2047.00 2054.12 45.00
9940 61.7340 2059.00 2057.94 45.00
9941 61.7400 2101.00 2061.85 46.00
9942 61.7460 2038.00 2065.74 45.00
9943 61.7520 1982.00 2069.62 45.00
9944 61.7580 2060.00 2073.48 45.00
9945 61.7640 2081.00 2077.34 46.00
9946 61.7700 2141.00 2081.28 46.00
9947 61.7760 2072.00 2085.34 46.00
9948 61.7820 2039.00 2089.57 45.00
9949 61.7880 2104.00 2093.89 46.00
9950 61.7940 2105.00 2098.30 46.00
9951 61.8000 2156.00 2102.74 46.00
9952 61.8060 2141.00 2106.90 46.00
9953 61.8120 2116.00 2110.94 46.00
9954 61.8180 2143.00 2114.75 46.00
9955 61.8240 2153.00 2118.59 46.00
9956 61.8300 2091.00 2122.33 46.00
9957 61.8360 2149.00 2126.18 46.00
9958 61.8420 2111.00 2130.20 46.00
9959 61.8480 2091.00 2134.49 46.00
9960 61.8540 2092.00 2139.07 46.00
9961 61.8600 2152.00 2143.96 46.00
9962 61.8660 2122.00 2149.13 46.00
9963 61.8720 2093.00 2154.45 46.00
9964 61.8780 2099.00 2159.77 46.00
9965 61.8840 2156.00 2164.85 46.00
9966 61.8900 2190.00 2169.21 47.00
9967 61.8960 2161.00 2172.65 46.00
9968 61.9020 2109.00 2174.94 46.00
9969 61.9080 2120.00 2175.97 46.00
9970 61.9140 2167.00 2175.79 47.00
9971 61.9200 2168.00 2174.54 47.00
9972 61.9260 2077.00 2172.56 46.00
9973 61.9320 2099.00 2170.00 46.00
9974 61.9380 2145.00 2167.10 46.00
9975 61.9440 2116.00 2163.93 46.00
9976 61.9500 2123.00 2160.58 46.00
9977 61.9560 2150.00 2157.04 46.00
9978 61.9620 2098.00 2153.32 46.00
9979 61.9680 2074.00 2149.45 46.00
9980 61.9740 2096.00 2145.48 46.00
9981 61.9800 2149.00 2141.55 46.00
9982 61.9860 2126.00 2137.56 46.00
9983 61.9920 2034.00 2133.80 45.00
9984 61.9980 2039.00 2130.05 45.00
9985 62.0040 2056.00 2126.29 45.00
9986 62.0100 2088.00 2122.35 46.00
9987 62.0160 2032.00 2118.13 45.00
9988 62.0220 2037.00 2113.79 45.00
9989 62.0280 2051.00 2109.36 45.00
9990 62.0340 2067.00 2104.98 45.00
9991 62.0400 2073.00 2100.85 46.00
9992 62.0460 2053.00 2097.06 45.00
9993 62.0520 2006.00 2093.77 45.00
9994 62.0580 2005.00 2090.96 45.00
9995 62.0640 1994.00 2088.65 45.00
9996 62.0700 2017.00 2086.91 45.00
9997 62.0760 2009.00 2085.69 45.00
9998 62.0820 2035.00 2084.98 45.00
9999 62.0880 2106.00 2084.75 46.00
10000 62.0940 2073.00 2084.90 46.00
10001 62.1000 2103.00 2085.37 46.00
10002 62.1060 2098.00 2086.02 46.00
10003 62.1120 2065.00 2086.69 45.00
10004 62.1180 2074.00 2087.25 46.00
10005 62.1240 2133.00 2087.66 46.00
10006 62.1300 2082.00 2087.70 46.00
10007 62.1360 2035.00 2087.39 45.00
10008 62.1420 2033.00 2086.73 45.00
10009 62.1480 2008.00 2085.73 45.00
10010 62.1540 2055.00 2084.45 45.00
10011 62.1600 2087.00 2082.95 46.00
10012 62.1660 2071.00 2081.16 46.00
10013 62.1720 2058.00 2079.36 45.00
10014 62.1780 2062.00 2077.33 45.00
10015 62.1840 2048.00 2075.00 45.00
10016 62.1900 2060.00 2072.35 45.00
10017 62.1960 2126.00 2069.32 46.00
10018 62.2020 2050.00 2065.82 45.00
10019 62.2080 2000.00 2062.10 45.00
10020 62.2140 1995.00 2058.25 45.00
10021 62.2200 2000.00 2054.23 45.00
10022 62.2260 2020.00 2050.42 45.00
10023 62.2320 2060.00 2047.00 45.00
10024 62.2380 2017.00 2043.82 45.00
10025 62.2440 1972.00 2041.14 44.00
10026 62.2500 2011.00 2038.98 45.00
10027 62.2560 2044.00 2037.43 45.00
10028 62.2620 2067.00 2036.51 45.00
10029 62.2680 2016.00 2036.12 45.00
10030 62.2740 1983.00 2036.26 45.00
10031 62.2800 1993.00 2036.94 45.00
10032 62.2860 1960.00 2038.10 44.00
10033 62.2920 1991.00 2039.70 45.00
10034 62.2980 2000.00 2041.68 45.00
10035 62.3040 2038.00 2043.98 45.00
10036 62.3100 2042.00 2046.52 45.00
10037 62.3160 2018.00 2049.17 45.00
10038 62.3220 2029.00 2051.80 45.00
10039 62.3280 2014.00 2054.23 45.00
10040 62.3340 2022.00 2056.32 45.00
10041 62.3400 2050.00 2057.98 45.00
10042 62.3460 2043.00 2058.93 45.00
10043 62.3520 2038.00 2059.28 45.00
10044 62.3580 2055.00 2058.89 45.00
10045 62.3640 2048.00 2057.81 45.00
10046 62.3700 2037.00 2055.94 45.00
10047 62.3760 2047.00 2053.79 45.00
10048 62.3820 2032.00 2051.18 45.00
10049 62.3880 2014.00 2048.24 45.00
10050 62.3940 1999.00 2045.22 45.00
10051 62.4000 1982.00 2042.20 45.00
10052 62.4060 1959.00 2039.32 44.00
10053 62.4120 1946.00 2036.48 44.00
10054 62.4180 1934.00 2033.75 44.00
10055 62.4240 1972.00 2031.12 44.00
10056 62.4300 2010.00 2028.66 45.00
10057 62.4360 2041.00 2026.19 45.00
10058 62.4420 2077.00 2023.90 46.00
10059 62.4480 2064.00 2021.77 45.00
10060 62.4540 2022.00 2019.84 45.00
10061 62.4600 1998.00 2018.08 45.00
10062 62.4660 2037.00 2016.63 45.00
10063 62.4720 2036.00 2015.40 45.00
10064 62.4780 2003.00 2014.49 45.00
10065 62.4840 2002.00 2013.85 45.00
10066 62.4900 2022.00 2013.43 45.00
10067 62.4960 2009.00 2013.36 45.00
10068 62.5020 1966.00 2013.61 44.00
10069 62.5080 1930.00 2014.12 44.00
10070 62.5140 1932.00 2014.81 44.00
10071 62.5200 1959.00 2015.71 44.00
10072 62.5260 1941.00 2016.85 44.00
10073 62.5320 1972.00 2018.20 44.00
10074 62.5380 2008.00 2019.76 45.00
10075 62.5440 1983.00 2021.51 45.00
10076 62.5500 1983.00 2023.45 45.00
10077 62.5560 2005.00 2025.65 45.00
10078 62.5620 2009.00 2028.02 45.00
10079 62.5680 2001.00 2030.66 45.00
10080 62.5740 2005.00 2033.50 45.00
10081 62.5800 2055.00 2036.62 45.00
10082 62.5860 2053.00 2040.07 45.00
10083 62.5920 1997.00 2043.81 45.00
10084 62.5980 1989.00 2047.80 45.00
10085 62.6040 2022.00 2052.06 45.00
10086 62.6100 2019.00 2056.56 45.00
10087 62.6160 2023.00 2061.26 45.00
10088 62.6220 2068.00 2065.93 45.00
10089 62.6280 2039.00 2070.52 45.00
10090 62.6340 1998.00 2074.92 45.00
10091 62.6400 2029.00 2079.08 45.00
10092 62.6460 2014.00 2083.00 45.00
10093 62.6520 1995.00 2086.54 45.00
10094 62.6580 2011.00 2089.93 45.00
10095 62.6640 2084.00 2093.16 46.00
10096 62.6700 2068.00 2096.32 45.00
10097 62.6760 2076.00 2099.45 46.00
10098 62.6820 2086.00 2102.61 46.00
10099 62.6880 2084.00 2105.86 46.00
10100 62.6940 2095.00 2109.22 46.00
10101 62.7000 2137.00 2112.57 46.00
10102 62.7060 2145.00 2115.84 46.00
10103 62.7120 2094.00 2118.79 46.00
10104 62.7180 2093.00 2121.34 46.00
10105 62.7240 2081.00 2123.31 46.00
10106 62.7300 2067.00 2124.62 45.00
10107 62.7360 2074.00 2125.04 46.00
10108 62.7420 2099.00 2124.56 46.00
10109 62.7480 2103.00 2123.37 46.00
10110 62.7540 2070.00 2121.54 45.00
10111 62.7600 2046.00 2119.25 45.00
10112 62.7660 2058.00 2116.66 45.00
10113 62.7720 2100.00 2113.92 46.00
10114 62.7780 2048.00 2111.16 45.00
10115 62.7840 2066.00 2108.48 45.00
10116 62.7900 2103.00 2105.74 46.00
10117 62.7960 2062.00 2102.94 45.00
10118 62.8020 2040.00 2099.98 45.00
10119 62.8080 2044.00 2096.84 45.00
10120 62.8140 2040.00 2093.62 45.00
10121 62.8200 2037.00 2090.18 45.00
10122 62.8260 2098.00 2086.97 46.00
10123 62.8320 2093.00 2083.93 46.00
10124 62.8380 2016.00 2081.20 45.00
10125 62.8440 1992.00 2078.86 45.00
10126 62.8500 2065.00 2076.95 45.00
10127 62.8560 2061.00 2075.61 45.00
10128 62.8620 2068.00 2074.83 45.00
10129 62.8680 2080.00 2074.65 46.00
10130 62.8740 2095.00 2074.99 46.00
10131 62.8800 2051.00 2076.09 45.00
10132 62.8860 2046.00 2077.79 45.00
10133 62.8920 2060.00 2080.07 45.00
10134 62.8980 2094.00 2082.73 46.00
10135 62.9040 2046.00 2085.70 45.00
10136 62.9100 2013.00 2088.82 45.00
10137 62.9160 1990.00 2091.93 45.00
10138 62.9220 2070.00 2094.85 45.00
10139 62.9280 2065.00 2097.47 45.00
10140 62.9340 2051.00 2099.80 45.00
10141 62.9400 2027.00 2101.64 45.00
10142 62.9460 2062.00 2102.83 45.00
10143 62.9520 2102.00 2103.21 46.00
10144 62.9580 2007.00 2102.63 45.00
10145 62.9640 2087.00 2101.06 46.00
10146 62.9700 2095.00 2098.37 46.00
10147 62.9760 2009.00 2094.74 45.00
10148 62.9820 1985.00 2090.38 45.00
10149 62.9880 2034.00 2085.58 45.00
10150 62.9940 2016.00 2080.64 45.00
10151 63.0000 1992.00 2075.86 45.00
10152 63.0060 2037.00 2071.48 45.00
10153 63.0120 2021.00 2067.75 45.00
10154 63.0180 2000.00 2064.67 45.00
10155 63.0240 2025.00 2062.39 45.00
10156 63.0300 2029.00 2060.81 45.00
10157 63.0360 2004.00 2060.07 45.00
10158 63.0420 2005.00 2060.04 45.00
10159 63.0480 2071.00 2060.72 46.00
10160 63.0540 2059.00 2061.87 45.00
10161 63.0600 2035.00 2063.68 45.00
10162 63.0660 2032.00 2066.07 45.00
10163 63.0720 2056.00 2069.06 45.00
10164 63.0780 2099.00 2072.65 46.00
10165 63.0840 2032.00 2076.84 45.00
10166 63.0900 1981.00 2081.57 45.00
10167 63.0960 2016.00 2086.75 45.00
10168 63.1020 2010.00 2092.23 45.00
10169 63.1080 2021.00 2097.80 45.00
10170 63.1140 2012.00 2103.30 45.00
10171 63.1200 2016.00 2108.52 45.00
10172 63.1260 2075.00 2113.12 46.00
10173 63.1320 2043.00 2116.87 45.00
10174 63.1380 2052.00 2119.50 45.00
10175 63.1440 2052.00 2120.81 45.00
10176 63.1500 2024.00 2120.71 45.00
10177 63.1560 2134.00 2119.22 46.00
10178 63.1620 2100.00 2116.35 46.00
10179 63.1680 2029.00 2112.33 45.00
10180 63.1740 2062.00 2107.43 45.00
10181 63.1800 2062.00 2101.94 45.00
10182 63.1860 2068.00 2096.19 45.00
10183 63.1920 2037.00 2090.49 45.00
10184 63.1980 2013.00 2085.09 45.00
10185 63.2040 2039.00 2080.38 45.00
10186 63.2100 2003.00 2076.41 45.00
10187 63.2160 1992.00 2073.40 45.00
10188 63.2220 2076.00 2071.49 46.00
10189 63.2280 2045.00 2070.77 45.00
10190 63.2340 1990.00 2071.26 45.00
10191 63.2400 2006.00 2072.92 45.00
10192 63.2460 1973.00 2075.68 44.00
10193 63.2520 2006.00 2079.34 45.00
10194 63.2580 1982.00 2083.82 45.00
10195 63.2640 1996.00 2088.86 45.00
10196 63.2700 2040.00 2094.11 45.00
10197 63.2760 2075.00 2099.41 46.00
10198 63.2820 2051.00 2104.45 45.00
10199 63.2880 2083.00 2109.04 46.00
10200 63.2940 2112.00 2112.88 46.00
10201 63.3000 2105.00 2115.85 46.00
10202 63.3060 2083.00 2117.81 46.00
10203 63.3120 2093.00 2118.68 46.00
10204 63.3180 2097.00 2118.50 46.00
10205 63.3240 2032.00 2117.33 45.00
10206 63.3300 2050.00 2115.29 45.00
10207 63.3360 2088.00 2112.47 46.00
10208 63.3420 2019.00 2109.07 45.00
10209 63.3480 1985.00 2105.19 45.00
10210 63.3540 2029.00 2101.00 45.00
10211 63.3600 2100.00 2096.60 46.00
10212 63.3660 2059.00 2092.15 45.00
10213 63.3720 2043.00 2087.78 45.00
10214 63.3780 1969.00 2083.53 44.00
10215 63.3840 2106.00 2079.64 46.00
10216 63.3900 2095.00 2076.27 46.00
10217 63.3960 2030.00 2073.57 45.00
10218 63.4020 2014.00 2071.59 45.00
10219 63.4080 2025.00 2070.41 45.00
10220 63.4140 2027.00 2069.91 45.00
10221 63.4200 2088.00 2070.02 46.00
10222 63.4260 1995.00 2070.62 45.00
10223 63.4320 1970.00 2071.59 44.00
10224 63.4380 1985.00 2072.74 45.00
10225 63.4440 2025.00 2074.01 45.00
10226 63.4500 2046.00 2075.36 45.00
10227 63.4560 2055.00 2076.79 45.00
10228 63.4620 2094.00 2078.32 46.00
10229 63.4680 2017.00 2080.04 45.00
10230 63.4740 2067.00 2081.94 45.00
10231 63.4800 2038.00 2084.00 45.00
10232 63.4860 2023.00 2086.15 45.00
10233 63.4920 2020.00 2088.25 45.00
10234 63.4980 2021.00 2090.23 45.00
10235 63.5040 1986.00 2091.90 45.00
10236 63.5100 1939.00 2093.14 44.00
10237 63.5160 2024.00 2093.84 45.00
10238 63.5220 2063.00 2093.92 45.00
10239 63.5280 2057.00 2093.27 45.00
10240 63.5340 1994.00 2091.89 45.00
10241 63.5400 1969.00 2089.81 44.00
10242 63.5460 2003.00 2087.13 45.00
10243 63.5520 1952.00 2083.95 44.00
10244 63.5580 2019.00 2080.37 45.00
10245 63.5640 2041.00 2076.63 45.00
10246 63.5700 2063.00 2072.79 45.00
10247 63.5760 2079.00 2069.04 46.00
10248 63.5820 2016.00 2065.48 45.00
10249 63.5880 2054.00 2062.19 45.00
10250 63.5940 1996.00 2059.25 45.00
10251 63.6000 2011.00 2056.80 45.00
10252 63.6060 2028.00 2054.94 45.00
10253 63.6120 2038.00 2053.73 45.00
10254 63.6180 2055.00 2053.10 45.00
10255 63.6240 2001.00 2052.96 45.00
10256 63.6300 2043.00 2053.28 45.00
10257 63.6360 2078.00 2053.95 46.00
10258 63.6420 2054.00 2054.78 45.00
10259 63.6480 1965.00 2055.66 44.00
10260 63.6540 1988.00 2056.55 45.00
10261 63.6600 1990.00 2057.18 45.00
10262 63.6660 2070.00 2057.45 45.00
10263 63.6720 2029.00 2057.19 45.00
10264 63.6780 1940.00 2056.56 44.00
10265 63.6840 1916.00 2055.44 44.00
10266 63.6900 1972.00 2053.90 44.00
10267 63.6960 2050.00 2051.90 45.00
10268 63.7020 2085.00 2049.48 46.00
10269 63.7080 2022.00 2046.61 45.00
10270 63.7140 1919.00 2043.30 44.00
10271 63.7200 2040.00 2039.53 45.00
10272 63.7260 2020.00 2035.43 45.00
10273 63.7320 2006.00 2030.91 45.00
10274 63.7380 1978.00 2026.34 44.00
10275 63.7440 1947.00 2021.83 44.00
10276 63.7500 1934.00 2017.45 44.00
10277 63.7560 1970.00 2013.37 44.00
10278 63.7620 1962.00 2009.72 44.00
10279 63.7680 1992.00 2006.56 45.00
10280 63.7740 1983.00 2003.94 45.00
10281 63.7800 1981.00 2001.85 45.00
10282 63.7860 2080.00 2000.39 46.00
10283 63.7920 1988.00 1999.40 45.00
10284 63.7980 1940.00 1998.90 44.00
10285 63.8040 1826.00 1998.86 43.00
10286 63.8100 1943.00 1999.19 44.00
10287 63.8160 1986.00 1999.83 45.00
10288 63.8220 2038.00 2000.70 45.00
10289 63.8280 2045.00 2001.70 45.00
10290 63.8340 1989.00 2002.73 45.00
10291 63.8400 2017.00 2003.82 45.00
10292 63.8460 1990.00 2004.90 45.00
10293 63.8520 2013.00 2005.98 45.00
10294 63.8580 1933.00 2007.06 44.00
10295 63.8640 1930.00 2008.29 44.00
10296 63.8700 1981.00 2009.66 45.00
10297 63.8760 2004.00 2011.22 45.00
10298 63.8820 1983.00 2012.95 45.00
10299 63.8880 1936.00 2014.82 44.00
10300 63.8940 1973.00 2016.64 44.00
10301 63.9000 2027.00 2018.49 45.00
10302 63.9060 2014.00 2020.11 45.00
10303 63.9120 2033.00 2021.49 45.00
10304 63.9180 1997.00 2022.49 45.00
10305 63.9240 1998.00 2023.10 45.00
10306 63.9300 2041.00 2023.37 45.00
10307 63.9360 2007.00 2023.18 45.00
10308 63.9420 1964.00 2022.63 44.00
10309 63.9480 2039.00 2021.80 45.00
10310 63.9540 1932.00 2020.57 44.00
10311 63.9600 1978.00 2019.00 44.00
10312 63.9660 1976.00 2017.13 44.00
10313 63.9720 1929.00 2014.99 44.00
10314 63.9780 1883.00 2012.61 43.00
10315 63.9840 1907.00 2009.98 44.00
10316 63.9900 1987.00 2007.27 45.00
10317 63.9960 1910.00 2004.46 44.00
10318 64.0020 1878.00 2001.64 43.00
10319 64.0080 1881.00 1998.89 43.00
10320 64.0140 1964.00 1996.32 44.00
10321 64.0200 1925.00 1994.01 44.00
10322 64.0260 1961.00 1992.06 44.00
10323 64.0320 1899.00 1990.54 44.00
10324 64.0380 1953.00 1989.46 44.00
10325 64.0440 2014.00 1988.93 45.00
10326 64.0500 1935.00 1988.94 44.00
10327 64.0560 1942.00 1989.45 44.00
10328 64.0620 1977.00 1990.52 44.00
10329 64.0680 1991.00 1992.03 45.00
10330 64.0740 1953.00 1993.92 44.00
10331 64.0800 1933.00 1996.21 44.00
10332 64.0860 1946.00 1998.85 44.00
10333 64.0920 1962.00 2001.71 44.00
10334 64.0980 1916.00 2004.57 44.00
10335 64.1040 1860.00 2007.58 43.00
10336 64.1100 1928.00 2010.54 44.00
10337 64.1160 2048.00 2013.46 45.00
10338 64.1220 1981.00 2016.15 45.00
10339 64.1280 1998.00 2018.70 45.00
10340 64.1340 1950.00 2020.99 44.00
10341 64.1400 1986.00 2023.03 45.00
10342 64.1460 1989.00 2024.67 45.00
10343 64.1520 2000.00 2025.87 45.00
10344 64.1580 1949.00 2026.73 44.00
10345 64.1640 2028.00 2027.36 45.00
10346 64.1700 1970.00 2027.94 44.00
10347 64.1760 2006.00 2028.50 45.00
10348 64.1820 2029.00 2029.27 45.00
10349 64.1880 1967.00 2030.37 44.00
10350 64.1940 1991.00 2031.82 45.00
10351 64.2000 2030.00 2033.74 45.00
10352 64.2060 2000.00 2035.86 45.00
10353 64.2120 1958.00 2038.14 44.00
10354 64.2180 2063.00 2040.53 45.00
10355 64.2240 2038.00 2042.94 45.00
10356 64.2300 2026.00 2045.23 45.00
10357 64.2360 2004.00 2047.40 45.00
10358 64.2420 2041.00 2049.19 45.00
10359 64.2480 2031.00 2050.74 45.00
10360 64.2540 2050.00 2052.06 45.00
10361 64.2600 2013.00 2053.17 45.00
10362 64.2660 1976.00 2054.09 44.00
10363 64.2720 2017.00 2054.56 45.00
10364 64.2780 2034.00 2054.81 45.00
10365 64.2840 1964.00 2054.75 44.00
10366 64.2900 2033.00 2054.36 45.00
10367 64.2960 2017.00 2053.61 45.00
10368 64.3020 2075.00 2052.39 46.00
10369 64.3080 1985.00 2050.71 45.00
10370 64.3140 2010.00 2048.45 45.00
10371 64.3200 2019.00 2045.51 45.00
10372 64.3260 2052.00 2041.89 45.00
10373 64.3320 1970.00 2037.62 44.00
10374 64.3380 2050.00 2032.81 45.00
10375 64.3440 2007.00 2027.58 45.00
10376 64.3500 1961.00 2022.09 44.00
10377 64.3560 2045.00 2016.44 45.00
10378 64.3620 1965.00 2010.75 44.00
10379 64.3680 2015.00 2005.12 45.00
10380 64.3740 2030.00 1999.55 45.00
10381 64.3800 1976.00 1994.19 44.00
10382 64.3860 1901.00 1989.12 44.00
10383 64.3920 1939.00 1984.32 44.00
10384 64.3980 1908.00 1979.95 44.00
10385 64.4040 1940.00 1976.00 44.00
10386 64.4100 1974.00 1972.57 44.00
10387 64.4160 1938.00 1969.57 44.00
10388 64.4220 1952.00 1967.06 44.00
10389 64.4280 2010.00 1965.04 45.00
10390 64.4340 1952.00 1963.46 44.00
10391 64.4400 1914.00 1962.38 44.00
10392 64.4460 1967.00 1961.69 44.00
10393 64.4520 1919.00 1961.41 44.00
10394 64.4580 1957.00 1961.48 44.00
10395 64.4640 1970.00 1961.74 44.00
10396 64.4700 1965.00 1962.25 44.00
10397 64.4760 1920.00 1963.02 44.00
10398 64.4820 1903.00 1964.01 44.00
10399 64.4880 1955.00 1965.07 44.00
10400 64.4940 1925.00 1966.41 44.00
10401 64.5000 1927.00 1968.00 44.00
10402 64.5060 2011.00 1969.88 45.00
10403 64.5120 1919.00 1972.08 44.00
10404 64.5180 1883.00 1974.60 43.00
10405 64.5240 1939.00 1977.37 44.00
10406 64.5300 1944.00 1980.45 44.00
10407 64.5360 1990.00 1983.72 45.00
10408 64.5420 1992.00 1987.11 45.00
10409 64.5480 1986.00 1990.46 45.00
10410 64.5540 1998.00 1993.67 45.00
10411 64.5600 1979.00 1996.60 44.00
10412 64.5660 1949.00 1999.11 44.00
10413 64.5720 1940.00 2001.10 44.00
10414 64.5780 1895.00 2002.51 44.00
10415 64.5840 1880.00 2003.38 43.00
10416 64.5900 1953.00 2003.67 44.00
10417 64.5960 1977.00 2003.45 44.00
10418 64.6020 1975.00 2002.79 44.00
10419 64.6080 1959.00 2001.66 44.00
10420 64.6140 1907.00 2000.35 44.00
10421 64.6200 1932.00 1998.84 44.00
10422 64.6260 1977.00 1997.31 44.00
10423 64.6320 1906.00 1995.85 44.00
10424 64.6380 1867.00 1994.60 43.00
10425 64.6440 1917.00 1993.62 44.00
10426 64.6500 1922.00 1992.93 44.00
10427 64.6560 1881.00 1992.63 43.00
10428 64.6620 1910.00 1992.59 44.00
10429 64.6680 1882.00 1992.67 43.00
10430 64.6740 1889.00 1992.93 43.00
10431 64.6800 1937.00 1993.13 44.00
10432 64.6860 1972.00 1993.18 44.00
10433 64.6920 2033.00 1993.05 45.00
10434 64.6980 2010.00 1992.61 45.00
10435 64.7040 1961.00 1991.92 44.00
10436 64.7100 1947.00 1991.02 44.00
10437 64.7160 1899.00 1989.97 44.00
10438 64.7220 1938.00 1988.95 44.00
10439 64.7280 2025.00 1987.87 45.00
10440 64.7340 1992.00 1986.83 45.00
10441 64.7400 1955.00 1985.93 44.00
10442 64.7460 1960.00 1985.14 44.00
10443 64.7520 1939.00 1984.64 44.00
10444 64.7580 1868.00 1984.34 43.00
10445 64.7640 1928.00 1984.31 44.00
10446 64.7700 1968.00 1984.59 44.00
10447 64.7760 1929.00 1985.20 44.00
10448 64.7820 1978.00 1986.15 44.00
10449 64.7880 2047.00 1987.38 45.00
10450 64.7940 2009.00 1988.84 45.00
10451 64.8000 1961.00 1990.54 44.00
10452 64.8060 2020.00 1992.26 45.00
10453 64.8120 2018.00 1994.10 45.00
10454 64.8180 1986.00 1995.94 45.00
10455 64.8240 2005.00 1997.91 45.00
10456 64.8300 2046.00 1999.86 45.00
10457 64.8360 1994.00 2001.83 45.00
10458 64.8420 1959.00 2003.78 44.00
10459 64.8480 1946.00 2005.73 44.00
10460 64.8540 1913.00 2007.31 44.00
10461 64.8600 1905.00 2008.66 44.00
10462 64.8660 1928.00 2009.64 44.00
10463 64.8720 2009.00 2010.15 45.00
10464 64.8780 2019.00 2010.22 45.00
10465 64.8840 1961.00 2009.79 44.00
10466 64.8900 1964.00 2008.81 44.00
10467 64.8960 1978.00 2007.33 44.00
10468 64.9020 1982.00 2005.23 45.00
10469 64.9080 2012.00 2002.70 45.00
10470 64.9140 2012.00 1999.78 45.00
10471 64.9200 1991.00 1996.64 45.00
10472 64.9260 1958.00 1993.47 44.00
10473 64.9320 1956.00 1990.41 44.00
10474 64.9380 1959.00 1987.60 44.00
10475 64.9440 1892.00 1985.19 43.00
10476 64.9500 1885.00 1983.38 43.00
10477 64.9560 1916.00 1982.18 44.00
10478 64.9620 1915.00 1981.69 44.00
10479 64.9680 1947.00 1981.92 44.00
10480 64.9740 1966.00 1982.94 44.00
10481 64.9800 1993.00 1984.59 45.00
10482 64.9860 1994.00 1986.87 45.00
10483 64.9920 2010.00 1989.68 45.00
10484 64.9980 1957.00 1992.88 44.00
10485 65.0040 1946.00 1996.31 44.00
10486 65.0100 1940.00 1999.83 44.00
10487 65.0160 1991.00 2003.33 45.00
10488 65.0220 2014.00 2006.64 45.00
10489 65.0280 2014.00 2009.71 45.00
10490 65.0340 1956.00 2012.59 44.00
10491 65.0400 1911.00 2015.40 44.00
10492 65.0460 1896.00 2018.27 44.00
10493 65.0520 1943.00 2021.29 44.00
10494 65.0580 2064.00 2024.55 45.00
10495 65.0640 2072.00 2028.28 46.00
10496 65.0700 1974.00 2032.36 44.00
10497 65.0760 2057.00 2036.81 45.00
10498 65.0820 2121.00 2041.59 46.00
10499 65.0880 2016.00 2046.60 45.00
10500 65.0940 2026.00 2051.80 45.00
10501 65.1000 2047.00 2056.85 45.00
10502 65.1060 2079.00 2061.91 46.00
10503 65.1120 2050.00 2066.73 45.00
10504 65.1180 2096.00 2071.31 46.00
10505 65.1240 2104.00 2075.52 46.00
10506 65.1300 2097.00 2079.33 46.00
10507 65.1360 1994.00 2082.71 45.00
10508 65.1420 2016.00 2085.64 45.00
10509 65.1480 2053.00 2088.11 45.00
10510 65.1540 2052.00 2090.11 45.00
10511 65.1600 2044.00 2091.64 45.00
10512 65.1660 2009.00 2092.67 45.00
10513 65.1720 1999.00 2093.31 45.00
10514 65.1780 2006.00 2093.52 45.00
10515 65.1840 2054.00 2093.26 45.00
10516 65.1900 2075.00 2092.39 46.00
10517 65.1960 2070.00 2090.97 45.00
10518 65.2020 2066.00 2088.79 45.00
10519 65.2080 2050.00 2085.71 45.00
10520 65.2140 2064.00 2081.64 45.00
10521 65.2200 2054.00 2076.49 45.00
10522 65.2260 2037.00 2070.32 45.00
10523 65.2320 2011.00 2063.25 45.00
10524 65.2380 2018.00 2055.35 45.00
10525 65.2440 1990.00 2046.87 45.00
10526 65.2500 2000.00 2038.01 45.00
10527 65.2560 2013.00 2029.03 45.00
10528 65.2620 1993.00 2020.06 45.00
10529 65.2680 1965.00 2011.36 44.00
10530 65.2740 1941.00 2003.02 44.00
10531 65.2800 1953.00 1995.18 44.00
10532 65.2860 1897.00 1988.05 44.00
10533 65.2920 1887.00 1981.63 43.00
10534 65.2980 1909.00 1975.95 44.00
10535 65.3040 1877.00 1971.02 43.00
10536 65.3100 1903.00 1966.86 44.00
10537 65.3160 1918.00 1963.38 44.00
10538 65.3220 1920.00 1960.64 44.00
10539 65.3280 1947.00 1958.53 44.00
10540 65.3340 1936.00 1956.97 44.00
10541 65.3400 1939.00 1955.88 44.00
10542 65.3460 1972.00 1955.22 44.00
10543 65.3520 1949.00 1954.88 44.00
10544 65.3580 1906.00 1954.79 44.00
10545 65.3640 1902.00 1954.87 44.00
10546 65.3700 1923.00 1955.05 44.00
10547 65.3760 1914.00 1955.26 44.00
10548 65.3820 1876.00 1955.47 43.00
10549 65.3880 1893.00 1955.68 44.00
10550 65.3940 1918.00 1955.90 44.00
10551 65.4000 1914.00 1956.15 44.00
10552 65.4060 1917.00 1956.46 44.00
10553 65.4120 1910.00 1956.88 44.00
10554 65.4180 1911.00 1957.32 44.00
10555 65.4240 1874.00 1957.76 43.00
10556 65.4300 1864.00 1958.15 43.00
10557 65.4360 1874.00 1958.38 43.00
10558 65.4420 1919.00 1958.41 44.00
10559 65.4480 1973.00 1958.16 44.00
10560 65.4540 2005.00 1957.69 45.00
10561 65.4600 1999.00 1956.85 45.00
10562 65.4660 1964.00 1955.83 44.00
10563 65.4720 1971.00 1954.65 44.00
10564 65.4780 1975.00 1953.45 44.00
10565 65.4840 1916.00 1952.32 44.00
10566 65.4900 1952.00 1951.33 44.00
10567 65.4960 1971.00 1950.53 44.00
10568 65.5020 1951.00 1949.92 44.00
10569 65.5080 1938.00 1949.56 44.00
10570 65.5140 1919.00 1949.34 44.00
10571 65.5200 1986.00 1949.26 45.00
10572 65.5260 2022.00 1949.28 45.00
10573 65.5320 1928.00 1949.24 44.00
10574 65.5380 1934.00 1949.32 44.00
10575 65.5440 1933.00 1949.38 44.00
10576 65.5500 1907.00 1949.46 44.00
10577 65.5560 1913.00 1949.47 44.00
10578 65.5620 1914.00 1949.59 44.00
10579 65.5680 1932.00 1949.66 44.00
10580 65.5740 1892.00 1950.01 43.00
10581 65.5800 1916.00 1950.66 44.00
10582 65.5860 1912.00 1951.70 44.00
10583 65.5920 1922.00 1953.23 44.00
10584 65.5980 1993.00 1955.34 45.00
10585 65.6040 1925.00 1958.02 44.00
10586 65.6100 1915.00 1961.31 44.00
10587 65.6160 1964.00 1965.21 44.00
10588 65.6220 1958.00 1969.69 44.00
10589 65.6280 1923.00 1974.72 44.00
10590 65.6340 1956.00 1980.24 44.00
10591 65.6400 2035.00 1986.19 45.00
10592 65.6460 1993.00 1992.50 45.00
10593 65.6520 1984.00 1999.19 45.00
10594 65.6580 1984.00 2006.16 45.00
10595 65.6640 1972.00 2013.35 44.00
10596 65.6700 2062.00 2020.80 45.00
10597 65.6760 2059.00 2028.32 45.00
10598 65.6820 2009.00 2035.85 45.00
10599 65.6880 2045.00 2043.29 45.00
10600 65.6940 2080.00 2050.48 46.00
10601 65.7000 2041.00 2057.31 45.00
10602 65.7060 2074.00 2063.53 46.00
10603 65.7120 2087.00 2069.01 46.00
10604 65.7180 2019.00 2073.71 45.00
10605 65.7240 2038.00 2077.49 45.00
10606 65.7300 2041.00 2080.35 45.00
10607 65.7360 2016.00 2082.33 45.00
10608 65.7420 2066.00 2083.49 45.00
10609 65.7480 2153.00 2083.95 46.00
10610 65.7540 2080.00 2083.72 46.00
10611 65.7600 2059.00 2082.89 45.00
10612 65.7660 2014.00 2081.52 45.00
10613 65.7720 2043.00 2079.50 45.00
10614 65.7780 2056.00 2076.97 45.00
10615 65.7840 1978.00 2073.88 44.00
10616 65.7900 1961.00 2070.17 44.00
10617 65.7960 2002.00 2065.86 45.00
10618 65.8020 2053.00 2060.99 45.00
10619 65.8080 1941.00 2055.63 44.00
10620 65.8140 2003.00 2049.77 45.00
10621 65.8200 1998.00 2043.54 45.00
10622 65.8260 2032.00 2036.92 45.00
10623 65.8320 1983.00 2030.18 45.00
10624 65.8380 2073.00 2023.38 46.00
10625 65.8440 2014.00 2016.67 45.00
10626 65.8500 2000.00 2010.20 45.00
10627 65.8560 1938.00 2004.02 44.00
10628 65.8620 1907.00 1998.35 44.00
10629 65.8680 1936.00 1993.16 44.00
10630 65.8740 1938.00 1988.45 44.00
10631 65.8800 1997.00 1984.12 45.00
10632 65.8860 1884.00 1980.25 43.00
10633 65.8920 2004.00 1976.74 45.00
10634 65.8980 1921.00 1973.51 44.00
10635 65.9040 1966.00 1970.58 44.00
10636 65.9100 1931.00 1967.83 44.00
10637 65.9160 1974.00 1965.33 44.00
10638 65.9220 1949.00 1963.09 44.00
10639 65.9280 1898.00 1961.21 44.00
10640 65.9340 1942.00 1959.57 44.00
10641 65.9400 1954.00 1958.25 44.00
10642 65.9460 1915.00 1957.33 44.00
10643 65.9520 1943.00 1956.65 44.00
10644 65.9580 2047.00 1956.27 45.00
10645 65.9640 1914.00 1956.09 44.00
10646 65.9700 1921.00 1956.10 44.00
10647 65.9760 1967.00 1956.31 44.00
10648 65.9820 1929.00 1956.70 44.00
10649 65.9880 1958.00 1956.98 44.00
10650 65.9940 1917.00 1957.14 44.00
10651 66.0000 1982.00 1957.23 45.00
10652 66.0060 1960.00 1957.13 44.00
10653 66.0120 1884.00 1956.77 43.00
10654 66.0180 1917.00 1956.17 44.00
10655 66.0240 1945.00 1955.29 44.00
10656 66.0300 1969.00 1954.08 44.00
10657 66.0360 1907.00 1952.56 44.00
10658 66.0420 1906.00 1950.78 44.00
10659 66.0480 1923.00 1948.64 44.00
10660 66.0540 1967.00 1946.34 44.00
10661 66.0600 1896.00 1943.74 44.00
10662 66.0660 1925.00 1940.93 44.00
10663 66.0720 1879.00 1937.94 43.00
10664 66.0780 1891.00 1934.72 43.00
10665 66.0840 2019.00 1931.38 45.00
10666 66.0900 1961.00 1928.05 44.00
10667 66.0960 1881.00 1924.56 43.00
10668 66.1020 1902.00 1921.00 44.00
10669 66.1080 1952.00 1917.42 44.00
10670 66.1140 1808.00 1914.00 43.00
10671 66.1200 1939.00 1910.69 44.00
10672 66.1260 1970.00 1907.53 44.00
10673 66.1320 1944.00 1904.62 44.00
10674 66.1380 1859.00 1901.80 43.00
10675 66.1440 1839.00 1899.40 43.00
10676 66.1500 1760.00 1897.15 42.00
10677 66.1560 1886.00 1895.12 43.00
10678 66.1620 1838.00 1893.30 43.00
10679 66.1680 1838.00 1891.67 43.00
10680 66.1740 1905.00 1890.22 44.00
10681 66.1800 1871.00 1888.80 43.00
10682 66.1860 1809.00 1887.75 43.00
10683 66.1920 1837.00 1886.86 43.00
10684 66.1980 1847.00 1886.15 43.00
10685 66.2040 1810.00 1885.58 43.00
10686 66.2100 1882.00 1885.08 43.00
10687 66.2160 1819.00 1884.81 43.00
10688 66.2220 1919.00 1884.60 44.00
10689 66.2280 1833.00 1884.42 43.00
10690 66.2340 1874.00 1884.21 43.00
10691 66.2400 1812.00 1883.92 43.00
10692 66.2460 1893.00 1883.51 44.00
10693 66.2520 1915.00 1882.96 44.00
10694 66.2580 1896.00 1882.31 44.00
10695 66.2640 1902.00 1881.55 44.00
10696 66.2700 1883.00 1880.74 43.00
10697 66.2760 1891.00 1879.89 43.00
10698 66.2820 1900.00 1879.10 44.00
10699 66.2880 1914.00 1878.35 44.00
10700 66.2940 1886.00 1877.71 43.00
10701 66.3000 1903.00 1877.23 44.00
10702 66.3060 1974.00 1876.94 44.00
10703 66.3120 1920.00 1876.87 44.00
10704 66.3180 1871.00 1877.03 43.00
10705 66.3240 1900.00 1877.49 44.00
10706 66.3300 2013.00 1878.27 45.00
10707 66.3360 1929.00 1879.38 44.00
10708 66.3420 1855.00 1880.85 43.00
10709 66.3480 1817.00 1882.70 43.00
10710 66.3540 1945.00 1884.88 44.00
10711 66.3600 1899.00 1887.51 44.00
10712 66.3660 1908.00 1890.52 44.00
10713 66.3720 1895.00 1893.90 44.00
10714 66.3780 1910.00 1897.57 44.00
10715 66.3840 1914.00 1901.53 44.00
10716 66.3900 1912.00 1905.64 44.00
10717 66.3960 1898.00 1909.83 44.00
10718 66.4020 1892.00 1913.98 43.00
10719 66.4080 1890.00 1917.99 43.00
10720 66.4140 1973.00 1921.77 44.00
10721 66.4200 1898.00 1925.20 44.00
10722 66.4260 1952.00 1928.17 44.00
10723 66.4320 1940.00 1930.57 44.00
10724 66.4380 1909.00 1932.43 44.00
10725 66.4440 1959.00 1933.66 44.00
10726 66.4500 1921.00 1934.31 44.00
10727 66.4560 1910.00 1934.38 44.00
10728 66.4620 1937.00 1934.00 44.00
10729 66.4680 1932.00 1933.31 44.00
10730 66.4740 1940.00 1932.45 44.00
10731 66.4800 1969.00 1931.57 44.00
10732 66.4860 1938.00 1930.77 44.00
10733 66.4920 1895.00 1930.13 44.00
10734 66.4980 1925.00 1929.69 44.00
10735 66.5040 1933.00 1929.51 44.00
10736 66.5100 1987.00 1929.65 45.00
10737 66.5160 1948.00 1929.91 44.00
10738 66.5220 1973.00 1930.34 44.00
10739 66.5280 2014.00 1930.85 45.00
10740 66.5340 2011.00 1931.29 45.00
10741 66.5400 1981.00 1931.52 45.00
10742 66.5460 1927.00 1931.49 44.00
10743 66.5520 1924.00 1931.07 44.00
10744 66.5580 1893.00 1930.25 44.00
10745 66.5640 1954.00 1929.03 44.00
10746 66.5700 1985.00 1927.50 45.00
10747 66.5760 1999.00 1925.75 45.00
10748 66.5820 1953.00 1923.97 44.00
10749 66.5880 1950.00 1922.13 44.00
10750 66.5940 1928.00 1920.39 44.00
10751 66.6000 1921.00 1918.83 44.00
10752 66.6060 1937.00 1917.51 44.00
10753 66.6120 1913.00 1916.44 44.00
10754 66.6180 1866.00 1915.71 43.00
10755 66.6240 1955.00 1915.29 44.00
10756 66.6300 1887.00 1915.13 43.00
10757 66.6360 1887.00 1915.27 43.00
10758 66.6420 1902.00 1915.63 44.00
10759 66.6480 1899.00 1916.16 44.00
10760 66.6540 1934.00 1916.75 44.00
10761 66.6600 1934.00 1917.43 44.00
10762 66.6660 1939.00 1918.11 44.00
10763 66.6720 1895.00 1918.74 44.00
10764 66.6780 1881.00 1919.29 43.00
10765 66.6840 1866.00 1919.65 43.00
10766 66.6900 1886.00 1919.95 43.00
10767 66.6960 1945.00 1920.16 44.00
10768 66.7020 1902.00 1920.16 44.00
10769 66.7080 1938.00 1919.92 44.00
10770 66.7140 1986.00 1919.63 45.00
10771 66.7200 1975.00 1919.18 44.00
10772 66.7260 1925.00 1918.60 44.00
10773 66.7320 1906.00 1917.96 44.00
10774 66.7380 1926.00 1917.23 44.00
10775 66.7440 1916.00 1916.35 44.00
10776 66.7500 1922.00 1915.40 44.00
10777 66.7560 1896.00 1914.31 44.00
10778 66.7620 1896.00 1912.98 44.00
10779 66.7680 1888.00 1911.56 43.00
10780 66.7740 1897.00 1909.91 44.00
10781 66.7800 1926.00 1908.14 44.00
10782 66.7860 1913.00 1906.21 44.00
10783 66.7920 1881.00 1904.12 43.00
10784 66.7980 1881.00 1902.07 43.00
10785 66.8040 1865.00 1900.08 43.00
10786 66.8100 1870.00 1898.22 43.00
10787 66.8160 1890.00 1896.59 43.00
10788 66.8220 1865.00 1895.41 43.00
10789 66.8280 1834.00 1894.70 43.00
10790 66.8340 1881.00 1894.56 43.00
10791 66.8400 1976.00 1895.15 44.00
10792 66.8460 1987.00 1896.53 45.00
10793 66.8520 1933.00 1898.70 44.00
10794 66.8580 1903.00 1901.76 44.00
10795 66.8640 1931.00 1905.58 44.00
10796 66.8700 1943.00 1910.26 44.00
10797 66.8760 1936.00 1915.76 44.00
10798 66.8820 1904.00 1922.06 44.00
10799 66.8880 1930.00 1929.09 44.00
10800 66.8940 1959.00 1936.71 44.00
10801 66.9000 1940.00 1944.89 44.00
10802 66.9060 1948.00 1953.49 44.00
10803 66.9120 1994.00 1962.36 45.00
10804 66.9180 2021.00 1971.36 45.00
10805 66.9240 2047.00 1980.37 45.00
10806 66.9300 1978.00 1989.13 44.00
10807 66.9360 1977.00 1997.47 44.00
10808 66.9420 1965.00 2005.34 44.00
10809 66.9480 2013.00 2012.48 45.00
10810 66.9540 2056.00 2018.90 45.00
10811 66.9600 2014.00 2024.35 45.00
10812 66.9660 2001.00 2028.72 45.00
10813 66.9720 2027.00 2031.91 45.00
10814 66.9780 2002.00 2033.71 45.00
10815 66.9840 2011.00 2034.11 45.00
10816 66.9900 2044.00 2033.16 45.00
10817 66.9960 1951.00 2030.97 44.00
10818 67.0020 1957.00 2027.73 44.00
10819 67.0080 1975.00 2023.70 44.00
10820 67.0140 1972.00 2019.13 44.00
10821 67.0200 2020.00 2014.22 45.00
10822 67.0260 2034.00 2009.21 45.00
10823 67.0320 2002.00 2004.22 45.00
10824 67.0380 1988.00 1999.31 45.00
10825 67.0440 1987.00 1994.65 45.00
10826 67.0500 2020.00 1990.22 45.00
10827 67.0560 2020.00 1986.09 45.00
10828 67.0620 1975.00 1982.27 44.00
10829 67.0680 2037.00 1978.74 45.00
10830 67.0740 2008.00 1975.61 45.00
10831 67.0800 1976.00 1972.80 44.00
10832 67.0860 1981.00 1970.29 45.00
10833 67.0920 1932.00 1967.98 44.00
10834 67.0980 1910.00 1965.78 44.00
10835 67.1040 1897.00 1963.67 44.00
10836 67.1100 1839.00 1961.51 43.00
10837 67.1160 1888.00 1959.24 43.00
10838 67.1220 1887.00 1956.77 43.00
10839 67.1280 1939.00 1954.04 44.00
10840 67.1340 1981.00 1951.00 45.00
10841 67.1400 1921.00 1947.54 44.00
10842 67.1460 1888.00 1943.64 43.00
10843 67.1520 1859.00 1939.30 43.00
10844 67.1580 1918.00 1934.58 44.00
10845 67.1640 1944.00 1929.55 44.00
10846 67.1700 1940.00 1924.29 44.00
10847 67.1760 1935.00 1918.89 44.00
10848 67.1820 1961.00 1913.48 44.00
10849 67.1880 1981.00 1908.08 45.00
10850 67.1940 1927.00 1902.81 44.00
10851 67.2000 1930.00 1897.76 44.00
10852 67.2060 1905.00 1892.95 44.00
10853 67.2120 1921.00 1888.48 44.00
10854 67.2180 1922.00 1884.38 44.00
10855 67.2240 1913.00 1880.69 44.00
10856 67.2300 1900.00 1877.44 44.00
10857 67.2360 1880.00 1874.56 43.00
10858 67.2420 1884.00 1872.15 43.00
10859 67.2480 1854.00 1870.07 43.00
10860 67.2540 1870.00 1868.33 43.00
10861 67.2600 1866.00 1866.87 43.00
10862 67.2660 1888.00 1865.64 43.00
10863 67.2720 1927.00 1864.55 44.00
10864 67.2780 1861.00 1863.54 43.00
10865 67.2840 1819.00 1862.56 43.00
10866 67.2900 1860.00 1861.60 43.00
10867 67.2960 1875.00 1860.58 43.00
10868 67.3020 1863.00 1859.50 43.00
10869 67.3080 1933.00 1858.40 44.00
10870 67.3140 1917.00 1857.30 44.00
10871 67.3200 1855.00 1856.24 43.00
10872 67.3260 1866.00 1855.26 43.00
10873 67.3320 1875.00 1854.38 43.00
10874 67.3380 1869.00 1853.63 43.00
10875 67.3440 1862.00 1853.04 43.00
10876 67.3500 1871.00 1852.60 43.00
10877 67.3560 1867.00 1852.32 43.00
10878 67.3620 1879.00 1852.16 43.00
10879 67.3680 1888.00 1852.14 43.00
10880 67.3740 1912.00 1852.29 44.00
10881 67.3800 1930.00 1852.49 44.00
10882 67.3860 1902.00 1852.77 44.00
10883 67.3920 1856.00 1853.13 43.00
10884 67.3980 1847.00 1853.54 43.00
10885 67.4040 1845.00 1853.92 43.00
10886 67.4100 1876.00 1854.39 43.00
10887 67.4160 1883.00 1854.95 43.00
10888 67.4220 1862.00 1855.59 43.00
10889 67.4280 1912.00 1856.36 44.00
10890 67.4340 1909.00 1857.27 44.00
10891 67.4400 1907.00 1858.27 44.00
10892 67.4460 1891.00 1859.45 43.00
10893 67.4520 1835.00 1860.80 43.00
10894 67.4580 1837.00 1862.25 43.00
10895 67.4640 1875.00 1863.88 43.00
10896 67.4700 1903.00 1865.61 44.00
10897 67.4760 1867.00 1867.55 43.00
10898 67.4820 1805.00 1869.56 42.00
10899 67.4880 1838.00 1871.73 43.00
10900 67.4940 1912.00 1873.98 44.00
10901 67.5000 1902.00 1876.24 44.00
10902 67.5060 1911.00 1878.53 44.00
10903 67.5120 1914.00 1880.66 44.00
10904 67.5180 1909.00 1882.56 44.00
10905 67.5240 1935.00 1884.15 44.00
10906 67.5300 1943.00 1885.30 44.00
10907 67.5360 1904.00 1886.01 44.00
10908 67.5420 1901.00 1886.28 44.00
10909 67.5480 1900.00 1886.07 44.00
10910 67.5540 1897.00 1885.49 44.00
10911 67.5600 1921.00 1884.70 44.00
10912 67.5660 1888.00 1883.68 43.00
10913 67.5720 1836.00 1882.52 43.00
10914 67.5780 1884.00 1881.19 43.00
10915 67.5840 1932.00 1879.80 44.00
10916 67.5900 1904.00 1878.15 44.00
10917 67.5960 1869.00 1876.31 43.00
10918 67.6020 1858.00 1874.32 43.00
10919 67.6080 1845.00 1872.20 43.00
10920 67.6140 1851.00 1870.00 43.00
10921 67.6200 1884.00 1867.81 43.00
10922 67.6260 1906.00 1865.78 44.00
10923 67.6320 1882.00 1863.88 43.00
10924 67.6380 1852.00 1862.20 43.00
10925 67.6440 1829.00 1860.91 43.00
10926 67.6500 1783.00 1859.92 42.00
10927 67.6560 1830.00 1859.30 43.00
10928 67.6620 1874.00 1859.05 43.00
10929 67.6680 1826.00 1859.08 43.00
10930 67.6740 1813.00 1859.47 43.00
10931 67.6800 1805.00 1860.11 42.00
10932 67.6860 1807.00 1860.95 43.00
10933 67.6920 1834.00 1861.89 43.00
10934 67.6980 1852.00 1862.88 43.00
10935 67.7040 1911.00 1863.78 44.00
10936 67.7100 1889.00 1864.60 43.00
10937 67.7160 1886.00 1865.25 43.00
10938 67.7220 1879.00 1865.70 43.00
10939 67.7280 1899.00 1865.96 44.00
10940 67.7340 1934.00 1866.08 44.00
10941 67.7400 1888.00 1865.99 43.00
10942 67.7460 1887.00 1865.82 43.00
10943 67.7520 1865.00 1865.55 43.00
10944 67.7580 1848.00 1865.35 43.00
10945 67.7640 1864.00 1865.26 43.00
10946 67.7700 1876.00 1865.42 43.00
10947 67.7760 1871.00 1865.88 43.00
10948 67.7820 1866.00 1866.72 43.00
10949 67.7880 1810.00 1868.02 43.00
10950 67.7940 1846.00 1869.86 43.00
10951 67.8000 1878.00 1872.20 43.00
10952 67.8060 1848.00 1875.08 43.00
10953 67.8120 1841.00 1878.50 43.00
10954 67.8180 1867.00 1882.42 43.00
10955 67.8240 1877.00 1886.80 43.00
10956 67.8300 1907.00 1891.55 44.00
10957 67.8360 1941.00 1896.57 44.00
10958 67.8420 1867.00 1901.76 43.00
10959 67.8480 1879.00 1906.95 43.00
10960 67.8540 1900.00 1912.03 44.00
10961 67.8600 1939.00 1916.83 44.00
10962 67.8660 1967.00 1921.25 44.00
10963 67.8720 1920.00 1925.23 44.00
10964 67.8780 1966.00 1928.71 44.00
10965 67.8840 1945.00 1931.75 44.00
10966 67.8900 1946.00 1934.43 44.00
10967 67.8960 1927.00 1936.80 44.00
10968 67.9020 1863.00 1939.05 43.00
10969 67.9080 1904.00 1941.12 44.00
10970 67.9140 1917.00 1943.15 44.00
10971 67.9200 1918.00 1945.10 44.00
10972 67.9260 1968.00 1946.92 44.00
10973 67.9320 1960.00 1948.47 44.00
10974 67.9380 1948.00 1949.57 44.00
10975 67.9440 2002.00 1950.21 45.00
10976 67.9500 1980.00 1950.23 44.00
10977 67.9560 1960.00 1949.47 44.00
10978 67.9620 1937.00 1948.03 44.00
10979 67.9680 1936.00 1945.84 44.00
10980 67.9740 1914.00 1942.99 44.00
10981 67.9800 1950.00 1939.52 44.00
10982 67.9860 1910.00 1935.44 44.00
10983 67.9920 1928.00 1930.75 44.00
10984 67.9980 1947.00 1925.72 44.00
10985 68.0040 1935.00 1920.24 44.00
10986 68.0100 1930.00 1914.45 44.00
10987 68.0160 1933.00 1908.41 44.00
10988 68.0220 1874.00 1902.20 43.00
10989 68.0280 1885.00 1895.96 43.00
10990 68.0340 1842.00 1889.74 43.00
10991 68.0400 1853.00 1883.78 43.00
10992 68.0460 1870.00 1878.14 43.00
10993 68.0520 1860.00 1872.90 43.00
10994 68.0580 1869.00 1868.13 43.00
10995 68.0640 1872.00 1863.90 43.00
10996 68.0700 1838.00 1860.15 43.00
10997 68.0760 1816.00 1857.01 43.00
10998 68.0820 1883.00 1854.43 43.00
10999 68.0880 1838.00 1852.40 43.00
11000 68.0940 1858.00 1850.88 43.00
11001 68.1000 1879.00 1849.86 43.00
11002 68.1060 1883.00 1849.28 43.00
11003 68.1120 1853.00 1849.12 43.00
11004 68.1180 1900.00 1849.32 44.00
11005 68.1240 1871.00 1849.83 43.00
11006 68.1300 1805.00 1850.58 42.00
11007 68.1360 1854.00 1851.54 43.00
11008 68.1420 1884.00 1852.60 43.00
11009 68.1480 1864.00 1853.74 43.00
11010 68.1540 1814.00 1854.92 43.00
11011 68.1600 1808.00 1856.02 43.00
11012 68.1660 1842.00 1857.16 43.00
11013 68.1720 1867.00 1858.27 43.00
11014 68.1780 1910.00 1859.35 44.00
11015 68.1840 1853.00 1860.44 43.00
11016 68.1900 1846.00 1861.53 43.00
11017 68.1960 1901.00 1862.64 44.00
11018 68.2020 1922.00 1863.77 44.00
11019 68.2080 1929.00 1864.98 44.00
11020 68.2140 1890.00 1866.25 43.00
11021 68.2200 1858.00 1867.57 43.00
11022 68.2260 1864.00 1868.93 43.00
11023 68.2320 1902.00 1870.33 44.00
11024 68.2380 1821.00 1871.79 43.00
11025 68.2440 1867.00 1873.28 43.00
11026 68.2500 1843.00 1874.75 43.00
11027 68.2560 1912.00 1876.20 44.00
11028 68.2620 1851.00 1877.62 43.00
11029 68.2680 1848.00 1879.02 43.00
11030 68.2740 1860.00 1880.33 43.00
11031 68.2800 1897.00 1881.63 44.00
11032 68.2860 1905.00 1882.87 44.00
11033 68.2920 1915.00 1884.09 44.00
11034 68.2980 1936.00 1885.30 44.00
11035 68.3040 1842.00 1886.55 43.00
11036 68.3100 1852.00 1887.81 43.00
11037 68.3160 1932.00 1889.13 44.00
11038 68.3220 1901.00 1890.52 44.00
11039 68.3280 1884.00 1891.97 43.00
11040 68.3340 1979.00 1893.50 44.00
11041 68.3400 1932.00 1895.12 44.00
11042 68.3460 1920.00 1896.86 44.00
11043 68.3520 1960.00 1898.66 44.00
11044 68.3580 1950.00 1900.53 44.00
11045 68.3640 1932.00 1902.37 44.00
11046 68.3700 1884.00 1904.16 43.00
11047 68.3760 1910.00 1905.73 44.00
11048 68.3820 1903.00 1907.01 44.00
11049 68.3880 1867.00 1907.95 43.00
11050 68.3940 1886.00 1908.51 43.00
11051 68.4000 1991.00 1908.68 45.00
11052 68.4060 1974.00 1908.53 44.00
11053 68.4120 1973.00 1907.99 44.00
11054 68.4180 1985.00 1907.22 45.00
11055 68.4240 1927.00 1906.22 44.00
11056 68.4300 1872.00 1905.14 43.00
11057 68.4360 1938.00 1904.06 44.00
11058 68.4420 2010.00 1903.10 45.00
11059 68.4480 1970.00 1902.35 44.00
11060 68.4540 1918.00 1901.89 44.00
11061 68.4600 1958.00 1901.78 44.00
11062 68.4660 1876.00 1902.06 43.00
11063 68.4720 1994.00 1902.71 45.00
11064 68.4780 1902.00 1903.66 44.00
11065 68.4840 1895.00 1904.92 44.00
11066 68.4900 1937.00 1906.34 44.00
11067 68.4960 1921.00 1907.80 44.00
11068 68.5020 1959.00 1909.20 44.00
11069 68.5080 1894.00 1910.47 44.00
11070 68.5140 1951.00 1911.52 44.00
11071 68.5200 1931.00 1912.35 44.00
11072 68.5260 1919.00 1912.94 44.00
11073 68.5320 1945.00 1913.35 44.00
11074 68.5380 1949.00 1913.63 44.00
11075 68.5440 1849.00 1913.76 43.00
11076 68.5500 1875.00 1913.99 43.00
11077 68.5560 1923.00 1914.23 44.00
11078 68.5620 1895.00 1914.50 44.00
11079 68.5680 1893.00 1914.93 44.00
11080 68.5740 1893.00 1915.47 44.00
11081 68.5800 1978.00 1916.11 44.00
11082 68.5860 2003.00 1916.82 45.00
11083 68.5920 1968.00 1917.53 44.00
11084 68.5980 1990.00 1918.17 45.00
11085 68.6040 1901.00 1918.70 44.00
11086 68.6100 1932.00 1918.93 44.00
11087 68.6160 1970.00 1918.83 44.00
11088 68.6220 1927.00 1918.32 44.00
11089 68.6280 1885.00 1917.49 43.00
11090 68.6340 1936.00 1916.32 44.00
11091 68.6400 1907.00 1914.83 44.00
11092 68.6460 1888.00 1913.07 43.00
11093 68.6520 1870.00 1911.05 43.00
11094 68.6580 1815.00 1908.78 43.00
11095 68.6640 1925.00 1906.26 44.00
11096 68.6700 1819.00 1903.50 43.00
11097 68.6760 1884.00 1900.55 43.00
11098 68.6820 1848.00 1897.41 43.00
11099 68.6880 1891.00 1894.18 43.00
11100 68.6940 1945.00 1890.93 44.00
11101 68.7000 1878.00 1887.78 43.00
11102 68.7060 1946.00 1884.80 44.00
11103 68.7120 1940.00 1882.12 44.00
11104 68.7180 1909.00 1879.75 44.00
11105 68.7240 1888.00 1877.80 43.00
11106 68.7300 1845.00 1876.25 43.00
11107 68.7360 1856.00 1875.08 43.00
11108 68.7420 1804.00 1874.35 42.00
11109 68.7480 1803.00 1873.91 42.00
11110 68.7540 1805.00 1873.72 42.00
11111 68.7600 1855.00 1873.68 43.00
11112 68.7660 1903.00 1873.69 44.00
11113 68.7720 1848.00 1873.66 43.00
11114 68.7780 1898.00 1873.54 44.00
11115 68.7840 1872.00 1873.30 43.00
11116 68.7900 1832.00 1872.93 43.00
11117 68.7960 1945.00 1872.46 44.00
11118 68.8020 1861.00 1871.91 43.00
11119 68.8080 1897.00 1871.30 44.00
11120 68.8140 1880.00 1870.65 43.00
11121 68.8200 1881.00 1869.97 43.00
11122 68.8260 1904.00 1869.19 44.00
11123 68.8320 1895.00 1868.30 44.00
11124 68.8380 1912.00 1867.28 44.00
11125 68.8440 1857.00 1866.12 43.00
11126 68.8500 1907.00 1864.83 44.00
11127 68.8560 1979.00 1863.44 44.00
11128 68.8620 1869.00 1862.00 43.00
11129 68.8680 1813.00 1860.57 43.00
11130 68.8740 1816.00 1859.21 43.00
11131 68.8800 1856.00 1858.01 43.00
11132 68.8860 1853.00 1856.94 43.00
11133 68.8920 1906.00 1856.17 44.00
11134 68.8980 1831.00 1855.68 43.00
11135 68.9040 1896.00 1855.39 44.00
11136 68.9100 1923.00 1855.36 44.00
11137 68.9160 1791.00 1855.57 42.00
11138 68.9220 1857.00 1855.91 43.00
11139 68.9280 1876.00 1856.33 43.00
11140 68.9340 1841.00 1856.74 43.00
11141 68.9400 1824.00 1857.12 43.00
11142 68.9460 1846.00 1857.44 43.00
11143 68.9520 1838.00 1857.67 43.00
11144 68.9580 1844.00 1857.82 43.00
11145 68.9640 1835.00 1857.99 43.00
11146 68.9700 1873.00 1858.20 43.00
11147 68.9760 1871.00 1858.46 43.00
11148 68.9820 1825.00 1858.67 43.00
11149 68.9880 1884.00 1858.90 43.00
11150 68.9940 1809.00 1859.13 43.00
11151 69.0000 1942.00 1859.30 44.00
11152 69.0060 1920.00 1859.38 44.00
11153 69.0120 1868.00 1859.38 43.00
11154 69.0180 1876.00 1859.24 43.00
11155 69.0240 1861.00 1858.89 43.00
11156 69.0300 1861.00 1858.42 43.00
11157 69.0360 1841.00 1857.82 43.00
11158 69.0420 1940.00 1856.99 44.00
11159 69.0480 1889.00 1856.13 43.00
11160 69.0540 1824.00 1855.24 43.00
11161 69.0600 1793.00 1854.39 42.00
11162 69.0660 1832.00 1853.63 43.00
11163 69.0720 1880.00 1853.01 43.00
11164 69.0780 1797.00 1852.55 42.00
11165 69.0840 1845.00 1852.28 43.00
11166 69.0900 1846.00 1852.14 43.00
11167 69.0960 1819.00 1852.13 43.00
11168 69.1020 1811.00 1852.23 43.00
11169 69.1080 1824.00 1852.44 43.00
11170 69.1140 1724.00 1852.65 42.00
11171 69.1200 1901.00 1852.88 44.00
11172 69.1260 1847.00 1853.07 43.00
11173 69.1320 1817.00 1853.18 43.00
11174 69.1380 1805.00 1853.17 42.00
11175 69.1440 1794.00 1852.99 42.00
11176 69.1500 1848.00 1852.61 43.00
11177 69.1560 1874.00 1852.00 43.00
11178 69.1620 1917.00 1851.17 44.00
11179 69.1680 1794.00 1850.18 42.00
11180 69.1740 1763.00 1849.10 42.00
11181 69.1800 1834.00 1847.99 43.00
11182 69.1860 1879.00 1846.93 43.00
11183 69.1920 1845.00 1845.96 43.00
11184 69.1980 1846.00 1845.19 43.00
11185 69.2040 1873.00 1844.64 43.00
11186 69.2100 1844.00 1844.29 43.00
11187 69.2160 1783.00 1844.18 42.00
11188 69.2220 1875.00 1844.22 43.00
11189 69.2280 1861.00 1844.43 43.00
11190 69.2340 1826.00 1844.76 43.00
11191 69.2400 1875.00 1845.17 43.00
11192 69.2460 1859.00 1845.68 43.00
11193 69.2520 1851.00 1846.25 43.00
11194 69.2580 1845.00 1846.87 43.00
11195 69.2640 1841.00 1847.52 43.00
11196 69.2700 1863.00 1848.25 43.00
11197 69.2760 1840.00 1848.92 43.00
11198 69.2820 1847.00 1849.57 43.00
11199 69.2880 1842.00 1850.20 43.00
11200 69.2940 1927.00 1850.68 44.00
11201 69.3000 1824.00 1851.08 43.00
11202 69.3060 1824.00 1851.36 43.00
11203 69.3120 1805.00 1851.59 42.00
11204 69.3180 1949.00 1851.56 44.00
11205 69.3240 1883.00 1851.42 43.00
11206 69.3300 1844.00 1851.19 43.00
11207 69.3360 1850.00 1850.92 43.00
11208 69.3420 1770.00 1850.66 42.00
11209 69.3480 1820.00 1850.50 43.00
11210 69.3540 1803.00 1850.52 42.00
11211 69.3600 1849.00 1850.72 43.00
11212 69.3660 1829.00 1851.30 43.00
11213 69.3720 1790.00 1852.19 42.00
11214 69.3780 1878.00 1853.45 43.00
11215 69.3840 1839.00 1855.08 43.00
11216 69.3900 1827.00 1857.03 43.00
11217 69.3960 1843.00 1859.28 43.00
11218 69.4020 1874.00 1861.75 43.00
11219 69.4080 1848.00 1864.39 43.00
11220 69.4140 1907.00 1867.08 44.00
11221 69.4200 1820.00 1869.66 43.00
11222 69.4260 1853.00 1872.17 43.00
11223 69.4320 1858.00 1874.46 43.00
11224 69.4380 1896.00 1876.38 44.00
11225 69.4440 1847.00 1877.95 43.00
11226 69.4500 1872.00 1878.94 43.00
11227 69.4560 1848.00 1879.37 43.00
11228 69.4620 1854.00 1879.08 43.00
11229 69.4680 1854.00 1878.24 43.00
11230 69.4740 1929.00 1876.74 44.00
11231 69.4800 1878.00 1874.74 43.00
11232 69.4860 1816.00 1872.33 43.00
11233 69.4920 1861.00 1869.67 43.00
11234 69.4980 1885.00 1866.91 43.00
11235 69.5040 1825.00 1864.24 43.00
11236 69.5100 1806.00 1861.62 42.00
11237 69.5160 1822.00 1859.22 43.00
11238 69.5220 1877.00 1857.07 43.00
11239 69.5280 1768.00 1855.23 42.00
11240 69.5340 1872.00 1853.62 43.00
11241 69.5400 1783.00 1852.33 42.00
11242 69.5460 1915.00 1851.25 44.00
11243 69.5520 1889.00 1850.47 43.00
11244 69.5580 1864.00 1849.95 43.00
11245 69.5640 1883.00 1849.55 43.00
11246 69.5700 1810.00 1849.35 43.00
11247 69.5760 1768.00 1849.33 42.00
11248 69.5820 1815.00 1849.39 43.00
11249 69.5880 1825.00 1849.57 43.00
11250 69.5940 1848.00 1849.81 43.00
11251 69.6000 1864.00 1850.07 43.00
11252 69.6060 1837.00 1850.39 43.00
11253 69.6120 1861.00 1850.72 43.00
11254 69.6180 1814.00 1851.01 43.00
11255 69.6240 1840.00 1851.39 43.00
11256 69.6300 1817.00 1851.71 43.00
11257 69.6360 1817.00 1851.97 43.00
11258 69.6420 1892.00 1852.15 43.00
11259 69.6480 1837.00 1852.25 43.00
11260 69.6540 1883.00 1852.22 43.00
11261 69.6600 1812.00 1851.95 43.00
11262 69.6660 1845.00 1851.62 43.00
11263 69.6720 1817.00 1851.16 43.00
11264 69.6780 1872.00 1850.59 43.00
11265 69.6840 1817.00 1849.96 43.00
11266 69.6900 1919.00 1849.37 44.00
11267 69.6960 1877.00 1848.82 43.00
11268 69.7020 1790.00 1848.24 42.00
11269 69.7080 1832.00 1847.84 43.00
11270 69.7140 1869.00 1847.56 43.00
11271 69.7200 1847.00 1847.38 43.00
11272 69.7260 1830.00 1847.37 43.00
11273 69.7320 1864.00 1847.49 43.00
11274 69.7380 1816.00 1847.68 43.00
11275 69.7440 1803.00 1848.00 42.00
11276 69.7500 1841.00 1848.37 43.00
11277 69.7560 1853.00 1848.79 43.00
11278 69.7620 1815.00 1849.23 43.00
11279 69.7680 1849.00 1849.66 43.00
11280 69.7740 1915.00 1850.07 44.00
11281 69.7800 1798.00 1850.42 42.00
11282 69.7860 1833.00 1850.72 43.00
11283 69.7920 1885.00 1850.89 43.00
11284 69.7980 1818.00 1850.97 43.00
11285 69.8040 1818.00 1850.89 43.00
11286 69.8100 1750.00 1850.65 42.00
11287 69.8160 1786.00 1850.19 42.00
11288 69.8220 1798.00 1849.64 42.00
11289 69.8280 1833.00 1849.01 43.00
11290 69.8340 1941.00 1848.22 44.00
11291 69.8400 1833.00 1847.42 43.00
11292 69.8460 1732.00 1846.58 42.00
11293 69.8520 1843.00 1845.76 43.00
11294 69.8580 1891.00 1844.98 43.00
11295 69.8640 1780.00 1844.25 42.00
11296 69.8700 1835.00 1843.57 43.00
11297 69.8760 1819.00 1842.95 43.00
11298 69.8820 1837.00 1842.35 43.00
11299 69.8880 1837.00 1841.81 43.00
11300 69.8940 1834.00 1841.25 43.00
11301 69.9000 1828.00 1840.73 43.00
11302 69.9060 1813.00 1840.20 43.00
11303 69.9120 1812.00 1839.65 43.00
11304 69.9180 1805.00 1839.07 42.00
11305 69.9240 1856.00 1838.48 43.00
11306 69.9300 1834.00 1837.84 43.00
11307 69.9360 1837.00 1837.20 43.00
11308 69.9420 1772.00 1836.57 42.00
11309 69.9480 1812.00 1835.99 43.00
11310 69.9540 1787.00 1835.48 42.00
11311 69.9600 1802.00 1835.14 42.00
11312 69.9660 1769.00 1834.87 42.00
11313 69.9720 1881.00 1834.77 43.00
11314 69.9780 1836.00 1834.78 43.00
11315 69.9840 1778.00 1834.99 42.00
11316 69.9900 1778.00 1835.29 42.00
11317 69.9960 1754.00 1835.73 42.00
loop_
_pd_proc_info_excluded_regions
'from 70 to 80.000'
loop_
_jana_atom_site_adp_c_label
_jana_atom_site_adp_c_type_symbol
_jana_atom_site_adp_c_111
_jana_atom_site_adp_c_112
_jana_atom_site_adp_c_113
_jana_atom_site_adp_c_122
_jana_atom_site_adp_c_123
_jana_atom_site_adp_c_133
_jana_atom_site_adp_c_222
_jana_atom_site_adp_c_223
_jana_atom_site_adp_c_233
_jana_atom_site_adp_c_333
In1 In 0 0 0 0 0 0 0 0 0 0
loop_
_jana_atom_site_adp_d_label
_jana_atom_site_adp_d_type_symbol
_jana_atom_site_adp_d_1111
_jana_atom_site_adp_d_1112
_jana_atom_site_adp_d_1113
_jana_atom_site_adp_d_1122
_jana_atom_site_adp_d_1123
_jana_atom_site_adp_d_1133
_jana_atom_site_adp_d_1222
_jana_atom_site_adp_d_1223
_jana_atom_site_adp_d_1233
_jana_atom_site_adp_d_1333
_jana_atom_site_adp_d_2222
_jana_atom_site_adp_d_2223
_jana_atom_site_adp_d_2233
_jana_atom_site_adp_d_2333
_jana_atom_site_adp_d_3333
In1 In -5.87(11) 0 0 0 0 0 0 0 0 0 0 0 0 0 0
