#------------------------------------------------------------------------------
#$Date: 2019-11-08 00:14:56 +0200 (Fri, 08 Nov 2019) $
#$Revision: 224210 $
#$URL: file:///home/coder/svn-repositories/cod/cif/7/70/00/7700070.cif $
#------------------------------------------------------------------------------
#
# This file is available in the Crystallography Open Database (COD),
# http://www.crystallography.net/
#
# All data on this site have been placed in the public domain by the
# contributors.
#
data_7700070
loop_
_publ_author_name
'Sun, Xiao-Peng'
'Liu, Tao'
'Yao, Zi-Shuo'
'Tao, Jun'
_publ_section_title
;
 Spin crossover and photomagnetic behaviors in one-dimensional looped
 coordination polymers.
;
_journal_issue                   25
_journal_name_full
'Dalton transactions (Cambridge, England : 2003)'
_journal_page_first              9243
_journal_page_last               9249
_journal_paper_doi               10.1039/c9dt01520e
_journal_volume                  48
_journal_year                    2019
_chemical_formula_moiety         'C11 H8 Fe0.5 N3 S2 Se'
_chemical_formula_sum            'C11 H0.5 Fe0.5 N3 S2 Se'
_chemical_formula_weight         345.65
_space_group_crystal_system      triclinic
_space_group_IT_number           2
_space_group_name_Hall           '-P 1'
_space_group_name_H-M_alt        'P -1'
_symmetry_space_group_name_Hall  '-P 1'
_symmetry_space_group_name_H-M   'P -1'
_atom_sites_solution_hydrogens   geom
_audit_creation_date             2018-11-27
_audit_creation_method
;
Olex2 1.2
(compiled 2018.05.29 svn.r3508 for OlexSys, GUI svn.r5506)
;
_audit_update_record
;
2019-01-12 deposited with the CCDC.    2019-05-23 downloaded from the CCDC.
;
_cell_angle_alpha                61.959(4)
_cell_angle_beta                 65.962(3)
_cell_angle_gamma                78.807(3)
_cell_formula_units_Z            2
_cell_length_a                   9.5289(3)
_cell_length_b                   10.6431(4)
_cell_length_c                   11.2246(4)
_cell_measurement_reflns_used    5334
_cell_measurement_temperature    99.96(10)
_cell_measurement_theta_max      30.1210
_cell_measurement_theta_min      3.8240
_cell_volume                     917.59(7)
_computing_cell_refinement       'CrysAlisPro 1.171.39.29d (Rigaku OD, 2017)'
_computing_data_collection       'CrysAlisPro 1.171.39.29d (Rigaku OD, 2017)'
_computing_data_reduction        'CrysAlisPro 1.171.39.29d (Rigaku OD, 2017)'
_computing_molecular_graphics    'Olex2 (Dolomanov et al., 2009)'
_computing_publication_material  'Olex2 (Dolomanov et al., 2009)'
_computing_structure_refinement  'ShelXL (Sheldrick, 2015)'
_diffrn_ambient_environment      N~2~
_diffrn_ambient_temperature      99.96(10)
_diffrn_detector                 'CCD plate'
_diffrn_measured_fraction_theta_full 0.998
_diffrn_measured_fraction_theta_max 0.895
_diffrn_measurement_details
;
List of Runs (angles in degrees, time in seconds):

  # Type    Start    End  Width  t~exp~   \w     \q     \k     \f   Frames
#--------------------------------------------------------------------------
  1  \w    -37.00  31.00   0.50    6.00    --    0.00 -82.00-180.00  136
  2  \w    -63.00   2.00   0.50    6.00    --    0.00 -82.00 120.00  130
  3  \w    -54.00  24.00   0.50    6.00    --    0.00 -82.00 -30.00  156
  4  \w    -62.00  22.00   0.50    6.00    --    0.00 -57.00-150.00  168
  5  \w     -9.00  16.00   0.50    6.00    --    0.00  57.00-120.00   50
  6  \w    -18.00  55.00   0.50    6.00    --    0.00  19.00  30.00  146
;
_diffrn_measurement_device       'four-circle diffractometer'
_diffrn_measurement_device_type  'XtaLAB AFC12 (RINC): Kappa single'
_diffrn_measurement_method       '\w scans'
_diffrn_orient_matrix_type
'CrysAlisPro convention (1999,Acta A55,543-557)'
_diffrn_orient_matrix_UB_11      -0.0017154000
_diffrn_orient_matrix_UB_12      0.0574050000
_diffrn_orient_matrix_UB_13      0.0160397000
_diffrn_orient_matrix_UB_21      0.0581588000
_diffrn_orient_matrix_UB_22      -0.0336645000
_diffrn_orient_matrix_UB_23      0.0291653000
_diffrn_orient_matrix_UB_31      0.0570767000
_diffrn_orient_matrix_UB_32      0.0356777000
_diffrn_orient_matrix_UB_33      -0.0693278000
_diffrn_radiation_monochromator  graphite
_diffrn_radiation_probe          x-ray
_diffrn_radiation_type           MoK\a
_diffrn_radiation_wavelength     0.71073
_diffrn_reflns_av_R_equivalents  0.0383
_diffrn_reflns_av_unetI/netI     0.0437
_diffrn_reflns_Laue_measured_fraction_full 0.998
_diffrn_reflns_Laue_measured_fraction_max 0.895
_diffrn_reflns_limit_h_max       13
_diffrn_reflns_limit_h_min       -12
_diffrn_reflns_limit_k_max       14
_diffrn_reflns_limit_k_min       -14
_diffrn_reflns_limit_l_max       15
_diffrn_reflns_limit_l_min       -14
_diffrn_reflns_number            14543
_diffrn_reflns_point_group_measured_fraction_full 0.998
_diffrn_reflns_point_group_measured_fraction_max 0.895
_diffrn_reflns_theta_full        25.242
_diffrn_reflns_theta_max         29.609
_diffrn_reflns_theta_min         3.709
_diffrn_source                   'fine-focus sealed X-ray tube'
_diffrn_source_type              'Enhance (Mo) X-ray Source'
_exptl_absorpt_coefficient_mu    2.638
_exptl_absorpt_correction_T_max  1.00000
_exptl_absorpt_correction_T_min  0.13042
_exptl_absorpt_correction_type   multi-scan
_exptl_absorpt_process_details
;
CrysAlisPro 1.171.39.29d (Rigaku Oxford Diffraction, 2017)
Empirical absorption correction using spherical harmonics,
 implemented in SCALE3 ABSPACK scaling algorithm.
;
_exptl_crystal_colour            yellow
_exptl_crystal_colour_primary    yellow
_exptl_crystal_density_diffrn    1.251
_exptl_crystal_description       block
_exptl_crystal_F_000             333
_exptl_crystal_size_max          0.2
_exptl_crystal_size_mid          0.1
_exptl_crystal_size_min          0.1
_refine_diff_density_max         0.850
_refine_diff_density_min         -0.699
_refine_diff_density_rms         0.075
_refine_ls_extinction_method     none
_refine_ls_goodness_of_fit_ref   1.095
_refine_ls_hydrogen_treatment    constr
_refine_ls_matrix_type           full
_refine_ls_number_parameters     178
_refine_ls_number_reflns         4626
_refine_ls_number_restraints     0
_refine_ls_restrained_S_all      1.095
_refine_ls_R_factor_all          0.0447
_refine_ls_R_factor_gt           0.0361
_refine_ls_shift/su_max          0.001
_refine_ls_shift/su_mean         0.000
_refine_ls_structure_factor_coef Fsqd
_refine_ls_weighting_details
'w=1/[\s^2^(Fo^2^)+(0.0392P)^2^+0.2428P] where P=(Fo^2^+2Fc^2^)/3'
_refine_ls_weighting_scheme      calc
_refine_ls_wR_factor_gt          0.0842
_refine_ls_wR_factor_ref         0.0863
_reflns_Friedel_coverage         0.000
_reflns_number_gt                3811
_reflns_number_total             4626
_reflns_threshold_expression     'I > 2\s(I)'
_cod_data_source_file            c9dt01520e2.cif
_cod_data_source_block           3_100K
_cod_depositor_comments
'Adding full bibliography for 7700066--7700071.cif.'
_cod_original_cell_volume        917.59(6)
_cod_original_formula_sum        'C11 H0.50 Fe0.50 N3 S2 Se'
_cod_database_code               7700070
_shelx_shelxl_version_number     2016/6
_shelx_space_group_comment
;
The symmetry employed for this shelxl refinement is uniquely defined
by the following loop, which should always be used as a source of
symmetry information in preference to the above space-group names.
They are only intended as comments.
;
_reflns_odcompleteness_completeness 99.79
_reflns_odcompleteness_iscentric 1
_reflns_odcompleteness_theta     26.32
_olex2_refinement_description
;
1. Fixed Uiso
 At 1.2 times of:
  All C(H) groups
2. Others
 Fixed Sof: Se1(0.75) Se1A(0.15) Se1B(0.1)
3.a Aromatic/amide H refined with riding coordinates:
 C6(H6), C8(H8), C7(H7), C3(H3), C5(H5), C10(H10), C2(H2), C11(H11)
;
_shelx_res_file
;
TITL 20181011y1-s2-se--100k_a.res in P-1
    20181011y1-s2-se--100k_sq.res
    created by SHELXL-2016/6 at 19:49:58 on 27-Nov-2018
REM Old TITL 20181011y1-S2-Se--100K in P-1
REM SHELXT solution in P-1
REM R1 0.237, Rweak 0.023, Alpha 0.085, Orientation as input
REM Formula found by SHELXT: C22 N6 S4 Fe3
CELL 0.71073 9.528901 10.643069 11.224613 61.959 65.9622 78.8073
ZERR 2 0.000327 0.000382 0.000366 0.0035 0.0032 0.0031
LATT 1
SFAC C Fe N S Se H
UNIT 22 1 6 4 2 1

L.S. 10 0 51
PLAN  20
BOND $H
list 4
ABIN
fmap 2 53
acta
REM <olex2.extras>
REM <HklSrc "%.\\20181011y1-S2-Se--100K.hkl">
REM </olex2.extras>

WGHT    0.039200    0.242800
FVAR       0.99732
FE1   2    0.500000    0.000000    0.500000    10.50000    0.01299    0.01482 =
         0.01197   -0.00675   -0.00532    0.00091
SE1   5    1.076678   -0.007627    0.300984    10.75000    0.01432    0.09694 =
         0.03161   -0.03598   -0.00433    0.00515
S1    4    0.408989    0.206823    1.017369    11.00000    0.02703    0.01677 =
         0.01545   -0.00938   -0.00824   -0.00038
S2    4    0.603659    0.312690    0.947651    11.00000    0.02609    0.01495 =
         0.01954   -0.00835   -0.01369    0.00329
N3    3    0.530854    0.775598    0.652133    11.00000    0.01947    0.01625 =
         0.01513   -0.00707   -0.00805    0.00085
N2    3    0.469142    0.068758    0.669508    11.00000    0.02028    0.01701 =
         0.01269   -0.00703   -0.00722    0.00143
N1    3    0.739893    0.029374    0.415490    11.00000    0.01799    0.02119 =
         0.01557   -0.00792   -0.00604   -0.00085
C9    1    0.568644    0.490437    0.833653    11.00000    0.02375    0.01333 =
         0.01361   -0.00820   -0.00787    0.00269
C4    1    0.438540    0.157750    0.877341    11.00000    0.02526    0.01473 =
         0.01752   -0.00966   -0.01135    0.00379
C6    1    0.343960    0.035625    0.792971    11.00000    0.02273    0.01915 =
         0.01661   -0.00774   -0.00828   -0.00248
AFIX  43
H6    6    0.266963   -0.017916    0.807742    11.00000   -1.20000
AFIX   0
C8    1    0.679418    0.591477    0.778151    11.00000    0.01971    0.02065 =
         0.02235   -0.01106   -0.01153    0.00313
AFIX  43
H8    6    0.767864    0.565671    0.800370    11.00000   -1.20000
AFIX   0
C7    1    0.655646    0.731138    0.689243    11.00000    0.02001    0.01925 =
         0.01881   -0.00921   -0.00881    0.00043
AFIX  43
H7    6    0.730102    0.798031    0.653109    11.00000   -1.20000
AFIX   0
C3    1    0.567273    0.193424    0.750803    11.00000    0.02084    0.02193 =
         0.02200   -0.01257   -0.00764   -0.00133
AFIX  43
H3    6    0.645031    0.248337    0.732609    11.00000   -1.20000
AFIX   0
C5    1    0.324178    0.077087    0.898619    11.00000    0.02284    0.01979 =
         0.01540   -0.00850   -0.00495   -0.00187
AFIX  43
H5    6    0.236220    0.051592    0.982227    11.00000   -1.20000
AFIX   0
C10   1    0.439347    0.534356    0.797039    11.00000    0.02439    0.01851 =
         0.02260   -0.00688   -0.01317   -0.00223
AFIX  43
H10   6    0.363288    0.469450    0.831876    11.00000   -1.20000
AFIX   0
C2    1    0.577785    0.145838    0.652325    11.00000    0.01765    0.02376 =
         0.01921   -0.01249   -0.00424    0.00009
AFIX  43
H2    6    0.665707    0.168636    0.568799    11.00000   -1.20000
AFIX   0
C11   1    0.424927    0.676497    0.707691    11.00000    0.02273    0.02063 =
         0.02262   -0.00709   -0.01349   -0.00015
AFIX  43
H11   6    0.336859    0.704901    0.684888    11.00000   -1.20000
AFIX   0
C1    1    0.871105    0.017123    0.369648    11.00000    0.02160    0.04218 =
         0.01704   -0.01462   -0.00689   -0.00103
SE1A  5    1.068109    0.072852    0.263882    10.15000    0.01876    0.18204 =
         0.05693   -0.07685    0.00969   -0.02763
SE1B  5    1.052596   -0.064253    0.308783    10.10000    0.01475    0.07599 =
         0.03617   -0.01798   -0.01442    0.01917
HKLF 4




REM  20181011y1-s2-se--100k_a.res in P-1
REM R1 =  0.0361 for    3811 Fo > 4sig(Fo)  and  0.0447 for all    4626 data
REM    178 parameters refined using      0 restraints

END

WGHT      0.0396      0.2358

REM Highest difference peak  0.850,  deepest hole -0.699,  1-sigma level  0.075
Q1    1   1.0402  0.1775  0.2056  11.00000  0.05    0.85
Q2    1   0.5418  0.0576  0.5012  11.00000  0.05    0.38
Q3    1   0.5218  0.5202  0.7822  11.00000  0.05    0.36
Q4    1   1.1521 -0.0191  0.2821  11.00000  0.05    0.35
Q5    1   0.6028  0.7395  0.6661  11.00000  0.05    0.35
Q6    1   0.4721  0.7274  0.6945  11.00000  0.05    0.34
Q7    1   0.5000  0.2403  1.0126  11.00000  0.05    0.34
Q8    1   0.4194  0.0279  0.7606  11.00000  0.05    0.33
Q9    1   0.4926  0.1986  0.7961  11.00000  0.05    0.32
Q10   1   0.6967 -0.0387  0.4678  11.00000  0.05    0.31
Q11   1   0.4037  0.0243  0.5179  11.00000  0.05    0.30
Q12   1   0.5820  0.4114  0.8878  11.00000  0.05    0.30
Q13   1   0.6388  0.5387  0.7776  11.00000  0.05    0.30
Q14   1   1.1624 -0.1047  0.3606  11.00000  0.05    0.30
Q15   1   0.4244  0.1831  0.8984  11.00000  0.05    0.29
Q16   1   0.4191  0.6261  0.7811  11.00000  0.05    0.29
Q17   1   0.6307  0.6594  0.7701  11.00000  0.05    0.29
Q18   1   0.7004  0.0473  0.4422  11.00000  0.05    0.29
Q19   1   0.3780  0.1466  0.8630  11.00000  0.05    0.28
Q20   1   0.5041  0.1326  0.6588  11.00000  0.05    0.28
;
_shelx_res_checksum              83035
_shelx_fab_file
;
-11 -3 1 -1.6029 0.2577
-11 -2 1 1.2049 0.2057
-11 -1 1 -0.3067 0.4344
-10 -4 1 0.5348 0.1855
-10 -4 2 1.4367 0.1098
-10 -3 1 0.1925 0.2038
-10 -3 2 -0.1969 0.1937
-10 -3 3 1.8394 0.0139
-10 -2 1 -0.4590 0.2238
-10 -2 2 -0.2513 0.2520
-10 -2 3 -0.4783 0.1712
-10 -1 1 0.7696 0.3223
-10 -1 2 1.1521 0.2805
-10 -1 3 -1.2738 0.1878
-10 0 1 1.0231 0.4180
-10 0 2 -1.3829 0.3232
-10 0 3 1.6979 0.2425
-10 1 1 -1.6118 0.4022
-10 1 2 1.0664 0.3843
-10 2 1 -0.0764 0.3464
-10 2 2 -0.1134 0.3150
-10 3 1 0.2636 0.3253
-10 3 2 -0.7839 0.3522
-9 -5 1 0.9271 0.0455
-9 -5 2 1.5137 -0.0517
-9 -4 1 -0.0625 0.0318
-9 -4 2 1.2426 0.0721
-9 -4 3 1.2536 0.0467
-9 -3 1 1.0467 0.0594
-9 -3 2 -0.7076 0.1100
-9 -3 3 1.2679 0.1225
-9 -3 4 1.7586 0.0011
-9 -2 1 -0.5156 0.0983
-9 -2 2 -0.9540 0.1738
-9 -2 3 -0.4622 0.1407
-9 -2 4 -0.4082 -0.0356
-9 -1 1 -0.2311 0.0554
-9 -1 2 3.2868 0.1755
-9 -1 3 -1.6310 0.1742
-9 -1 4 -0.2043 0.1558
-9 -1 5 -1.1322 0.0420
-9 0 1 2.3353 0.0822
-9 0 2 -2.9991 0.1535
-9 0 3 2.7087 0.1842
-9 0 4 -0.5281 0.1324
-9 1 1 -2.5252 0.1057
-9 1 2 1.6186 0.1263
-9 1 3 -2.1296 0.1964
-9 1 4 1.4032 0.1298
-9 2 1 0.1411 0.1140
-9 2 2 -0.6486 0.2309
-9 2 3 1.3223 0.1805
-9 2 4 -1.7178 0.1025
-9 3 1 0.3754 0.1144
-9 3 2 -0.6463 0.2320
-9 3 3 -1.2548 0.1810
-9 3 4 1.9025 0.1685
-9 4 1 0.7374 0.2505
-9 4 2 0.5338 0.2038
-9 4 3 0.5614 0.1601
-9 4 4 -1.2825 0.1120
-9 5 1 -0.6640 0.2748
-9 5 2 0.3275 0.1949
-9 5 3 0.7213 0.1763
-9 5 4 -0.3637 -0.0771
-9 6 1 -0.4625 0.2859
-9 6 2 -0.4406 0.1636
-9 6 3 -1.7486 0.1430
-9 6 4 0.9049 0.0045
-9 7 1 0.0850 0.3608
-9 7 2 -0.3651 0.3376
-9 7 3 0.7893 0.1146
-9 7 4 -0.6896 0.3211
-9 8 1 -0.4279 -0.0640
-9 8 2 -0.5582 0.0922
-9 8 3 -0.4071 -0.1314
-8 -7 1 0.4262 -0.1332
-8 -6 1 -0.4928 -0.0941
-8 -6 2 -1.6704 0.0051
-8 -5 1 0.1374 -0.0678
-8 -5 2 0.7641 -0.0278
-8 -5 3 0.2582 -0.0477
-8 -4 1 -0.8565 -0.1193
-8 -4 2 1.6956 -0.0467
-8 -4 3 0.8202 0.0030
-8 -4 4 0.2589 0.0886
-8 -3 1 1.9572 -0.1778
-8 -3 2 -1.5298 -0.0540
-8 -3 3 0.8230 0.0529
-8 -3 4 0.9172 0.0867
-8 -3 5 1.4008 0.0479
-8 -2 1 -0.8299 -0.2253
-8 -2 2 -0.6194 -0.0438
-8 -2 3 -1.3211 0.0701
-8 -2 4 -0.0939 0.0435
-8 -2 5 -0.0728 0.0170
-8 -1 1 -1.5786 -0.2971
-8 -1 2 3.0741 -0.0896
-8 -1 3 0.7131 0.0801
-8 -1 4 -1.6208 0.0728
-8 -1 5 -0.9253 -0.0384
-8 -1 6 -1.2451 0.0153
-8 0 1 3.7597 -0.3354
-8 0 2 -2.4713 -0.1466
-8 0 3 0.1471 0.0087
-8 0 4 2.3043 0.1216
-8 0 5 0.0516 0.0776
-8 0 6 0.6505 -0.0098
-8 1 1 -3.1111 -0.3880
-8 1 2 0.4529 -0.1604
-8 1 3 -0.1345 0.0076
-8 1 4 -1.5986 0.1139
-8 1 5 1.1578 0.1028
-8 1 6 -0.2434 0.1412
-8 1 7 0.3007 0.0273
-8 2 1 0.4219 -0.2912
-8 2 2 0.4224 -0.1073
-8 2 3 -0.4315 0.0128
-8 2 4 -0.0409 0.0785
-8 2 5 -1.3429 0.0707
-8 3 1 0.2711 -0.1474
-8 3 2 -1.0864 -0.0472
-8 3 3 -0.0689 0.0393
-8 3 4 1.0338 0.0440
-8 3 5 1.3320 0.1119
-8 3 6 -0.8826 -0.0372
-8 4 1 0.4491 0.0081
-8 4 2 0.1769 0.0013
-8 4 3 -0.3466 0.0811
-8 4 4 -0.6537 0.0614
-8 4 5 -0.6737 0.0244
-8 4 6 1.1921 -0.0272
-8 4 7 -0.2174 -0.1558
-8 5 1 -0.5511 0.1612
-8 5 2 0.6679 0.1055
-8 5 3 0.6668 0.0845
-8 5 4 -0.7281 0.0389
-8 5 5 -0.8271 -0.0808
-8 5 6 -1.2707 0.1676
-8 5 7 -0.3595 -0.0006
-8 6 1 0.0114 0.1961
-8 6 2 -0.3323 0.2127
-8 6 3 -0.0946 0.1118
-8 6 4 0.5085 0.0865
-8 6 5 1.7088 -0.0762
-8 6 6 -0.0341 -0.1005
-8 7 1 0.1684 0.1427
-8 7 2 0.3497 0.2247
-8 7 3 -0.3602 0.1081
-8 7 4 0.7848 0.0913
-8 7 5 -1.6777 0.1225
-8 7 6 0.7483 -0.2953
-8 8 1 -0.5157 0.0771
-8 8 2 -0.9449 0.1551
-8 8 3 -0.2148 0.0511
-8 8 4 -1.3809 -0.1469
-8 8 5 0.2384 0.0311
-8 9 1 0.1622 0.2238
-8 9 2 -0.4092 -0.1316
-8 9 3 -0.1639 0.1882
-7 -8 1 0.2243 -0.0972
-7 -8 2 -0.3160 -0.1647
-7 -7 1 -0.0762 -0.1358
-7 -7 2 1.2385 -0.0827
-7 -6 1 0.0550 -0.2335
-7 -6 2 -0.7500 -0.1220
-7 -6 3 0.1314 0.0010
-7 -5 1 0.7073 -0.2351
-7 -5 2 -1.1139 -0.0871
-7 -5 3 0.0773 -0.0348
-7 -5 4 1.4680 0.0139
-7 -4 1 -2.3583 -0.2727
-7 -4 2 2.5048 -0.1634
-7 -4 3 0.2537 -0.0612
-7 -4 4 0.3462 0.0075
-7 -4 5 0.6611 0.0901
-7 -3 1 2.8822 -0.4098
-7 -3 2 -1.7721 -0.2365
-7 -3 3 0.4789 -0.0504
-7 -3 4 -0.1014 0.0172
-7 -3 5 1.2379 0.1046
-7 -3 6 -0.3762 0.1071
-7 -2 1 -1.9202 -0.5584
-7 -2 2 -0.3119 -0.3573
-7 -2 3 -1.4497 -0.1047
-7 -2 4 -0.0794 0.0833
-7 -2 5 -0.8179 0.0702
-7 -2 6 1.3122 -0.0197
-7 -2 7 -0.1357 -0.0966
-7 -1 1 -0.4486 -0.6989
-7 -1 2 0.6481 -0.4085
-7 -1 3 1.9501 -0.1459
-7 -1 4 -1.1546 0.0214
-7 -1 5 -0.9326 0.0470
-7 -1 6 -1.2769 0.0032
-7 -1 7 -0.0546 -0.2435
-7 0 1 1.4614 -0.8047
-7 0 2 1.3610 -0.4752
-7 0 3 -2.0501 -0.1905
-7 0 4 2.3583 0.0244
-7 0 5 0.7971 0.0354
-7 0 6 -0.1113 0.0117
-7 0 7 0.5202 0.1478
-7 0 8 -0.4228 -0.0102
-7 1 1 -0.4205 -0.7903
-7 1 2 -3.5949 -0.5345
-7 1 3 1.8504 -0.2348
-7 1 4 -2.4841 -0.0076
-7 1 5 0.4090 0.1138
-7 1 6 0.5853 0.0528
-7 1 7 -0.7068 0.0456
-7 1 8 0.9344 0.1168
-7 2 1 -1.4565 -0.6974
-7 2 2 3.4427 -0.5075
-7 2 3 -2.1677 -0.2186
-7 2 4 0.8698 -0.0516
-7 2 5 -1.7205 0.1221
-7 2 6 0.3991 0.1174
-7 2 7 0.7209 -0.0061
-7 2 8 0.2469 0.0373
-7 3 1 1.7333 -0.4769
-7 3 2 -2.5592 -0.3747
-7 3 3 1.6716 -0.1892
-7 3 4 -0.1652 -0.0407
-7 3 5 2.2357 0.0488
-7 3 6 -1.2306 0.1065
-7 3 7 0.6053 0.0197
-7 3 8 -0.5793 -0.0597
-7 4 1 -0.4023 -0.2887
-7 4 2 0.7934 -0.2396
-7 4 3 -2.2000 -0.1321
-7 4 4 0.5534 0.0094
-7 4 5 -1.7905 -0.0235
-7 4 6 2.1249 0.0306
-7 4 7 -0.8394 0.0098
-7 4 8 1.2130 -0.0429
-7 5 1 -0.8390 -0.1264
-7 5 2 0.2702 -0.0704
-7 5 3 1.4768 -0.0704
-7 5 4 -2.3064 -0.0037
-7 5 5 0.2741 0.0160
-7 5 6 -2.1749 -0.0075
-7 5 7 0.5604 0.0644
-7 5 8 -0.8212 0.0494
-7 6 1 0.4144 -0.0301
-7 6 2 -0.4800 0.0473
-7 6 3 0.0784 0.0268
-7 6 4 2.2475 -0.0058
-7 6 5 0.2259 -0.0048
-7 6 6 0.8789 -0.0497
-7 6 7 -0.3099 0.1143
-7 7 1 1.0713 -0.0333
-7 7 2 0.7222 0.0148
-7 7 3 0.0831 0.0553
-7 7 4 -0.2775 -0.0271
-7 7 5 0.2015 -0.0352
-7 7 6 -0.7544 -0.1054
-7 7 7 -0.5510 -0.2263
-7 8 1 -1.0321 0.1426
-7 8 2 0.0571 0.0917
-7 8 3 -0.7106 0.0867
-7 8 4 -0.5470 -0.0116
-7 8 5 -1.0859 0.0207
-7 8 6 0.9173 0.0685
-7 9 1 0.1935 0.1699
-7 9 2 -0.5011 -0.0058
-7 9 3 0.4202 0.0397
-7 9 4 0.0266 0.0384
-7 9 5 1.0375 -0.0304
-7 10 1 -0.2960 -0.1850
-7 10 2 -0.8956 0.1586
-7 10 3 -0.4078 -0.0517
-7 10 4 -0.6959 0.2086
-6 -9 1 -0.1391 -0.1154
-6 -9 2 -0.8409 -0.1246
-6 -9 3 -0.5192 0.1382
-6 -8 1 0.7901 -0.1546
-6 -8 2 0.0959 -0.0685
-6 -8 3 0.1356 -0.0854
-6 -7 1 -0.8713 -0.1650
-6 -7 2 0.0435 -0.1196
-6 -7 3 0.7049 -0.0897
-6 -7 4 -2.0363 0.0588
-6 -6 1 -0.3903 -0.2392
-6 -6 2 1.4886 -0.1866
-6 -6 3 -1.1532 -0.0630
-6 -6 4 1.3960 0.0217
-6 -6 5 -1.5050 0.2148
-6 -5 1 2.3421 -0.3440
-6 -5 2 -3.2505 -0.2056
-6 -5 3 0.9482 -0.0573
-6 -5 4 -0.6856 0.0116
-6 -5 5 0.7714 0.0142
-6 -5 6 -0.9442 -0.0233
-6 -4 1 -3.7289 -0.4210
-6 -4 2 3.2240 -0.2722
-6 -4 3 -0.4723 -0.1204
-6 -4 4 0.6724 0.0021
-6 -4 5 0.2689 0.0162
-6 -4 6 0.6103 0.0707
-6 -4 7 -0.3064 0.2150
-6 -3 1 2.8280 -0.5533
-6 -3 2 -1.2909 -0.3787
-6 -3 3 0.0775 -0.1784
-6 -3 4 0.0997 -0.0377
-6 -3 5 0.3847 0.0933
-6 -3 6 0.3809 0.1001
-6 -3 7 -0.1568 -0.0231
-6 -2 1 -0.9837 -0.7869
-6 -2 2 -1.2360 -0.5557
-6 -2 3 -0.5538 -0.2762
-6 -2 4 -1.0605 -0.0369
-6 -2 5 -0.1143 0.0817
-6 -2 6 0.0065 0.1142
-6 -2 7 0.4390 0.1233
-6 -2 8 0.1102 -0.3331
-6 -1 1 -0.8584 -0.9838
-6 -1 2 0.1363 -0.6995
-6 -1 3 0.6900 -0.3835
-6 -1 4 0.4133 -0.0373
-6 -1 5 -1.3264 0.1012
-6 -1 6 -0.3362 0.0833
-6 -1 7 -0.2514 -0.0365
-6 -1 8 0.1779 -0.0121
-6 0 1 -0.5113 -1.0679
-6 0 2 3.0737 -0.7981
-6 0 3 -0.9704 -0.3993
-6 0 4 0.4982 -0.1038
-6 0 5 1.4233 0.0709
-6 0 6 -0.8347 0.0723
-6 0 7 0.3231 0.0001
-6 0 8 -0.0092 -0.0059
-6 0 9 0.0700 -0.0133
-6 1 1 3.4859 -1.0573
-6 1 2 -5.7076 -0.8205
-6 1 3 1.0570 -0.4345
-6 1 4 -0.7777 -0.1587
-6 1 5 -0.8013 0.0525
-6 1 6 1.2865 0.0803
-6 1 7 -1.0203 0.0603
-6 1 8 -0.1100 0.0518
-6 1 9 0.3381 0.0835
-6 2 1 -5.2172 -0.9671
-6 2 2 5.0755 -0.7802
-6 2 3 -2.0731 -0.4656
-6 2 4 -0.5034 -0.1379
-6 2 5 -0.6444 0.0522
-6 2 6 -0.9349 0.1456
-6 2 7 1.2438 0.1108
-6 2 8 0.5592 0.0719
-6 2 9 0.0102 0.0494
-6 3 1 4.1044 -0.7496
-6 3 2 -3.1806 -0.6403
-6 3 3 2.3270 -0.4233
-6 3 4 0.4189 -0.1351
-6 3 5 1.1203 0.0132
-6 3 6 -0.0438 0.1334
-6 3 7 -0.3417 0.0940
-6 3 8 -0.3756 -0.0167
-6 3 9 0.3901 0.0189
-6 4 1 -1.1847 -0.5670
-6 4 2 1.5164 -0.4555
-6 4 3 -2.5572 -0.3158
-6 4 4 0.3525 -0.1438
-6 4 5 -1.0554 0.0110
-6 4 6 0.9614 0.0763
-6 4 7 -0.3452 0.1272
-6 4 8 0.6162 0.0457
-6 4 9 0.0427 0.0061
-6 5 1 -0.8299 -0.4257
-6 5 2 -0.5350 -0.3168
-6 5 3 1.3790 -0.2165
-6 5 4 -2.3268 -0.0960
-6 5 5 -0.2234 0.0170
-6 5 6 -1.2912 -0.0092
-6 5 7 0.7194 0.0364
-6 5 8 -0.0497 0.0860
-6 5 9 -0.2566 0.0523
-6 6 1 0.5775 -0.2393
-6 6 2 -0.6837 -0.2359
-6 6 3 -0.2434 -0.1391
-6 6 4 2.2923 -0.0987
-6 6 5 0.1076 -0.0324
-6 6 6 0.1549 -0.0042
-6 6 7 -0.3432 -0.0184
-6 6 8 -0.2151 0.0836
-6 7 1 1.1048 -0.1382
-6 7 2 1.5063 -0.1367
-6 7 3 0.0841 -0.0529
-6 7 4 -0.2857 -0.0726
-6 7 5 0.6330 -0.0810
-6 7 6 -0.2892 -0.0436
-6 7 7 -1.2359 -0.0191
-6 7 8 -0.8716 0.0535
-6 8 1 -0.7367 -0.0342
-6 8 2 -0.2124 -0.0265
-6 8 3 0.4994 -0.0357
-6 8 4 -0.8135 -0.0046
-6 8 5 -0.9999 -0.0378
-6 8 6 0.7874 0.0355
-6 8 7 0.0103 -0.0424
-6 9 1 -0.6269 -0.0366
-6 9 2 0.4105 0.0444
-6 9 3 -0.0092 -0.0706
-6 9 4 0.9685 -0.0108
-6 9 5 0.8147 -0.0485
-6 9 6 -1.3139 0.0035
-6 9 7 1.6797 0.0320
-6 10 1 1.5199 -0.0731
-6 10 2 -1.9029 0.0123
-6 10 3 -0.5088 0.0086
-6 10 4 -0.3865 0.0566
-6 10 5 -0.8018 0.0511
-6 10 6 0.5561 -0.2248
-6 10 7 -2.4816 0.1069
-6 11 1 -1.0705 0.1214
-6 11 3 -0.6098 0.1574
-6 11 4 -1.1542 -0.1447
-6 11 5 -0.0442 0.0852
-5 -10 1 0.3315 -0.0020
-5 -9 1 -0.1942 -0.1060
-5 -9 2 -0.8804 -0.0992
-5 -9 3 -1.1743 -0.0851
-5 -8 1 0.8175 -0.1315
-5 -8 2 0.6848 -0.0854
-5 -8 3 0.0294 0.0266
-5 -8 4 0.4106 -0.0079
-5 -7 1 -0.5982 -0.1294
-5 -7 2 -1.4692 -0.1253
-5 -7 3 1.4285 -0.0816
-5 -7 4 -1.8063 -0.0688
-5 -7 5 -0.7898 -0.0292
-5 -6 1 -0.7688 -0.1776
-5 -6 2 2.3567 -0.1461
-5 -6 3 -1.8427 -0.1307
-5 -6 4 2.5299 0.0161
-5 -6 5 -0.3244 0.0364
-5 -6 6 -0.6147 0.2265
-5 -5 1 2.0239 -0.3025
-5 -5 2 -3.0002 -0.2509
-5 -5 3 0.5867 -0.1381
-5 -5 4 -2.4837 -0.0201
-5 -5 5 0.8302 0.0669
-5 -5 6 -0.7224 0.0500
-5 -4 1 -2.8378 -0.4632
-5 -4 2 2.1718 -0.3513
-5 -4 3 0.4809 -0.1428
-5 -4 4 0.8624 -0.0539
-5 -4 5 -1.4630 0.0329
-5 -4 6 0.8769 0.0490
-5 -4 7 -0.9741 0.1077
-5 -3 1 0.8732 -0.6282
-5 -3 2 0.0638 -0.4411
-5 -3 3 -1.3138 -0.2808
-5 -3 4 0.8472 -0.0604
-5 -3 5 1.1131 0.0474
-5 -3 6 -0.3785 0.0432
-5 -3 7 0.6346 0.0638
-5 -3 8 -0.8899 0.1717
-5 -2 1 1.9973 -0.8020
-5 -2 2 -2.7758 -0.6066
-5 -2 3 0.9308 -0.3641
-5 -2 4 -2.4791 -0.1382
-5 -2 5 0.1390 0.0360
-5 -2 6 0.4890 0.1524
-5 -2 7 0.2060 0.1059
-5 -2 8 0.5658 -0.0326
-5 -2 9 0.1392 -0.0681
-5 -1 1 -3.0011 -0.9589
-5 -1 2 1.7253 -0.8184
-5 -1 3 -1.1970 -0.4852
-5 -1 4 2.1765 -0.1650
-5 -1 5 -1.9995 0.0786
-5 -1 6 -0.3025 0.1417
-5 -1 7 -0.0050 0.1354
-5 -1 8 0.2188 0.0270
-5 -1 9 0.0530 -0.1909
-5 0 1 0.2295 -1.0925
-5 0 2 1.2784 -0.9241
-5 0 3 1.3929 -0.5708
-5 0 4 -1.6100 -0.1903
-5 0 5 2.5160 0.0651
-5 0 6 -1.2127 0.1669
-5 0 7 -0.1938 0.0475
-5 0 8 0.3920 -0.0294
-5 0 9 0.5373 0.0290
-5 1 1 4.1543 -1.1217
-5 1 2 -3.1114 -0.9141
-5 1 3 -1.4500 -0.5619
-5 1 4 1.6625 -0.2155
-5 1 5 -1.7248 0.0296
-5 1 6 2.0198 0.1349
-5 1 7 -0.5852 0.0972
-5 1 8 -1.0397 0.0555
-5 1 9 -0.0138 -0.0227
-5 2 1 -5.7731 -0.9827
-5 2 2 2.4116 -0.8551
-5 2 3 0.2487 -0.5716
-5 2 4 -2.4249 -0.2146
-5 2 5 -0.2866 0.0212
-5 2 6 -1.9712 0.1004
-5 2 7 0.9013 0.1543
-5 2 8 1.0472 0.0788
-5 2 9 -0.1642 0.0508
-5 2 10 0.5331 -0.0305
-5 3 1 2.7866 -0.8932
-5 3 2 -0.7406 -0.7586
-5 3 3 0.9465 -0.5185
-5 3 4 1.7032 -0.2179
-5 3 5 0.6739 0.0033
-5 3 6 0.6905 0.1258
-5 3 7 -0.7454 0.1451
-5 3 8 -0.7224 0.0750
-5 3 9 0.0917 0.0492
-5 4 1 1.7259 -0.7413
-5 4 2 -0.3465 -0.6051
-5 4 3 -0.7383 -0.4228
-5 4 4 -0.5112 -0.2311
-5 4 5 -0.0232 -0.0140
-5 4 6 -0.0053 0.1179
-5 4 7 0.2000 0.1293
-5 4 8 0.1001 0.1082
-5 4 9 0.3434 0.0233
-5 5 1 -3.2581 -0.5268
-5 5 2 1.1982 -0.5184
-5 5 3 -0.5569 -0.3404
-5 5 4 -0.8504 -0.1793
-5 5 5 -1.4582 -0.0239
-5 5 6 -0.3770 0.0462
-5 5 7 -0.0128 0.0672
-5 5 8 0.8787 0.0707
-5 5 9 -0.3380 0.0514
-5 6 1 1.9657 -0.4147
-5 6 2 -1.6808 -0.4018
-5 6 3 0.7787 -0.2856
-5 6 4 0.5035 -0.1508
-5 6 5 0.9097 -0.0292
-5 6 6 -0.8530 0.0012
-5 6 7 -0.1060 0.0022
-5 6 8 -0.5040 0.0365
-5 6 9 0.4263 0.0565
-5 7 1 0.2860 -0.2863
-5 7 2 1.5842 -0.2290
-5 7 3 -0.5580 -0.1795
-5 7 4 0.4966 -0.0889
-5 7 5 -0.1764 -0.0792
-5 7 6 1.0266 0.0324
-5 7 7 -1.1345 0.0371
-5 7 8 -1.5446 0.0646
-5 7 9 -0.2696 0.1410
-5 8 1 -0.3544 -0.2170
-5 8 2 -0.5605 -0.1572
-5 8 3 1.1691 -0.1564
-5 8 4 -1.1590 -0.0840
-5 8 5 -0.0922 -0.0840
-5 8 6 -0.8176 -0.0243
-5 8 7 0.6912 0.0225
-5 8 8 0.2817 0.0015
-5 9 1 -0.7976 -0.1469
-5 9 2 0.4126 -0.0968
-5 9 3 -0.2240 -0.0939
-5 9 4 1.4192 -0.0912
-5 9 5 0.0155 -0.0005
-5 9 6 -0.1020 -0.0712
-5 9 7 -0.6683 0.0280
-5 9 8 1.3838 -0.0926
-5 10 1 1.7186 0.0029
-5 10 2 -0.0596 -0.0927
-5 10 3 -1.0630 -0.0403
-5 10 4 0.5462 -0.0753
-5 10 5 0.1738 0.0309
-5 10 6 0.1098 -0.0738
-5 10 7 0.2252 -0.0189
-5 10 8 -2.8014 0.1476
-5 11 1 -0.3021 0.1017
-5 11 2 -0.0445 -0.0945
-5 11 3 1.0308 0.0348
-5 11 4 -2.9419 -0.0095
-5 11 5 -0.4472 -0.0988
-5 11 6 -0.3638 0.2070
-5 11 7 -1.0229 -0.1170
-4 -11 1 -1.1147 -0.0506
-4 -10 1 1.0035 -0.0428
-4 -10 2 -0.8250 0.0283
-4 -9 1 -0.8304 -0.0316
-4 -9 2 0.4609 -0.0764
-4 -9 3 -1.6393 -0.0515
-4 -8 1 0.0826 -0.0823
-4 -8 2 0.4619 -0.0662
-4 -8 3 0.0739 -0.0221
-4 -8 4 -0.1386 0.0463
-4 -8 5 -0.7229 0.1300
-4 -7 1 1.2643 -0.0523
-4 -7 2 -2.1957 -0.0586
-4 -7 3 1.0337 -0.0448
-4 -7 4 -0.6265 -0.0385
-4 -7 5 -0.5286 -0.0155
-4 -7 6 -0.2189 -0.0533
-4 -6 1 -1.8010 -0.0570
-4 -6 2 2.6830 -0.0902
-4 -6 3 -0.8699 -0.0878
-4 -6 4 1.2949 -0.0623
-4 -6 5 1.2222 -0.0273
-4 -6 6 -0.7049 0.0422
-4 -6 7 -0.0803 0.0798
-4 -5 1 1.4960 -0.1585
-4 -5 2 -2.3871 -0.1732
-4 -5 3 -1.3901 -0.1613
-4 -5 4 -1.8571 -0.0375
-4 -5 5 -1.0523 -0.0010
-4 -5 6 -0.0041 0.0943
-4 -5 7 -0.3228 0.0462
-4 -4 1 -0.9963 -0.3577
-4 -4 2 0.4900 -0.2739
-4 -4 3 2.8410 -0.1763
-4 -4 4 -0.2008 -0.1028
-4 -4 5 -1.3394 0.0482
-4 -4 6 -0.6900 0.0509
-4 -4 7 -0.9974 0.0222
-4 -4 8 -0.4450 -0.0523
-4 -3 1 -3.6152 -0.4790
-4 -3 2 2.2246 -0.4509
-4 -3 3 -3.5393 -0.2562
-4 -3 4 2.0918 -0.1103
-4 -3 5 1.1226 0.0035
-4 -3 6 -0.0235 0.0352
-4 -3 7 0.1737 0.1123
-4 -3 8 -0.6364 0.0456
-4 -3 9 -0.4787 0.1154
-4 -2 1 8.4314 -0.6414
-4 -2 2 -5.3806 -0.5255
-4 -2 3 2.5734 -0.3794
-4 -2 4 -3.7091 -0.1443
-4 -2 5 0.2203 0.0076
-4 -2 6 0.5232 0.0928
-4 -2 7 0.8236 0.0475
-4 -2 8 0.7523 0.1060
-4 -2 9 0.6127 0.0008
-4 -1 1 -8.5759 -0.7633
-4 -1 2 4.5700 -0.6555
-4 -1 3 -2.5022 -0.4531
-4 -1 4 3.3354 -0.2075
-4 -1 5 -2.4130 -0.0217
-4 -1 6 -0.3770 0.1513
-4 -1 7 -0.7004 0.1646
-4 -1 8 0.0443 0.0412
-4 -1 9 -0.3914 -0.0559
-4 0 1 4.3480 -0.8423
-4 0 2 -1.1143 -0.8010
-4 0 3 3.0538 -0.5257
-4 0 4 -3.0586 -0.2351
-4 0 5 3.1820 0.0428
-4 0 6 -1.0140 0.1638
-4 0 7 0.0401 0.1776
-4 0 8 0.1560 0.0588
-4 0 9 0.9139 -0.0245
-4 0 10 0.9210 -0.2603
-4 1 1 1.2395 -0.8940
-4 1 2 0.2392 -0.7834
-4 1 3 -3.5966 -0.5562
-4 1 4 3.1961 -0.2142
-4 1 5 -1.7348 0.0747
-4 1 6 2.2392 0.1728
-4 1 7 -0.0386 0.1420
-4 1 8 -0.6948 0.0609
-4 1 9 -0.2463 0.0058
-4 1 10 -0.8722 0.0099
-4 2 1 -2.3145 -0.8618
-4 2 2 -1.4271 -0.7315
-4 2 3 3.2886 -0.5009
-4 2 4 -2.8791 -0.2043
-4 2 5 -0.7266 0.0187
-4 2 6 -2.4745 0.1414
-4 2 7 0.3893 0.1459
-4 2 8 0.7063 0.0855
-4 2 9 0.0420 -0.0314
-4 2 10 0.1555 0.0643
-4 3 1 -1.4786 -0.8200
-4 3 2 2.2297 -0.7216
-4 3 3 -0.9537 -0.4476
-4 3 4 2.2741 -0.1940
-4 3 5 1.3323 0.0120
-4 3 6 1.0839 0.1189
-4 3 7 -1.1611 0.1478
-4 3 8 -0.5374 0.1307
-4 3 9 -0.7383 0.0634
-4 3 10 0.6440 -0.0281
-4 4 1 4.9662 -0.6918
-4 4 2 -1.2169 -0.6212
-4 4 3 -0.2266 -0.4354
-4 4 4 -0.6220 -0.1993
-4 4 5 0.1721 -0.0076
-4 4 6 -0.0564 0.1031
-4 4 7 1.0467 0.1151
-4 4 8 -0.4113 0.0672
-4 4 9 0.7508 0.0585
-4 4 10 -0.6776 0.0101
-4 5 1 -4.3820 -0.5843
-4 5 2 1.1300 -0.5143
-4 5 3 0.3261 -0.3793
-4 5 4 -0.7453 -0.2139
-4 5 5 -1.6642 -0.0280
-4 5 6 -0.2313 0.0928
-4 5 7 -1.2986 0.0911
-4 5 8 1.3175 0.0805
-4 5 9 -0.2468 0.0359
-4 5 10 0.1562 0.0251
-4 6 1 2.1529 -0.4669
-4 6 2 -1.3421 -0.4504
-4 6 3 0.5249 -0.3116
-4 6 4 0.4936 -0.1300
-4 6 5 1.0485 -0.0313
-4 6 6 -1.3804 0.0556
-4 6 7 0.9905 0.0855
-4 6 8 -1.7417 0.0452
-4 6 9 0.3703 0.0599
-4 6 10 0.3838 0.0413
-4 7 1 -0.4215 -0.3860
-4 7 2 1.6561 -0.3019
-4 7 3 -1.5349 -0.2573
-4 7 4 0.6888 -0.1242
-4 7 5 -0.6306 -0.0217
-4 7 6 1.6807 0.0251
-4 7 7 -1.5795 0.0725
-4 7 8 0.2170 0.0430
-4 7 9 -0.9728 0.0541
-4 7 10 -0.2176 0.0864
-4 8 1 0.6896 -0.2631
-4 8 2 -1.6398 -0.2550
-4 8 3 1.8584 -0.1741
-4 8 4 -1.7281 -0.1485
-4 8 5 0.1184 -0.0420
-4 8 6 -1.3342 -0.0295
-4 8 7 0.8705 0.0312
-4 8 8 -0.6316 0.0580
-4 8 9 0.0529 -0.0127
-4 9 1 -1.6842 -0.1330
-4 9 2 0.8924 -0.2107
-4 9 3 -1.1822 -0.1333
-4 9 4 1.5133 -0.1117
-4 9 5 -0.0766 -0.0310
-4 9 6 0.0553 0.0075
-4 9 7 -1.4253 -0.0271
-4 9 8 1.2560 0.0379
-4 9 9 -1.0658 0.0139
-4 10 1 2.0615 -0.0475
-4 10 2 0.4321 -0.0732
-4 10 3 0.3921 -0.1663
-4 10 4 -0.0735 -0.0529
-4 10 5 1.1677 -0.1038
-4 10 6 -0.0037 0.0351
-4 10 7 1.5352 0.0394
-4 10 8 -2.8240 0.0345
-4 10 9 0.8536 -0.0188
-4 11 1 0.0823 -0.1334
-4 11 2 0.1780 0.0032
-4 11 3 0.4105 -0.0692
-4 11 4 -0.9560 -0.0312
-4 11 5 -2.4239 -0.0323
-4 11 6 0.4001 0.0279
-4 11 7 -1.9401 0.0177
-4 11 8 1.3615 0.0034
-4 12 4 0.8144 -0.1312
-4 12 5 1.3606 0.0590
-4 12 6 -1.1819 -0.2157
-4 12 7 0.3660 0.0371
-4 12 8 -0.4272 -0.1802
-3 -11 1 -0.8058 -0.0199
-3 -11 2 0.7537 0.0046
-3 -10 1 0.1410 -0.0129
-3 -10 2 -1.3055 -0.0742
-3 -10 3 0.8721 -0.0209
-3 -9 1 0.0105 -0.0259
-3 -9 2 0.9046 -0.0143
-3 -9 3 -1.0676 -0.0025
-3 -9 4 0.5283 0.0008
-3 -8 1 -0.3455 0.0418
-3 -8 2 -0.6491 -0.0354
-3 -8 3 -0.4045 -0.0365
-3 -8 4 -0.6257 0.0033
-3 -8 5 -0.6353 0.0528
-3 -7 1 0.3993 0.0242
-3 -7 2 -0.2144 0.0295
-3 -7 3 -0.2214 -0.0209
-3 -7 4 0.0032 0.0083
-3 -7 5 0.2395 0.0356
-3 -7 6 0.5944 -0.0544
-3 -6 1 0.2959 0.0183
-3 -6 2 0.8599 0.0088
-3 -6 3 1.7383 -0.0414
-3 -6 4 0.1766 -0.0517
-3 -6 5 1.2591 -0.0466
-3 -6 6 -0.2710 -0.0140
-3 -6 7 -0.1986 -0.0478
-3 -5 1 -1.1436 0.0329
-3 -5 2 -0.5173 -0.0662
-3 -5 3 -3.7424 -0.0408
-3 -5 4 -1.0797 -0.0804
-3 -5 5 -1.7739 -0.0375
-3 -5 6 -0.1005 0.0466
-3 -5 7 -0.2252 0.0493
-3 -5 8 -0.0319 0.1414
-3 -4 1 3.2220 -0.0591
-3 -4 2 -2.3250 -0.1148
-3 -4 3 4.4044 -0.1398
-3 -4 4 -0.2247 -0.0737
-3 -4 5 -1.3215 -0.0098
-3 -4 6 -1.3581 0.0206
-3 -4 7 -1.1358 0.0541
-3 -4 8 -0.7749 -0.0135
-3 -4 9 -1.2118 -0.0291
-3 -3 1 -9.9330 -0.2293
-3 -3 2 5.0806 -0.2206
-3 -3 3 -4.4075 -0.1913
-3 -3 4 1.4525 -0.1261
-3 -3 5 1.9121 -0.0214
-3 -3 6 0.0220 0.0530
-3 -3 7 -0.0617 0.0559
-3 -3 8 -0.4992 0.0291
-3 -3 9 0.3177 0.0206
-3 -2 1 15.3583 -0.3282
-3 -2 2 -6.9643 -0.3654
-3 -2 3 2.0535 -0.2651
-3 -2 4 -2.5384 -0.1175
-3 -2 5 -0.9620 -0.0214
-3 -2 6 0.4276 0.0344
-3 -2 7 0.6358 0.0615
-3 -2 8 0.7623 0.0589
-3 -2 9 0.5571 -0.0066
-3 -2 10 -0.5679 0.0861
-3 -1 1 -15.5750 -0.4468
-3 -1 2 4.0384 -0.3829
-3 -1 3 -1.0044 -0.3064
-3 -1 4 1.9208 -0.1341
-3 -1 5 -1.3130 -0.0210
-3 -1 6 -0.3757 0.0832
-3 -1 7 -1.1360 0.1004
-3 -1 8 -0.3564 0.0767
-3 -1 9 -1.0948 0.0497
-3 -1 10 0.6801 -0.0751
-3 0 1 10.0534 -0.5123
-3 0 2 0.9114 -0.4233
-3 0 3 1.8973 -0.2941
-3 0 4 -1.6432 -0.1669
-3 0 5 1.3361 0.0212
-3 0 6 -0.4759 0.1382
-3 0 7 0.7687 0.1779
-3 0 8 -0.3126 0.0968
-3 0 9 1.0697 -0.0062
-3 0 10 0.4437 -0.0518
-3 1 1 -2.5411 -0.4970
-3 1 2 -1.1413 -0.4983
-3 1 3 -2.4302 -0.3387
-3 1 4 1.0188 -0.1461
-3 1 5 1.0789 0.0841
-3 1 6 0.9579 0.1599
-3 1 7 0.0679 0.1784
-3 1 8 0.3823 0.0964
-3 1 9 -0.3782 -0.0206
-3 1 10 -0.1611 -0.0850
-3 1 11 -0.1024 0.0423
-3 2 1 0.7504 -0.6017
-3 2 2 -1.1058 -0.5257
-3 2 3 2.0285 -0.3208
-3 2 4 0.4575 -0.0846
-3 2 5 -3.2221 0.0699
-3 2 6 -0.9507 0.1875
-3 2 7 -0.2397 0.1451
-3 2 8 0.0338 0.0774
-3 2 9 0.1560 0.0070
-3 2 10 -0.2746 -0.0776
-3 2 11 0.0054 -0.0574
-3 3 1 -3.7981 -0.6171
-3 3 2 2.2575 -0.4745
-3 3 3 0.6189 -0.3025
-3 3 4 0.7566 -0.0732
-3 3 5 3.3953 0.0710
-3 3 6 0.6726 0.1402
-3 3 7 -1.1040 0.1219
-3 3 8 -0.4729 0.0910
-3 3 9 -0.6225 -0.0079
-3 3 10 -0.0100 -0.0047
-3 3 11 0.1198 -0.1412
-3 4 1 5.4534 -0.5687
-3 4 2 -0.2570 -0.4808
-3 4 3 -1.0353 -0.2956
-3 4 4 -0.9044 -0.0968
-3 4 5 0.2674 0.0624
-3 4 6 0.0450 0.1233
-3 4 7 1.7073 0.1017
-3 4 8 -0.3604 0.0461
-3 4 9 0.1215 0.0231
-3 4 10 0.3031 -0.0367
-3 4 11 -0.0390 0.0273
-3 5 1 -2.6809 -0.5089
-3 5 2 -0.4811 -0.4364
-3 5 3 1.4346 -0.2938
-3 5 4 0.8251 -0.1076
-3 5 5 -2.9579 0.0275
-3 5 6 0.2082 0.1071
-3 5 7 -1.6424 0.1300
-3 5 8 0.7443 0.0379
-3 5 9 0.5236 0.0431
-3 5 10 -0.6993 0.0019
-3 5 11 -0.2574 0.0496
-3 6 1 -1.2683 -0.4635
-3 6 2 0.3611 -0.3650
-3 6 3 -0.4144 -0.2416
-3 6 4 -0.1326 -0.1016
-3 6 5 2.7290 0.0319
-3 6 6 -1.9350 0.0844
-3 6 7 1.1268 0.1206
-3 6 8 -1.3185 0.0891
-3 6 9 -0.7551 0.0128
-3 6 10 0.7926 0.0582
-3 6 11 0.0583 0.0276
-3 7 1 2.8035 -0.3213
-3 7 2 0.4418 -0.3688
-3 7 3 -0.8570 -0.2093
-3 7 4 0.5070 -0.1174
-3 7 5 -0.9937 0.0088
-3 7 6 1.8568 0.0674
-3 7 7 -1.8433 0.0478
-3 7 8 0.6768 0.0657
-3 7 9 -0.7021 -0.0124
-3 7 10 -0.1959 -0.0008
-3 7 11 0.5875 0.0418
-3 8 1 -1.4001 -0.2052
-3 8 2 -0.8734 -0.2373
-3 8 3 0.8467 -0.1943
-3 8 4 -1.2270 -0.0954
-3 8 5 -1.0057 0.0002
-3 8 6 -0.4904 0.0519
-3 8 7 0.6148 0.0458
-3 8 8 -1.1057 0.0289
-3 8 9 0.9939 0.0356
-3 8 10 -0.8798 0.0056
-3 9 1 0.0787 -0.1936
-3 9 2 -0.4476 -0.1109
-3 9 3 -0.2237 -0.1918
-3 9 4 0.0497 -0.0743
-3 9 5 1.4470 -0.0393
-3 9 6 -1.5633 0.0308
-3 9 7 0.2920 0.0539
-3 9 8 0.2392 0.0691
-3 9 9 -1.0455 0.0679
-3 9 10 0.0097 -0.0661
-3 10 1 0.3337 -0.1067
-3 10 2 1.8605 -0.1095
-3 10 3 -0.5086 -0.1044
-3 10 4 0.8530 -0.0740
-3 10 5 -0.6301 -0.0714
-3 10 6 1.7783 0.0421
-3 10 7 -1.1169 0.0749
-3 10 8 0.0520 0.0308
-3 10 9 -1.0141 0.0265
-3 10 10 0.0224 0.0022
-3 11 1 0.4861 -0.0232
-3 11 2 -0.3552 -0.1138
-3 11 3 1.0853 -0.0185
-3 11 4 -0.4082 -0.1029
-3 11 5 -1.1849 0.0101
-3 11 6 -0.9862 -0.0371
-3 11 7 0.8987 0.0452
-3 11 8 -1.1746 0.0208
-3 11 9 1.0899 0.0236
-3 12 2 -0.6743 -0.0523
-3 12 3 -0.0811 0.0174
-3 12 4 0.6728 -0.0720
-3 12 5 1.6674 -0.0047
-3 12 6 -0.6025 -0.0911
-3 12 7 -1.4794 0.0067
-3 12 8 0.3474 0.0582
-3 12 9 -1.1457 -0.0999
-3 13 5 -0.7492 -0.1522
-3 13 6 0.4559 0.1264
-3 13 7 0.4278 -0.1815
-2 -11 1 -2.0782 0.0564
-2 -11 2 1.2128 0.0183
-2 -11 3 -0.0351 0.0431
-2 -10 1 1.1018 0.0119
-2 -10 2 -2.1793 -0.0258
-2 -10 3 1.8723 -0.0861
-2 -10 4 -0.4991 -0.0403
-2 -9 1 -0.1849 0.0388
-2 -9 2 1.7334 -0.0169
-2 -9 3 -1.2562 0.0232
-2 -9 4 1.7640 0.0189
-2 -8 1 -0.5352 0.0685
-2 -8 2 -1.2792 0.0557
-2 -8 3 -0.7800 0.0110
-2 -8 4 -1.4096 -0.0322
-2 -8 5 0.0827 0.0313
-2 -7 1 -0.0238 0.1012
-2 -7 2 0.2558 0.0642
-2 -7 3 -0.1981 0.0055
-2 -7 4 -0.0046 0.0320
-2 -7 5 -0.2237 -0.0053
-2 -7 6 1.5746 0.0030
-2 -6 1 0.5832 0.1299
-2 -6 2 0.8666 0.0792
-2 -6 3 2.2619 0.0131
-2 -6 4 0.3949 -0.0053
-2 -6 5 1.4609 -0.0172
-2 -6 6 -0.7535 -0.0132
-2 -6 7 0.4501 -0.0082
-2 -5 1 -1.4762 0.1279
-2 -5 2 -0.4881 0.0827
-2 -5 3 -3.4336 0.0451
-2 -5 4 -1.0515 -0.0512
-2 -5 5 -2.0539 -0.0250
-2 -5 6 0.4985 -0.0175
-2 -5 7 -0.3676 0.0186
-2 -5 8 0.7576 0.0126
-2 -4 1 4.2993 0.2024
-2 -4 2 -2.3804 0.0513
-2 -4 3 3.0104 0.0089
-2 -4 4 0.6338 -0.0370
-2 -4 5 -0.6556 -0.0485
-2 -4 6 -2.1259 -0.0041
-2 -4 7 -0.6037 0.0287
-2 -4 8 -0.6710 0.0556
-2 -4 9 -0.6525 -0.0297
-2 -3 1 -8.1320 0.1189
-2 -3 2 3.1199 0.0591
-2 -3 3 -1.6503 -0.0598
-2 -3 4 -0.5025 -0.0476
-2 -3 5 2.0345 -0.0448
-2 -3 6 1.3046 0.0067
-2 -3 7 -0.8414 0.0282
-2 -3 8 -0.2994 0.0032
-2 -3 9 1.0207 -0.0045
-2 -3 10 1.9989 -0.1264
-2 -2 1 9.2256 -0.0053
-2 -2 2 0.4791 -0.0284
-2 -2 3 -2.9824 -0.0806
-2 -2 4 0.1392 -0.0655
-2 -2 5 -1.6379 -0.0167
-2 -2 6 -0.5604 0.0159
-2 -2 7 0.9492 0.0499
-2 -2 8 -0.3809 0.0451
-2 -2 9 -0.3116 0.0128
-2 -2 10 -0.5108 -0.0191
-2 -1 1 -9.2786 -0.0623
-2 -1 2 -8.9083 -0.1169
-2 -1 3 5.6003 -0.0556
-2 -1 4 -1.1230 -0.0198
-2 -1 5 0.0504 0.0389
-2 -1 6 -0.2564 0.0582
-2 -1 7 -0.7945 0.0533
-2 -1 8 0.1194 0.0574
-2 -1 9 -1.0822 0.0280
-2 -1 10 -0.7065 0.0245
-2 -1 11 0.5633 -0.0047
-2 0 1 5.1065 -0.1900
-2 0 2 13.4019 -0.0398
-2 0 3 -4.4080 -0.0220
-2 0 4 2.0314 0.0117
-2 0 5 -1.3279 0.0597
-2 0 6 0.0918 0.0972
-2 0 7 -0.2428 0.0944
-2 0 8 0.1942 0.0668
-2 0 9 0.4322 0.0162
-2 0 10 0.9362 -0.0263
-2 0 11 -0.3489 -0.0279
-2 1 1 -1.0032 -0.2134
-2 1 2 -8.9064 -0.1484
-2 1 3 3.1757 -0.0358
-2 1 4 -2.7902 0.0410
-2 1 5 4.2530 0.0763
-2 1 6 -0.5520 0.1219
-2 1 7 1.0513 0.1440
-2 1 8 -0.5194 0.0781
-2 1 9 0.4525 -0.0046
-2 1 10 -0.9114 -0.0704
-2 1 11 0.8344 -0.1084
-2 1 12 -0.4519 0.1440
-2 2 1 2.0273 -0.2950
-2 2 2 1.5236 -0.2672
-2 2 3 -3.1373 -0.0712
-2 2 4 2.8931 0.0510
-2 2 5 -5.6957 0.1653
-2 2 6 0.9470 0.1702
-2 2 7 -1.3983 0.1152
-2 2 8 0.9363 0.0630
-2 2 9 -0.6737 -0.0102
-2 2 10 0.4187 -0.0902
-2 2 11 -1.2122 -0.0697
-2 2 12 0.7639 -0.3444
-2 3 1 -5.2322 -0.4223
-2 3 2 2.0474 -0.2024
-2 3 3 4.2068 -0.0861
-2 3 4 0.5634 0.0718
-2 3 5 5.1885 0.1459
-2 3 6 -0.3944 0.1845
-2 3 7 0.7844 0.1082
-2 3 8 -2.2180 -0.0030
-2 3 9 0.5569 -0.0351
-2 3 10 -0.7077 -0.0964
-2 3 11 0.6041 -0.1173
-2 3 12 -0.4800 -0.0708
-2 4 1 5.1231 -0.4470
-2 4 2 -0.0366 -0.2475
-2 4 3 -1.8516 -0.1254
-2 4 4 -1.5387 0.0811
-2 4 5 0.1896 0.1586
-2 4 6 1.3567 0.1525
-2 4 7 -0.3266 0.1223
-2 4 8 1.9821 0.0414
-2 4 9 -1.7671 -0.0507
-2 4 10 1.0752 -0.0251
-2 4 11 -0.3103 -0.1189
-2 4 12 0.1459 0.0583
-2 5 1 -1.0655 -0.3587
-2 5 2 -0.4577 -0.3271
-2 5 3 0.7275 -0.1109
-2 5 4 2.7518 0.0246
-2 5 5 -3.6237 0.1637
-2 5 6 -0.9278 0.1458
-2 5 7 0.7952 0.1032
-2 5 8 -1.2102 0.0551
-2 5 9 1.9111 -0.0393
-2 5 10 -1.2506 -0.0400
-2 5 11 0.3861 0.0321
-2 5 12 -0.0506 -0.0529
-2 6 1 -3.4232 -0.3115
-2 6 2 -0.6242 -0.3185
-2 6 3 0.5539 -0.1142
-2 6 4 -2.2956 -0.0039
-2 6 5 4.0384 0.0789
-2 6 6 -0.8444 0.1495
-2 6 7 -0.9663 0.0969
-2 6 8 0.6163 0.0242
-2 6 9 -1.3311 0.0139
-2 6 10 0.5122 -0.0543
-2 6 11 -0.7529 0.0261
-2 6 12 -0.1085 0.0329
-2 7 1 4.9552 -0.2755
-2 7 2 1.0676 -0.2258
-2 7 3 -0.6336 -0.1674
-2 7 4 1.6177 -0.0180
-2 7 5 -1.1647 0.0665
-2 7 6 1.3856 0.1011
-2 7 7 -0.4753 0.0831
-2 7 8 -1.2586 0.0420
-2 7 9 -0.0688 -0.0308
-2 7 10 -0.2292 -0.0122
-2 7 11 1.2797 -0.0148
-2 7 12 0.0970 0.0268
-2 8 1 -3.2358 -0.2032
-2 8 2 -0.1439 -0.1482
-2 8 3 -0.5765 -0.1524
-2 8 4 -0.6189 -0.0477
-2 8 5 -1.8337 0.0556
-2 8 6 0.0189 0.0996
-2 8 7 0.2993 0.0803
-2 8 8 0.1160 0.0359
-2 8 9 -0.1791 0.0391
-2 8 10 0.0062 -0.0428
-2 8 11 -1.1395 -0.0691
-2 8 12 0.9659 0.0730
-2 9 1 1.3033 -0.1358
-2 9 2 -1.4004 -0.0939
-2 9 3 1.1823 -0.1012
-2 9 4 -0.7983 -0.0499
-2 9 5 1.9225 0.0148
-2 9 6 -1.5598 0.0397
-2 9 7 0.3825 0.1072
-2 9 8 0.1227 0.0697
-2 9 9 0.0969 0.0395
-2 9 10 -0.3676 0.0071
-2 9 11 0.6638 -0.0079
-2 10 1 -0.5776 -0.0766
-2 10 2 2.4218 -0.1201
-2 10 3 -1.3002 -0.0287
-2 10 4 0.9417 -0.0456
-2 10 5 -0.8752 0.0036
-2 10 6 0.9995 0.0605
-2 10 7 -1.1934 0.0656
-2 10 8 -0.0279 0.0568
-2 10 9 -0.8638 0.0115
-2 10 10 -0.2845 0.0732
-2 10 11 -0.8215 -0.0719
-2 11 1 0.4680 -0.0272
-2 11 2 -1.1119 -0.0716
-2 11 3 1.7049 -0.0288
-2 11 4 -0.8791 -0.0269
-2 11 5 -0.1574 -0.0404
-2 11 6 -0.7569 0.0348
-2 11 7 1.3961 0.0053
-2 11 8 -0.3266 0.0846
-2 11 9 0.6756 -0.0309
-2 11 10 -0.1080 0.0138
-2 11 11 -0.4849 0.1567
-2 12 1 -0.3990 -0.1379
-2 12 2 -0.1331 0.0170
-2 12 3 -0.7894 -0.1083
-2 12 4 1.8576 0.0111
-2 12 5 0.0970 -0.0323
-2 12 6 0.3923 -0.0078
-2 12 7 -1.9871 0.0301
-2 12 8 -0.5353 0.0571
-2 12 9 -0.6466 0.1012
-2 12 10 -0.4981 -0.2260
-2 13 4 -1.4279 -0.1621
-2 13 5 0.7672 0.0675
-2 13 6 -0.2322 -0.1138
-2 13 7 0.5316 0.0820
-2 13 8 -0.2204 -0.1835
-1 -11 1 -2.1695 0.0661
-1 -11 2 0.3098 0.0832
-1 -10 1 1.2298 0.0810
-1 -10 2 -1.2926 -0.0030
-1 -10 3 1.3527 0.0259
-1 -10 4 0.1544 -0.0412
-1 -9 1 -0.3088 0.0534
-1 -9 2 0.9307 0.0546
-1 -9 3 -0.1730 -0.0024
-1 -9 4 0.5453 -0.0129
-1 -9 5 1.4713 0.0080
-1 -8 1 -0.6799 0.0982
-1 -8 2 -0.3371 0.0815
-1 -8 3 -1.3956 0.0456
-1 -8 4 -0.6383 0.0326
-1 -8 5 -0.9330 -0.0215
-1 -8 6 1.1855 0.0497
-1 -7 1 0.1190 0.1575
-1 -7 2 -0.6133 0.0797
-1 -7 3 0.1102 0.0557
-1 -7 4 -0.2394 -0.0017
-1 -7 5 -0.4702 0.0106
-1 -7 6 0.3973 -0.0138
-1 -7 7 0.6915 -0.0716
-1 -6 1 0.2502 0.2038
-1 -6 2 0.9052 0.1255
-1 -6 3 2.2242 0.0688
-1 -6 4 0.4340 0.0370
-1 -6 5 1.6550 -0.0093
-1 -6 6 -0.1488 -0.0011
-1 -6 7 0.5746 0.0257
-1 -6 8 -1.5586 0.0863
-1 -5 1 -1.4709 0.1903
-1 -5 2 -0.3427 0.1896
-1 -5 3 -3.2092 0.0660
-1 -5 4 -0.5089 0.0286
-1 -5 5 -1.7082 -0.0140
-1 -5 6 0.0326 -0.0082
-1 -5 7 0.2578 -0.0211
-1 -5 8 2.3025 -0.0057
-1 -5 9 -1.7152 0.0996
-1 -4 1 2.4445 0.2615
-1 -4 2 -1.0625 0.2046
-1 -4 3 1.8708 0.1198
-1 -4 4 0.5465 0.0012
-1 -4 5 -0.1945 -0.0207
-1 -4 6 -1.2493 -0.0478
-1 -4 7 -1.1705 0.0214
-1 -4 8 -0.6271 -0.0110
-1 -4 9 2.4007 -0.0012
-1 -4 10 -3.3421 0.0771
-1 -3 1 0.7419 0.3749
-1 -3 2 -1.3310 0.1967
-1 -3 3 0.7775 0.1376
-1 -3 4 -0.6947 0.0312
-1 -3 5 1.1481 -0.0190
-1 -3 6 1.7718 -0.0382
-1 -3 7 0.1581 -0.0162
-1 -3 8 -0.9615 0.0180
-1 -3 9 -0.0799 0.0020
-1 -3 10 4.2996 -0.0676
-1 -2 1 -6.5126 0.3218
-1 -2 2 10.9038 0.2860
-1 -2 3 -5.5812 0.1334
-1 -2 4 -0.7430 0.0629
-1 -2 5 0.0258 0.0025
-1 -2 6 -1.5488 0.0281
-1 -2 7 0.8713 0.0236
-1 -2 8 0.1699 0.0415
-1 -2 9 -1.6912 0.0320
-1 -2 10 -0.6105 0.0213
-1 -2 11 0.6428 -0.1498
-1 -1 1 9.0836 0.1970
-1 -1 2 -24.6517 0.2476
-1 -1 3 8.3551 0.1768
-1 -1 4 0.6676 0.1064
-1 -1 5 -1.6253 0.0780
-1 -1 6 1.1044 0.0652
-1 -1 7 -0.5479 0.0355
-1 -1 8 0.4846 0.0280
-1 -1 9 0.6881 -0.0113
-1 -1 10 -2.2640 -0.0261
-1 -1 11 0.3386 0.0359
-1 0 1 -13.3825 0.1156
-1 0 2 29.2547 0.1710
-1 0 3 -10.0476 0.1805
-1 0 4 2.2200 0.1843
-1 0 5 -0.3679 0.1389
-1 0 6 -1.0726 0.0640
-1 0 7 -1.1386 0.0268
-1 0 8 0.0017 0.0144
-1 0 9 -0.0790 -0.0001
-1 0 10 1.6025 -0.0062
-1 0 11 -0.4934 -0.0598
-1 0 12 0.1407 0.2313
-1 1 1 13.9838 -0.0481
-1 1 2 -22.9328 0.0775
-1 1 3 13.3314 0.2162
-1 1 4 -5.5790 0.2164
-1 1 5 5.2129 0.1542
-1 1 6 0.1261 0.1044
-1 1 7 1.3879 0.0544
-1 1 8 -1.0428 -0.0010
-1 1 9 0.1762 -0.0093
-1 1 10 -1.1292 -0.0557
-1 1 11 -0.2463 -0.0487
-1 1 12 -0.3968 -0.0999
-1 2 1 -9.2640 -0.2331
-1 2 2 11.4895 0.0019
-1 2 3 -15.3522 0.1850
-1 2 4 5.9841 0.2106
-1 2 5 -8.8860 0.1995
-1 2 6 0.7270 0.1323
-1 2 7 -1.1999 0.0796
-1 2 8 1.1315 -0.0244
-1 2 9 -0.4313 -0.0563
-1 2 10 0.3881 -0.0755
-1 2 11 -0.7634 -0.0753
-1 2 12 -0.1393 -0.1004
-1 2 13 1.0010 -0.2708
-1 3 1 -0.3507 -0.3207
-1 3 2 -3.0642 -0.0452
-1 3 3 12.2401 0.0845
-1 3 4 -1.6630 0.2125
-1 3 5 8.4759 0.2395
-1 3 6 -1.2219 0.1724
-1 3 7 1.6227 0.0736
-1 3 8 -2.4674 -0.0098
-1 3 9 -0.1080 -0.0948
-1 3 10 -0.2857 -0.0874
-1 3 11 0.5837 -0.0722
-1 3 12 -0.3765 -0.1186
-1 3 13 -0.4776 0.0539
-1 4 1 5.6958 -0.2524
-1 4 2 0.4723 -0.1114
-1 4 3 -4.2351 0.0613
-1 4 4 -0.4690 0.1931
-1 4 5 -1.4518 0.2386
-1 4 6 3.6579 0.2050
-1 4 7 -2.5206 0.0686
-1 4 8 3.2307 0.0136
-1 4 9 -1.6757 -0.0610
-1 4 10 0.0756 -0.0993
-1 4 11 -0.1700 -0.0926
-1 4 12 0.5224 -0.0298
-1 4 13 -0.2016 -0.1887
-1 5 1 -2.5037 -0.2366
-1 5 2 1.3916 -0.1879
-1 5 3 0.2368 0.0002
-1 5 4 2.4161 0.1841
-1 5 5 -2.0655 0.2280
-1 5 6 -3.5550 0.1855
-1 5 7 3.7752 0.1162
-1 5 8 -3.0137 -0.0057
-1 5 9 2.5732 -0.0817
-1 5 10 -0.8386 -0.0827
-1 5 11 0.2894 -0.1087
-1 5 12 -0.0091 -0.0038
-1 5 13 0.3718 0.0450
-1 6 1 -2.2197 -0.2157
-1 6 2 -3.6609 -0.2012
-1 6 3 1.0368 -0.0437
-1 6 4 -1.9786 0.0993
-1 6 5 1.6296 0.1849
-1 6 6 2.1502 0.1831
-1 6 7 -3.6290 0.0861
-1 6 8 2.4549 -0.0127
-1 6 9 -1.5952 -0.0877
-1 6 10 0.6484 -0.1254
-1 6 11 -0.8077 -0.0045
-1 6 12 -0.8000 -0.0517
-1 6 13 -0.1779 0.0285
-1 7 1 3.1024 -0.2047
-1 7 2 4.1316 -0.1242
-1 7 3 -0.7532 -0.0296
-1 7 4 1.2112 0.0456
-1 7 5 1.3942 0.1373
-1 7 6 -0.7366 0.1629
-1 7 7 1.7820 0.1035
-1 7 8 -2.5304 -0.0166
-1 7 9 0.0432 -0.0160
-1 7 10 -0.0948 -0.0518
-1 7 11 0.7958 -0.0606
-1 7 12 1.0882 0.0148
-1 7 13 0.0244 0.0831
-1 8 1 -1.7707 -0.2074
-1 8 2 -1.7623 -0.0765
-1 8 3 -0.1814 -0.0660
-1 8 4 -0.2746 0.0138
-1 8 5 -2.8403 0.1111
-1 8 6 0.8054 0.0842
-1 8 7 -0.2229 0.1034
-1 8 8 1.1258 0.0613
-1 8 9 -0.8681 -0.0123
-1 8 10 -0.3538 -0.0181
-1 8 11 -0.5961 -0.0647
-1 8 12 0.2217 0.0079
-1 8 13 0.4450 -0.0567
-1 9 1 0.0343 -0.0592
-1 9 2 -0.6848 -0.0910
-1 9 3 0.4806 -0.0363
-1 9 4 -0.1466 0.0226
-1 9 5 1.7289 0.0459
-1 9 6 -1.1668 0.1020
-1 9 7 -0.1044 0.0798
-1 9 8 -0.3442 0.0686
-1 9 9 0.9658 -0.0155
-1 9 10 -0.4000 -0.0094
-1 9 11 0.8127 -0.0301
-1 9 12 -0.3458 -0.0813
-1 9 13 0.7280 -0.0706
-1 10 1 0.3745 -0.0744
-1 10 2 1.3394 -0.0584
-1 10 3 0.1550 -0.0101
-1 10 4 -0.1055 0.0246
-1 10 5 -0.0450 0.0277
-1 10 6 0.8248 0.0931
-1 10 7 -0.7640 0.0473
-1 10 8 0.0621 0.0513
-1 10 9 -0.7901 0.0119
-1 10 10 0.3321 -0.0232
-1 10 11 -0.6194 0.0900
-1 10 12 0.1298 -0.0478
-1 11 1 0.5231 -0.1081
-1 11 2 -0.2734 -0.0032
-1 11 3 0.1910 -0.0159
-1 11 4 -0.0814 0.0216
-1 11 5 -0.5445 0.0280
-1 11 6 -1.0718 0.0271
-1 11 7 1.2557 0.0617
-1 11 8 0.2896 0.0326
-1 11 9 0.5266 0.0513
-1 11 10 0.1728 -0.0130
-1 11 11 -0.8083 -0.0827
-1 11 12 -0.7395 0.2031
-1 12 1 -0.5507 0.0626
-1 12 2 0.1114 -0.0756
-1 12 3 0.2718 0.0327
-1 12 4 1.2797 -0.0308
-1 12 5 -0.2381 0.0139
-1 12 6 0.8148 0.0107
-1 12 7 -1.5669 0.0642
-1 12 8 -0.6744 0.0139
-1 12 9 -0.0594 0.0242
-1 12 10 -0.7256 -0.0326
-1 12 11 0.8314 -0.1471
-1 13 3 -0.5298 -0.0666
-1 13 4 -0.5418 -0.0479
-1 13 5 1.2011 0.0227
-1 13 6 -0.0311 -0.0573
-1 13 7 0.6910 0.0373
-1 13 8 -0.5313 0.0448
-1 13 9 -1.2807 -0.0095
-1 14 6 -0.1692 0.1576
-1 14 7 -0.2740 -0.1002
0 -11 1 0.1806 0.0236
0 -11 2 -1.2046 0.0341
0 -10 1 -0.7776 0.0380
0 -10 2 0.6310 0.0924
0 -10 3 0.0768 0.0380
0 -10 4 0.3698 0.0258
0 -9 1 0.9013 0.1158
0 -9 2 -1.2211 0.0688
0 -9 3 0.9831 0.0512
0 -9 4 -0.7261 -0.0170
0 -9 5 1.8111 -0.0167
0 -9 6 -0.2263 -0.0334
0 -8 1 -1.6567 0.1422
0 -8 2 1.4714 0.0762
0 -8 3 -1.6133 0.0537
0 -8 4 0.0574 0.0263
0 -8 5 -1.4225 0.0088
0 -8 6 1.5037 -0.0194
0 -7 1 0.8946 0.1791
0 -7 2 -1.7880 0.1249
0 -7 3 0.4070 0.0584
0 -7 4 -0.4432 0.0351
0 -7 5 -0.2152 -0.0150
0 -7 6 -1.7072 0.0105
0 -7 7 0.8394 -0.0543
0 -6 1 0.5167 0.1979
0 -6 2 0.6967 0.1428
0 -6 3 1.5804 0.1080
0 -6 4 1.3237 0.0440
0 -6 5 0.5490 0.0028
0 -6 6 2.2364 0.0018
0 -6 7 -1.4910 -0.0193
0 -6 8 0.5378 0.0500
0 -5 1 -2.9498 0.2616
0 -5 2 0.4116 0.2169
0 -5 3 -3.2531 0.1060
0 -5 4 -1.5844 0.0487
0 -5 5 0.2116 0.0158
0 -5 6 -1.9636 -0.0225
0 -5 7 2.7114 -0.0081
0 -5 8 -0.1700 0.0269
0 -5 9 1.7069 -0.0424
0 -4 1 3.2330 0.2588
0 -4 2 -1.5780 0.2628
0 -4 3 2.1301 0.1311
0 -4 4 0.8034 0.0586
0 -4 5 -1.1706 -0.0078
0 -4 6 0.3827 -0.0318
0 -4 7 -2.5721 -0.0190
0 -4 8 1.3710 -0.0608
0 -4 9 0.2227 0.0275
0 -4 10 1.9867 -0.0668
0 -3 1 -0.1410 0.3586
0 -3 2 -0.2818 0.2691
0 -3 3 -0.2791 0.2264
0 -3 4 0.5231 0.0879
0 -3 5 0.8385 0.0335
0 -3 6 1.1133 -0.0346
0 -3 7 1.5372 -0.0065
0 -3 8 -2.0921 0.0029
0 -3 9 0.6831 0.0304
0 -3 10 0.1852 0.0256
0 -2 1 -4.1635 0.5100
0 -2 2 7.9257 0.3538
0 -2 3 -0.0838 0.3281
0 -2 4 -4.3570 0.1693
0 -2 5 1.0557 0.0531
0 -2 6 -0.9999 0.0253
0 -2 7 -0.0334 0.0003
0 -2 8 2.5940 0.0355
0 -2 9 -2.6576 0.0105
0 -2 10 1.4635 -0.0004
0 -2 11 0.3191 -0.0311
0 -1 1 7.2351 0.3575
0 -1 2 -18.6574 0.5408
0 -1 3 -2.2447 0.3073
0 -1 4 6.6392 0.2209
0 -1 5 -3.0709 0.0938
0 -1 6 1.0687 0.0614
0 -1 7 1.0417 -0.0009
0 -1 8 -1.4106 0.0091
0 -1 9 3.4800 -0.0157
0 -1 10 -3.5488 -0.0065
0 -1 11 0.3563 -0.0799
0 0 2 21.3299 0.3223
0 0 3 0.0800 0.2867
0 0 4 -4.7260 0.2540
0 0 5 2.2574 0.1743
0 0 6 -1.1158 0.0666
0 0 7 -2.3356 -0.0008
0 0 8 0.7551 -0.0412
0 0 9 -1.7493 -0.0250
0 0 10 2.8096 -0.0246
0 0 11 -0.9499 -0.0466
0 0 12 1.0344 0.0081
0 1 2 -17.3015 0.1375
0 1 3 8.6998 0.3358
0 1 4 1.0346 0.2919
0 1 5 2.8010 0.2373
0 1 6 1.6677 0.0843
0 1 7 1.6287 0.0138
0 1 8 -0.9347 -0.0794
0 1 9 0.0998 -0.0744
0 1 10 -1.0174 -0.0561
0 1 11 -0.7977 -0.0324
0 1 12 -2.2763 -0.0787
0 2 0 16.3230 0.0679
0 2 1 -15.8575 -0.3929
0 2 2 10.9002 0.1330
0 2 3 -17.0126 0.3039
0 2 4 2.0470 0.3401
0 2 5 -7.9347 0.2190
0 2 6 -2.4363 0.1124
0 2 7 -0.0316 0.0091
0 2 8 0.5057 -0.0646
0 2 9 0.1373 -0.1150
0 2 10 -0.1925 -0.0968
0 2 11 0.3221 -0.0019
0 2 12 -0.2471 -0.0277
0 2 13 0.5497 -0.0078
0 3 0 3.5316 -0.2739
0 3 1 9.5436 -0.1906
0 3 2 -8.4647 -0.0665
0 3 3 16.5712 0.2118
0 3 4 -2.2326 0.2939
0 3 5 8.6438 0.2655
0 3 6 1.1994 0.1744
0 3 7 -0.8541 0.0019
0 3 8 -0.5105 -0.0560
0 3 9 -1.2039 -0.0869
0 3 10 -0.4168 -0.0733
0 3 11 0.5413 -0.0456
0 3 12 0.1092 0.0713
0 3 13 -0.6963 -0.0711
0 4 0 -4.0301 -0.4037
0 4 1 0.0466 -0.1668
0 4 2 5.8573 -0.0441
0 4 3 -8.7379 0.1137
0 4 4 1.6325 0.2512
0 4 5 -2.7062 0.2932
0 4 6 2.6701 0.1542
0 4 7 0.2835 0.0480
0 4 8 0.0044 -0.0700
0 4 9 0.5295 -0.1096
0 4 10 -0.2043 -0.0832
0 4 11 -1.3442 -0.0657
0 4 12 1.2646 -0.0627
0 4 13 -0.2532 0.0110
0 5 0 -1.9756 -0.1830
0 5 1 -1.1345 -0.1863
0 5 2 -0.5174 -0.0672
0 5 3 2.8700 0.0231
0 5 4 0.1424 0.2317
0 5 5 -0.2435 0.2398
0 5 6 -3.1756 0.2001
0 5 7 1.3459 0.0622
0 5 8 0.0233 -0.0482
0 5 9 -0.1683 -0.0952
0 5 10 -0.1411 -0.1620
0 5 11 0.9221 -0.0957
0 5 12 -1.0956 -0.0480
0 5 13 0.9422 0.0121
0 6 0 2.2325 -0.2649
0 6 1 -1.5481 -0.1757
0 6 2 -3.9417 -0.1212
0 6 3 -1.5963 0.0357
0 6 4 0.5866 0.1447
0 6 5 -1.4037 0.2206
0 6 6 2.5166 0.2071
0 6 7 -1.9746 0.1001
0 6 8 0.2675 -0.0355
0 6 9 0.1533 -0.1610
0 6 10 0.3641 -0.1089
0 6 11 -0.5878 -0.1151
0 6 12 -0.4922 -0.0201
0 6 13 -0.6259 0.0372
0 6 14 -1.1779 0.1341
0 7 0 -0.0629 -0.2268
0 7 1 1.0988 -0.1663
0 7 2 4.9568 -0.0947
0 7 3 1.8894 0.0441
0 7 4 -2.0532 0.0797
0 7 5 4.7694 0.1923
0 7 6 -1.8763 0.1727
0 7 7 1.5638 0.0961
0 7 8 -0.8337 -0.0267
0 7 9 -0.1489 -0.0860
0 7 10 -0.0315 -0.0899
0 7 11 0.5103 -0.0664
0 7 12 1.3291 -0.0235
0 7 13 -0.0943 -0.0277
0 8 0 -1.6653 -0.0528
0 8 1 -0.0638 -0.1314
0 8 2 -2.5713 -0.0504
0 8 3 -0.7501 -0.0010
0 8 4 2.0679 0.0920
0 8 5 -4.6961 0.1202
0 8 6 1.5512 0.1235
0 8 7 -0.2267 0.0777
0 8 8 0.6321 0.0122
0 8 9 -0.7124 -0.0196
0 8 10 -0.4017 -0.0884
0 8 11 -0.4814 -0.0156
0 8 12 -0.4391 -0.0532
0 8 13 1.0093 0.0093
0 9 0 1.4711 -0.1634
0 9 1 -0.8786 -0.1221
0 9 2 -0.6476 -0.0393
0 9 3 -0.4579 -0.0261
0 9 4 -0.6801 0.0700
0 9 5 2.3401 0.0912
0 9 6 -1.1565 0.0986
0 9 7 -0.4452 0.0808
0 9 8 -0.2260 0.0378
0 9 9 0.3107 -0.0407
0 9 10 -0.5508 -0.0646
0 9 11 0.3274 -0.0363
0 9 12 0.2348 0.0064
0 9 13 0.3680 -0.0669
0 10 0 -0.5219 -0.1708
0 10 1 1.0306 -0.0888
0 10 2 1.3116 -0.0507
0 10 3 0.5985 0.0221
0 10 4 0.2832 0.0383
0 10 5 -0.5485 0.0677
0 10 6 1.9282 0.0804
0 10 7 -0.1693 0.0459
0 10 8 -0.2037 0.0206
0 10 9 -0.1562 -0.0143
0 10 10 0.6205 -0.0268
0 10 11 -0.0705 -0.0550
0 10 12 0.4246 0.0154
0 10 13 -0.5565 0.1016
0 11 0 -1.2454 0.0448
0 11 1 -0.4353 -0.0136
0 11 2 0.3398 -0.0694
0 11 3 0.1895 0.0384
0 11 4 -0.0934 0.0371
0 11 5 0.5674 0.0530
0 11 6 -2.3359 0.0539
0 11 7 0.6369 0.0544
0 11 8 0.4531 0.0142
0 11 9 0.3146 0.0043
0 11 10 0.0563 0.0116
0 11 11 0.0080 -0.0477
0 11 12 -1.0923 -0.0224
0 12 0 2.4799 0.0720
0 12 1 0.7843 -0.0042
0 12 2 -0.2754 0.0509
0 12 3 1.5877 -0.0029
0 12 4 0.4371 0.0341
0 12 5 -0.0656 0.0253
0 12 6 0.6380 0.0144
0 12 7 -0.2746 0.0448
0 12 8 -0.7334 0.0335
0 12 9 0.5758 -0.0453
0 12 10 0.0124 -0.0047
0 12 11 -0.2607 -0.0276
0 12 12 0.5240 -0.0163
0 13 3 -2.5830 -0.0297
0 13 4 0.8637 0.0263
0 13 5 -0.7501 -0.0086
0 13 6 1.4798 0.0709
0 13 7 -0.4730 -0.0164
0 13 8 0.7714 0.0663
0 13 9 -1.4904 0.0968
0 13 10 -0.3711 -0.1465
0 14 6 -1.3829 -0.0639
0 14 7 0.5718 0.1109
1 -11 0 -1.4068 -0.0951
1 -11 1 -0.2415 0.0239
1 -11 2 -0.2330 -0.0255
1 -10 0 0.5599 0.1924
1 -10 1 -1.4131 0.0427
1 -10 2 0.5970 0.0495
1 -10 3 -0.8859 0.0665
1 -10 4 0.9902 0.0130
1 -9 0 0.1093 0.1954
1 -9 1 2.3449 0.1219
1 -9 2 -2.1150 0.1085
1 -9 3 1.1695 0.0491
1 -9 4 -1.6408 0.0365
1 -9 5 1.3299 0.0134
1 -9 6 0.0987 -0.0213
1 -8 0 0.1626 0.0516
1 -8 1 -3.2643 0.1603
1 -8 2 2.1392 0.1089
1 -8 3 -0.9366 0.0439
1 -8 4 -0.1935 0.0078
1 -8 5 -0.7669 -0.0031
1 -8 6 0.3004 -0.0144
1 -8 7 0.8388 0.0072
1 -7 0 -1.5996 0.2271
1 -7 1 2.0542 0.1975
1 -7 2 -2.2960 0.1102
1 -7 3 0.0342 0.0824
1 -7 4 0.4479 0.0403
1 -7 5 -0.9599 -0.0003
1 -7 6 -1.1269 -0.0253
1 -7 7 -0.6692 0.0346
1 -7 8 0.3048 -0.0189
1 -6 0 2.5605 0.3211
1 -6 1 0.9785 0.2176
1 -6 2 1.1861 0.1495
1 -6 3 0.4998 0.0971
1 -6 4 1.8449 0.0329
1 -6 5 0.8402 0.0019
1 -6 6 1.3805 0.0183
1 -6 7 -0.1769 -0.0718
1 -6 8 -0.7720 0.0074
1 -6 9 0.7035 0.0198
1 -5 0 -0.9133 0.2397
1 -5 1 -4.0591 0.2600
1 -5 2 0.0807 0.2250
1 -5 3 -1.6500 0.1218
1 -5 4 -4.2380 0.0502
1 -5 5 1.0206 -0.0058
1 -5 6 -1.0903 -0.0282
1 -5 7 1.3433 -0.0212
1 -5 8 1.0204 0.0121
1 -5 9 0.2893 -0.0738
1 -5 10 0.3795 0.1172
1 -4 0 -7.5021 0.3703
1 -4 1 3.4397 0.3007
1 -4 2 -1.4071 0.2409
1 -4 3 0.5803 0.1113
1 -4 4 3.4034 0.0634
1 -4 5 -3.1263 0.0270
1 -4 6 0.2042 -0.0195
1 -4 7 -1.7295 -0.0152
1 -4 8 0.0551 -0.0502
1 -4 9 0.4072 0.0313
1 -4 10 1.7474 -0.0338
1 -3 0 10.8658 0.2764
1 -3 1 -4.8801 0.2947
1 -3 2 0.5421 0.2583
1 -3 3 -0.0045 0.2038
1 -3 4 -0.8200 0.1222
1 -3 5 3.1152 0.0455
1 -3 6 -0.2216 0.0104
1 -3 7 1.5222 0.0158
1 -3 8 -1.0282 -0.0063
1 -3 9 -0.3121 0.0484
1 -3 10 -0.9699 0.0211
1 -2 0 6.2536 0.1739
1 -2 1 9.3746 0.3451
1 -2 2 0.9017 0.3386
1 -2 3 3.6653 0.3324
1 -2 4 -4.0811 0.1873
1 -2 5 -1.9125 0.0953
1 -2 6 1.5221 0.0096
1 -2 7 -1.1879 -0.0105
1 -2 8 3.2388 0.0128
1 -2 9 0.0536 -0.0264
1 -2 10 0.7858 -0.0134
1 -2 11 2.5489 -0.0310
1 -1 1 -11.3701 0.6601
1 -1 2 -2.9610 0.4588
1 -1 3 -12.0321 0.3675
1 -1 4 7.0830 0.2195
1 -1 5 -0.2233 0.1000
1 -1 6 -1.9871 0.0456
1 -1 7 3.5070 -0.0307
1 -1 8 -2.7438 -0.0223
1 -1 9 2.1464 -0.0141
1 -1 10 -0.7266 0.0158
1 -1 11 -2.1523 -0.0533
1 0 2 1.3086 0.4932
1 0 3 13.5530 0.2938
1 0 4 -8.3130 0.2427
1 0 5 0.6877 0.1378
1 0 6 1.6442 0.0551
1 0 7 -3.8244 -0.0094
1 0 8 1.8941 -0.0619
1 0 9 -1.5816 -0.0698
1 0 10 1.0736 -0.0384
1 0 11 0.6248 -0.0391
1 0 12 0.2702 -0.0845
1 1 2 3.8749 0.2121
1 1 3 -6.1435 0.2698
1 1 4 9.6438 0.2940
1 1 5 1.9767 0.2012
1 1 6 1.6230 0.0668
1 1 7 2.3731 -0.0274
1 1 8 -0.4603 -0.0860
1 1 9 -0.1254 -0.1018
1 1 10 0.3391 -0.1011
1 1 11 -0.6535 -0.0169
1 1 12 -3.2853 -0.0135
1 2 0 8.3462 -0.1959
1 2 1 -2.3463 -0.1757
1 2 2 -8.3508 -0.0613
1 2 3 -1.4065 0.3226
1 2 4 -9.7583 0.3015
1 2 5 -2.5800 0.2251
1 2 6 -5.2128 0.1021
1 2 7 0.0749 -0.0253
1 2 8 -0.1869 -0.1087
1 2 9 1.2646 -0.1168
1 2 10 -1.6910 -0.0777
1 2 11 0.9598 -0.0242
1 2 12 1.0111 0.0484
1 2 13 -0.7498 0.1345
1 3 0 4.8929 -0.1578
1 3 1 4.4351 -0.2834
1 3 2 2.3451 -0.0261
1 3 3 2.9605 0.2151
1 3 4 8.9543 0.2948
1 3 5 0.2301 0.2641
1 3 6 5.5069 0.1012
1 3 7 -2.4205 -0.0191
1 3 8 0.2044 -0.1199
1 3 9 -1.7245 -0.1289
1 3 10 0.9002 -0.0735
1 3 11 -0.9872 0.0159
1 3 12 0.4269 0.0819
1 3 13 0.4182 0.0256
1 4 0 -2.0672 -0.3429
1 4 1 -0.8075 -0.1513
1 4 2 2.8885 -0.0551
1 4 3 -1.6036 0.0507
1 4 4 -6.4738 0.2563
1 4 5 3.5310 0.2466
1 4 6 -2.1615 0.1427
1 4 7 2.9446 -0.0295
1 4 8 -1.5091 -0.1210
1 4 9 0.9459 -0.1183
1 4 10 -0.6157 -0.1044
1 4 11 -0.1630 -0.0355
1 4 12 0.0497 0.0521
1 4 13 -0.0186 0.0586
1 5 0 -2.9408 -0.2660
1 5 1 0.2451 -0.1356
1 5 2 -0.4905 -0.0613
1 5 3 0.6123 0.0272
1 5 4 3.6224 0.1647
1 5 5 -3.3331 0.2166
1 5 6 0.6567 0.1519
1 5 7 -1.9246 0.0041
1 5 8 2.2304 -0.0814
1 5 9 -1.5636 -0.1651
1 5 10 0.0375 -0.1036
1 5 11 0.0406 -0.0692
1 5 12 -0.2639 -0.0369
1 5 13 0.1995 0.1034
1 5 14 0.2277 -0.0112
1 6 0 2.5341 -0.1682
1 6 1 -1.4083 -0.2089
1 6 2 -3.0762 -0.0655
1 6 3 -2.3697 0.0455
1 6 4 -0.7804 0.1397
1 6 5 -0.1851 0.1790
1 6 6 -0.7865 0.1604
1 6 7 1.4957 0.0705
1 6 8 -2.5209 -0.0662
1 6 9 1.6941 -0.1370
1 6 10 -0.5696 -0.1252
1 6 11 0.3055 -0.0723
1 6 12 -0.4968 -0.0081
1 6 13 -0.1277 0.0375
1 6 14 -1.5642 0.2391
1 7 0 0.2035 -0.1987
1 7 1 0.8890 -0.1379
1 7 2 2.9141 -0.0978
1 7 3 4.0003 0.0295
1 7 4 -2.0404 0.0858
1 7 5 3.1502 0.1567
1 7 6 1.1667 0.1479
1 7 7 -1.5813 0.0742
1 7 8 2.1920 -0.0524
1 7 9 -1.2504 -0.1169
1 7 10 1.3526 -0.1385
1 7 11 -0.1306 -0.0589
1 7 12 0.8964 -0.0016
1 7 13 0.0491 -0.0309
1 7 14 0.7531 0.0813
1 8 0 -1.9472 -0.1250
1 8 1 -0.6898 -0.0903
1 8 2 -0.6880 -0.0536
1 8 3 -2.1555 0.0251
1 8 4 2.7171 0.0734
1 8 5 -2.8310 0.1402
1 8 6 -1.1927 0.1217
1 8 7 1.7571 0.0672
1 8 8 -1.4337 -0.0304
1 8 9 0.6826 -0.0858
1 8 10 -1.1089 -0.1134
1 8 11 0.3815 -0.0819
1 8 12 -0.3083 0.0131
1 8 13 0.4563 -0.0010
1 9 0 1.5696 -0.0790
1 9 1 0.3894 -0.1477
1 9 2 -1.7316 -0.0644
1 9 3 -0.3674 -0.0028
1 9 4 -0.9740 0.0782
1 9 5 1.0542 0.0918
1 9 6 0.7271 0.1003
1 9 7 -1.5298 0.0518
1 9 8 1.2177 -0.0024
1 9 9 -0.7939 -0.0543
1 9 10 -0.1177 -0.0922
1 9 11 -1.2143 -0.0497
1 9 12 0.3330 -0.0207
1 9 13 0.0108 0.0654
1 10 0 -1.4580 -0.0965
1 10 1 -0.3438 -0.0845
1 10 2 1.9577 -0.0571
1 10 3 -0.0341 -0.0096
1 10 4 0.1158 0.0583
1 10 5 -0.3791 0.0810
1 10 6 0.9643 0.0594
1 10 7 1.1512 0.0364
1 10 8 -1.5390 0.0143
1 10 9 0.5752 -0.0662
1 10 10 -0.3837 -0.0405
1 10 11 1.0618 -0.0651
1 10 12 -0.3416 -0.0839
1 10 13 0.4651 0.0580
1 11 0 0.7403 -0.0300
1 11 1 -0.3439 -0.0141
1 11 2 -0.8168 -0.0268
1 11 3 1.4414 -0.0010
1 11 4 -0.1448 0.0522
1 11 5 1.5987 0.0372
1 11 6 -1.4050 0.0543
1 11 7 -0.4620 0.0157
1 11 8 1.0860 -0.0003
1 11 9 -0.6569 -0.0523
1 11 10 0.8120 -0.0484
1 11 11 -0.3061 -0.0416
1 11 12 0.6081 0.0118
1 11 13 -0.4005 -0.1300
1 12 0 0.2516 -0.0989
1 12 1 1.8938 -0.0132
1 12 2 0.8589 -0.0277
1 12 3 0.6548 0.0215
1 12 4 1.3184 0.0204
1 12 5 -0.6286 0.0310
1 12 6 0.6246 0.0435
1 12 7 0.1314 0.0199
1 12 8 -0.3753 -0.0257
1 12 9 0.7230 0.0398
1 12 10 -0.0441 -0.0356
1 12 11 -0.0639 -0.0213
1 12 12 -0.7607 0.0801
1 13 3 -1.6392 0.0182
1 13 4 -0.0723 -0.0049
1 13 5 -0.7523 0.0993
1 13 6 0.3678 -0.0176
1 13 7 -0.2546 0.0882
1 13 8 0.3826 -0.0099
1 13 9 0.0543 0.0067
1 14 5 1.2220 -0.0489
1 14 6 -0.4510 0.1212
1 14 7 0.4284 -0.1101
2 -11 0 -0.3189 0.0361
2 -11 1 -1.0498 0.0168
2 -10 0 0.2094 0.1343
2 -10 1 -0.5210 0.0793
2 -10 2 -0.1059 0.0240
2 -10 3 -0.5622 0.0240
2 -9 0 -0.1777 0.1593
2 -9 1 1.9738 0.1024
2 -9 2 -1.1319 0.0948
2 -9 3 -0.0395 0.0598
2 -9 4 -0.2514 0.0210
2 -9 5 -1.5399 0.0182
2 -8 0 0.8234 0.1508
2 -8 1 -2.4849 0.1566
2 -8 2 0.5861 0.1355
2 -8 3 0.5970 0.0337
2 -8 4 -1.3586 0.0124
2 -8 5 0.8674 0.0049
2 -8 6 -1.2852 -0.0178
2 -8 7 0.3846 0.0168
2 -7 0 -2.6848 0.2226
2 -7 1 0.9909 0.2158
2 -7 2 -0.3993 0.0956
2 -7 3 -1.6365 0.0687
2 -7 4 1.6062 0.0295
2 -7 5 -1.2341 -0.0074
2 -7 6 -0.1588 -0.0102
2 -7 7 -0.5549 0.0052
2 -7 8 -0.0220 0.0443
2 -6 0 3.5921 0.3488
2 -6 1 1.7670 0.2534
2 -6 2 0.3332 0.1488
2 -6 3 1.2864 0.1000
2 -6 4 0.4982 0.0043
2 -6 5 1.4674 -0.0115
2 -6 6 0.1449 -0.0199
2 -6 7 0.3441 -0.0447
2 -6 8 -1.3599 -0.0025
2 -6 9 1.3062 -0.0932
2 -5 0 -1.5385 0.3675
2 -5 1 -3.6769 0.2889
2 -5 2 -0.2218 0.2185
2 -5 3 -1.0279 0.0816
2 -5 4 -3.6829 0.0216
2 -5 5 -0.5829 -0.0343
2 -5 6 0.7037 -0.0323
2 -5 7 -0.0433 -0.0371
2 -5 8 2.2894 -0.0365
2 -5 9 -1.3209 -0.0133
2 -5 10 1.2555 -0.0128
2 -4 0 -4.5490 0.3967
2 -4 1 0.6403 0.3174
2 -4 2 0.1777 0.2260
2 -4 3 -0.6995 0.0821
2 -4 4 3.3051 0.0416
2 -4 5 -1.8592 0.0101
2 -4 6 -1.8641 0.0092
2 -4 7 -0.8119 0.0088
2 -4 8 -1.7772 0.0037
2 -4 9 1.2447 0.0355
2 -4 10 -0.8141 0.0142
2 -3 0 8.5309 0.4493
2 -3 1 -0.3709 0.2790
2 -3 2 -3.7625 0.2120
2 -3 3 2.0319 0.1466
2 -3 4 -1.2714 0.0887
2 -3 5 2.4831 0.0599
2 -3 6 1.0103 0.0049
2 -3 7 0.1571 0.0145
2 -3 8 0.0308 0.0066
2 -3 9 -1.2971 0.0086
2 -3 10 0.5710 0.0171
2 -3 11 -2.5796 -0.0527
2 -2 0 -0.9387 0.3670
2 -2 1 9.4881 0.4182
2 -2 2 4.8835 0.2547
2 -2 3 -1.2589 0.2292
2 -2 4 -1.2561 0.1232
2 -2 5 -3.2669 0.0529
2 -2 6 0.6083 0.0234
2 -2 7 0.3200 -0.0065
2 -2 8 1.7132 -0.0314
2 -2 9 2.2958 -0.0164
2 -2 10 -0.2671 -0.0177
2 -2 11 2.9937 0.0125
2 -1 0 -17.3239 0.3485
2 -1 1 -24.6944 0.5221
2 -1 2 -1.7368 0.3721
2 -1 3 -5.6589 0.2611
2 -1 4 -0.0402 0.1278
2 -1 5 3.2343 0.0677
2 -1 6 -2.6890 -0.0015
2 -1 7 1.7490 -0.0284
2 -1 8 -0.7767 -0.0271
2 -1 9 -0.9184 -0.0591
2 -1 10 1.3760 -0.0271
2 -1 11 -2.6804 0.0033
2 0 0 24.8951 0.3467
2 0 1 33.4310 0.2775
2 0 2 -5.7572 0.3962
2 0 3 8.5766 0.2435
2 0 4 -0.1113 0.1590
2 0 5 -5.1630 0.0535
2 0 6 2.9771 0.0233
2 0 7 -2.3832 -0.0425
2 0 8 0.6372 -0.0610
2 0 9 0.4825 -0.0509
2 0 10 -0.9952 -0.0693
2 0 11 1.9662 -0.0636
2 0 12 -1.0758 0.0175
2 1 0 -9.2259 0.0213
2 1 1 -29.6157 0.0631
2 1 2 14.4475 0.2437
2 1 3 -3.9381 0.1717
2 1 4 3.3076 0.1871
2 1 5 7.8274 0.0839
2 1 6 0.8687 0.0195
2 1 7 2.0702 -0.0429
2 1 8 0.5536 -0.0788
2 1 9 -0.1063 -0.1009
2 1 10 1.0204 -0.0486
2 1 11 -0.9707 -0.0317
2 1 12 -0.2923 0.0112
2 2 0 -13.3728 -0.1653
2 2 1 15.8416 -0.0522
2 2 2 -18.3143 -0.0449
2 2 3 0.6848 0.1768
2 2 4 -6.6628 0.1682
2 2 5 -5.3007 0.1725
2 2 6 -4.0303 0.0337
2 2 7 -0.2544 -0.0387
2 2 8 -0.5382 -0.1090
2 2 9 0.8890 -0.1216
2 2 10 -0.7487 -0.0714
2 2 11 0.5643 0.0019
2 2 12 -0.2102 0.0610
2 2 13 2.1296 0.1190
2 3 0 15.7360 -0.1002
2 3 1 -7.3713 -0.1448
2 3 2 10.2636 -0.1194
2 3 3 -3.1677 0.1870
2 3 4 10.2375 0.2050
2 3 5 -0.3973 0.1695
2 3 6 4.1382 0.0562
2 3 7 -1.5413 -0.0574
2 3 8 -0.1726 -0.1552
2 3 9 -0.8283 -0.1221
2 3 10 0.4370 -0.1004
2 3 11 -0.4237 0.0158
2 3 12 0.5278 0.0577
2 3 13 -1.1664 0.0924
2 4 0 -5.3858 -0.1551
2 4 1 3.3311 -0.1617
2 4 2 -2.8197 -0.0262
2 4 3 4.9567 -0.0189
2 4 4 -10.3460 0.1777
2 4 5 5.3126 0.1585
2 4 6 -2.0236 0.0936
2 4 7 1.7193 -0.0643
2 4 8 -0.5881 -0.1238
2 4 9 -0.3561 -0.1397
2 4 10 -0.1579 -0.0844
2 4 11 0.2443 -0.0129
2 4 12 -0.2256 0.0681
2 4 13 0.8743 0.1332
2 5 0 -2.1940 -0.2239
2 5 1 -0.8101 -0.1525
2 5 2 2.4175 -0.0485
2 5 3 -3.4862 -0.0391
2 5 4 6.5617 0.1191
2 5 5 -5.0238 0.1459
2 5 6 1.3576 0.0856
2 5 7 -1.3811 -0.0375
2 5 8 1.2705 -0.1152
2 5 9 0.0865 -0.1678
2 5 10 -0.6112 -0.0874
2 5 11 -0.3530 -0.0108
2 5 12 0.3544 0.0785
2 5 13 -0.4668 0.0745
2 5 14 0.8660 0.1881
2 6 0 2.5228 -0.1687
2 6 1 -0.7185 -0.1424
2 6 2 -3.2270 -0.0933
2 6 3 -0.6276 0.0327
2 6 4 -3.1908 0.0469
2 6 5 1.3811 0.1365
2 6 6 -2.7171 0.0725
2 6 7 1.8601 -0.0062
2 6 8 -1.9666 -0.1124
2 6 9 0.0572 -0.1291
2 6 10 0.2947 -0.0940
2 6 11 -0.2004 -0.0149
2 6 12 -0.1511 0.0392
2 6 13 0.6652 0.0933
2 6 14 -1.1602 0.1451
2 7 0 0.1501 -0.1143
2 7 1 1.5462 -0.1532
2 7 2 1.1809 -0.0840
2 7 3 3.0306 0.0240
2 7 4 0.4178 0.0433
2 7 5 0.1158 0.0816
2 7 6 4.0435 0.0800
2 7 7 -2.6230 0.0337
2 7 8 2.0684 -0.0794
2 7 9 -0.3470 -0.1226
2 7 10 0.2554 -0.1167
2 7 11 1.0926 -0.0541
2 7 12 -0.4430 0.0474
2 7 13 -0.1272 0.1077
2 7 14 0.1477 0.0063
2 8 0 -1.6324 -0.1503
2 8 1 -1.8895 -0.0846
2 8 2 1.0101 -0.0979
2 8 3 -1.7622 -0.0183
2 8 4 0.6036 0.0524
2 8 5 0.2470 0.0545
2 8 6 -3.8649 0.0988
2 8 7 2.3288 0.0377
2 8 8 -1.5434 -0.0413
2 8 9 0.3517 -0.1185
2 8 10 -0.1392 -0.1294
2 8 11 -0.2899 -0.0720
2 8 12 1.3076 0.0288
2 8 13 -0.1758 0.0263
2 8 14 1.3406 0.0549
2 9 0 1.2983 -0.0142
2 9 1 1.0542 -0.0848
2 9 2 -1.9493 -0.0679
2 9 3 -0.4793 -0.0309
2 9 4 0.4077 0.0458
2 9 5 -0.5142 0.0821
2 9 6 1.9715 0.0746
2 9 7 -1.4071 0.0163
2 9 8 1.2079 -0.0226
2 9 9 0.2756 -0.0981
2 9 10 -0.3837 -0.1067
2 9 11 -1.1109 -0.0571
2 9 12 -0.9317 -0.0346
2 9 13 0.2360 0.0674
2 9 14 -0.8057 0.0161
2 10 0 -1.3504 -0.0244
2 10 1 -0.7141 -0.0922
2 10 2 0.8528 -0.0306
2 10 3 0.3227 -0.0533
2 10 4 -1.3875 0.0449
2 10 5 0.1698 0.0730
2 10 6 -0.2930 0.0351
2 10 7 0.8681 0.0207
2 10 8 -1.3819 -0.0164
2 10 9 -0.7446 -0.0596
2 10 10 -0.0611 -0.1005
2 10 11 0.4581 -0.0481
2 10 12 -0.3219 -0.0480
2 10 13 0.1584 0.0135
2 10 14 0.1772 0.0953
2 11 0 0.8675 -0.1156
2 11 1 0.2388 -0.0180
2 11 2 -0.1673 -0.0647
2 11 3 -0.0543 0.0198
2 11 4 0.9777 -0.0044
2 11 5 0.5047 0.0490
2 11 6 0.5371 0.0175
2 11 7 -0.2754 0.0216
2 11 8 1.0956 -0.0537
2 11 9 -0.3194 -0.0450
2 11 10 -0.1379 -0.0607
2 11 11 0.0136 -0.0906
2 11 12 1.0043 0.0020
2 11 13 0.3192 -0.0540
2 11 14 0.4859 -0.0362
2 12 0 -0.1838 -0.0076
2 12 1 0.2762 -0.0985
2 12 2 0.6918 -0.0590
2 12 3 1.0217 -0.0211
2 12 4 0.6918 0.0042
2 12 5 0.3207 0.0277
2 12 6 -0.0229 0.0460
2 12 7 0.1001 0.0052
2 12 8 -0.1479 -0.0244
2 12 9 0.4392 -0.0333
2 12 10 -0.3282 0.0186
2 12 11 -0.0076 -0.0701
2 12 12 -1.0086 0.0246
2 13 3 0.1895 -0.0589
2 13 4 -0.1286 0.0667
2 13 5 0.2493 -0.0291
2 13 6 -0.7057 0.0905
2 13 7 -0.0315 -0.0449
2 13 8 -0.9269 0.0493
2 13 9 0.6238 -0.0686
2 13 10 1.6058 -0.0774
2 14 5 -1.2437 0.1387
2 14 6 0.5093 -0.1014
2 14 7 -0.4538 0.1130
2 14 8 1.1315 -0.0751
3 -11 0 -1.2923 0.0943
3 -10 0 0.1334 0.0886
3 -10 1 -0.3226 0.0787
3 -10 2 0.1881 0.0305
3 -10 3 -0.4978 0.0277
3 -9 0 0.9821 0.1536
3 -9 1 0.8786 0.0980
3 -9 2 -0.2224 0.0634
3 -9 3 -0.7860 0.0528
3 -9 4 0.3149 -0.0062
3 -9 5 -1.5705 -0.0355
3 -8 0 -1.4869 0.2060
3 -8 1 0.2018 0.1641
3 -8 2 -0.7414 0.1314
3 -8 3 1.6340 0.0122
3 -8 4 -1.2614 0.0215
3 -8 5 0.4344 -0.0034
3 -8 6 -0.3161 0.0042
3 -8 7 -0.8658 0.0176
3 -7 0 0.0490 0.2834
3 -7 1 -3.1831 0.2167
3 -7 2 2.0279 0.1118
3 -7 3 -2.5872 0.0439
3 -7 4 1.4059 -0.0034
3 -7 5 -0.2258 -0.0188
3 -7 6 -0.4222 0.0106
3 -7 7 0.8318 -0.0197
3 -7 8 0.2087 0.0056
3 -6 0 1.6911 0.3400
3 -6 1 5.3225 0.2920
3 -6 2 -2.4773 0.1528
3 -6 3 2.4101 0.1010
3 -6 4 -0.7332 -0.0101
3 -6 5 1.2192 -0.0215
3 -6 6 -0.2732 -0.0849
3 -6 7 -0.1188 -0.0203
3 -6 8 -1.1039 0.0138
3 -6 9 0.9539 -0.1216
3 -5 0 0.4619 0.4947
3 -5 1 -5.2666 0.3444
3 -5 2 1.7661 0.1999
3 -5 3 -1.8709 0.0558
3 -5 4 -1.0052 -0.0420
3 -5 5 -2.0729 -0.0656
3 -5 6 1.8200 -0.0231
3 -5 7 -0.6437 -0.0219
3 -5 8 1.9661 -0.0287
3 -5 9 -0.4268 0.0335
3 -5 10 -0.4541 0.0623
3 -4 0 -4.2704 0.5928
3 -4 1 2.1638 0.3383
3 -4 2 -1.3725 0.2192
3 -4 3 0.8530 0.0320
3 -4 4 0.1956 0.0029
3 -4 5 0.7704 -0.0444
3 -4 6 -3.5502 -0.0012
3 -4 7 0.0198 -0.0005
3 -4 8 -2.0281 0.0553
3 -4 9 -0.1243 0.0421
3 -4 10 0.5243 0.0224
3 -4 11 -0.1830 0.1225
3 -3 0 3.8902 0.5757
3 -3 1 1.6790 0.4573
3 -3 2 -1.8841 0.2111
3 -3 3 -0.8750 0.0734
3 -3 4 2.2008 0.0266
3 -3 5 -0.9541 0.0051
3 -3 6 2.8771 0.0005
3 -3 7 -1.5895 0.0094
3 -3 8 -0.0980 -0.0042
3 -3 9 -0.5166 0.0083
3 -3 10 -0.6777 -0.0222
3 -3 11 0.6320 -0.0748
3 -2 0 3.6346 0.5496
3 -2 1 0.7894 0.5081
3 -2 2 6.1466 0.2810
3 -2 3 -0.9589 0.1491
3 -2 4 -4.5128 0.0016
3 -2 5 0.0326 0.0128
3 -2 6 -2.6181 -0.0224
3 -2 7 2.9323 0.0119
3 -2 8 0.2309 -0.0235
3 -2 9 1.5545 -0.0340
3 -2 10 0.9520 -0.0119
3 -2 11 -0.5838 0.0406
3 -2 12 0.8131 -0.1273
3 -1 0 -15.7297 0.4592
3 -1 1 -16.0908 0.3630
3 -1 2 -9.4460 0.2617
3 -1 3 1.1226 0.1337
3 -1 4 0.2680 0.0278
3 -1 5 1.0238 -0.0402
3 -1 6 0.5562 -0.0321
3 -1 7 -2.9426 -0.0325
3 -1 8 2.0814 -0.0513
3 -1 9 -1.8666 -0.0373
3 -1 10 0.1059 -0.0768
3 -1 11 0.1198 -0.0657
3 -1 12 -1.3169 0.0201
3 -1 13 0.0819 -0.1660
3 0 0 16.0258 0.4629
3 0 1 28.5857 0.3617
3 0 2 5.4508 0.2548
3 0 3 -4.0691 0.0875
3 0 4 3.0216 0.0217
3 0 5 -5.1670 -0.0432
3 0 6 -0.6279 -0.0478
3 0 7 1.7043 -0.0703
3 0 8 -3.0069 -0.0222
3 0 9 2.6105 -0.0634
3 0 10 -1.1619 -0.0362
3 0 11 0.6076 -0.0395
3 0 12 0.0697 -0.0173
3 0 13 0.2753 0.0278
3 1 0 1.7846 0.4842
3 1 1 -23.9824 0.3302
3 1 2 2.4157 0.2553
3 1 3 9.1626 0.1215
3 1 4 -1.9568 -0.0046
3 1 5 7.5486 -0.0353
3 1 6 4.1016 -0.0472
3 1 7 -0.4963 -0.0586
3 1 8 3.1706 -0.0542
3 1 9 -2.0583 -0.0659
3 1 10 2.0200 -0.0279
3 1 11 -1.1548 -0.0274
3 1 12 0.4955 0.0662
3 1 13 -2.0714 0.0632
3 2 0 -16.6518 0.2479
3 2 1 10.9648 0.1499
3 2 2 -4.5630 0.0921
3 2 3 -8.8783 0.0663
3 2 4 -1.5118 0.0572
3 2 5 -4.4673 0.0127
3 2 6 -6.0170 -0.0378
3 2 7 1.4528 -0.0572
3 2 8 -1.7165 -0.1148
3 2 9 1.9414 -0.0863
3 2 10 -1.1720 -0.0680
3 2 11 1.2924 0.0186
3 2 12 -0.8615 0.0684
3 2 13 1.6352 0.1127
3 3 0 13.5034 0.0745
3 3 1 -3.2316 0.0940
3 3 2 0.8371 -0.0301
3 3 3 2.3346 0.0518
3 3 4 6.3787 0.0713
3 3 5 -0.0523 0.0335
3 3 6 3.8596 -0.0226
3 3 7 -2.2984 -0.0792
3 3 8 0.2214 -0.1249
3 3 9 -1.1138 -0.1039
3 3 10 0.6095 -0.0608
3 3 11 -0.5190 0.0240
3 3 12 0.5840 0.0099
3 3 13 -1.3761 0.1393
3 4 0 -3.6769 0.0517
3 4 1 0.7886 -0.0198
3 4 2 -0.4964 -0.0300
3 4 3 3.4843 0.0339
3 4 4 -7.5289 0.0599
3 4 5 3.4984 0.0568
3 4 6 0.2181 -0.0037
3 4 7 0.9096 -0.0812
3 4 8 -0.3302 -0.1124
3 4 9 -0.3797 -0.1101
3 4 10 -0.3754 -0.0767
3 4 11 0.4696 0.0030
3 4 12 0.2790 0.0894
3 4 13 1.0473 0.0293
3 5 0 -2.1146 -0.0432
3 5 1 -1.1667 -0.1016
3 5 2 3.3299 0.0016
3 5 3 -3.8502 -0.0645
3 5 4 4.8959 0.0505
3 5 5 -2.8194 0.0837
3 5 6 -1.4742 0.0215
3 5 7 0.5929 -0.0722
3 5 8 0.0919 -0.1162
3 5 9 1.1666 -0.1288
3 5 10 0.2886 -0.0612
3 5 11 -0.2144 -0.0025
3 5 12 0.0713 0.1203
3 5 13 0.0897 0.1119
3 5 14 0.7381 0.1275
3 6 0 1.6594 -0.1004
3 6 1 0.3156 -0.0819
3 6 2 -3.8714 -0.0535
3 6 3 0.4720 -0.0187
3 6 4 -2.3055 -0.0058
3 6 5 0.0635 0.0538
3 6 6 -0.5365 0.0269
3 6 7 -1.0839 -0.0610
3 6 8 0.4235 -0.1297
3 6 9 -1.8543 -0.1495
3 6 10 0.3286 -0.0519
3 6 11 -0.1662 0.0194
3 6 12 0.3220 0.0608
3 6 13 0.4497 0.1705
3 6 14 0.2518 0.0673
3 7 0 0.3657 -0.0636
3 7 1 1.5998 -0.0776
3 7 2 1.3749 -0.1059
3 7 3 1.5149 0.0298
3 7 4 0.4354 0.0150
3 7 5 0.5022 0.0166
3 7 6 2.4582 0.0140
3 7 7 0.8556 -0.0217
3 7 8 -1.0823 -0.1072
3 7 9 1.7061 -0.1041
3 7 10 -1.2490 -0.0831
3 7 11 1.0879 0.0093
3 7 12 -0.5728 0.0785
3 7 13 -0.4719 0.1416
3 7 14 -0.6261 0.1294
3 8 0 -1.1854 -0.0411
3 8 1 -1.8632 -0.0944
3 8 2 0.8261 -0.0779
3 8 3 -0.5280 -0.0573
3 8 4 -0.1661 0.0220
3 8 5 -0.5034 -0.0179
3 8 6 -2.4258 0.0246
3 8 7 -0.6351 -0.0017
3 8 8 1.1404 -0.0530
3 8 9 -1.4362 -0.1019
3 8 10 1.1845 -0.1120
3 8 11 -0.7420 -0.0163
3 8 12 1.4297 0.0733
3 8 13 0.2945 0.0821
3 8 14 0.8005 0.1729
3 9 0 1.1633 -0.0540
3 9 1 0.7356 -0.0121
3 9 2 -1.6548 -0.0291
3 9 3 -1.1241 -0.0672
3 9 4 1.1471 -0.0085
3 9 5 0.6781 0.0414
3 9 6 0.7022 0.0220
3 9 7 0.3476 -0.0068
3 9 8 -0.5383 -0.0371
3 9 9 1.4443 -0.1014
3 9 10 -0.7011 -0.1146
3 9 11 -0.1872 -0.0691
3 9 12 -1.5049 0.0305
3 9 13 0.4112 0.0401
3 9 14 -0.9266 0.0644
3 10 0 -0.7806 0.0328
3 10 1 -0.6470 -0.0412
3 10 2 0.7603 -0.0677
3 10 3 0.5998 -0.0117
3 10 4 -1.6804 -0.0264
3 10 5 -0.2089 0.0607
3 10 6 0.0434 -0.0001
3 10 7 -0.3545 0.0067
3 10 8 -0.3692 -0.0491
3 10 9 -1.1675 -0.0711
3 10 10 0.5530 -0.0862
3 10 11 -0.2469 -0.0771
3 10 12 0.4596 -0.0101
3 10 13 -1.1451 0.1191
3 10 14 0.9432 -0.0408
3 11 0 -0.0545 0.0001
3 11 1 1.1369 -0.1049
3 11 2 -0.2664 -0.0392
3 11 3 -0.4466 -0.0516
3 11 4 0.1104 0.0057
3 11 5 -0.6692 0.0047
3 11 6 0.4869 0.0403
3 11 7 0.4913 -0.0093
3 11 8 0.7594 -0.0226
3 11 9 -0.0180 -0.0673
3 11 10 -1.0183 -0.0282
3 11 11 -0.1109 -0.0249
3 11 12 -0.3487 -0.0658
3 11 13 1.1976 0.0210
3 12 0 0.3338 -0.0712
3 12 1 -1.7274 0.0707
3 12 2 0.3054 -0.0912
3 12 3 0.1035 -0.0436
3 12 4 0.9259 0.0046
3 12 5 0.6151 -0.0087
3 12 6 -0.2493 0.0580
3 12 7 0.3474 -0.0161
3 12 8 -0.1882 -0.0289
3 12 9 0.5039 -0.0292
3 12 10 -0.7401 -0.0751
3 12 11 -0.0856 -0.0610
3 12 12 -0.2305 0.0343
3 13 3 1.6204 -0.0781
3 13 4 -0.1480 -0.0584
3 13 5 1.1547 0.0493
3 13 6 0.5483 -0.0341
3 13 7 -1.0656 0.0631
3 13 8 -0.6958 -0.0740
3 13 9 -1.0090 -0.0145
3 13 10 2.3292 -0.0329
3 13 11 0.2303 0.0084
3 14 5 -2.5861 -0.0396
3 14 6 -1.7164 0.0759
3 14 7 0.0433 -0.0790
3 14 8 -0.0637 0.1087
4 -11 0 -1.0017 0.0278
4 -10 0 -0.3224 0.1128
4 -10 1 1.0137 0.0505
4 -10 2 -0.1179 0.0508
4 -10 3 -0.3998 0.0232
4 -9 0 2.0261 0.1556
4 -9 1 -0.5223 0.0658
4 -9 2 0.6572 0.1080
4 -9 3 -0.9732 0.0091
4 -9 4 0.0809 -0.0180
4 -9 5 -0.2072 -0.0333
4 -8 0 -3.0232 0.1893
4 -8 1 1.5139 0.1872
4 -8 2 -0.7827 0.0738
4 -8 3 2.0537 0.0322
4 -8 4 -0.1596 0.0039
4 -8 5 -0.7932 -0.0440
4 -8 6 0.3097 -0.0155
4 -8 7 -0.4547 0.0113
4 -7 0 2.7894 0.2939
4 -7 1 -5.1609 0.2379
4 -7 2 1.4534 0.1282
4 -7 3 -1.5765 0.0472
4 -7 4 -0.0724 -0.0411
4 -7 5 1.4292 -0.0091
4 -7 6 -1.1518 -0.0172
4 -7 7 1.3684 -0.0316
4 -7 8 0.9745 -0.0352
4 -6 0 -0.9772 0.4092
4 -6 1 7.9549 0.2703
4 -6 2 -2.6758 0.1708
4 -6 3 0.9606 0.0707
4 -6 4 0.4202 -0.0156
4 -6 5 -0.5990 -0.0595
4 -6 6 1.3711 -0.0737
4 -6 7 -1.1813 -0.0198
4 -6 8 -0.4975 0.0126
4 -6 9 0.7717 -0.0533
4 -5 0 1.3539 0.5681
4 -5 1 -5.5451 0.3922
4 -5 2 2.8128 0.1905
4 -5 3 -1.1856 0.0420
4 -5 4 -0.1742 -0.0629
4 -5 5 -0.7706 -0.0977
4 -5 6 0.0790 -0.0399
4 -5 7 0.8296 0.0017
4 -5 8 0.2926 0.0496
4 -5 9 0.1038 0.0199
4 -5 10 -0.2726 0.1643
4 -4 0 -2.7463 0.6796
4 -4 1 0.7207 0.4814
4 -4 2 -1.3404 0.2237
4 -4 3 1.1611 0.0060
4 -4 4 -1.8708 -0.0674
4 -4 5 0.7994 -0.0942
4 -4 6 -2.2015 -0.0416
4 -4 7 -1.0542 -0.0304
4 -4 8 0.0215 0.0238
4 -4 9 -0.7839 0.0767
4 -4 10 0.6766 0.0367
4 -4 11 0.9644 -0.0475
4 -3 0 1.1576 0.7332
4 -3 1 3.3692 0.5496
4 -3 2 -0.6007 0.3100
4 -3 3 -1.9868 0.0420
4 -3 4 4.0139 -0.0657
4 -3 5 -1.8392 -0.0733
4 -3 6 1.6507 -0.0444
4 -3 7 -0.8973 0.0237
4 -3 8 -2.2956 0.0325
4 -3 9 0.2013 0.0170
4 -3 10 -0.8856 -0.0272
4 -3 11 0.3370 0.0534
4 -3 12 2.8392 -0.1833
4 -2 0 5.7639 0.7778
4 -2 1 -2.2896 0.5895
4 -2 2 2.5296 0.2860
4 -2 3 1.5181 0.0929
4 -2 4 -6.8159 -0.0530
4 -2 5 1.2615 -0.0717
4 -2 6 -2.0565 -0.0662
4 -2 7 1.9715 0.0012
4 -2 8 1.9176 -0.0242
4 -2 9 -0.7376 -0.0000
4 -2 10 1.0669 -0.0456
4 -2 11 -0.9118 -0.0534
4 -2 12 -1.0898 -0.0446
4 -1 0 -13.9232 0.7654
4 -1 1 -8.3460 0.5282
4 -1 2 -6.7456 0.2683
4 -1 3 -0.3591 0.0623
4 -1 4 4.9759 -0.0875
4 -1 5 -0.8105 -0.1079
4 -1 6 1.4558 -0.0820
4 -1 7 -3.2755 -0.0569
4 -1 8 0.2510 -0.0243
4 -1 9 0.8326 -0.0440
4 -1 10 -1.4695 -0.0262
4 -1 11 0.5491 -0.0326
4 -1 12 -0.5797 -0.0582
4 -1 13 -0.6739 -0.0264
4 0 0 11.5294 0.7470
4 0 1 15.2404 0.5179
4 0 2 6.9520 0.2841
4 0 3 -4.9053 0.0272
4 0 4 -2.4254 -0.1042
4 0 5 -2.0252 -0.1647
4 0 6 -3.3817 -0.1039
4 0 7 2.3831 -0.0847
4 0 8 -2.5827 -0.0115
4 0 9 0.1656 -0.0310
4 0 10 0.6700 -0.0224
4 0 11 -0.6442 -0.0399
4 0 12 -0.1524 0.0614
4 0 13 -0.6629 -0.0619
4 1 0 0.8180 0.7588
4 1 1 -8.9621 0.5529
4 1 2 -4.2543 0.2661
4 1 3 9.6094 0.0377
4 1 4 1.7615 -0.1083
4 1 5 2.7902 -0.1515
4 1 6 5.8414 -0.1152
4 1 7 -1.3388 -0.0599
4 1 8 2.6298 -0.0324
4 1 9 -1.3967 -0.0220
4 1 10 0.5990 -0.0280
4 1 11 0.1061 -0.0259
4 1 12 -0.1161 0.0065
4 1 13 -0.0397 0.1885
4 2 0 -7.0290 0.6308
4 2 1 -0.1440 0.4573
4 2 2 5.1072 0.2605
4 2 3 -7.1345 0.0723
4 2 4 -3.6751 -0.0739
4 2 5 -1.0353 -0.1145
4 2 6 -5.9307 -0.1271
4 2 7 1.1295 -0.0654
4 2 8 -0.6758 -0.0777
4 2 9 1.7399 -0.0443
4 2 10 -0.8209 -0.0306
4 2 11 0.5111 0.0428
4 2 12 0.3043 0.0443
4 2 13 -0.2433 0.1223
4 3 0 3.7387 0.4145
4 3 1 4.3909 0.3312
4 3 2 -4.9227 0.1906
4 3 3 1.0743 0.0119
4 3 4 6.5022 -0.0429
4 3 5 -0.3044 -0.1039
4 3 6 1.8076 -0.1092
4 3 7 -1.1774 -0.0921
4 3 8 -1.2206 -0.0781
4 3 9 -0.9477 -0.0418
4 3 10 0.3480 -0.0136
4 3 11 -0.7607 0.0212
4 3 12 -0.2658 0.1060
4 3 13 -0.4541 0.0225
4 4 0 1.3650 0.2637
4 4 1 -3.0803 0.2179
4 4 2 1.4564 0.0664
4 4 3 3.0780 0.0519
4 4 4 -4.9491 0.0090
4 4 5 0.7784 -0.0451
4 4 6 3.1632 -0.0832
4 4 7 -0.3169 -0.1254
4 4 8 0.7177 -0.0821
4 4 9 -0.5006 -0.0752
4 4 10 -0.2574 -0.0164
4 4 11 0.8108 0.0180
4 4 12 0.3886 0.0533
4 4 13 1.2025 0.0792
4 4 14 0.1909 -0.0222
4 5 0 -3.5133 0.1524
4 5 1 0.2647 0.0783
4 5 2 1.7942 0.0527
4 5 3 -1.7358 0.0472
4 5 4 1.3442 -0.0285
4 5 5 0.9865 0.0060
4 5 6 -4.2590 -0.0417
4 5 7 1.6074 -0.0939
4 5 8 -0.4924 -0.1005
4 5 9 1.2849 -0.0730
4 5 10 1.1064 -0.0292
4 5 11 0.4881 0.0410
4 5 12 0.2160 0.0324
4 5 13 0.0642 0.0989
4 5 14 1.2344 0.0764
4 6 0 1.8201 0.0845
4 6 1 -1.1000 -0.0049
4 6 2 -2.0777 0.0546
4 6 3 -1.5754 -0.0423
4 6 4 1.2945 0.0105
4 6 5 -2.2625 -0.0034
4 6 6 2.2336 -0.0268
4 6 7 -2.5216 -0.0545
4 6 8 0.9852 -0.1160
4 6 9 -1.6850 -0.0935
4 6 10 -0.4324 -0.0414
4 6 11 -0.0911 0.0253
4 6 12 1.0077 0.1006
4 6 13 0.2061 0.1100
4 6 14 0.4668 0.1036
4 7 0 -0.5041 0.0022
4 7 1 2.6868 0.0217
4 7 2 0.0498 -0.0312
4 7 3 2.9658 -0.0123
4 7 4 -1.8425 0.0109
4 7 5 2.1975 -0.0183
4 7 6 0.0291 -0.0017
4 7 7 2.9971 -0.0629
4 7 8 -1.7361 -0.1011
4 7 9 1.4380 -0.1043
4 7 10 -0.6812 -0.0273
4 7 11 -0.0648 0.0368
4 7 12 -0.6045 0.1044
4 7 13 -0.1062 0.0944
4 7 14 -0.7500 0.1288
4 8 0 -0.3421 0.0395
4 8 1 -1.8513 0.0213
4 8 2 1.7432 -0.0584
4 8 3 -1.4541 0.0363
4 8 4 1.3864 -0.0261
4 8 5 -2.4625 -0.0074
4 8 6 -0.5523 -0.0323
4 8 7 -2.3013 -0.0345
4 8 8 1.7550 -0.0725
4 8 9 -0.9347 -0.0795
4 8 10 0.4080 -0.0655
4 8 11 0.2740 0.0122
4 8 12 0.3423 0.1090
4 8 13 0.4840 0.1298
4 8 14 0.3115 0.1183
4 8 15 -1.1860 0.1032
4 9 0 1.4862 0.0060
4 9 1 0.0828 -0.0277
4 9 2 -1.6564 0.0099
4 9 3 -1.0203 -0.0633
4 9 4 -0.3121 -0.0111
4 9 5 2.4976 -0.0168
4 9 6 -0.5401 -0.0332
4 9 7 1.4322 -0.0228
4 9 8 -1.1692 -0.0415
4 9 9 0.2861 -0.0765
4 9 10 -0.3136 -0.0789
4 9 11 -0.8422 -0.0165
4 9 12 -0.2312 0.0373
4 9 13 -0.1163 0.1361
4 9 14 -0.2663 0.1197
4 9 15 0.8713 0.0138
4 10 0 -1.1524 0.0136
4 10 1 0.9152 0.0066
4 10 2 -0.1234 -0.0171
4 10 3 1.7521 -0.0617
4 10 4 -0.9178 -0.0062
4 10 5 -0.8464 -0.0110
4 10 6 1.4187 0.0113
4 10 7 -1.7850 -0.0391
4 10 8 0.9124 -0.0192
4 10 9 -0.2302 -0.0838
4 10 10 0.9913 -0.0771
4 10 11 0.6764 -0.0315
4 10 12 -0.1918 0.0289
4 10 13 -0.2090 0.1051
4 10 14 0.3279 0.0528
4 11 0 0.2752 0.1256
4 11 1 -0.4210 -0.0050
4 11 2 1.5511 -0.0833
4 11 3 -2.0579 -0.0073
4 11 4 0.1824 -0.0721
4 11 5 -1.1666 0.0301
4 11 6 -1.4205 0.0105
4 11 7 2.2176 0.0167
4 11 8 -1.5118 -0.0597
4 11 9 0.8203 -0.0096
4 11 10 -1.4366 -0.0361
4 11 11 -0.7175 -0.0268
4 11 12 -0.4119 0.0365
4 11 13 -0.6697 0.0559
4 12 0 -0.0272 -0.1297
4 12 1 -0.7368 0.0155
4 12 2 -1.8560 0.0461
4 12 3 1.4783 -0.0533
4 12 4 -0.4418 -0.0235
4 12 5 0.6177 0.0003
4 12 6 0.3661 0.0096
4 12 7 -1.1460 0.0162
4 12 8 2.4988 -0.0262
4 12 9 -1.2300 -0.0394
4 12 10 0.2100 -0.0434
4 12 11 -0.4451 -0.0386
4 12 12 -0.3412 0.0014
4 13 4 1.1324 0.0103
4 13 5 -0.2494 -0.0712
4 13 6 1.7632 0.0862
4 13 7 -0.1995 -0.0432
4 13 8 -2.1178 0.0421
4 13 9 0.3603 -0.0878
4 13 10 -0.0573 0.0181
4 13 11 0.5954 -0.0285
4 14 6 -4.3964 -0.1167
4 14 7 -0.3562 0.1195
4 14 8 -0.7489 -0.0972
4 14 9 -0.5347 0.0136
5 -11 0 -0.6810 0.1511
5 -10 0 0.4722 0.0608
5 -10 1 0.0569 0.0537
5 -10 2 1.4179 0.0342
5 -10 3 -1.1387 0.0823
5 -9 0 0.5837 0.0394
5 -9 1 0.6906 0.0796
5 -9 2 -0.9662 0.0832
5 -9 3 0.1991 0.0225
5 -9 4 0.0455 -0.0073
5 -9 5 0.4851 0.0277
5 -8 0 -0.9621 0.1852
5 -8 1 -0.2278 0.1374
5 -8 2 0.9481 0.0759
5 -8 3 1.0567 0.0230
5 -8 4 0.0923 -0.0021
5 -8 5 -0.1486 -0.0647
5 -8 6 -1.2100 -0.0190
5 -8 7 0.7589 -0.0861
5 -7 0 1.0022 0.2799
5 -7 1 -1.9661 0.1956
5 -7 2 -1.7818 0.1169
5 -7 3 0.4612 0.0653
5 -7 4 -0.4765 -0.0191
5 -7 5 0.6065 -0.0297
5 -7 6 0.9417 -0.0497
5 -7 7 -0.3935 -0.0513
5 -7 8 1.8130 -0.0947
5 -6 0 0.1989 0.3807
5 -6 1 4.8669 0.2861
5 -6 2 1.9006 0.1547
5 -6 3 -2.4007 0.0325
5 -6 4 2.1098 -0.0440
5 -6 5 -0.4050 -0.0852
5 -6 6 0.7819 -0.0774
5 -6 7 0.7147 0.0130
5 -6 8 -0.9616 0.0044
5 -5 0 -0.3914 0.5377
5 -5 1 -2.9148 0.3902
5 -5 2 0.5633 0.2068
5 -5 3 2.4215 0.0412
5 -5 4 -1.7570 -0.0586
5 -5 5 0.9233 -0.1196
5 -5 6 -0.6163 -0.0642
5 -5 7 0.3884 -0.0240
5 -5 8 0.4781 0.0758
5 -5 9 0.0484 0.0320
5 -5 10 -0.7337 0.1154
5 -4 0 0.4360 0.6620
5 -4 1 -2.4431 0.5243
5 -4 2 -1.2876 0.2851
5 -4 3 -0.3908 0.0450
5 -4 4 -1.2300 -0.1161
5 -4 5 -1.6627 -0.1149
5 -4 6 -0.4548 -0.0849
5 -4 7 -1.4268 -0.0234
5 -4 8 0.4675 0.0453
5 -4 9 -0.0714 0.0163
5 -4 10 1.3031 0.1316
5 -3 0 -2.0963 0.8171
5 -3 1 6.4081 0.6129
5 -3 2 -0.5334 0.3085
5 -3 3 -1.6907 0.0464
5 -3 4 3.2030 -0.1083
5 -3 5 0.5372 -0.1431
5 -3 6 -0.7970 -0.0919
5 -3 7 0.0965 0.0045
5 -3 8 -2.5657 0.0342
5 -3 9 -0.7942 0.0902
5 -3 10 -0.3439 -0.0210
5 -3 11 0.2048 0.0179
5 -2 0 6.7961 0.9429
5 -2 1 -3.8411 0.6499
5 -2 2 2.2982 0.3339
5 -2 3 1.3435 0.0221
5 -2 4 -4.4422 -0.1070
5 -2 5 -1.0756 -0.1457
5 -2 6 1.3405 -0.1006
5 -2 7 0.3310 -0.0391
5 -2 8 2.4977 0.0017
5 -2 9 -0.1585 0.0113
5 -2 10 -0.6487 -0.0443
5 -2 11 0.0402 -0.0325
5 -2 12 -0.2154 -0.2239
5 -1 0 -10.4506 1.0448
5 -1 1 -4.4203 0.7572
5 -1 2 -3.8404 0.3816
5 -1 3 0.2451 0.0777
5 -1 4 3.5486 -0.1387
5 -1 5 1.8902 -0.1860
5 -1 6 -1.6184 -0.1197
5 -1 7 -0.7488 -0.0645
5 -1 8 -1.7836 -0.0158
5 -1 9 1.2451 0.0145
5 -1 10 -0.1937 0.0057
5 -1 11 -0.6146 -0.0072
5 -1 12 -0.9620 0.0864
5 -1 13 1.3104 -0.0319
5 0 0 7.3880 1.0130
5 0 1 7.6434 0.7799
5 0 2 3.2842 0.4056
5 0 3 -3.5182 0.0878
5 0 4 -2.6984 -0.1483
5 0 5 -2.6420 -0.2094
5 0 6 -1.0825 -0.1691
5 0 7 -0.6837 -0.0692
5 0 8 0.2099 -0.0096
5 0 9 -1.9919 -0.0114
5 0 10 0.4743 0.0178
5 0 11 -0.5542 0.0051
5 0 12 -0.1685 -0.0248
5 0 13 -2.5840 0.0846
5 1 0 -0.9904 0.9576
5 1 1 -2.1176 0.7222
5 1 2 -2.7525 0.3819
5 1 3 4.9898 0.0290
5 1 4 2.7011 -0.1534
5 1 5 1.0660 -0.2106
5 1 6 3.2032 -0.1629
5 1 7 0.5272 -0.0702
5 1 8 -1.0740 0.0059
5 1 9 0.6890 0.0054
5 1 10 -0.9488 -0.0043
5 1 11 1.1340 -0.0245
5 1 12 -0.2194 0.0401
5 1 13 1.1155 0.0394
5 2 0 -0.9462 0.8458
5 2 1 -3.6810 0.6781
5 2 2 4.4788 0.4034
5 2 3 -1.6472 0.1137
5 2 4 -3.6408 -0.1282
5 2 5 -0.0474 -0.2261
5 2 6 -3.1505 -0.1790
5 2 7 -0.2791 -0.0822
5 2 8 2.0130 -0.0067
5 2 9 -0.4169 0.0258
5 2 10 0.7977 0.0264
5 2 11 -1.5231 0.0147
5 2 12 0.9874 0.0562
5 2 13 -0.6066 0.1161
5 3 0 -0.8092 0.6479
5 3 1 5.7443 0.5720
5 3 2 -3.0505 0.3618
5 3 3 -1.5180 0.1057
5 3 4 4.3560 -0.0862
5 3 5 0.9114 -0.1658
5 3 6 -0.5463 -0.1634
5 3 7 -0.3273 -0.0966
5 3 8 -2.6700 -0.0386
5 3 9 0.3620 0.0235
5 3 10 -1.3166 0.0171
5 3 11 0.5196 0.0548
5 3 12 -1.9407 0.0549
5 3 13 -0.2576 0.1067
5 3 14 -0.9299 0.0224
5 4 0 2.4799 0.4702
5 4 1 -3.0920 0.3942
5 4 2 0.9458 0.2582
5 4 3 2.5303 0.0705
5 4 4 -1.4399 -0.0210
5 4 5 -1.8960 -0.1136
5 4 6 3.7566 -0.1353
5 4 7 -0.4078 -0.1185
5 4 8 1.0211 -0.0620
5 4 9 -1.0953 -0.0051
5 4 10 0.7731 0.0313
5 4 11 -0.2251 0.0694
5 4 12 1.5785 0.0699
5 4 13 0.3253 0.0100
5 4 14 0.3636 0.0265
5 5 0 -2.1353 0.3216
5 5 1 0.1514 0.2530
5 5 2 0.3646 0.1623
5 5 3 0.5760 0.1129
5 5 4 -1.7622 -0.0011
5 5 5 3.1127 -0.0702
5 5 6 -3.7211 -0.1092
5 5 7 0.7588 -0.1149
5 5 8 -0.2388 -0.0641
5 5 9 1.0404 -0.0324
5 5 10 0.6114 0.0466
5 5 11 1.5081 0.0496
5 5 12 -0.3548 0.0310
5 5 13 1.2650 0.0388
5 5 14 0.1372 -0.0278
5 6 0 -0.3089 0.1900
5 6 1 -0.4960 0.1715
5 6 2 -1.1592 0.1048
5 6 3 -3.4356 0.0777
5 6 4 3.5946 -0.0084
5 6 5 -2.9293 -0.0037
5 6 6 2.5283 -0.0586
5 6 7 -1.4637 -0.0754
5 6 8 0.3530 -0.0720
5 6 9 -0.8486 -0.0173
5 6 10 -0.3992 0.0054
5 6 11 -0.3191 0.0527
5 6 12 1.7809 0.0719
5 6 13 -0.7829 0.0782
5 6 14 1.4614 0.0291
5 7 0 1.0360 0.1323
5 7 1 0.8495 0.1027
5 7 2 0.2648 0.1059
5 7 3 3.3244 0.0093
5 7 4 -2.5511 0.0155
5 7 5 2.9399 -0.0293
5 7 6 -0.8358 -0.0206
5 7 7 2.5386 -0.0378
5 7 8 -0.9172 -0.0891
5 7 9 0.6848 -0.0560
5 7 10 -0.2150 -0.0017
5 7 11 -0.2524 0.0389
5 7 12 -1.2727 0.0962
5 7 13 0.8743 0.0332
5 7 14 -1.4444 0.0573
5 8 0 -0.7943 0.1181
5 8 1 -0.7658 0.0988
5 8 2 1.5252 0.0656
5 8 3 -1.2140 0.0334
5 8 4 1.6181 0.0443
5 8 5 -2.5346 -0.0201
5 8 6 -0.0785 -0.0063
5 8 7 -1.7830 -0.0594
5 8 8 0.8939 -0.0521
5 8 9 -0.3333 -0.0875
5 8 10 0.3110 -0.0051
5 8 11 0.0563 0.0396
5 8 12 0.8911 0.0674
5 8 13 -0.3996 0.0791
5 8 14 1.0327 0.0639
5 9 0 0.4966 0.0725
5 9 1 0.8037 0.0590
5 9 2 -1.9006 -0.0234
5 9 3 -0.3945 0.0354
5 9 4 -1.2575 -0.0123
5 9 5 1.8204 0.0100
5 9 6 0.1184 -0.0560
5 9 7 0.4823 -0.0326
5 9 8 0.1983 -0.0329
5 9 9 -0.8304 -0.0382
5 9 10 -0.9889 -0.0499
5 9 11 -0.6734 0.0441
5 9 12 -0.7626 0.0794
5 9 13 0.4456 0.1570
5 9 14 -0.7026 0.0830
5 10 0 0.8607 0.0302
5 10 1 0.2439 0.0162
5 10 2 0.9410 0.0486
5 10 3 0.6523 -0.0340
5 10 4 0.5214 -0.0402
5 10 5 -0.6728 0.0067
5 10 6 0.5669 -0.0336
5 10 7 -0.2671 0.0089
5 10 8 -0.8691 -0.0407
5 10 9 1.6212 -0.0173
5 10 10 1.0446 -0.0567
5 10 11 1.1104 0.0057
5 10 12 -0.2380 0.0948
5 10 13 0.2976 0.1080
5 10 14 0.4297 0.1554
5 11 0 -0.8266 0.1111
5 11 1 -0.1260 0.0711
5 11 2 0.4549 0.0287
5 11 3 -0.4274 -0.0337
5 11 4 -1.0527 -0.0008
5 11 5 -0.1877 -0.0442
5 11 6 -0.7823 0.0634
5 11 7 0.4480 -0.0446
5 11 8 0.2722 -0.0041
5 11 9 -1.3130 -0.0418
5 11 10 -0.0475 -0.0031
5 11 11 -1.0604 -0.0606
5 11 12 0.5833 0.0626
5 11 13 -2.0445 0.1583
5 11 14 0.2376 0.1240
5 12 1 -0.5066 -0.0602
5 12 2 -0.7810 -0.0500
5 12 3 -0.0440 0.0661
5 12 4 1.3402 -0.0544
5 12 5 -1.0550 -0.0206
5 12 6 -0.1408 0.0173
5 12 7 0.0695 0.0074
5 12 8 0.9833 0.0090
5 12 9 0.8936 -0.0325
5 12 10 -0.8489 -0.0088
5 12 11 -0.0226 0.0461
5 12 12 -1.2560 -0.0026
5 12 13 1.3204 0.0954
5 13 4 -1.8329 0.0178
5 13 5 0.2966 0.0620
5 13 6 0.3629 -0.0822
5 13 7 -0.2767 0.1114
5 13 8 -0.8673 -0.0730
5 13 9 -0.2572 0.0305
5 13 10 0.1534 -0.0595
5 13 11 -0.0779 -0.0129
5 13 12 0.3262 -0.0830
5 14 6 -2.2772 0.1209
5 14 7 -1.5103 -0.0825
5 14 8 -1.2635 0.1226
5 14 9 -1.3683 -0.1298
5 14 10 -0.2928 -0.0130
6 -11 0 -0.3044 -0.0710
6 -10 0 0.2975 0.0439
6 -10 1 -0.2439 -0.0383
6 -10 2 0.2689 0.0168
6 -10 3 0.5002 0.1671
6 -9 0 0.4864 -0.0104
6 -9 1 0.4466 0.0527
6 -9 2 -0.1292 0.0596
6 -9 3 -1.1104 -0.0097
6 -9 4 1.0217 0.0785
6 -9 5 1.0281 0.0908
6 -8 0 -1.0731 0.1041
6 -8 1 0.5199 0.0799
6 -8 2 -0.0200 0.0560
6 -8 3 1.0920 0.0506
6 -8 4 -0.4856 -0.0373
6 -8 5 -0.8351 -0.0542
6 -8 6 -0.1861 0.0943
6 -7 0 0.8681 0.1758
6 -7 1 -1.3971 0.0996
6 -7 2 -0.8767 0.0824
6 -7 3 0.4225 0.0135
6 -7 4 0.0587 0.0360
6 -7 5 1.0966 -0.0202
6 -7 6 0.2091 -0.1174
6 -7 7 0.9944 0.0047
6 -6 0 1.1760 0.2417
6 -6 1 2.5228 0.2535
6 -6 2 2.6519 0.1217
6 -6 3 -1.6517 0.0363
6 -6 4 1.2467 -0.0521
6 -6 5 0.3381 -0.1029
6 -6 6 1.2763 -0.0787
6 -6 7 0.3606 -0.0226
6 -6 8 0.2727 -0.0191
6 -5 0 -2.1732 0.3625
6 -5 1 -0.4928 0.3111
6 -5 2 -0.7233 0.1922
6 -5 3 2.9423 0.0811
6 -5 4 -0.5624 -0.0761
6 -5 5 0.2362 -0.0895
6 -5 6 -0.3477 -0.1146
6 -5 7 0.7605 -0.0764
6 -5 8 0.0587 0.0592
6 -5 9 0.4614 0.0240
6 -5 10 -0.2200 0.0544
6 -4 0 1.9387 0.5716
6 -4 1 -3.6839 0.4239
6 -4 2 -1.7613 0.2822
6 -4 3 -1.5170 0.0737
6 -4 4 -1.1153 -0.0624
6 -4 5 -2.0549 -0.1562
6 -4 6 -0.5996 -0.0861
6 -4 7 -1.8603 0.0052
6 -4 8 0.7313 0.1031
6 -4 9 -0.6837 0.0611
6 -4 10 1.4864 0.1067
6 -3 0 -2.0583 0.7441
6 -3 1 5.7069 0.5766
6 -3 2 1.4467 0.3026
6 -3 3 -1.6641 0.0175
6 -3 4 1.7948 -0.1207
6 -3 5 2.1700 -0.1463
6 -3 6 -1.0975 -0.1002
6 -3 7 0.6914 -0.0464
6 -3 8 -2.1661 0.0278
6 -3 9 -0.0508 0.0409
6 -3 10 -0.4173 0.0596
6 -3 11 0.5979 -0.1661
6 -2 0 4.2146 0.9388
6 -2 1 -1.8898 0.7041
6 -2 2 0.6693 0.3416
6 -2 3 2.2920 0.0542
6 -2 4 -2.0757 -0.1528
6 -2 5 -2.3128 -0.1990
6 -2 6 2.5800 -0.1299
6 -2 7 0.7350 -0.0280
6 -2 8 2.2593 -0.0239
6 -2 9 0.2929 0.0826
6 -2 10 -0.7114 -0.0180
6 -2 11 0.2259 -0.0131
6 -2 12 1.0753 -0.1624
6 -1 0 -5.9190 1.0914
6 -1 1 -4.0291 0.8356
6 -1 2 -2.1626 0.4686
6 -1 3 -0.0697 0.0850
6 -1 4 1.2087 -0.1283
6 -1 5 2.7081 -0.1987
6 -1 6 -2.4718 -0.1733
6 -1 7 -1.1179 -0.0632
6 -1 8 -1.3697 0.0139
6 -1 9 0.0762 0.0398
6 -1 10 0.4995 -0.0063
6 -1 11 -0.8119 0.0851
6 -1 12 -1.4154 -0.0709
6 0 0 4.8995 1.0978
6 0 1 5.3599 0.9000
6 0 2 2.2502 0.5277
6 0 3 -2.1739 0.1442
6 0 4 -0.3111 -0.1464
6 0 5 -2.5823 -0.2224
6 0 6 0.2004 -0.1614
6 0 7 -0.7169 -0.0723
6 0 8 -0.0621 0.0182
6 0 9 -0.8397 0.0189
6 0 10 -0.5991 0.0725
6 0 11 -0.4157 0.0051
6 0 12 -0.2160 0.0994
6 1 0 -2.1583 0.9982
6 1 1 -0.9557 0.8602
6 1 2 -1.8812 0.4981
6 1 3 2.2571 0.1597
6 1 4 1.1217 -0.1222
6 1 5 0.9290 -0.2313
6 1 6 0.8553 -0.1933
6 1 7 0.7140 -0.0802
6 1 8 -1.5456 0.0361
6 1 9 -0.3078 0.0355
6 1 10 -0.3374 0.0600
6 1 11 0.7857 0.0230
6 1 12 0.4557 0.0675
6 1 13 1.0921 0.0766
6 2 0 0.5726 0.8757
6 2 1 -3.3340 0.7492
6 2 2 2.2231 0.5029
6 2 3 0.1247 0.1402
6 2 4 -2.0997 -0.0999
6 2 5 -0.0762 -0.2491
6 2 6 -0.6903 -0.2003
6 2 7 -0.5319 -0.0809
6 2 8 2.0073 0.0311
6 2 9 -0.2484 0.0981
6 2 10 0.1297 0.0549
6 2 11 -1.4428 0.0170
6 2 12 -0.0804 0.0058
6 2 13 0.0366 0.0991
6 3 0 -1.3262 0.7257
6 3 1 4.4154 0.6370
6 3 2 -0.7011 0.4566
6 3 3 -0.9663 0.1839
6 3 4 1.8645 -0.0591
6 3 5 1.2392 -0.1801
6 3 6 -1.3112 -0.1666
6 3 7 -0.3564 -0.0842
6 3 8 -1.9540 0.0019
6 3 9 -0.0367 0.0765
6 3 10 -0.7470 0.0494
6 3 11 0.3053 0.0529
6 3 12 -1.3732 0.0360
6 3 13 -1.4408 0.0388
6 3 14 0.1425 0.0978
6 4 0 2.1544 0.4943
6 4 1 -2.3595 0.4998
6 4 2 0.4737 0.3579
6 4 3 1.2517 0.1634
6 4 4 0.9875 -0.0482
6 4 5 -2.2007 -0.1227
6 4 6 2.5078 -0.1739
6 4 7 -0.2695 -0.0818
6 4 8 0.2484 -0.0067
6 4 9 -0.5231 0.0570
6 4 10 -0.0470 0.0874
6 4 11 -0.0367 0.1021
6 4 12 0.8845 0.0557
6 4 13 0.9114 0.0209
6 4 14 -0.1838 -0.0288
6 5 0 -1.8772 0.3521
6 5 1 0.5903 0.3679
6 5 2 -0.7515 0.2564
6 5 3 1.2709 0.1235
6 5 4 -2.4164 0.0250
6 5 5 2.2918 -0.0804
6 5 6 -1.8980 -0.1265
6 5 7 0.3610 -0.1158
6 5 8 -0.0647 -0.0372
6 5 9 0.4035 0.0411
6 5 10 0.7443 0.0940
6 5 11 0.5441 0.0781
6 5 12 0.3936 0.0743
6 5 13 0.7522 0.0219
6 5 14 0.3356 -0.0365
6 6 0 -0.0471 0.2767
6 6 1 -0.9659 0.2313
6 6 2 0.2073 0.1865
6 6 3 -3.7570 0.1433
6 6 4 2.7898 0.0510
6 6 5 -1.2488 -0.0562
6 6 6 0.8444 -0.0489
6 6 7 -0.2290 -0.0974
6 6 8 0.0186 -0.0408
6 6 9 -0.2490 0.0050
6 6 10 -0.4864 0.0951
6 6 11 0.6659 0.0775
6 6 12 0.7100 0.0536
6 6 13 -0.1286 0.0296
6 6 14 0.7038 -0.0557
6 6 15 -0.0791 0.0051
6 7 0 1.1842 0.2323
6 7 1 0.7353 0.1928
6 7 2 -0.7405 0.1645
6 7 3 2.9959 0.1162
6 7 4 -1.7501 0.0366
6 7 5 1.7023 -0.0044
6 7 6 0.7518 -0.0492
6 7 7 0.5749 -0.0458
6 7 8 0.0302 -0.0426
6 7 9 -0.0264 0.0039
6 7 10 0.2130 0.0174
6 7 11 -0.8974 0.0783
6 7 12 -0.4404 0.0506
6 7 13 -0.2071 0.0106
6 7 14 -0.8263 -0.0191
6 7 15 0.6651 -0.0898
6 8 0 -1.4672 0.1178
6 8 1 -0.5688 0.1537
6 8 2 1.1774 0.1379
6 8 3 -0.7970 0.0333
6 8 4 1.0403 0.0260
6 8 5 -1.3643 0.0285
6 8 6 -1.0416 -0.0365
6 8 7 -0.1211 -0.0070
6 8 8 -0.1322 -0.0629
6 8 9 -0.2144 -0.0270
6 8 10 0.2830 0.0153
6 8 11 0.1364 0.0754
6 8 12 0.6003 0.0598
6 8 13 0.9387 -0.0320
6 8 14 0.6911 -0.0121
6 8 15 -1.9298 -0.0707
6 9 0 0.9342 0.1482
6 9 1 0.1119 0.1301
6 9 2 -0.3721 0.0614
6 9 3 -0.3222 0.0571
6 9 4 -0.7686 0.0422
6 9 5 0.8113 0.0113
6 9 6 0.7413 0.0055
6 9 7 -0.2883 -0.0319
6 9 8 0.8075 0.0037
6 9 9 0.0570 -0.0416
6 9 10 -1.7027 0.0168
6 9 11 -0.0156 0.0167
6 9 12 -1.1714 0.1154
6 9 13 -0.5415 0.1163
6 9 14 -0.1279 -0.0327
6 9 15 1.4834 -0.0498
6 10 0 0.6904 0.1068
6 10 1 1.6396 0.0581
6 10 2 -0.2510 0.0554
6 10 3 1.0065 0.0605
6 10 4 0.3310 -0.0034
6 10 5 -0.7710 -0.0234
6 10 6 -0.0894 0.0207
6 10 7 0.3341 -0.0102
6 10 8 -1.2283 0.0094
6 10 9 0.4097 -0.0024
6 10 10 1.6477 -0.0115
6 10 11 -0.1923 0.0568
6 10 12 0.4649 0.0684
6 10 13 0.1546 0.1752
6 10 14 0.0536 0.1859
6 11 1 -0.9301 0.0594
6 11 2 1.0623 0.0988
6 11 3 -0.9898 0.0168
6 11 4 -0.2488 0.0153
6 11 5 0.3144 0.0191
6 11 6 0.2148 -0.0096
6 11 7 -0.3847 0.0126
6 11 8 0.9223 -0.0302
6 11 9 -0.8221 0.0439
6 11 10 -0.5772 -0.0688
6 11 11 0.3180 -0.0091
6 11 12 0.2021 0.0629
6 11 13 -0.7214 0.1186
6 11 14 0.1199 0.2056
6 12 2 -0.6084 -0.1257
6 12 3 0.3554 0.0154
6 12 4 0.4850 0.0236
6 12 5 -0.1583 -0.0220
6 12 6 -1.2998 0.0056
6 12 7 1.1703 0.0353
6 12 8 -0.2469 0.0013
6 12 9 1.3851 -0.0427
6 12 10 -0.1472 0.0737
6 12 11 -0.6761 -0.0559
6 12 12 -0.7639 0.0445
6 12 13 0.0037 0.0862
6 13 5 -1.2437 0.0580
6 13 6 0.0340 0.0053
6 13 7 -1.7106 -0.0423
6 13 8 0.3907 0.0585
6 13 9 -0.9432 -0.0655
6 13 10 0.7354 -0.0297
6 13 11 -0.0016 0.0813
6 13 12 -0.0695 -0.1169
6 14 7 -0.9528 0.1409
7 -10 0 0.9494 0.0692
7 -10 1 -0.4890 -0.0917
7 -10 2 -0.7374 0.0351
7 -9 0 -0.0120 0.0030
7 -9 1 0.2708 0.0137
7 -9 2 0.6300 -0.0114
7 -9 3 -1.1024 0.0594
7 -8 0 -1.6301 -0.0172
7 -8 1 0.7090 -0.0148
7 -8 2 -0.2795 0.0534
7 -8 3 -0.1305 0.0016
7 -8 4 -0.0529 -0.0198
7 -8 5 -1.4527 -0.0110
7 -7 0 1.4577 -0.0578
7 -7 1 -1.2463 0.0611
7 -7 2 -0.2842 0.0029
7 -7 3 1.6351 -0.0178
7 -7 4 -0.2440 -0.0020
7 -7 5 1.7244 -0.0314
7 -7 6 0.0990 -0.0801
7 -6 0 0.7187 0.0504
7 -6 1 1.5896 0.0763
7 -6 2 1.5367 0.0666
7 -6 3 -1.1793 0.0606
7 -6 4 0.8250 -0.0052
7 -6 5 -0.0872 -0.0445
7 -6 6 1.2817 -0.0768
7 -6 7 0.1374 -0.0741
7 -5 0 -1.5323 0.1870
7 -5 1 0.0763 0.1254
7 -5 2 -0.3035 0.1255
7 -5 3 1.6459 0.0592
7 -5 4 0.6226 -0.0110
7 -5 5 0.1596 -0.0730
7 -5 6 -0.5731 -0.1009
7 -5 7 1.6031 -0.1087
7 -5 8 -0.2018 -0.0025
7 -5 9 0.8438 0.1139
7 -4 0 0.4726 0.2962
7 -4 1 -2.7601 0.2591
7 -4 2 -2.0499 0.1792
7 -4 3 -1.3092 0.0629
7 -4 4 -1.3337 -0.0609
7 -4 5 -1.3039 -0.1243
7 -4 6 -0.5569 -0.1146
7 -4 7 -2.6804 -0.0299
7 -4 8 0.9321 0.1305
7 -4 9 -1.5803 0.0992
7 -4 10 0.8539 0.1462
7 -3 0 0.6388 0.5197
7 -3 1 2.8668 0.4284
7 -3 2 2.7525 0.2400
7 -3 3 -0.6790 0.0394
7 -3 4 0.5189 -0.0845
7 -3 5 2.1772 -0.1629
7 -3 6 -0.1683 -0.0911
7 -3 7 0.8879 0.0055
7 -3 8 -1.5248 -0.0038
7 -3 9 1.1296 0.0192
7 -3 10 -0.0611 0.0781
7 -2 0 -0.5152 0.7507
7 -2 1 1.1566 0.6261
7 -2 2 -1.3114 0.3490
7 -2 3 1.7019 0.0645
7 -2 4 -0.0409 -0.1282
7 -2 5 -2.6713 -0.1548
7 -2 6 1.9683 -0.1239
7 -2 7 2.0606 -0.0486
7 -2 8 1.8682 0.0327
7 -2 9 0.5249 0.0749
7 -2 10 -0.0622 0.0112
7 -2 11 0.2707 -0.0350
7 -1 0 -0.3717 0.8460
7 -1 1 -5.2721 0.7316
7 -1 2 -0.4373 0.4178
7 -1 3 -0.7283 0.1130
7 -1 4 -0.0337 -0.1374
7 -1 5 2.2191 -0.1819
7 -1 6 -1.7594 -0.1478
7 -1 7 -2.3662 -0.0466
7 -1 8 -0.7199 0.0121
7 -1 9 -0.8683 0.0431
7 -1 10 0.1545 0.0066
7 -1 11 -0.4830 0.0362
7 -1 12 -0.9878 -0.1085
7 0 0 1.5113 0.9183
7 0 1 5.5322 0.7909
7 0 2 1.4761 0.5044
7 0 3 -0.0385 0.1256
7 0 4 -0.2779 -0.1094
7 0 5 -0.8485 -0.2257
7 0 6 -0.6045 -0.1613
7 0 7 0.4751 -0.0518
7 0 8 -0.6921 0.0407
7 0 9 0.4937 0.0791
7 0 10 -0.6818 0.0541
7 0 11 -0.3049 0.1015
7 0 12 -0.4925 0.0613
7 1 0 -1.4044 0.8632
7 1 1 -0.9807 0.7594
7 1 2 -1.2929 0.5481
7 1 3 -0.1054 0.2125
7 1 4 1.7635 -0.0541
7 1 5 -0.3542 -0.2177
7 1 6 1.5021 -0.1921
7 1 7 -0.3013 -0.0911
7 1 8 -0.6733 0.0385
7 1 9 -1.1086 0.0819
7 1 10 0.2926 0.1276
7 1 11 -0.0202 0.0573
7 1 12 0.6845 0.1139
7 1 13 0.6786 0.1056
7 2 0 0.5878 0.7000
7 2 1 -3.2639 0.6993
7 2 2 1.4832 0.4693
7 2 3 0.8552 0.2076
7 2 4 -2.2702 -0.0725
7 2 5 0.5117 -0.1906
7 2 6 -0.9171 -0.1748
7 2 7 0.4032 -0.0587
7 2 8 1.0083 0.0594
7 2 9 -0.1451 0.0968
7 2 10 -0.4365 0.0921
7 2 11 -0.3968 0.0150
7 2 12 -0.6183 0.0397
7 2 13 -0.1445 -0.0065
7 2 14 0.1721 0.1278
7 3 0 -0.7636 0.5412
7 3 1 3.5583 0.5638
7 3 2 -0.6641 0.4036
7 3 3 -0.0087 0.1912
7 3 4 1.2076 -0.0349
7 3 5 0.5599 -0.1597
7 3 6 -0.1693 -0.1751
7 3 7 -1.1661 -0.0721
7 3 8 -0.7306 0.0501
7 3 9 -0.1005 0.1247
7 3 10 -0.6237 0.0802
7 3 11 0.0485 0.0673
7 3 12 -0.3665 0.0195
7 3 13 -1.1159 0.0361
7 3 14 -0.6986 0.0190
7 4 0 0.7778 0.3919
7 4 1 -1.1805 0.4134
7 4 2 0.2602 0.3703
7 4 3 0.2807 0.1888
7 4 4 1.7762 -0.0139
7 4 5 -0.8020 -0.1315
7 4 6 0.6593 -0.1447
7 4 7 0.8293 -0.0707
7 4 8 -0.9183 0.0252
7 4 9 0.0194 0.1203
7 4 10 -0.2042 0.1271
7 4 11 -0.2580 0.0968
7 4 12 -0.1110 0.0149
7 4 13 0.8159 0.0150
7 4 14 0.8062 0.0074
7 5 0 -0.7747 0.2944
7 5 1 -0.4495 0.3245
7 5 2 -0.2087 0.2837
7 5 3 0.8598 0.1209
7 5 4 -1.9419 0.0184
7 5 5 0.6273 -0.0694
7 5 6 -0.1913 -0.1096
7 5 7 -0.6044 -0.0580
7 5 8 0.8389 0.0071
7 5 9 -0.2700 0.0846
7 5 10 0.8173 0.1320
7 5 11 -0.0867 0.1049
7 5 12 1.0441 0.0642
7 5 13 0.0794 0.0341
7 5 14 0.0469 -0.0236
7 5 15 0.6403 -0.0947
7 6 0 -0.0818 0.2517
7 6 1 -0.8450 0.2490
7 6 2 0.1349 0.1861
7 6 3 -2.6358 0.1406
7 6 4 0.9994 0.0797
7 6 5 0.4485 -0.0501
7 6 6 -0.7530 -0.0709
7 6 7 0.7402 -0.0789
7 6 8 -0.4127 -0.0300
7 6 9 0.0114 0.0440
7 6 10 -0.6146 0.1075
7 6 11 0.8926 0.1077
7 6 12 -0.3298 0.0724
7 6 13 0.5734 -0.0496
7 6 14 -0.1230 -0.0784
7 6 15 0.3554 -0.0386
7 7 0 0.7120 0.2326
7 7 1 1.9029 0.1957
7 7 2 -1.2039 0.1495
7 7 3 1.6304 0.1568
7 7 4 -0.4199 0.0490
7 7 5 -0.2922 0.0120
7 7 6 2.1355 -0.0325
7 7 7 -0.6492 -0.0895
7 7 8 0.1402 -0.0145
7 7 9 -0.2522 0.0126
7 7 10 0.2247 0.0855
7 7 11 -0.9427 0.1065
7 7 12 -0.0601 0.0678
7 7 13 -1.1898 0.0099
7 7 14 -0.3415 -0.0978
7 7 15 -0.5861 -0.0617
7 8 0 -0.9789 0.1449
7 8 1 -1.7733 0.1581
7 8 2 1.0489 0.1285
7 8 3 -0.0317 0.0622
7 8 4 -0.5509 0.0009
7 8 5 0.1208 0.0148
7 8 6 -1.8962 -0.0410
7 8 7 0.3827 -0.0131
7 8 8 -0.2281 -0.0233
7 8 9 -0.0719 0.0113
7 8 10 -0.3841 0.0555
7 8 11 0.7983 0.0985
7 8 12 -0.0641 0.0618
7 8 13 2.1550 0.0319
7 8 14 0.5028 -0.1152
7 8 15 -0.4604 -0.1620
7 9 0 0.9984 0.0600
7 9 1 0.2866 0.1422
7 9 2 -0.0195 0.1629
7 9 3 -0.5387 0.0301
7 9 4 1.0973 0.0513
7 9 5 -0.2585 -0.0021
7 9 6 1.2183 -0.0084
7 9 7 0.0603 0.0392
7 9 8 0.3381 -0.0161
7 9 9 0.2518 0.0208
7 9 10 -0.0772 -0.0005
7 9 11 -1.1302 0.0719
7 9 12 0.4201 0.0838
7 9 13 -2.1741 -0.0233
7 10 1 1.7375 0.1313
7 10 2 -0.0732 0.0636
7 10 3 1.1518 0.0978
7 10 4 -0.3573 0.0548
7 10 5 -0.2002 -0.0102
7 10 6 -0.6851 0.0526
7 10 7 -0.0926 -0.0102
7 10 8 -0.0208 0.0250
7 10 9 -0.4710 0.0071
7 10 10 -0.0440 0.0358
7 10 11 0.5627 -0.0126
7 10 12 -0.7720 0.1146
7 10 13 1.0925 0.1356
7 10 14 -0.8644 0.0088
7 11 2 0.8059 0.0512
7 11 3 -1.0221 0.1101
7 11 4 -0.1448 0.0030
7 11 5 0.3951 0.0415
7 11 6 -0.0844 -0.0125
7 11 7 0.0823 -0.0018
7 11 8 -0.9572 0.0530
7 11 9 0.8107 0.0081
7 11 10 -0.4309 0.0080
7 11 11 -0.2516 0.0009
7 11 12 0.2418 0.0108
7 11 13 -0.2660 0.1566
7 12 3 0.5652 -0.1112
7 12 4 -0.4137 0.0708
7 12 5 0.0119 0.0541
7 12 6 -0.0700 -0.0173
7 12 7 -0.1782 0.0502
7 12 8 1.8524 -0.0532
7 12 9 -1.0760 0.0547
7 12 10 1.2420 -0.0607
7 13 6 -0.5570 0.1002
7 13 7 -0.7417 -0.0695
7 13 8 -1.6543 0.0817
8 -9 0 0.0867 -0.0169
8 -8 0 -1.6733 -0.1546
8 -8 1 -0.1479 -0.0648
8 -8 2 0.5275 0.0208
8 -8 3 -1.3762 -0.0423
8 -8 4 0.0141 -0.0694
8 -7 0 1.0709 -0.1742
8 -7 1 -0.3191 -0.0734
8 -7 2 -0.8748 0.0212
8 -7 3 1.9144 -0.0197
8 -7 4 0.8822 -0.0059
8 -7 5 -0.2284 -0.1403
8 -7 6 1.7781 -0.0405
8 -6 0 0.8250 -0.1241
8 -6 1 0.3356 -0.0829
8 -6 2 1.1036 -0.0725
8 -6 3 -1.1217 0.0292
8 -6 4 -0.8565 0.0376
8 -6 5 1.3487 0.0582
8 -6 6 -1.4306 0.0103
8 -6 7 1.4981 -0.0979
8 -5 0 -1.7991 -0.0726
8 -5 1 1.0258 -0.0687
8 -5 2 -0.2553 -0.0038
8 -5 3 1.0610 0.0229
8 -5 4 1.1737 0.0079
8 -5 5 -0.6244 0.0026
8 -5 6 1.0343 -0.0571
8 -5 7 0.0198 -0.0662
8 -5 8 0.8199 0.0006
8 -4 0 0.3798 0.0244
8 -4 1 -2.6911 0.0185
8 -4 2 -1.4833 0.0557
8 -4 3 -1.0283 -0.0187
8 -4 4 -1.0374 -0.0193
8 -4 5 -0.3610 -0.0886
8 -4 6 -1.0491 -0.1198
8 -4 7 -1.1842 -0.0733
8 -4 8 -0.5580 -0.0342
8 -4 9 -0.6377 0.0936
8 -4 10 0.1704 0.1070
8 -3 0 1.6707 0.1849
8 -3 1 1.6392 0.2250
8 -3 2 2.1727 0.1024
8 -3 3 0.3720 0.0752
8 -3 4 0.0222 -0.0505
8 -3 5 1.0509 -0.1275
8 -3 6 1.0149 -0.0932
8 -3 7 -0.4172 -0.0011
8 -3 8 0.3171 0.0900
8 -3 9 0.2731 0.0817
8 -3 10 0.7138 0.1241
8 -2 0 -2.4767 0.3352
8 -2 1 1.6544 0.3766
8 -2 2 -0.7502 0.2516
8 -2 3 -0.4154 0.0677
8 -2 4 1.1469 -0.0941
8 -2 5 -1.9396 -0.1051
8 -2 6 0.2167 -0.0610
8 -2 7 3.5954 -0.0163
8 -2 8 0.5881 0.0655
8 -2 9 1.5920 0.0352
8 -2 10 -0.0831 0.0189
8 -2 11 0.6763 -0.1597
8 -1 0 1.9241 0.4901
8 -1 1 -4.1864 0.4345
8 -1 2 -1.2011 0.3172
8 -1 3 1.3386 0.0540
8 -1 4 -1.1572 -0.0896
8 -1 5 2.2989 -0.1611
8 -1 6 -0.5070 -0.1028
8 -1 7 -3.1449 -0.0012
8 -1 8 0.1589 0.0351
8 -1 9 -1.6150 0.0490
8 -1 10 0.0545 -0.0055
8 -1 11 -0.4681 0.0017
8 -1 12 0.0455 -0.0760
8 0 0 -1.4005 0.5785
8 0 1 4.3335 0.5020
8 0 2 1.3161 0.3304
8 0 3 -1.2221 0.0896
8 0 4 -0.4658 -0.1074
8 0 5 -1.3137 -0.1567
8 0 6 -0.6956 -0.1441
8 0 7 0.5722 -0.0421
8 0 8 -0.6949 0.0295
8 0 9 1.0849 0.0920
8 0 10 -0.3000 0.0497
8 0 11 -0.2085 0.0920
8 0 12 -0.7435 -0.0217
8 0 13 -0.1350 0.2805
8 1 0 1.7683 0.4790
8 1 1 -1.3753 0.5072
8 1 2 0.4919 0.3553
8 1 3 -0.8377 0.1515
8 1 4 1.8544 -0.0627
8 1 5 -0.0527 -0.1925
8 1 6 1.0608 -0.1606
8 1 7 0.1452 -0.0488
8 1 8 -0.7058 0.0410
8 1 9 -1.1419 0.1106
8 1 10 0.4761 0.1124
8 1 11 -0.1318 0.0861
8 1 12 0.1820 0.0683
8 1 13 0.3131 0.0448
8 2 0 -1.4988 0.3325
8 2 1 -1.3239 0.4524
8 2 2 -0.9776 0.3413
8 2 3 2.8772 0.1541
8 2 4 -1.7892 -0.0384
8 2 5 0.0525 -0.1582
8 2 6 -0.7391 -0.1193
8 2 7 -0.1225 -0.0625
8 2 8 1.2697 0.0794
8 2 9 0.1612 0.1039
8 2 10 -0.5727 0.1019
8 2 11 0.5126 0.0415
8 2 12 -0.2206 0.1024
8 2 13 -0.2762 0.0488
8 2 14 0.0435 -0.0451
8 3 0 0.6899 0.2556
8 3 1 1.4245 0.3235
8 3 2 1.0528 0.2611
8 3 3 -1.9484 0.1272
8 3 4 0.9212 -0.0382
8 3 5 0.4842 -0.1424
8 3 6 0.2529 -0.1681
8 3 7 -0.5685 -0.0656
8 3 8 -1.0852 0.0742
8 3 9 0.0083 0.1228
8 3 10 -0.7307 0.1481
8 3 11 -0.4958 0.0710
8 3 12 0.4807 0.0554
8 3 13 -0.5124 0.0263
8 3 14 -0.8349 0.0731
8 4 0 -0.1386 0.2160
8 4 1 0.4572 0.2131
8 4 2 -1.0232 0.2418
8 4 3 1.0906 0.1271
8 4 4 1.3681 -0.0123
8 4 5 0.4037 -0.1002
8 4 6 0.0623 -0.1322
8 4 7 0.8750 -0.0399
8 4 8 -0.3998 0.0317
8 4 9 -0.3227 0.1411
8 4 10 0.4473 0.1373
8 4 11 -0.5504 0.0752
8 4 12 -0.6833 -0.0127
8 4 13 0.3562 0.0092
8 4 14 1.1303 0.0588
8 5 0 0.3080 0.1676
8 5 1 -1.3178 0.1747
8 5 2 0.9358 0.1816
8 5 3 0.3390 0.1107
8 5 4 -0.7875 0.0073
8 5 5 -0.5714 -0.0679
8 5 6 0.7398 -0.0868
8 5 7 -0.8535 -0.0221
8 5 8 0.9105 0.0426
8 5 9 -0.0287 0.1169
8 5 10 0.4458 0.1214
8 5 11 0.7249 0.1078
8 5 12 0.7053 0.0028
8 5 13 0.7989 -0.0314
8 5 14 -0.5832 -0.0508
8 6 0 -1.0164 0.1435
8 6 1 -0.4249 0.1957
8 6 2 -0.8150 0.1354
8 6 3 -1.5678 0.0801
8 6 4 -0.5702 0.0274
8 6 5 1.5765 -0.0266
8 6 6 -1.4852 -0.0498
8 6 7 1.1445 -0.0721
8 6 8 -0.4494 0.0029
8 6 9 0.2092 0.0732
8 6 10 -0.7333 0.0949
8 6 11 -0.4641 0.1188
8 6 12 0.0046 0.0512
8 6 13 -0.7921 -0.0336
8 6 14 0.6694 -0.1312
8 7 0 1.0860 0.1140
8 7 1 1.4137 0.1424
8 7 2 -0.0006 0.0841
8 7 3 0.2069 0.0582
8 7 4 0.4255 0.0357
8 7 5 -1.7245 -0.0371
8 7 6 2.1661 -0.0182
8 7 7 -1.1276 -0.0556
8 7 8 -0.0589 -0.0360
8 7 9 -0.8135 0.0103
8 7 10 0.1149 0.1077
8 7 11 0.1411 0.1348
8 7 12 -1.1863 0.1045
8 7 13 -0.0962 -0.0031
8 7 14 -1.3387 -0.1028
8 8 0 -0.8494 0.1797
8 8 1 -0.8570 0.1123
8 8 2 -0.3562 0.0777
8 8 3 1.0911 0.0753
8 8 4 -1.2098 0.0150
8 8 5 0.1289 0.0008
8 8 6 -1.6108 -0.0497
8 8 7 0.3317 -0.0436
8 8 8 -0.6483 0.0101
8 8 9 0.8355 0.0284
8 8 10 -0.7261 0.0861
8 8 11 0.3704 0.0772
8 8 12 1.0825 0.1411
8 8 13 0.7493 0.0610
8 9 2 0.6397 0.1212
8 9 3 -1.6384 0.0429
8 9 4 1.8154 -0.0241
8 9 5 0.1595 -0.0192
8 9 6 0.4918 -0.0570
8 9 7 0.3321 0.0324
8 9 8 1.0357 0.0042
8 9 9 -1.2398 0.0189
8 9 10 1.0972 0.0534
8 9 11 -1.2466 0.0893
8 9 12 -0.1072 0.0675
8 9 13 -0.9458 0.0467
8 10 2 0.2653 0.1383
8 10 3 1.7302 0.0060
8 10 4 -0.9215 0.0397
8 10 5 0.5456 0.0160
8 10 6 -0.5969 0.0172
8 10 7 -0.0275 0.0125
8 10 8 -0.3650 -0.0076
8 10 9 1.0705 0.0580
8 10 10 -1.2753 -0.0123
8 10 11 0.4470 0.0192
8 10 12 0.1081 0.0228
8 10 13 0.4601 0.0271
8 11 3 -0.5585 0.1634
8 11 4 -0.0997 0.0477
8 11 5 -0.6544 -0.0644
8 11 6 0.2188 0.0200
8 11 7 -1.1305 -0.0098
8 11 8 -0.9996 0.0618
8 11 9 -0.5505 0.0132
8 11 10 0.4106 0.0322
8 11 11 -0.0445 -0.0105
8 11 12 -1.6388 0.0173
8 11 13 0.1966 0.1111
8 12 4 0.0271 -0.0089
8 12 5 -0.3291 0.1539
8 12 6 -0.0607 0.0159
8 12 7 0.7023 -0.0702
8 12 8 1.0832 0.0407
8 13 7 -0.5540 0.1676
9 -8 0 -0.9159 0.0008
9 -8 1 -0.3383 -0.2517
9 -7 0 0.0637 -0.2596
9 -7 1 0.0729 -0.0570
9 -7 2 -1.0677 -0.0933
9 -6 0 0.5814 -0.2500
9 -6 1 0.0225 -0.2016
9 -6 2 0.7541 -0.1263
9 -6 3 -0.8703 -0.0809
9 -6 4 -1.1924 -0.0064
9 -6 5 0.5001 0.0694
9 -6 6 -0.5510 0.1782
9 -5 0 -2.1197 -0.2565
9 -5 1 0.5130 -0.2548
9 -5 2 0.1249 -0.1038
9 -5 3 0.9469 -0.0465
9 -5 4 0.9787 0.0175
9 -5 5 -0.4348 0.0437
9 -5 6 0.9227 -0.0484
9 -5 7 -0.0467 0.0319
9 -4 0 1.5510 -0.2091
9 -4 1 -2.1110 -0.0865
9 -4 2 -1.5613 -0.1237
9 -4 3 -0.8329 -0.0465
9 -4 4 -0.7292 0.0178
9 -4 5 0.1026 0.0157
9 -4 6 -1.5137 -0.0069
9 -4 7 0.5255 -0.0540
9 -4 8 -1.3393 -0.1630
9 -3 0 0.6185 -0.1374
9 -3 1 1.6518 -0.0741
9 -3 2 1.3526 0.0078
9 -3 3 0.3462 0.0131
9 -3 4 -0.0808 -0.0125
9 -3 5 -0.2023 -0.0740
9 -3 6 1.3361 -0.0577
9 -3 7 -1.9567 -0.0612
9 -3 8 1.6905 0.0753
9 -3 9 -0.7799 0.2495
9 -3 10 0.5858 0.2025
9 -2 0 -1.3460 -0.0505
9 -2 1 0.6637 -0.0164
9 -2 2 0.8988 0.0452
9 -2 3 -0.6284 0.0209
9 -2 4 0.8715 -0.0452
9 -2 5 0.1455 -0.0879
9 -2 6 -0.7617 -0.0776
9 -2 7 3.5147 0.0484
9 -2 8 -0.3079 0.1213
9 -2 9 1.7696 -0.0113
9 -2 10 0.0977 0.0179
9 -2 11 0.7858 -0.1522
9 -1 0 0.2161 0.0859
9 -1 1 -2.0274 0.1312
9 -1 2 -2.8331 0.0999
9 -1 3 1.7290 0.0159
9 -1 4 0.5074 -0.1064
9 -1 5 0.3360 -0.0840
9 -1 6 1.3423 -0.0513
9 -1 7 -2.4825 -0.0045
9 -1 8 0.1403 0.0870
9 -1 9 -1.0235 0.0576
9 -1 10 -0.0045 0.0258
9 -1 11 -0.4977 -0.0465
9 0 0 -0.2524 0.0744
9 0 1 1.1723 0.1658
9 0 2 2.1050 0.1096
9 0 3 -2.2107 -0.0029
9 0 4 -3.1320 -0.0640
9 0 5 -0.4915 -0.1128
9 0 6 -1.9389 -0.0645
9 0 7 0.4970 0.0022
9 0 8 0.2289 -0.0024
9 0 9 0.3247 0.0707
9 0 10 0.2173 0.0088
9 0 11 -0.0735 -0.0018
9 0 12 -1.2267 -0.0853
9 1 0 1.4783 0.0606
9 1 1 1.0493 0.1406
9 1 2 0.1404 0.0849
9 1 3 0.1734 -0.0066
9 1 4 2.0341 -0.1115
9 1 5 -0.3035 -0.1636
9 1 6 0.6819 -0.0964
9 1 7 0.2456 0.0248
9 1 8 -1.4832 0.0651
9 1 9 -0.4526 0.1314
9 1 10 -0.5460 0.0235
9 1 11 0.4818 0.0466
9 1 12 0.4099 -0.0693
9 2 0 -1.3887 -0.0281
9 2 1 -1.7745 0.0683
9 2 2 -1.0188 0.1033
9 2 3 2.1605 0.0040
9 2 4 0.3972 -0.0907
9 2 5 -0.6555 -0.1312
9 2 6 0.0497 -0.1216
9 2 7 -0.9053 -0.0548
9 2 8 1.7851 0.0561
9 2 9 0.6185 0.0895
9 2 10 0.8681 0.1268
9 2 11 0.1055 0.0733
9 2 12 0.0741 0.1350
9 3 0 1.1475 -0.0383
9 3 1 0.8657 0.0239
9 3 2 1.2921 0.0604
9 3 3 -1.9096 0.0176
9 3 4 -1.2135 -0.0619
9 3 5 1.0537 -0.1403
9 3 6 -0.7653 -0.1214
9 3 7 0.7008 -0.0622
9 3 8 -1.5360 0.0927
9 3 9 -0.3636 0.0801
9 3 10 -0.9232 0.1685
9 3 11 -0.3767 0.0719
9 3 12 0.8463 0.0883
9 4 0 -0.1052 0.0154
9 4 1 0.9566 0.0227
9 4 2 -1.1302 0.0072
9 4 3 0.7099 -0.0019
9 4 4 1.7776 -0.0583
9 4 5 0.2556 -0.0794
9 4 6 1.2050 -0.1122
9 4 7 -0.5687 -0.0374
9 4 8 0.6383 0.0710
9 4 9 -0.4119 0.1279
9 4 10 0.1773 0.1252
9 4 11 -0.2287 0.0517
9 4 12 -1.1613 -0.0176
9 4 13 0.6203 0.0252
9 5 0 0.7361 0.0245
9 5 1 -0.5150 -0.0139
9 5 2 1.1358 0.0092
9 5 3 0.8492 0.0358
9 5 4 -0.5116 -0.0174
9 5 5 0.0594 -0.0672
9 5 6 -0.3786 -0.0646
9 5 7 0.9984 -0.0175
9 5 8 -0.1536 -0.0137
9 5 9 0.4164 0.1482
9 5 10 0.7940 0.0658
9 5 11 0.9612 0.0864
9 5 12 0.9458 -0.0471
9 5 13 1.1939 -0.1180
9 6 0 -1.4381 -0.0180
9 6 1 -0.7390 0.0443
9 6 2 -0.9800 0.0537
9 6 3 -0.9091 -0.0010
9 6 4 -0.7695 -0.0463
9 6 5 0.5441 -0.0534
9 6 6 0.4825 -0.0409
9 6 7 -0.8564 -0.0215
9 6 8 0.8550 0.0142
9 6 9 0.1170 0.0619
9 6 10 -0.7937 0.0819
9 6 11 -1.0514 0.1048
9 6 12 -0.2441 0.0077
9 6 13 -1.9336 -0.0321
9 7 1 0.3482 0.0973
9 7 2 0.6078 0.0294
9 7 3 -0.8746 -0.0611
9 7 4 0.7451 -0.0425
9 7 5 -1.2709 -0.0630
9 7 6 -0.2398 -0.0509
9 7 7 0.8368 -0.0286
9 7 8 -1.5341 0.0065
9 7 9 -0.7646 0.0026
9 7 10 -0.3550 0.1027
9 7 11 0.3402 0.0805
9 7 12 -0.9532 0.1352
9 7 13 0.5682 -0.0332
9 8 2 -0.9221 -0.0029
9 8 3 1.5508 0.0048
9 8 4 -1.0945 0.0337
9 8 5 -0.1874 -0.0442
9 8 6 -0.2496 -0.0294
9 8 7 -0.8990 -0.0479
9 8 8 0.2587 0.0041
9 8 9 0.4882 0.0154
9 8 10 -0.0691 0.0860
9 8 11 0.3027 0.0767
9 8 12 1.1004 0.1304
9 8 13 0.1570 0.1389
9 9 3 -1.5469 0.0569
9 9 4 0.7634 -0.0802
9 9 5 0.7913 -0.0269
9 9 6 -0.7567 -0.0513
9 9 7 0.5056 -0.0312
9 9 8 0.8128 0.0241
9 9 9 -0.8651 0.0090
9 9 10 0.3645 0.0613
9 9 11 -1.1593 0.0928
9 9 12 -0.7509 0.0874
9 9 13 -0.1455 0.1674
9 10 3 1.4804 -0.0540
9 10 4 -0.0655 -0.1013
9 10 5 -0.4861 0.0150
9 10 6 1.0871 -0.0932
9 10 7 -0.9200 -0.0047
9 10 8 -0.1532 -0.0066
9 10 9 0.7193 0.0749
9 10 10 -0.2602 -0.0122
9 10 11 0.1371 0.0669
9 10 12 0.7414 -0.0666
9 11 4 -0.2419 0.1391
9 11 5 0.1648 -0.1859
9 11 6 -1.2638 0.0226
9 11 7 0.3737 0.0196
9 11 8 -1.9979 -0.0628
9 11 9 -0.3750 0.1016
9 11 10 -0.4749 -0.0427
9 11 11 0.6385 -0.0435
9 11 12 -1.7986 0.0888
9 12 7 -0.4075 -0.1243
9 12 8 1.4994 0.1094
10 -7 0 -0.1877 -0.2705
10 -6 0 -0.1487 -0.2087
10 -6 1 0.1689 -0.2417
10 -6 2 0.6513 -0.2491
10 -5 0 -1.6007 -0.3980
10 -5 1 -1.1009 -0.2153
10 -5 2 0.1249 -0.1216
10 -5 3 0.6532 -0.1754
10 -5 4 0.8635 0.0710
10 -4 0 1.6593 -0.2973
10 -4 1 0.1185 -0.2584
10 -4 2 -2.0066 -0.1168
10 -4 3 -0.4591 -0.0758
10 -4 4 -0.9790 0.0737
10 -4 5 0.6453 0.0513
10 -4 6 -1.7425 0.1614
10 -4 7 0.6900 0.1818
10 -4 8 -0.6320 -0.1354
10 -3 0 -0.4634 -0.2412
10 -3 1 0.7054 -0.2847
10 -3 2 1.5276 -0.1793
10 -3 3 -0.1952 -0.0043
10 -3 4 -0.3287 -0.0478
10 -3 5 -1.1374 0.0666
10 -3 6 0.8201 -0.0175
10 -3 7 -2.1011 -0.0957
10 -3 8 0.7332 0.0064
10 -3 9 0.2686 0.2635
10 -2 0 0.5626 -0.3102
10 -2 1 0.1665 -0.2220
10 -2 2 1.4399 -0.1842
10 -2 3 0.4665 -0.0695
10 -2 4 0.8986 -0.0139
10 -2 5 1.4775 -0.0523
10 -2 6 0.0552 -0.0781
10 -2 7 2.0504 -0.0335
10 -2 8 -0.0247 0.1534
10 -2 9 -0.3521 0.0360
10 -2 10 1.3123 0.0197
10 -1 0 -1.1490 -0.3553
10 -1 1 -1.1942 -0.1861
10 -1 2 -2.9424 -0.0774
10 -1 3 -0.3084 -0.0891
10 -1 4 2.1572 -0.0677
10 -1 5 -1.1338 -0.0871
10 -1 6 1.1932 -0.0095
10 -1 7 -0.7722 0.0473
10 -1 8 -0.1158 0.0332
10 -1 9 0.3269 0.0237
10 -1 10 -0.8757 0.0959
10 0 0 -0.0768 -0.3195
10 0 1 0.5239 -0.1876
10 0 2 1.3614 -0.1166
10 0 3 0.1738 -0.0955
10 0 4 -5.8772 -0.0880
10 0 5 0.3987 -0.0514
10 0 6 -2.3500 -0.0356
10 0 7 -0.0906 0.0462
10 0 8 0.4726 0.0525
10 0 9 0.4855 0.1147
10 0 10 0.2747 -0.0547
10 0 11 -0.6091 -0.0809
10 1 0 1.0923 -0.2836
10 1 1 1.5687 -0.2155
10 1 2 0.5715 -0.1398
10 1 3 -0.8705 -0.1211
10 1 4 3.5207 -0.1560
10 1 5 -1.0392 -0.1135
10 1 6 0.8332 -0.0168
10 1 7 -0.0419 0.0727
10 1 8 -1.1897 0.0649
10 1 9 -1.4453 0.0843
10 1 10 -0.5161 0.0147
10 1 11 0.4602 -0.1248
10 2 0 -0.1124 -0.2414
10 2 1 -2.4697 -0.2084
10 2 2 -0.4000 -0.1766
10 2 3 1.0949 -0.1403
10 2 4 0.5817 -0.1294
10 2 5 -0.2405 -0.1358
10 2 6 -0.2875 -0.1013
10 2 7 -0.5892 -0.0351
10 2 8 1.0917 0.0782
10 2 9 1.6065 0.0189
10 2 10 1.2568 0.0732
10 2 11 0.3215 0.1411
10 2 12 -0.2956 0.0364
10 3 0 0.3018 -0.2164
10 3 1 1.9380 -0.2113
10 3 2 -0.3306 -0.1080
10 3 3 -0.2773 -0.1280
10 3 4 -2.1608 -0.1235
10 3 5 0.6068 -0.1006
10 3 6 -0.9632 -0.0700
10 3 7 0.3651 -0.0385
10 3 8 -1.1010 0.0765
10 3 9 -0.4753 0.0951
10 3 10 -0.4450 0.0912
10 3 11 -0.2334 0.0704
10 3 12 1.0982 0.0163
10 4 0 0.2857 -0.1542
10 4 1 -0.0469 -0.1327
10 4 2 0.7359 -0.1774
10 4 3 -0.9765 -0.1543
10 4 4 1.7816 -0.0871
10 4 5 0.2940 -0.1083
10 4 6 1.6313 -0.0661
10 4 7 -0.7134 -0.0151
10 4 8 0.8215 0.0412
10 4 9 -0.5703 0.1415
10 4 10 -0.4932 0.0964
10 4 11 0.2223 -0.0007
10 4 12 -1.2739 0.0553
10 5 0 0.7861 -0.1043
10 5 1 0.8710 -0.1293
10 5 2 0.0698 -0.1785
10 5 3 1.9747 -0.0617
10 5 4 -0.6670 -0.1000
10 5 5 0.0584 -0.0571
10 5 6 -0.5312 -0.0577
10 5 7 1.3203 -0.0253
10 5 8 -0.2546 -0.0048
10 5 9 0.6476 0.0498
10 5 10 1.1000 0.0776
10 5 11 0.4833 0.0119
10 5 12 1.2592 -0.0327
10 6 1 -1.1523 -0.1605
10 6 2 0.0537 -0.0743
10 6 3 -0.6942 -0.0662
10 6 4 0.3840 -0.1047
10 6 5 0.0579 -0.0891
10 6 6 0.4151 -0.0649
10 6 7 -0.7966 0.0134
10 6 8 0.2075 -0.0011
10 6 9 0.0630 0.0413
10 6 10 -0.4888 0.0411
10 6 11 -0.4185 0.0561
10 6 12 -0.7533 -0.0278
10 6 13 -1.7304 -0.0820
10 7 2 -0.2576 0.0457
10 7 3 -0.9284 -0.1453
10 7 4 -0.2197 -0.0688
10 7 5 -0.3834 -0.0640
10 7 6 -0.5734 -0.0623
10 7 7 0.5945 -0.0365
10 7 8 -0.4973 0.0278
10 7 9 -0.7636 0.0325
10 7 10 -0.7745 0.0505
10 7 11 -0.7312 0.0813
10 7 12 0.4672 -0.0257
10 7 13 0.1581 0.0750
10 8 3 0.7972 -0.1043
10 8 4 -0.3883 -0.0528
10 8 5 -0.2323 -0.0994
10 8 6 0.2089 -0.0545
10 8 7 -0.5345 -0.0119
10 8 8 0.0506 0.0232
10 8 9 0.0238 -0.0196
10 8 10 0.2408 0.0360
10 8 11 1.2067 0.0580
10 8 12 -0.6058 0.1608
10 8 13 1.1294 0.0037
10 9 4 0.1395 -0.0866
10 9 5 0.2274 -0.0420
10 9 6 -0.8053 0.0457
10 9 7 -0.3176 -0.0752
10 9 8 0.1643 0.0046
10 9 9 0.4644 0.0373
10 9 10 -0.1932 0.0171
10 9 11 -1.4006 0.0229
10 9 12 -0.1399 0.0993
10 10 5 -0.5163 -0.0503
10 10 6 0.6339 -0.1793
10 10 7 -0.4466 -0.0741
10 10 8 -0.3478 0.0209
10 10 9 -0.8559 0.0383
10 10 10 0.5509 0.1088
10 10 11 0.0702 0.0325
10 10 12 0.4607 -0.0500
10 11 6 -0.6123 -0.0799
10 11 7 0.4500 0.1247
10 11 8 -0.7190 -0.1978
10 11 9 0.0697 0.1296
11 -5 2 -0.1142 0.2120
11 -4 1 0.9544 -0.2819
11 -4 2 -1.2402 -0.3384
11 -4 3 0.2945 0.1298
11 -4 4 -1.8078 0.0905
11 -3 1 -0.4168 -0.1863
11 -3 2 1.4334 -0.2382
11 -3 3 -0.3052 -0.1668
11 -3 4 0.0145 0.0062
11 -3 5 -2.0505 0.1513
11 -2 1 0.6937 -0.3234
11 -2 2 0.3799 -0.1697
11 -2 3 1.1132 -0.1250
11 -2 4 0.5699 -0.0370
11 -2 5 2.1630 0.0460
11 -2 6 0.2798 -0.0594
11 -2 8 0.1065 -0.1010
11 -1 0 -1.7074 -0.5714
11 -1 1 -0.6347 -0.4276
11 -1 2 -1.4419 -0.2382
11 -1 3 -1.7119 -0.1526
11 -1 4 1.8968 -0.0578
11 -1 5 -1.2089 -0.0401
11 -1 6 0.3596 -0.0392
11 -1 7 -0.1936 0.0757
11 -1 8 0.0465 0.0372
11 -1 9 0.9839 -0.1072
11 -1 10 -1.1598 0.0252
11 0 0 -0.2936 -0.5417
11 0 1 -0.0856 -0.4006
11 0 2 0.9016 -0.3203
11 0 3 1.3692 -0.1560
11 0 4 -3.9639 -0.1250
11 0 5 -0.9781 -0.1100
11 0 6 -1.0054 0.0124
11 0 7 -0.8222 0.0314
11 0 8 -0.1388 0.1212
11 0 9 0.7409 0.1410
11 0 10 0.9404 0.2161
11 1 0 1.4552 -0.5651
11 1 1 1.0080 -0.4339
11 1 2 0.2513 -0.3047
11 1 3 -0.3995 -0.1756
11 1 4 1.5697 -0.1222
11 1 5 1.1433 -0.0384
11 1 6 -0.3903 0.0062
11 1 7 0.7412 0.0094
11 1 8 -0.2432 0.0522
11 1 9 -2.0925 0.0308
11 1 10 -1.0909 -0.1959
11 1 11 1.1304 0.0961
11 2 0 -0.3048 -0.1872
11 2 1 -1.0103 -0.3704
11 2 2 -0.2109 -0.2783
11 2 3 -0.1171 -0.2055
11 2 4 1.1904 -0.1191
11 2 5 -1.1922 -0.0824
11 2 6 -0.2935 -0.0416
11 2 7 -0.6664 0.0734
11 2 8 0.2309 0.0735
11 2 9 1.7039 0.0628
11 2 10 1.0781 -0.0088
11 2 11 -0.3029 -0.0142
11 3 0 0.6548 -0.2493
11 3 1 0.9353 -0.2379
11 3 2 -0.3858 -0.1998
11 3 3 0.2385 -0.2358
11 3 4 -1.8559 -0.1548
11 3 5 0.2302 -0.0657
11 3 6 0.2416 -0.0135
11 3 7 -1.1572 0.0374
11 3 8 -0.5227 0.0572
11 3 9 -0.3768 0.0391
11 3 10 0.4777 0.1144
11 3 11 0.2956 -0.0168
11 3 12 0.2664 -0.0817
11 4 0 -0.5984 -0.2671
11 4 1 0.3346 -0.2073
11 4 2 1.0639 -0.2518
11 4 3 -1.1561 -0.1782
11 4 4 1.1640 -0.1361
11 4 5 0.1909 -0.0725
11 4 6 0.1753 -0.0005
11 4 7 1.5540 -0.0241
11 4 8 -0.1447 0.0428
11 4 9 0.0085 0.0852
11 4 10 -1.1941 0.0152
11 4 11 0.4549 -0.0046
11 4 12 -0.3187 0.0185
11 5 1 0.4278 -0.1464
11 5 2 -0.2395 -0.2690
11 5 3 2.0254 -0.1773
11 5 4 -1.2189 -0.1060
11 5 5 0.2674 -0.1320
11 5 6 0.0266 -0.0436
11 5 7 -0.3672 0.0102
11 5 8 1.1360 0.0178
11 5 9 0.0815 0.0549
11 5 10 1.1448 0.0279
11 5 11 0.2879 -0.0417
11 5 12 0.3267 0.0189
11 6 4 2.1301 -0.1421
11 6 5 -0.3414 -0.0508
11 6 6 -0.0534 -0.0764
11 6 7 -0.3639 -0.0016
11 6 8 -1.1130 0.0144
11 6 9 -0.4952 -0.0553
11 6 10 0.2662 0.0736
11 6 11 -0.7654 -0.0029
11 6 12 0.5573 -0.1176
11 7 4 -1.6482 -0.1010
11 7 5 0.3461 0.0124
11 7 6 -0.1569 -0.0590
11 7 7 0.3512 -0.0116
11 7 8 0.2860 -0.0090
11 7 9 0.5801 0.0446
11 7 10 -1.6741 -0.0212
11 7 11 0.0117 0.0617
11 7 12 -0.6704 -0.0529
11 8 5 -0.5058 -0.2041
11 8 6 0.2135 -0.0619
11 8 7 -0.0067 -0.0229
11 8 8 -0.0649 0.0525
11 8 9 -0.8755 0.0749
11 8 10 0.5452 -0.1427
11 8 11 0.4277 0.0952
11 9 6 -0.7529 0.1240
11 9 7 -0.7487 -0.0319
11 9 8 -0.3136 -0.0345
11 9 9 0.6475 -0.0360
11 9 10 0.2800 0.1744
11 9 11 -0.9347 -0.2522
11 10 8 -0.3139 0.0449
11 10 9 -1.2020 0.0049
11 10 10 -0.3965 0.1044
12 -3 3 1.8186 -0.1402
12 -2 3 -0.6415 -0.0433
12 -2 4 1.9247 -0.0030
12 -2 5 -0.3110 0.0295
12 -1 3 -1.2785 -0.1962
12 -1 4 0.3103 -0.0365
12 -1 5 0.1613 -0.0057
12 -1 6 -0.8715 0.0097
12 0 3 1.8253 -0.1721
12 0 4 -1.4564 -0.1111
12 1 2 0.2809 -0.3898
12 1 3 0.0045 -0.2027
12 1 4 0.0425 -0.0380
12 1 5 1.1853 0.0699
12 1 6 -0.0918 0.0101
12 2 2 0.7096 -0.2249
12 2 3 -1.0496 -0.1389
12 2 4 1.5580 -0.1090
12 2 5 -1.0222 0.0117
12 2 6 -0.5624 0.0556
12 2 7 -0.4479 0.1189
12 2 8 -0.4350 0.1807
12 3 1 1.3416 -0.0673
12 3 2 -1.0108 -0.2198
12 3 4 -1.6467 -0.1076
12 3 5 0.2442 -0.0506
12 3 6 0.8252 0.0557
12 3 7 -0.5719 0.1725
12 3 8 -1.4630 -0.0129
12 3 9 0.1392 0.0679
12 4 2 1.5548 -0.1710
12 4 4 0.7703 -0.0539
12 4 5 0.1295 -0.0005
12 4 6 -1.1035 0.0510
12 4 7 1.4474 0.0358
12 4 8 1.0635 0.0297
12 4 9 -0.4692 0.0063
12 5 5 -0.5282 -0.0983
12 5 6 1.5216 -0.0406
12 5 7 -1.3101 -0.0453
12 5 8 1.2041 0.1623
12 5 9 0.4808 0.0508
12 5 10 0.5663 -0.0064
12 6 6 -1.5088 0.0327
12 6 7 0.5736 0.0505
12 6 8 -2.0534 -0.0667
12 6 9 -0.6200 -0.0388
12 6 10 0.2040 0.0610
12 6 11 -0.5505 -0.0365
12 7 7 -0.2150 0.0185
12 7 8 0.7387 0.0349
12 7 9 0.6378 -0.0320
12 8 7 0.1073 0.0112
12 8 8 -0.0171 -0.0375
13 4 6 -1.0541 -0.0267
13 5 7 0.2455 -0.3232
13 5 8 0.4774 0.3798
0 0 0 0.0 0.0
;
_shelx_fab_checksum              92067
_olex2_submission_special_instructions 'No special instructions were received'
_oxdiff_exptl_absorpt_empirical_details
;
Empirical correction (ABSPACK) includes:
- Absorption correction using spherical harmonics
- Frame scaling
;
_oxdiff_exptl_absorpt_empirical_full_max 5.519
_oxdiff_exptl_absorpt_empirical_full_min 0.617
loop_
_space_group_symop_operation_xyz
'x, y, z'
'-x, -y, -z'
loop_
_atom_site_label
_atom_site_type_symbol
_atom_site_fract_x
_atom_site_fract_y
_atom_site_fract_z
_atom_site_U_iso_or_equiv
_atom_site_adp_type
_atom_site_occupancy
_atom_site_site_symmetry_order
_atom_site_calc_flag
_atom_site_refinement_flags_posn
_atom_site_refinement_flags_adp
_atom_site_refinement_flags_occupancy
Fe1 Fe 0.500000 0.000000 0.500000 0.01274(10) Uani 1 2 d S T P
Se1 Se 1.07668(11) -0.00763(11) 0.30098(11) 0.0465(3) Uani 0.75 1 d . . .
S1 S 0.40899(6) 0.20682(5) 1.01737(5) 0.01851(12) Uani 1 1 d . . .
S2 S 0.60366(6) 0.31269(5) 0.94765(5) 0.01844(12) Uani 1 1 d . . .
N3 N 0.53085(19) 0.77560(17) 0.65213(17) 0.0164(3) Uani 1 1 d . . .
N2 N 0.46914(19) 0.06876(17) 0.66951(17) 0.0162(3) Uani 1 1 d . . .
N1 N 0.73989(19) 0.02937(18) 0.41549(18) 0.0182(3) Uani 1 1 d . . .
C9 C 0.5686(2) 0.4904(2) 0.8337(2) 0.0160(4) Uani 1 1 d . . .
C4 C 0.4385(2) 0.1577(2) 0.8773(2) 0.0174(4) Uani 1 1 d . . .
C6 C 0.3440(2) 0.0356(2) 0.7930(2) 0.0187(4) Uani 1 1 d . . .
H6 H 0.266963 -0.017916 0.807742 0.022 Uiso 1 1 calc R . .
C8 C 0.6794(2) 0.5915(2) 0.7782(2) 0.0193(4) Uani 1 1 d . . .
H8 H 0.767864 0.565671 0.800370 0.023 Uiso 1 1 calc R . .
C7 C 0.6556(2) 0.7311(2) 0.6892(2) 0.0184(4) Uani 1 1 d . . .
H7 H 0.730102 0.798031 0.653109 0.022 Uiso 1 1 calc R . .
C3 C 0.5673(2) 0.1934(2) 0.7508(2) 0.0202(4) Uani 1 1 d . . .
H3 H 0.645031 0.248337 0.732609 0.024 Uiso 1 1 calc R . .
C5 C 0.3242(2) 0.0771(2) 0.8986(2) 0.0194(4) Uani 1 1 d . . .
H5 H 0.236220 0.051592 0.982227 0.023 Uiso 1 1 calc R . .
C10 C 0.4393(2) 0.5344(2) 0.7970(2) 0.0207(4) Uani 1 1 d . . .
H10 H 0.363288 0.469450 0.831876 0.025 Uiso 1 1 calc R . .
C2 C 0.5778(2) 0.1458(2) 0.6523(2) 0.0198(4) Uani 1 1 d . . .
H2 H 0.665707 0.168636 0.568799 0.024 Uiso 1 1 calc R . .
C11 C 0.4249(2) 0.6765(2) 0.7077(2) 0.0211(4) Uani 1 1 d . . .
H11 H 0.336859 0.704901 0.684888 0.025 Uiso 1 1 calc R . .
C1 C 0.8711(3) 0.0171(3) 0.3696(2) 0.0261(5) Uani 1 1 d . . .
Se1A Se 1.0681(5) 0.0729(6) 0.2639(5) 0.0794(16) Uani 0.15 1 d . . .
Se1B Se 1.0526(6) -0.0643(7) 0.3088(7) 0.0464(15) Uani 0.1 1 d . . .
loop_
_atom_site_aniso_label
_atom_site_aniso_U_11
_atom_site_aniso_U_22
_atom_site_aniso_U_33
_atom_site_aniso_U_23
_atom_site_aniso_U_13
_atom_site_aniso_U_12
Fe1 0.01299(19) 0.0148(2) 0.01197(18) -0.00675(15) -0.00532(14) 0.00091(14)
Se1 0.0143(3) 0.0969(9) 0.0316(4) -0.0360(5) -0.0043(3) 0.0052(4)
S1 0.0270(3) 0.0168(3) 0.0154(2) -0.00938(19) -0.00824(19) -0.00038(19)
S2 0.0261(3) 0.0150(2) 0.0195(2) -0.00835(19) -0.0137(2) 0.00329(19)
N3 0.0195(8) 0.0163(8) 0.0151(8) -0.0071(7) -0.0080(6) 0.0009(6)
N2 0.0203(9) 0.0170(8) 0.0127(8) -0.0070(7) -0.0072(6) 0.0014(6)
N1 0.0180(9) 0.0212(9) 0.0156(8) -0.0079(7) -0.0060(7) -0.0008(7)
C9 0.0238(10) 0.0133(9) 0.0136(9) -0.0082(7) -0.0079(8) 0.0027(7)
C4 0.0253(10) 0.0147(9) 0.0175(9) -0.0097(8) -0.0114(8) 0.0038(7)
C6 0.0227(10) 0.0191(10) 0.0166(9) -0.0077(8) -0.0083(8) -0.0025(8)
C8 0.0197(10) 0.0206(10) 0.0224(10) -0.0111(8) -0.0115(8) 0.0031(8)
C7 0.0200(10) 0.0193(10) 0.0188(9) -0.0092(8) -0.0088(8) 0.0004(7)
C3 0.0208(10) 0.0219(11) 0.0220(10) -0.0126(9) -0.0076(8) -0.0013(8)
C5 0.0228(10) 0.0198(10) 0.0154(9) -0.0085(8) -0.0049(8) -0.0019(8)
C10 0.0244(11) 0.0185(11) 0.0226(10) -0.0069(8) -0.0132(8) -0.0022(8)
C2 0.0177(10) 0.0238(11) 0.0192(10) -0.0125(9) -0.0042(8) 0.0001(8)
C11 0.0227(11) 0.0206(11) 0.0226(10) -0.0071(9) -0.0135(8) -0.0002(8)
C1 0.0216(11) 0.0422(14) 0.0170(10) -0.0146(10) -0.0069(8) -0.0010(9)
Se1A 0.0188(15) 0.182(5) 0.057(3) -0.077(3) 0.0097(14) -0.028(3)
Se1B 0.015(2) 0.076(4) 0.0362(18) -0.018(3) -0.0144(15) 0.019(2)
loop_
_atom_type_symbol
_atom_type_description
_atom_type_scat_dispersion_real
_atom_type_scat_dispersion_imag
_atom_type_scat_source
C C 0.0033 0.0016 'International Tables Vol C Tables 4.2.6.8 and 6.1.1.4'
Fe Fe 0.3463 0.8444 'International Tables Vol C Tables 4.2.6.8 and 6.1.1.4'
N N 0.0061 0.0033 'International Tables Vol C Tables 4.2.6.8 and 6.1.1.4'
S S 0.1246 0.1234 'International Tables Vol C Tables 4.2.6.8 and 6.1.1.4'
Se Se -0.0929 2.2259 'International Tables Vol C Tables 4.2.6.8 and 6.1.1.4'
H H 0.0000 0.0000 'International Tables Vol C Tables 4.2.6.8 and 6.1.1.4'
loop_
_geom_angle_atom_site_label_1
_geom_angle_atom_site_label_2
_geom_angle_atom_site_label_3
_geom_angle
_geom_angle_site_symmetry_1
_geom_angle_site_symmetry_3
N3 Fe1 N3 180.0 2_666 1_545
N3 Fe1 N2 90.77(6) 1_545 2_656
N3 Fe1 N2 90.77(6) 2_666 .
N3 Fe1 N2 89.23(6) 1_545 .
N3 Fe1 N2 89.23(6) 2_666 2_656
N2 Fe1 N2 180.0 2_656 .
N1 Fe1 N3 90.68(6) 2_656 1_545
N1 Fe1 N3 89.32(6) . 1_545
N1 Fe1 N3 89.32(6) 2_656 2_666
N1 Fe1 N3 90.68(6) . 2_666
N1 Fe1 N2 88.75(6) . 2_656
N1 Fe1 N2 91.25(6) . .
N1 Fe1 N2 91.25(6) 2_656 2_656
N1 Fe1 N2 88.75(6) 2_656 .
N1 Fe1 N1 180.0 . 2_656
Se1A Se1 C1 77.4(4) . .
Se1B Se1 C1 78.7(6) . .
Se1B Se1 Se1A 139.9(9) . .
C4 S1 S2 104.08(7) . .
C9 S2 S1 104.25(7) . .
C7 N3 Fe1 123.04(13) . 1_565
C11 N3 Fe1 120.41(13) . 1_565
C11 N3 C7 116.52(18) . .
C6 N2 Fe1 123.09(13) . .
C2 N2 Fe1 120.45(13) . .
C2 N2 C6 116.46(17) . .
C1 N1 Fe1 165.07(18) . .
C8 C9 S2 117.25(15) . .
C10 C9 S2 124.45(15) . .
C10 C9 C8 118.30(18) . .
C3 C4 S1 124.41(16) . .
C3 C4 C5 118.50(17) . .
C5 C4 S1 117.09(15) . .
N2 C6 H6 118.2 . .
N2 C6 C5 123.50(19) . .
C5 C6 H6 118.2 . .
C9 C8 H8 120.6 . .
C7 C8 C9 118.79(19) . .
C7 C8 H8 120.6 . .
N3 C7 C8 123.69(19) . .
N3 C7 H7 118.2 . .
C8 C7 H7 118.2 . .
C4 C3 H3 120.7 . .
C2 C3 C4 118.68(19) . .
C2 C3 H3 120.7 . .
C4 C5 H5 120.6 . .
C6 C5 C4 118.72(18) . .
C6 C5 H5 120.6 . .
C9 C10 H10 120.5 . .
C9 C10 C11 118.97(19) . .
C11 C10 H10 120.5 . .
N2 C2 C3 124.12(19) . .
N2 C2 H2 117.9 . .
C3 C2 H2 117.9 . .
N3 C11 C10 123.73(19) . .
N3 C11 H11 118.1 . .
C10 C11 H11 118.1 . .
N1 C1 Se1 178.3(2) . .
N1 C1 Se1A 157.3(3) . .
N1 C1 Se1B 158.1(3) . .
Se1A C1 Se1 24.36(18) . .
Se1B C1 Se1 20.52(18) . .
Se1B C1 Se1A 43.0(3) . .
Se1 Se1A C1 78.3(4) . .
Se1 Se1A Se1B 18.3(4) . .
Se1B Se1A C1 68.3(3) . .
Se1 Se1B C1 80.7(6) . .
Se1 Se1B Se1A 21.8(5) . .
Se1A Se1B C1 68.7(3) . .
loop_
_geom_bond_atom_site_label_1
_geom_bond_atom_site_label_2
_geom_bond_distance
_geom_bond_site_symmetry_2
Fe1 N3 2.2380(16) 1_545
Fe1 N3 2.2380(16) 2_666
Fe1 N2 2.2387(15) .
Fe1 N2 2.2387(15) 2_656
Fe1 N1 2.1107(17) 2_656
Fe1 N1 2.1107(17) .
Se1 C1 1.806(2) .
Se1 Se1A 0.761(6) .
Se1 Se1B 0.641(6) .
S1 S2 2.0305(7) .
S1 C4 1.7823(19) .
S2 C9 1.776(2) .
N3 C7 1.346(3) .
N3 C11 1.342(3) .
N2 C6 1.351(3) .
N2 C2 1.342(3) .
N1 C1 1.149(3) .
C9 C8 1.391(3) .
C9 C10 1.383(3) .
C4 C3 1.386(3) .
C4 C5 1.393(3) .
C6 H6 0.9300 .
C6 C5 1.384(3) .
C8 H8 0.9300 .
C8 C7 1.384(3) .
C7 H7 0.9300 .
C3 H3 0.9300 .
C3 C2 1.380(3) .
C5 H5 0.9300 .
C10 H10 0.9300 .
C10 C11 1.385(3) .
C2 H2 0.9300 .
C11 H11 0.9300 .
C1 Se1A 1.800(5) .
C1 Se1B 1.794(6) .
Se1A Se1B 1.318(9) .
loop_
_smtbx_masks_void_nr
_smtbx_masks_void_average_x
_smtbx_masks_void_average_y
_smtbx_masks_void_average_z
_smtbx_masks_void_volume
_smtbx_masks_void_count_electrons
1 -0.295 -0.007 0.892 331.0 76.5
