#------------------------------------------------------------------------------
#$Date: 2019-11-07 23:03:24 +0200 (Thu, 07 Nov 2019) $
#$Revision: 223921 $
#$URL: file:///home/coder/svn-repositories/cod/cif/7/70/06/7700632.cif $
#------------------------------------------------------------------------------
#
# This file is available in the Crystallography Open Database (COD),
# http://www.crystallography.net/
#
# All data on this site have been placed in the public domain by the
# contributors.
#
data_7700632
loop_
_publ_author_name
'Ito, Hiroaki'
'Miura, Akira'
'Goto, Yosuke'
'Mizuguchi, Yoshikazu'
'Moriyoshi, Chikako'
'Kuroiwa, Yoshihiro'
'Azuma, Masaki'
'Liu, Jinjia'
'Wen, Xiao-Dong'
'Nishioka, Shunta'
'Maeda, Kazuhiko'
'Masubuchi, Yuji'
'Rosero-Navarro, Nataly Carolina'
'Tadanaga, Kiyoharu'
_publ_section_title
;
 An electronic structure governed by the displacement of the indium site
 in In-S<sub>6</sub> octahedra: LnOInS<sub>2</sub> (Ln = La, Ce, and Pr).
;
_journal_issue                   32
_journal_name_full
'Dalton transactions (Cambridge, England : 2003)'
_journal_page_first              12272
_journal_page_last               12278
_journal_paper_doi               10.1039/c9dt01562k
_journal_volume                  48
_journal_year                    2019
_chemical_formula_sum            'Ce In O S2'
_chemical_formula_weight         335.1
_space_group_IT_number           11
_space_group_name_Hall           '-P 2yb'
_space_group_name_H-M_alt        'P 1 21/m 1'
_symmetry_cell_setting           monoclinic
_symmetry_Int_Tables_number      11
_symmetry_space_group_name_Hall  '-P 2yb'
_symmetry_space_group_name_H-M   'P 1 21/m 1'
_audit_update_record
;
2019-01-16 deposited with the CCDC.    2019-07-24 downloaded from the CCDC.
;
_cell_angle_alpha                90
_cell_angle_beta                 90
_cell_angle_gamma                90
_cell_formula_units_Z            2
_cell_length_a                   3.98582(6)
_cell_length_b                   3.98000(7)
_cell_length_c                   12.69515(10)
_cell_measurement_temperature    300
_cell_volume                     201.390(5)
_diffrn_ambient_temperature      300
_diffrn_detector_type
'multiple MYTHEN system (Rev. Sci. Instrum. 88, 85111 (2017))'
_diffrn_measurement_device_type  SPring-8_BL02B2
_diffrn_radiation_probe          x-ray
_diffrn_radiation_type           synchrotron
_diffrn_radiation_wavelength     0.49527
_diffrn_source                   synchrotron
_exptl_absorpt_coefficient_mu    6.671
_exptl_crystal_density_diffrn    5.5254
_exptl_crystal_F_000             294
_pd_instr_location               ' ?'
_pd_meas_2theta_range_inc        0.006
_pd_meas_2theta_range_max        78.216
_pd_meas_2theta_range_min        2.100
_pd_meas_number_of_points        12687
_pd_proc_2theta_range_inc        0.006
_pd_proc_2theta_range_max        69.996
_pd_proc_2theta_range_min        2.1
_pd_proc_ls_background_function  'Manual background'
_pd_proc_ls_pref_orient_corr     none
_pd_proc_ls_profile_function     Pseudo-Voigt
_pd_proc_ls_prof_R_factor        0.0640
_pd_proc_ls_prof_wR_expected     0.0110
_pd_proc_ls_prof_wR_factor       0.0988
_refine_ls_goodness_of_fit_all   8.98
_refine_ls_number_constraints    0
_refine_ls_number_parameters     21
_refine_ls_number_restraints     0
_refine_ls_R_factor_all          0.0654
_refine_ls_R_factor_gt           0.0652
_refine_ls_shift/su_max          0.0404
_refine_ls_shift/su_mean         0.0084
_refine_ls_weighting_scheme      sigma
_refine_ls_wR_factor_all         0.0877
_refine_ls_wR_factor_gt          0.0877
_cod_data_source_file            c9dt01562k2.cif
_cod_data_source_block           I_CCDC3
_cod_depositor_comments
;
The following automatic conversions were performed:

'_diffrn_radiation_probe' value 'X-ray' changed to 'x-ray' according
to
/home/data/users/saulius/crontab/automatic-downloads/rss-feeds/RSC/lib/dictionaries/cif_core.dic
dictionary named 'cif_core.dic' version 2.4.2 from 2011-04-26.

Automatic conversion script
Id: cif_fix_values 4973 2017-02-22 13:04:09Z antanas 

 Adding full bibliography for 7700629--7700637.cif.
;
_cod_original_formula_sum        'Ce1 In1 O1 S2'
_cod_database_code               7700632
loop_
_space_group_symop_id
_space_group_symop_operation_xyz
1 x,y,z
2 -x,y+1/2,-z
3 -x,-y,-z
4 x,-y+1/2,z
loop_
_atom_site_label
_atom_site_type_symbol
_atom_site_fract_x
_atom_site_fract_y
_atom_site_fract_z
_atom_site_adp_type
_atom_site_U_iso_or_equiv
_atom_site_site_symmetry_multiplicity
_atom_site_occupancy
_atom_site_calc_flag
Ce1 Ce 0.25 0.25 0.09857(7) Uiso 0.00459(14) 2 1 d
In1 In 0.25 0.25 0.60786(10) Uani 0.0449(10) 2 1 d
S1 S 0.25 0.25 0.4080(3) Uiso 0.0129(8) 2 1 d
S2 S 0.25 0.25 0.7961(3) Uiso 0.0036(6) 2 1 d
O1 O 0.75 0.25 0 Uiso 0.0056 2 1 d
loop_
_atom_site_aniso_label
_atom_site_aniso_type_symbol
_atom_site_aniso_U_11
_atom_site_aniso_U_22
_atom_site_aniso_U_33
_atom_site_aniso_U_12
_atom_site_aniso_U_13
_atom_site_aniso_U_23
In1 In 0.0259(17) 0.096(2) 0.0129(8) 0 0 0
loop_
_atom_type_symbol
_atom_type_scat_dispersion_real
_atom_type_scat_dispersion_imag
_atom_type_scat_source
Ce -1.1304 1.3720 'International Tables Vol C tables 4.2.6.8 and 6.1.1.1'
In -2.1272 0.6711 'International Tables Vol C tables 4.2.6.8 and 6.1.1.1'
O 0.0007 0.0027 'International Tables Vol C tables 4.2.6.8 and 6.1.1.1'
S 0.0527 0.0607 'International Tables Vol C tables 4.2.6.8 and 6.1.1.1'
loop_
_geom_angle_atom_site_label_1
_geom_angle_atom_site_label_2
_geom_angle_atom_site_label_3
_geom_angle_site_symmetry_1
_geom_angle_site_symmetry_3
_geom_angle
O1 Ce1 O1 1_455 . 115.75(3)
O1 Ce1 O1 1_455 2_645 73.555(16)
O1 Ce1 O1 1_455 2_655 73.555(16)
O1 Ce1 O1 . 2_645 73.555(16)
O1 Ce1 O1 . 2_655 73.555(16)
O1 Ce1 O1 2_645 2_655 115.67(3)
S1 In1 S1 . 2_546 85.92(8)
S1 In1 S1 . 2_556 85.92(8)
S1 In1 S1 . 2_646 85.92(8)
S1 In1 S1 . 2_656 85.92(8)
S1 In1 S2 . . 180.0(5)
S1 In1 S1 2_546 2_556 89.626(8)
S1 In1 S1 2_546 2_646 89.793(8)
S1 In1 S1 2_546 2_656 171.83(11)
S1 In1 S2 2_546 . 94.08(8)
S1 In1 S1 2_556 2_646 171.83(11)
S1 In1 S1 2_556 2_656 89.793(8)
S1 In1 S2 2_556 . 94.08(8)
S1 In1 S1 2_646 2_656 89.626(8)
S1 In1 S2 2_646 . 94.08(8)
S1 In1 S2 2_656 . 94.08(8)
In1 S1 In1 . 2_546 94.08(8)
In1 S1 In1 . 2_556 94.08(8)
In1 S1 In1 . 2_646 94.08(8)
In1 S1 In1 . 2_656 94.08(8)
In1 S1 In1 2_546 2_556 89.626(11)
In1 S1 In1 2_546 2_646 89.793(11)
In1 S1 In1 2_546 2_656 171.83(15)
In1 S1 In1 2_556 2_646 171.83(15)
In1 S1 In1 2_556 2_656 89.793(11)
In1 S1 In1 2_646 2_656 89.626(11)
Ce1 O1 Ce1 . 1_655 115.75(2)
Ce1 O1 Ce1 . 2_645 106.445(11)
Ce1 O1 Ce1 . 2_655 106.445(11)
Ce1 O1 O1 . 2_645 53.182(8)
Ce1 O1 O1 . 2_655 53.182(8)
Ce1 O1 O1 . 2_745 126.818(8)
Ce1 O1 O1 . 2_755 126.818(8)
Ce1 O1 Ce1 1_655 2_645 106.445(11)
Ce1 O1 Ce1 1_655 2_655 106.445(11)
Ce1 O1 O1 1_655 2_645 126.818(8)
Ce1 O1 O1 1_655 2_655 126.818(8)
Ce1 O1 O1 1_655 2_745 53.182(8)
Ce1 O1 O1 1_655 2_755 53.182(8)
Ce1 O1 Ce1 2_645 2_655 115.67(2)
Ce1 O1 O1 2_645 2_645 53.263(8)
Ce1 O1 O1 2_645 2_655 126.737(8)
Ce1 O1 O1 2_645 2_745 53.263(8)
Ce1 O1 O1 2_645 2_755 126.737(8)
Ce1 O1 O1 2_655 2_645 126.737(8)
Ce1 O1 O1 2_655 2_655 53.263(8)
Ce1 O1 O1 2_655 2_745 126.737(8)
Ce1 O1 O1 2_655 2_755 53.263(8)
O1 O1 O1 2_645 2_655 89.9162(13)
O1 O1 O1 2_645 2_745 90.0838(13)
O1 O1 O1 2_645 2_755 180.0(5)
O1 O1 O1 2_655 2_745 180.0(5)
O1 O1 O1 2_655 2_755 90.0838(13)
O1 O1 O1 2_745 2_755 89.9162(13)
loop_
_geom_bond_atom_site_label_1
_geom_bond_atom_site_label_2
_geom_bond_site_symmetry_2
_geom_bond_distance
Ce1 O1 1_455 2.3532(4)
Ce1 O1 . 2.3532(4)
Ce1 O1 2_645 2.3508(4)
Ce1 O1 2_655 2.3508(4)
In1 S1 . 2.538(4)
In1 S1 2_546 2.8235(3)
In1 S1 2_556 2.8235(3)
In1 S1 2_646 2.8235(3)
In1 S1 2_656 2.8235(3)
In1 S2 . 2.389(3)
O1 O1 2_645 2.81634(7)
O1 O1 2_655 2.81634(7)
O1 O1 2_745 2.81634(7)
O1 O1 2_755 2.81634(7)
loop_
_pd_proc_point_id
_pd_proc_2theta_corrected
_pd_proc_intensity_net
_pd_calc_intensity_net
_pd_proc_ls_weight
1 2.1000 6559.00 8204.02 81.00
2 2.1060 6599.00 6598.18 81.00
3 2.1120 6584.00 6604.86 81.00
4 2.1180 6420.00 6612.57 80.00
5 2.1240 6358.00 6621.55 80.00
6 2.1300 6519.00 6632.09 81.00
7 2.1360 6605.00 6644.56 81.00
8 2.1420 6604.00 6659.48 81.00
9 2.1480 6779.00 6677.52 82.00
10 2.1540 6893.00 6699.60 83.00
11 2.1600 6946.00 6727.04 83.00
12 2.1660 7236.00 6761.69 85.00
13 2.1720 7470.00 6806.31 86.00
14 2.1780 7615.00 6865.04 87.00
15 2.1840 7889.00 6944.46 89.00
16 2.1900 8339.00 7055.45 91.00
17 2.1960 9203.00 7219.32 96.00
18 2.2020 10618.00 7513.66 103.00
19 2.2080 13660.00 8420.13 117.00
20 2.2140 22002.00 12332.70 148.00
21 2.2200 43147.00 25786.00 208.00
22 2.2260 83884.00 54379.80 290.00
23 2.2320 126881.00 85420.60 356.00
24 2.2380 133582.00 88000.60 365.00
25 2.2440 102177.00 58926.20 320.00
26 2.2500 59650.00 28699.10 244.00
27 2.2560 29471.00 13374.40 172.00
28 2.2620 16315.00 8670.42 128.00
29 2.2680 11766.00 7576.46 108.00
30 2.2740 9841.00 7247.34 99.00
31 2.2800 8873.00 7073.35 94.00
32 2.2860 8307.00 6956.99 91.00
33 2.2920 7911.00 6874.16 89.00
34 2.2980 7716.00 6813.13 88.00
35 2.3040 7553.00 6766.94 87.00
36 2.3100 7289.00 6731.15 85.00
37 2.3160 7100.00 6702.88 84.00
38 2.3220 6976.00 6680.17 84.00
39 2.3280 6940.00 6661.66 83.00
40 2.3340 6897.00 6646.38 83.00
41 2.3400 6756.00 6633.61 82.00
42 2.3460 6779.00 6622.84 82.00
43 2.3520 6671.00 6613.68 82.00
44 2.3580 6647.00 6605.81 82.00
45 2.3640 6608.00 6599.01 81.00
46 2.3700 6643.00 6593.09 82.00
47 2.3760 6471.00 6587.91 80.00
48 2.3820 6374.00 6583.34 80.00
49 2.3880 6478.00 6579.30 80.00
50 2.3940 6566.00 6575.71 81.00
51 2.4000 6485.00 6571.50 81.00
52 2.4060 6492.00 6528.70 81.00
53 2.4120 6643.00 6526.70 82.00
54 2.4180 6453.00 6524.70 80.00
55 2.4240 6426.00 6523.70 80.00
56 2.4300 6344.00 6521.69 80.00
57 2.4360 6367.00 6519.69 80.00
58 2.4420 6396.00 6518.69 80.00
59 2.4480 6260.00 6516.69 79.00
60 2.4540 6442.00 6514.69 80.00
61 2.4600 6377.00 6513.69 80.00
62 2.4660 6358.00 6511.68 80.00
63 2.4720 6430.00 6509.68 80.00
64 2.4780 6509.00 6507.68 81.00
65 2.4840 6325.00 6506.68 80.00
66 2.4900 6159.00 6504.68 78.00
67 2.4960 6279.00 6502.67 79.00
68 2.5020 6482.00 6501.67 81.00
69 2.5080 6344.00 6499.67 80.00
70 2.5140 6293.00 6497.67 79.00
71 2.5200 6386.00 6496.67 80.00
72 2.5260 6470.00 6494.67 80.00
73 2.5320 6393.00 6492.66 80.00
74 2.5380 6287.00 6491.66 79.00
75 2.5440 6370.00 6489.66 80.00
76 2.5500 6246.00 6487.66 79.00
77 2.5560 6267.00 6485.66 79.00
78 2.5620 6394.00 6484.66 80.00
79 2.5680 6348.00 6482.65 80.00
80 2.5740 6243.00 6480.65 79.00
81 2.5800 6271.00 6479.65 79.00
82 2.5860 6437.00 6477.65 80.00
83 2.5920 6346.00 6475.65 80.00
84 2.5980 6430.00 6474.65 80.00
85 2.6040 6413.00 6472.64 80.00
86 2.6100 6348.00 6470.64 80.00
87 2.6160 6348.00 6469.64 80.00
88 2.6220 6311.00 6467.64 79.00
89 2.6280 6586.00 6465.64 81.00
90 2.6340 6462.00 6464.63 80.00
91 2.6400 6323.00 6462.63 80.00
92 2.6460 6192.00 6460.63 79.00
93 2.6520 6359.00 6458.63 80.00
94 2.6580 6348.00 6457.63 80.00
95 2.6640 6432.00 6455.63 80.00
96 2.6700 6397.00 6453.62 80.00
97 2.6760 6461.00 6452.62 80.00
98 2.6820 6346.00 6450.62 80.00
99 2.6880 6383.00 6448.62 80.00
100 2.6940 6515.00 6447.62 81.00
101 2.7000 6358.00 6445.62 80.00
102 2.7060 6531.00 6443.61 81.00
103 2.7120 6483.00 6442.61 81.00
104 2.7180 6432.00 6440.61 80.00
105 2.7240 6427.00 6438.61 80.00
106 2.7300 6418.00 6436.61 80.00
107 2.7360 6307.00 6435.60 79.00
108 2.7420 6390.00 6433.60 80.00
109 2.7480 6527.00 6431.60 81.00
110 2.7540 6385.00 6430.60 80.00
111 2.7600 6398.00 6431.60 80.00
112 2.7660 6447.00 6432.60 80.00
113 2.7720 6248.00 6434.60 79.00
114 2.7780 6407.00 6435.60 80.00
115 2.7840 6242.00 6437.61 79.00
116 2.7900 6524.00 6438.61 81.00
117 2.7960 6304.00 6440.61 79.00
118 2.8020 6479.00 6441.61 80.00
119 2.8080 6413.00 6442.61 80.00
120 2.8140 6423.00 6444.61 80.00
121 2.8200 6466.00 6445.62 80.00
122 2.8260 6450.00 6447.62 80.00
123 2.8320 6413.00 6448.62 80.00
124 2.8380 6502.00 6450.62 81.00
125 2.8440 6343.00 6451.62 80.00
126 2.8500 6532.00 6453.62 81.00
127 2.8560 6376.00 6454.62 80.00
128 2.8620 6385.00 6456.63 80.00
129 2.8680 6577.00 6457.63 81.00
130 2.8740 6561.00 6459.63 81.00
131 2.8800 6534.00 6460.63 81.00
132 2.8860 6384.00 6462.63 80.00
133 2.8920 6332.00 6463.63 80.00
134 2.8980 6365.00 6465.64 80.00
135 2.9040 6375.00 6466.64 80.00
136 2.9100 6523.00 6468.64 81.00
137 2.9160 6572.00 6469.64 81.00
138 2.9220 6546.00 6471.64 81.00
139 2.9280 6372.00 6472.64 80.00
140 2.9340 6372.00 6474.65 80.00
141 2.9400 6536.00 6475.65 81.00
142 2.9460 6652.00 6477.65 82.00
143 2.9520 6624.00 6478.65 81.00
144 2.9580 6692.00 6480.65 82.00
145 2.9640 6524.00 6481.65 81.00
146 2.9700 6431.00 6483.65 80.00
147 2.9760 6458.00 6484.66 80.00
148 2.9820 6512.00 6486.66 81.00
149 2.9880 6491.00 6487.66 81.00
150 2.9940 6516.00 6488.66 81.00
151 3.0000 6391.00 6490.66 80.00
152 3.0060 6440.00 6491.66 80.00
153 3.0120 6540.00 6493.66 81.00
154 3.0180 6530.00 6494.67 81.00
155 3.0240 6489.00 6496.67 81.00
156 3.0300 6649.00 6497.67 82.00
157 3.0360 6628.00 6499.67 81.00
158 3.0420 6489.00 6500.67 81.00
159 3.0480 6600.00 6502.67 81.00
160 3.0540 6634.00 6503.67 81.00
161 3.0600 6542.00 6505.68 81.00
162 3.0660 6648.00 6506.68 82.00
163 3.0720 6677.00 6508.68 82.00
164 3.0780 6533.00 6509.68 81.00
165 3.0840 6511.00 6511.68 81.00
166 3.0900 6516.00 6512.68 81.00
167 3.0960 6553.00 6514.69 81.00
168 3.1020 6576.00 6515.69 81.00
169 3.1080 6669.00 6517.69 82.00
170 3.1140 6639.00 6518.69 81.00
171 3.1200 6508.00 6520.69 81.00
172 3.1260 6535.00 6521.69 81.00
173 3.1320 6574.00 6523.70 81.00
174 3.1380 6583.00 6524.70 81.00
175 3.1440 6451.00 6526.70 80.00
176 3.1500 6604.00 6527.70 81.00
177 3.1560 6749.00 6529.70 82.00
178 3.1620 6666.00 6530.70 82.00
179 3.1680 6615.00 6532.70 81.00
180 3.1740 6681.00 6533.71 82.00
181 3.1800 6715.00 6534.71 82.00
182 3.1860 6726.00 6536.71 82.00
183 3.1920 6757.00 6537.71 82.00
184 3.1980 7043.00 6539.71 84.00
185 3.2040 8158.00 6540.71 90.00
186 3.2100 9970.00 6542.71 100.00
187 3.2160 11167.00 6543.72 106.00
188 3.2220 10595.00 6545.72 103.00
189 3.2280 8993.00 6546.72 95.00
190 3.2340 7742.00 6548.72 88.00
191 3.2400 7040.00 6549.72 84.00
192 3.2460 6928.00 6551.72 83.00
193 3.2520 6890.00 6552.73 83.00
194 3.2580 6808.00 6554.73 83.00
195 3.2640 6941.00 6555.73 83.00
196 3.2700 6864.00 6557.73 83.00
197 3.2760 6674.00 6558.73 82.00
198 3.2820 6748.00 6560.73 82.00
199 3.2880 7023.00 6561.73 84.00
200 3.2940 7203.00 6563.74 85.00
201 3.3000 7367.00 6564.74 86.00
202 3.3060 7319.00 6566.74 86.00
203 3.3120 7395.00 6567.74 86.00
204 3.3180 7423.00 6569.74 86.00
205 3.3240 7240.00 6570.74 85.00
206 3.3300 7105.00 6572.75 84.00
207 3.3360 7021.00 6573.75 84.00
208 3.3420 6755.00 6575.75 82.00
209 3.3480 6768.00 6576.75 82.00
210 3.3540 6912.00 6578.75 83.00
211 3.3600 6866.00 6579.75 83.00
212 3.3660 6866.00 6580.75 83.00
213 3.3720 6987.00 6582.76 84.00
214 3.3780 7164.00 6583.76 85.00
215 3.3840 7671.00 6585.76 88.00
216 3.3900 8994.00 6586.76 95.00
217 3.3960 11809.00 6588.76 109.00
218 3.4020 14424.00 6589.76 120.00
219 3.4080 14191.00 6591.77 119.00
220 3.4140 11595.00 6592.77 108.00
221 3.4200 9021.00 6594.77 95.00
222 3.4260 7801.00 6595.77 88.00
223 3.4320 7273.00 6597.77 85.00
224 3.4380 7042.00 6598.77 84.00
225 3.4440 7023.00 6600.77 84.00
226 3.4500 6862.00 6601.78 83.00
227 3.4560 6816.00 6603.78 83.00
228 3.4620 6838.00 6604.78 83.00
229 3.4680 6849.00 6606.78 83.00
230 3.4740 6960.00 6607.78 83.00
231 3.4800 6948.00 6609.78 83.00
232 3.4860 6733.00 6610.78 82.00
233 3.4920 6749.00 6612.79 82.00
234 3.4980 6835.00 6613.79 83.00
235 3.5040 6798.00 6615.79 82.00
236 3.5100 6830.00 6616.79 83.00
237 3.5160 6791.00 6618.79 82.00
238 3.5220 6785.00 6619.79 82.00
239 3.5280 6825.00 6621.80 83.00
240 3.5340 6750.00 6622.80 82.00
241 3.5400 6711.00 6623.80 82.00
242 3.5460 6661.00 6625.80 82.00
243 3.5520 6529.00 6626.80 81.00
244 3.5580 6554.00 6627.80 81.00
245 3.5640 6700.00 6627.80 82.00
246 3.5700 6789.00 6627.80 82.00
247 3.5760 6772.00 6627.80 82.00
248 3.5820 6765.00 6627.80 82.00
249 3.5880 6718.00 6627.80 82.00
250 3.5940 6712.00 6627.80 82.00
251 3.6000 6780.00 6627.80 82.00
252 3.6060 6770.00 6627.80 82.00
253 3.6120 6826.00 6627.80 83.00
254 3.6180 6690.00 6627.80 82.00
255 3.6240 6588.00 6627.80 81.00
256 3.6300 6599.00 6627.80 81.00
257 3.6360 6605.00 6627.80 81.00
258 3.6420 6612.00 6627.80 81.00
259 3.6480 6614.00 6627.80 81.00
260 3.6540 6636.00 6627.80 81.00
261 3.6600 6574.00 6627.80 81.00
262 3.6660 6658.00 6627.80 82.00
263 3.6720 6678.00 6627.80 82.00
264 3.6780 6758.00 6627.80 82.00
265 3.6840 6813.00 6627.80 83.00
266 3.6900 6707.00 6627.80 82.00
267 3.6960 6657.00 6627.80 82.00
268 3.7020 6726.00 6627.80 82.00
269 3.7080 6759.00 6627.80 82.00
270 3.7140 6748.00 6627.80 82.00
271 3.7200 6727.00 6627.80 82.00
272 3.7260 6753.00 6627.80 82.00
273 3.7320 6807.00 6627.80 83.00
274 3.7380 6713.00 6627.80 82.00
275 3.7440 6702.00 6627.80 82.00
276 3.7500 6747.00 6627.80 82.00
277 3.7560 6609.00 6627.80 81.00
278 3.7620 6683.00 6627.80 82.00
279 3.7680 6697.00 6627.80 82.00
280 3.7740 6848.00 6627.80 83.00
281 3.7800 6820.00 6627.80 83.00
282 3.7860 6845.00 6627.80 83.00
283 3.7920 6873.00 6627.80 83.00
284 3.7980 6792.00 6627.80 82.00
285 3.8040 6658.00 6627.80 82.00
286 3.8100 6735.00 6627.80 82.00
287 3.8160 6734.00 6627.80 82.00
288 3.8220 6760.00 6627.80 82.00
289 3.8280 6785.00 6627.80 82.00
290 3.8340 6845.00 6627.80 83.00
291 3.8400 6843.00 6627.80 83.00
292 3.8460 6829.00 6627.80 83.00
293 3.8520 6770.00 6627.80 82.00
294 3.8580 6833.00 6627.80 83.00
295 3.8640 6792.00 6627.80 82.00
296 3.8700 6858.00 6627.80 83.00
297 3.8760 6835.00 6627.80 83.00
298 3.8820 6897.00 6627.80 83.00
299 3.8880 6752.00 6627.80 82.00
300 3.8940 6668.00 6627.80 82.00
301 3.9000 6792.00 6639.81 82.00
302 3.9060 6749.00 6651.83 82.00
303 3.9120 6813.00 6663.84 83.00
304 3.9180 6758.00 6675.85 82.00
305 3.9240 6733.00 6687.86 82.00
306 3.9300 6725.00 6698.88 82.00
307 3.9360 6890.00 6710.89 83.00
308 3.9420 6902.00 6722.90 83.00
309 3.9480 6834.00 6734.91 83.00
310 3.9540 6804.00 6746.92 82.00
311 3.9600 7034.00 6758.94 84.00
312 3.9660 6910.00 6769.95 83.00
313 3.9720 6689.00 6781.96 82.00
314 3.9780 6816.00 6793.97 83.00
315 3.9840 6833.00 6805.98 83.00
316 3.9900 6793.00 6818.00 82.00
317 3.9960 6960.00 6830.01 83.00
318 4.0020 7118.00 6842.02 84.00
319 4.0080 6793.00 6853.03 82.00
320 4.0140 6775.00 6865.05 82.00
321 4.0200 6805.00 6877.06 82.00
322 4.0260 6932.00 6889.07 83.00
323 4.0320 6963.00 6901.08 83.00
324 4.0380 6883.00 6913.09 83.00
325 4.0440 6876.00 6924.11 83.00
326 4.0500 6841.00 6936.12 83.00
327 4.0560 6787.00 6948.13 82.00
328 4.0620 6761.00 6960.14 82.00
329 4.0680 7021.00 6972.16 84.00
330 4.0740 6896.00 6984.17 83.00
331 4.0800 6886.00 6995.18 83.00
332 4.0860 6925.00 7007.19 83.00
333 4.0920 7085.00 7019.20 84.00
334 4.0980 6971.00 7031.22 83.00
335 4.1040 6996.00 7043.23 84.00
336 4.1100 7057.00 7055.24 84.00
337 4.1160 7097.00 7066.25 84.00
338 4.1220 7040.00 7078.26 84.00
339 4.1280 7224.00 7090.28 85.00
340 4.1340 7233.00 7102.29 85.00
341 4.1400 7870.00 7114.30 89.00
342 4.1460 8435.00 7126.31 92.00
343 4.1520 8695.00 7137.33 93.00
344 4.1580 8513.00 7149.34 92.00
345 4.1640 7731.00 7161.35 88.00
346 4.1700 7339.00 7173.36 86.00
347 4.1760 7230.00 7185.37 85.00
348 4.1820 7257.00 7197.39 85.00
349 4.1880 7062.00 7208.40 84.00
350 4.1940 7004.00 7220.41 84.00
351 4.2000 7076.00 7232.42 84.00
352 4.2060 7308.00 7244.44 85.00
353 4.2120 7045.00 7252.44 84.00
354 4.2180 7106.00 7253.44 84.00
355 4.2240 7114.00 7254.45 84.00
356 4.2300 7379.00 7254.45 86.00
357 4.2360 7276.00 7255.45 85.00
358 4.2420 7401.00 7256.45 86.00
359 4.2480 7293.00 7257.45 85.00
360 4.2540 7562.00 7258.45 87.00
361 4.2600 8028.00 7258.45 90.00
362 4.2660 8204.00 7259.45 91.00
363 4.2720 8970.00 7260.45 95.00
364 4.2780 9445.00 7261.45 97.00
365 4.2840 8653.00 7420.61 93.00
366 4.2900 7799.00 7431.18 88.00
367 4.2960 7745.00 7443.85 88.00
368 4.3020 7563.00 7457.78 87.00
369 4.3080 7468.00 7473.14 86.00
370 4.3140 7543.00 7490.16 87.00
371 4.3200 7466.00 7508.11 86.00
372 4.3260 7497.00 7529.30 87.00
373 4.3320 7552.00 7553.12 87.00
374 4.3380 7433.00 7580.05 86.00
375 4.3440 7683.00 7610.68 88.00
376 4.3500 7611.00 7644.75 87.00
377 4.3560 7624.00 7685.19 87.00
378 4.3620 7695.00 7732.17 88.00
379 4.3680 7770.00 7787.24 88.00
380 4.3740 7832.00 7852.38 88.00
381 4.3800 8147.00 7929.25 90.00
382 4.3860 8021.00 8023.44 90.00
383 4.3920 8056.00 8138.87 90.00
384 4.3980 8458.00 8282.44 92.00
385 4.4040 8716.00 8464.11 93.00
386 4.4100 8793.00 8697.59 94.00
387 4.4160 9227.00 9007.24 96.00
388 4.4220 9654.00 9428.02 98.00
389 4.4280 10501.00 10027.40 102.00
390 4.4340 11793.00 10999.20 109.00
391 4.4400 14095.00 13176.60 119.00
392 4.4460 17941.00 19770.40 134.00
393 4.4520 29796.00 39006.30 173.00
394 4.4580 64622.00 81249.10 254.00
395 4.4640 133150.00 142576.00 365.00
396 4.4700 187085.00 187719.00 433.00
397 4.4760 174369.00 172732.00 418.00
398 4.4820 116190.00 113940.00 341.00
399 4.4880 61048.00 58939.40 247.00
400 4.4940 31920.00 28005.80 179.00
401 4.5000 19962.00 15858.70 141.00
402 4.5060 14801.00 11935.20 122.00
403 4.5120 12410.00 10498.10 111.00
404 4.5180 11127.00 9739.56 105.00
405 4.5240 10331.00 9234.21 102.00
406 4.5300 9486.00 8871.44 97.00
407 4.5360 9312.00 8601.25 96.00
408 4.5420 8807.00 8394.89 94.00
409 4.5480 8388.00 8233.94 92.00
410 4.5540 8552.00 8105.11 92.00
411 4.5600 8079.00 8002.01 90.00
412 4.5660 8160.00 7917.73 90.00
413 4.5720 8148.00 7847.99 90.00
414 4.5780 8194.00 7789.69 91.00
415 4.5840 7869.00 7739.50 89.00
416 4.5900 7737.00 7697.64 88.00
417 4.5960 7823.00 7661.77 88.00
418 4.6020 8023.00 7630.81 90.00
419 4.6080 7802.00 7603.94 88.00
420 4.6140 7746.00 7579.48 88.00
421 4.6200 7697.00 7558.90 88.00
422 4.6260 7550.00 7540.77 87.00
423 4.6320 7663.00 7524.74 88.00
424 4.6380 7748.00 7509.50 88.00
425 4.6440 7669.00 7496.81 88.00
426 4.6500 7609.00 7485.48 87.00
427 4.6560 7586.00 7475.32 87.00
428 4.6620 7739.00 7312.50 88.00
429 4.6680 7355.00 7312.50 86.00
430 4.6740 7549.00 7317.51 87.00
431 4.6800 7483.00 7322.52 87.00
432 4.6860 7550.00 7326.52 87.00
433 4.6920 7365.00 7331.52 86.00
434 4.6980 7452.00 7336.53 86.00
435 4.7040 7472.00 7340.53 86.00
436 4.7100 7580.00 7345.54 87.00
437 4.7160 7619.00 7350.54 87.00
438 4.7220 7479.00 7354.55 86.00
439 4.7280 7404.00 7359.55 86.00
440 4.7340 7507.00 7363.56 87.00
441 4.7400 7363.00 7368.56 86.00
442 4.7460 7328.00 7373.57 86.00
443 4.7520 7491.00 7377.57 87.00
444 4.7580 7490.00 7382.58 87.00
445 4.7640 7457.00 7387.58 86.00
446 4.7700 7251.00 7391.59 85.00
447 4.7760 7395.00 7396.59 86.00
448 4.7820 7565.00 7400.60 87.00
449 4.7880 7429.00 7405.60 86.00
450 4.7940 7345.00 7410.61 86.00
451 4.8000 7438.00 7414.61 86.00
452 4.8060 7304.00 7419.61 85.00
453 4.8120 7603.00 7424.62 87.00
454 4.8180 7654.00 7428.62 87.00
455 4.8240 7516.00 7433.63 87.00
456 4.8300 7533.00 7437.63 87.00
457 4.8360 7594.00 7442.64 87.00
458 4.8420 7723.00 7447.64 88.00
459 4.8480 7525.00 7451.65 87.00
460 4.8540 7764.00 7456.65 88.00
461 4.8600 7710.00 7461.66 88.00
462 4.8660 7683.00 7465.66 88.00
463 4.8720 7676.00 7470.67 88.00
464 4.8780 7618.00 7475.67 87.00
465 4.8840 7592.00 7479.68 87.00
466 4.8900 7421.00 7484.68 86.00
467 4.8960 7492.00 7488.69 87.00
468 4.9020 7425.00 7495.69 86.00
469 4.9080 7568.00 7503.70 87.00
470 4.9140 7583.00 7510.71 87.00
471 4.9200 7592.00 7518.72 87.00
472 4.9260 7458.00 7525.72 86.00
473 4.9320 7639.00 7533.73 87.00
474 4.9380 7524.00 7540.74 87.00
475 4.9440 7519.00 7548.75 87.00
476 4.9500 7540.00 7555.75 87.00
477 4.9560 7576.00 7563.76 87.00
478 4.9620 7790.00 7570.77 88.00
479 4.9680 7690.00 7578.78 88.00
480 4.9740 7623.00 7585.79 87.00
481 4.9800 7784.00 7593.79 88.00
482 4.9860 7707.00 7600.80 88.00
483 4.9920 7619.00 7608.81 87.00
484 4.9980 7708.00 7615.82 88.00
485 5.0040 7682.00 7623.82 88.00
486 5.0100 7633.00 7630.83 87.00
487 5.0160 7555.00 7638.84 87.00
488 5.0220 7687.00 7646.85 88.00
489 5.0280 7730.00 7653.85 88.00
490 5.0340 7695.00 7661.86 88.00
491 5.0400 7689.00 7668.87 88.00
492 5.0460 7666.00 7676.88 88.00
493 5.0520 7642.00 7683.89 87.00
494 5.0580 7667.00 7691.89 88.00
495 5.0640 7655.00 7698.90 87.00
496 5.0700 7692.00 7706.91 88.00
497 5.0760 7742.00 7713.92 88.00
498 5.0820 7868.00 7721.92 89.00
499 5.0880 8017.00 7728.93 90.00
500 5.0940 8709.00 7736.94 93.00
501 5.1000 9740.00 7743.95 99.00
502 5.1060 10488.00 7751.96 102.00
503 5.1120 10228.00 7758.96 101.00
504 5.1180 9178.00 7766.97 96.00
505 5.1240 8391.00 7774.98 92.00
506 5.1300 8142.00 7781.99 90.00
507 5.1360 7943.00 7789.99 89.00
508 5.1420 8102.00 7797.00 90.00
509 5.1480 8481.00 7805.01 92.00
510 5.1540 9150.00 7812.02 96.00
511 5.1600 9880.00 7820.03 99.00
512 5.1660 9584.00 7827.03 98.00
513 5.1720 9111.00 7835.04 95.00
514 5.1780 8290.00 7842.05 91.00
515 5.1840 8054.00 7850.06 90.00
516 5.1900 7838.00 7857.06 89.00
517 5.1960 7852.00 7865.07 89.00
518 5.2020 7855.00 7872.08 89.00
519 5.2080 7758.00 7880.09 88.00
520 5.2140 7941.00 7887.09 89.00
521 5.2200 7771.00 7895.10 88.00
522 5.2260 7715.00 7902.11 88.00
523 5.2320 7880.00 7910.12 89.00
524 5.2380 7838.00 7917.13 89.00
525 5.2440 7726.00 7924.13 88.00
526 5.2500 7748.00 7931.14 88.00
527 5.2560 8001.00 7938.15 89.00
528 5.2620 7939.00 7945.15 89.00
529 5.2680 7810.00 7951.16 88.00
530 5.2740 7922.00 7958.17 89.00
531 5.2800 7857.00 7965.17 89.00
532 5.2860 7815.00 7972.18 88.00
533 5.2920 7949.00 7979.19 89.00
534 5.2980 7743.00 7985.20 88.00
535 5.3040 7835.00 7992.20 89.00
536 5.3100 7857.00 7999.21 89.00
537 5.3160 7853.00 8006.22 89.00
538 5.3220 7984.00 8013.22 89.00
539 5.3280 7955.00 8020.23 89.00
540 5.3340 8017.00 8026.24 90.00
541 5.3400 7975.00 8033.24 89.00
542 5.3460 7962.00 8040.25 89.00
543 5.3520 7960.00 8047.26 89.00
544 5.3580 7977.00 8054.27 89.00
545 5.3640 7950.00 8060.27 89.00
546 5.3700 8026.00 8068.28 90.00
547 5.3760 8052.00 8075.29 90.00
548 5.3820 8031.00 8082.29 90.00
549 5.3880 8019.00 8089.30 90.00
550 5.3940 7997.00 8096.31 89.00
551 5.4000 8294.00 8104.32 91.00
552 5.4060 8966.00 8111.32 95.00
553 5.4120 9907.00 8118.33 100.00
554 5.4180 10675.00 8125.34 103.00
555 5.4240 10448.00 8132.35 102.00
556 5.4300 9552.00 8139.35 98.00
557 5.4360 8797.00 8147.36 94.00
558 5.4420 8623.00 8154.37 93.00
559 5.4480 8467.00 8161.38 92.00
560 5.4540 8325.00 8168.38 91.00
561 5.4600 8276.00 8175.39 91.00
562 5.4660 8215.00 8183.40 91.00
563 5.4720 8179.00 8190.41 90.00
564 5.4780 8213.00 8197.41 91.00
565 5.4840 8249.00 8204.42 91.00
566 5.4900 8314.00 8211.43 91.00
567 5.4960 8416.00 8218.43 92.00
568 5.5020 8268.00 8226.44 91.00
569 5.5080 8180.00 8233.45 90.00
570 5.5140 8295.00 8240.46 91.00
571 5.5200 8281.00 8247.46 91.00
572 5.5260 8248.00 8254.47 91.00
573 5.5320 8218.00 8262.48 91.00
574 5.5380 8247.00 8269.49 91.00
575 5.5440 8340.00 8276.49 91.00
576 5.5500 8347.00 8283.50 91.00
577 5.5560 8341.00 8290.51 91.00
578 5.5620 8255.00 8297.52 91.00
579 5.5680 8143.00 8305.52 90.00
580 5.5740 8178.00 8318.54 90.00
581 5.5800 8176.00 8334.55 90.00
582 5.5860 8354.00 8350.57 91.00
583 5.5920 8271.00 8366.59 91.00
584 5.5980 8442.00 8382.60 92.00
585 5.6040 8509.00 8398.62 92.00
586 5.6100 8423.00 8414.64 92.00
587 5.6160 8458.00 8430.65 92.00
588 5.6220 8543.00 8446.67 92.00
589 5.6280 8572.00 8462.69 93.00
590 5.6340 8599.00 8478.70 93.00
591 5.6400 8540.00 8494.72 92.00
592 5.6460 8515.00 8510.73 92.00
593 5.6520 8538.00 8526.75 92.00
594 5.6580 8691.00 8542.77 93.00
595 5.6640 8548.00 8558.78 92.00
596 5.6700 8570.00 8574.80 93.00
597 5.6760 8761.00 8589.82 94.00
598 5.6820 8780.00 8605.83 94.00
599 5.6880 8695.00 8621.85 93.00
600 5.6940 8692.00 8637.87 93.00
601 5.7000 8582.00 8653.88 93.00
602 5.7060 8501.00 8669.90 92.00
603 5.7120 8797.00 8685.91 94.00
604 5.7180 8814.00 8701.93 94.00
605 5.7240 8763.00 8717.95 94.00
606 5.7300 8874.00 8733.96 94.00
607 5.7360 8847.00 8749.98 94.00
608 5.7420 8722.00 8766.00 93.00
609 5.7480 8753.00 8782.01 94.00
610 5.7540 8779.00 8798.03 94.00
611 5.7600 8805.00 8814.05 94.00
612 5.7660 8937.00 8830.06 95.00
613 5.7720 8861.00 8846.08 94.00
614 5.7780 8809.00 8862.09 94.00
615 5.7840 8993.00 8878.11 95.00
616 5.7900 8935.00 8894.13 95.00
617 5.7960 8883.00 8910.14 94.00
618 5.8020 8855.00 8926.16 94.00
619 5.8080 8765.00 8942.18 94.00
620 5.8140 8837.00 8958.19 94.00
621 5.8200 8968.00 8974.21 95.00
622 5.8260 8821.00 8990.23 94.00
623 5.8320 8805.00 9006.24 94.00
624 5.8380 8922.00 9022.26 94.00
625 5.8440 8918.00 9036.27 94.00
626 5.8500 8962.00 9050.29 95.00
627 5.8560 8938.00 9064.30 95.00
628 5.8620 8938.00 9078.32 95.00
629 5.8680 8900.00 9092.33 94.00
630 5.8740 8911.00 9106.35 94.00
631 5.8800 9083.00 9120.36 95.00
632 5.8860 9136.00 9134.38 96.00
633 5.8920 9218.00 9148.39 96.00
634 5.8980 9264.00 9162.40 96.00
635 5.9040 9250.00 9177.42 96.00
636 5.9100 9260.00 9191.43 96.00
637 5.9160 9163.00 9205.45 96.00
638 5.9220 9035.00 9219.46 95.00
639 5.9280 9035.00 9233.48 95.00
640 5.9340 9044.00 9247.49 95.00
641 5.9400 9121.00 9261.50 96.00
642 5.9460 9210.00 9275.52 96.00
643 5.9520 9245.00 9289.53 96.00
644 5.9580 9257.00 9303.55 96.00
645 5.9640 9329.00 9317.56 97.00
646 5.9700 9242.00 9331.58 96.00
647 5.9760 9130.00 9346.59 96.00
648 5.9820 9105.00 9360.61 95.00
649 5.9880 9151.00 9374.62 96.00
650 5.9940 9303.00 9388.64 96.00
651 6.0000 9281.00 9402.65 96.00
652 6.0060 9299.00 9416.66 96.00
653 6.0120 9378.00 9430.68 97.00
654 6.0180 9351.00 9444.69 97.00
655 6.0240 9261.00 9458.71 96.00
656 6.0300 9238.00 9472.72 96.00
657 6.0360 9423.00 9486.74 97.00
658 6.0420 9374.00 9501.75 97.00
659 6.0480 9240.00 9515.77 96.00
660 6.0540 9350.00 9529.78 97.00
661 6.0600 9377.00 9543.79 97.00
662 6.0660 9262.00 9557.81 96.00
663 6.0720 9307.00 9571.82 96.00
664 6.0780 9452.00 9585.84 97.00
665 6.0840 9444.00 9599.85 97.00
666 6.0900 9516.00 9613.87 98.00
667 6.0960 9636.00 9627.88 98.00
668 6.1020 9620.00 9641.90 98.00
669 6.1080 9653.00 9655.91 98.00
670 6.1140 9658.00 9670.92 98.00
671 6.1200 9649.00 9684.94 98.00
672 6.1260 9622.00 9698.95 98.00
673 6.1320 9592.00 9712.97 98.00
674 6.1380 9564.00 9726.98 98.00
675 6.1440 9426.00 9741.00 97.00
676 6.1500 9608.00 9755.01 98.00
677 6.1560 9820.00 9769.03 99.00
678 6.1620 9743.00 9783.04 99.00
679 6.1680 9613.00 9797.05 98.00
680 6.1740 9577.00 9812.07 98.00
681 6.1800 9704.00 9828.09 99.00
682 6.1860 9936.00 9844.10 100.00
683 6.1920 10064.00 9860.12 100.00
684 6.1980 9898.00 9876.14 99.00
685 6.2040 9802.00 9892.15 99.00
686 6.2100 9869.00 9908.17 99.00
687 6.2160 9925.00 9924.19 100.00
688 6.2220 9908.00 9940.20 100.00
689 6.2280 9849.00 9956.22 99.00
690 6.2340 9771.00 9972.23 99.00
691 6.2400 9711.00 9988.25 99.00
692 6.2460 9870.00 10004.30 99.00
693 6.2520 9955.00 10020.30 100.00
694 6.2580 10037.00 10036.30 100.00
695 6.2640 10216.00 10052.30 101.00
696 6.2700 10169.00 10069.30 101.00
697 6.2760 10287.00 10085.40 101.00
698 6.2820 10839.00 10101.40 104.00
699 6.2880 11606.00 10117.40 108.00
700 6.2940 11848.00 10133.40 109.00
701 6.3000 11465.00 10149.40 107.00
702 6.3060 10878.00 10165.40 104.00
703 6.3120 10469.00 10181.40 102.00
704 6.3180 10313.00 10197.50 102.00
705 6.3240 10384.00 10213.50 102.00
706 6.3300 10397.00 10229.50 102.00
707 6.3360 10210.00 10245.50 101.00
708 6.3420 10015.00 10261.50 100.00
709 6.3480 10119.00 10277.50 101.00
710 6.3540 10247.00 10293.60 101.00
711 6.3600 10060.00 10309.60 100.00
712 6.3660 10107.00 10325.60 101.00
713 6.3720 10235.00 10341.60 101.00
714 6.3780 10055.00 10357.60 100.00
715 6.3840 10037.00 10374.60 100.00
716 6.3900 10426.00 10390.70 102.00
717 6.3960 10252.00 10406.70 101.00
718 6.4020 10239.00 10422.70 101.00
719 6.4080 10331.00 10438.70 102.00
720 6.4140 10324.00 10454.70 102.00
721 6.4200 10309.00 10470.70 102.00
722 6.4260 10381.00 10486.80 102.00
723 6.4320 10418.00 10502.80 102.00
724 6.4380 10281.00 10518.80 101.00
725 6.4440 10260.00 10534.80 101.00
726 6.4500 10393.00 10550.80 102.00
727 6.4560 10527.00 10566.80 103.00
728 6.4620 10534.00 10582.90 103.00
729 6.4680 10441.00 10598.90 102.00
730 6.4740 10368.00 10614.90 102.00
731 6.4800 10418.00 10624.90 102.00
732 6.4860 10567.00 10633.90 103.00
733 6.4920 10605.00 10643.90 103.00
734 6.4980 10513.00 10652.90 103.00
735 6.5040 10487.00 10663.00 102.00
736 6.5100 10509.00 10672.10 103.00
737 6.5160 10394.00 10681.20 102.00
738 6.5220 10523.00 10690.20 103.00
739 6.5280 10655.00 10700.30 103.00
740 6.5340 10688.00 10709.40 103.00
741 6.5400 10534.00 10718.60 103.00
742 6.5460 10644.00 10727.70 103.00
743 6.5520 10646.00 10737.80 103.00
744 6.5580 10716.00 10747.00 104.00
745 6.5640 10876.00 10756.10 104.00
746 6.5700 11128.00 10765.30 105.00
747 6.5760 11706.00 10774.60 108.00
748 6.5820 13224.00 10784.80 115.00
749 6.5880 15617.00 10794.10 125.00
750 6.5940 16865.00 10803.40 130.00
751 6.6000 16312.00 10812.80 128.00
752 6.6060 14517.00 10823.20 120.00
753 6.6120 12802.00 10832.80 113.00
754 6.6180 11805.00 10842.40 109.00
755 6.6240 11368.00 10852.10 107.00
756 6.6300 11147.00 10863.10 106.00
757 6.6360 10943.00 10873.20 105.00
758 6.6420 10885.00 10883.60 104.00
759 6.6480 10903.00 10894.50 104.00
760 6.6540 10972.00 10906.90 105.00
761 6.6600 10723.00 10919.30 104.00
762 6.6660 10611.00 10933.30 103.00
763 6.6720 10966.00 10951.60 105.00
764 6.6780 10843.00 10983.40 104.00
765 6.6840 10591.00 11046.60 103.00
766 6.6900 10659.00 11173.90 103.00
767 6.6960 10863.00 11384.70 104.00
768 6.7020 10825.00 11641.30 104.00
769 6.7080 10914.00 11814.40 104.00
770 6.7140 10931.00 11767.80 105.00
771 6.7200 10898.00 11553.30 104.00
772 6.7260 10807.00 11327.40 104.00
773 6.7320 10843.00 11173.60 104.00
774 6.7380 10729.00 11098.40 104.00
775 6.7440 10826.00 11071.90 104.00
776 6.7500 11017.00 11067.60 105.00
777 6.7560 10761.00 11069.80 104.00
778 6.7620 10833.00 11074.70 104.00
779 6.7680 10779.00 11077.90 104.00
780 6.7740 10939.00 11080.80 105.00
781 6.7800 10882.00 11084.10 104.00
782 6.7860 10954.00 11087.90 105.00
783 6.7920 10973.00 11091.80 105.00
784 6.7980 11175.00 11096.00 106.00
785 6.8040 11240.00 11100.30 106.00
786 6.8100 11435.00 11103.80 107.00
787 6.8160 11335.00 11108.30 106.00
788 6.8220 11190.00 11112.90 106.00
789 6.8280 11127.00 11117.60 105.00
790 6.8340 11270.00 11122.30 106.00
791 6.8400 11073.00 11127.00 105.00
792 6.8460 11106.00 11131.80 105.00
793 6.8520 11091.00 11135.60 105.00
794 6.8580 11220.00 11140.50 106.00
795 6.8640 11566.00 11145.30 108.00
796 6.8700 11855.00 11150.20 109.00
797 6.8760 12153.00 11155.10 110.00
798 6.8820 12312.00 11160.00 111.00
799 6.8880 11913.00 11164.90 109.00
800 6.8940 11523.00 11168.80 107.00
801 6.9000 11319.00 11173.70 106.00
802 6.9060 11035.00 11178.60 105.00
803 6.9120 10989.00 11183.60 105.00
804 6.9180 10914.00 11188.50 104.00
805 6.9240 10966.00 11193.50 105.00
806 6.9300 10942.00 11196.50 105.00
807 6.9360 11014.00 11191.50 105.00
808 6.9420 10920.00 11186.50 104.00
809 6.9480 10960.00 11181.50 105.00
810 6.9540 10638.00 11175.50 103.00
811 6.9600 10952.00 11170.50 105.00
812 6.9660 10843.00 11165.50 104.00
813 6.9720 10976.00 11159.50 105.00
814 6.9780 11226.00 11154.40 106.00
815 6.9840 10978.00 11149.40 105.00
816 6.9900 11000.00 11143.40 105.00
817 6.9960 10923.00 11138.40 105.00
818 7.0020 10823.00 11133.40 104.00
819 7.0080 10861.00 11127.40 104.00
820 7.0140 11073.00 11122.40 105.00
821 7.0200 11064.00 11117.40 105.00
822 7.0260 10795.00 11111.40 104.00
823 7.0320 10932.00 11106.40 105.00
824 7.0380 10907.00 11101.40 104.00
825 7.0440 10865.00 11096.40 104.00
826 7.0500 10846.00 11090.40 104.00
827 7.0560 10756.00 11085.40 104.00
828 7.0620 11081.00 11080.40 105.00
829 7.0680 10955.00 11074.40 105.00
830 7.0740 11094.00 11069.40 105.00
831 7.0800 11223.00 11064.40 106.00
832 7.0860 11051.00 11058.30 105.00
833 7.0920 11256.00 11053.30 106.00
834 7.0980 11140.00 11048.30 106.00
835 7.1040 11130.00 11042.30 105.00
836 7.1100 10968.00 11037.30 105.00
837 7.1160 11084.00 11032.30 105.00
838 7.1220 10996.00 11026.30 105.00
839 7.1280 11135.00 11021.30 106.00
840 7.1340 11283.00 11016.30 106.00
841 7.1400 11175.00 11011.30 106.00
842 7.1460 11129.00 11005.30 105.00
843 7.1520 10949.00 11000.30 105.00
844 7.1580 10979.00 10995.30 105.00
845 7.1640 10930.00 10989.30 105.00
846 7.1700 10675.00 10984.30 103.00
847 7.1760 10703.00 10979.30 103.00
848 7.1820 10651.00 10973.30 103.00
849 7.1880 10705.00 10968.30 103.00
850 7.1940 10971.00 10963.30 105.00
851 7.2000 11050.00 10957.20 105.00
852 7.2060 10905.00 10952.20 104.00
853 7.2120 11076.00 10947.20 105.00
854 7.2180 10896.00 10941.20 104.00
855 7.2240 10787.00 10936.20 104.00
856 7.2300 11086.00 10931.20 105.00
857 7.2360 10773.00 10926.20 104.00
858 7.2420 10824.00 10920.90 104.00
859 7.2480 10758.00 10916.00 104.00
860 7.2540 10903.00 10911.00 104.00
861 7.2600 10873.00 10905.00 104.00
862 7.2660 10677.00 10900.10 103.00
863 7.2720 10804.00 10895.10 104.00
864 7.2780 10686.00 10889.20 103.00
865 7.2840 10962.00 10884.30 105.00
866 7.2900 10685.00 10879.30 103.00
867 7.2960 10894.00 10871.40 104.00
868 7.3020 11026.00 10861.50 105.00
869 7.3080 11182.00 10852.60 106.00
870 7.3140 10904.00 10842.70 104.00
871 7.3200 11104.00 10832.80 105.00
872 7.3260 10727.00 10823.90 104.00
873 7.3320 10673.00 10814.10 103.00
874 7.3380 10827.00 10804.30 104.00
875 7.3440 10771.00 10794.50 104.00
876 7.3500 10906.00 10785.70 104.00
877 7.3560 10799.00 10776.00 104.00
878 7.3620 10706.00 10766.30 103.00
879 7.3680 10867.00 10757.70 104.00
880 7.3740 10684.00 10748.10 103.00
881 7.3800 10667.00 10738.70 103.00
882 7.3860 10764.00 10729.40 104.00
883 7.3920 10606.00 10721.20 103.00
884 7.3980 10661.00 10712.30 103.00
885 7.4040 10854.00 10703.60 104.00
886 7.4100 10803.00 10696.40 104.00
887 7.4160 10610.00 10688.80 103.00
888 7.4220 10767.00 10682.40 104.00
889 7.4280 10609.00 10678.90 103.00
890 7.4340 10569.00 10684.10 103.00
891 7.4400 10468.00 10707.40 102.00
892 7.4460 10790.00 10768.30 104.00
893 7.4520 10664.00 10880.70 103.00
894 7.4580 10809.00 11031.60 104.00
895 7.4640 11025.00 11155.70 105.00
896 7.4700 11038.00 11161.20 105.00
897 7.4760 11155.00 11037.60 106.00
898 7.4820 11158.00 10868.40 106.00
899 7.4880 10957.00 10725.80 105.00
900 7.4940 10761.00 10633.70 104.00
901 7.5000 10615.00 10583.70 103.00
902 7.5060 10719.00 10555.70 104.00
903 7.5120 10514.00 10537.70 103.00
904 7.5180 10523.00 10524.50 103.00
905 7.5240 10562.00 10511.80 103.00
906 7.5300 10566.00 10499.80 103.00
907 7.5360 10684.00 10488.40 103.00
908 7.5420 10630.00 10478.20 103.00
909 7.5480 10734.00 10467.30 104.00
910 7.5540 11382.00 10456.60 107.00
911 7.5600 11750.00 10447.00 108.00
912 7.5660 12174.00 10436.50 110.00
913 7.5720 11648.00 10426.00 108.00
914 7.5780 11098.00 10415.70 105.00
915 7.5840 10894.00 10406.40 104.00
916 7.5900 10676.00 10396.10 103.00
917 7.5960 10693.00 10385.90 103.00
918 7.6020 10655.00 10376.70 103.00
919 7.6080 10577.00 10366.50 103.00
920 7.6140 10289.00 10356.30 101.00
921 7.6200 10456.00 10346.20 102.00
922 7.6260 10363.00 10337.10 102.00
923 7.6320 10688.00 10327.00 103.00
924 7.6380 10508.00 10316.90 103.00
925 7.6440 10575.00 10307.80 103.00
926 7.6500 10845.00 10297.70 104.00
927 7.6560 10971.00 10287.60 105.00
928 7.6620 10970.00 10277.50 105.00
929 7.6680 11050.00 10268.50 105.00
930 7.6740 10687.00 10258.40 103.00
931 7.6800 10756.00 10248.30 104.00
932 7.6860 10455.00 10238.30 102.00
933 7.6920 10440.00 10229.20 102.00
934 7.6980 10426.00 10218.50 102.00
935 7.7040 10396.00 10208.50 102.00
936 7.7100 10406.00 10199.50 102.00
937 7.7160 10208.00 10189.50 101.00
938 7.7220 10381.00 10179.40 102.00
939 7.7280 10218.00 10169.40 101.00
940 7.7340 10226.00 10160.40 101.00
941 7.7400 10264.00 10150.40 101.00
942 7.7460 10289.00 10140.40 101.00
943 7.7520 10317.00 10131.40 102.00
944 7.7580 10173.00 10121.40 101.00
945 7.7640 10119.00 10111.40 101.00
946 7.7700 10091.00 10101.40 100.00
947 7.7760 9973.00 10092.40 100.00
948 7.7820 9969.00 10082.30 100.00
949 7.7880 9906.00 10072.30 100.00
950 7.7940 9974.00 10063.30 100.00
951 7.8000 9916.00 10053.30 100.00
952 7.8060 9980.00 10043.30 100.00
953 7.8120 9987.00 10033.30 100.00
954 7.8180 9990.00 10024.30 100.00
955 7.8240 9707.00 10014.30 99.00
956 7.8300 9726.00 10004.30 99.00
957 7.8360 9840.00 9995.26 99.00
958 7.8420 9926.00 9985.25 100.00
959 7.8480 9814.00 9975.24 99.00
960 7.8540 9759.00 9965.23 99.00
961 7.8600 9960.00 9956.22 100.00
962 7.8660 9727.00 9946.21 99.00
963 7.8720 9837.00 9949.21 99.00
964 7.8780 9848.00 9966.23 99.00
965 7.8840 9930.00 9982.25 100.00
966 7.8900 9908.00 9998.26 100.00
967 7.8960 9871.00 10015.30 99.00
968 7.9020 9855.00 10031.30 99.00
969 7.9080 10121.00 10048.30 101.00
970 7.9140 9821.00 10064.30 99.00
971 7.9200 9970.00 10080.30 100.00
972 7.9260 9873.00 10097.40 99.00
973 7.9320 10010.00 10113.40 100.00
974 7.9380 9904.00 10130.40 100.00
975 7.9440 9885.00 10146.40 99.00
976 7.9500 9946.00 10162.40 100.00
977 7.9560 9938.00 10179.40 100.00
978 7.9620 9927.00 10195.50 100.00
979 7.9680 9941.00 10212.50 100.00
980 7.9740 10161.00 10228.50 101.00
981 7.9800 10060.00 10244.50 100.00
982 7.9860 9970.00 10261.50 100.00
983 7.9920 9937.00 10277.50 100.00
984 7.9980 9993.00 10293.60 100.00
985 8.0040 10105.00 10310.60 101.00
986 8.0100 10069.00 10326.60 100.00
987 8.0160 10112.00 10343.60 101.00
988 8.0220 10290.00 10359.60 101.00
989 8.0280 10210.00 10375.60 101.00
990 8.0340 10197.00 10392.70 101.00
991 8.0400 10364.00 10391.70 102.00
992 8.0460 10545.00 10387.70 103.00
993 8.0520 10983.00 10383.70 105.00
994 8.0580 11789.00 10379.70 109.00
995 8.0640 12892.00 10375.60 114.00
996 8.0700 14978.00 10371.60 122.00
997 8.0760 16394.00 10367.60 128.00
998 8.0820 15927.00 10363.60 126.00
999 8.0880 14349.00 10359.60 120.00
1000 8.0940 12558.00 10355.60 112.00
1001 8.1000 12006.00 10351.60 110.00
1002 8.1060 12622.00 10347.60 112.00
1003 8.1120 13827.00 10343.60 118.00
1004 8.1180 15464.00 10339.60 124.00
1005 8.1240 16866.00 10335.60 130.00
1006 8.1300 17385.00 10330.60 132.00
1007 8.1360 16844.00 10326.60 130.00
1008 8.1420 15480.00 10322.60 124.00
1009 8.1480 13598.00 10318.60 117.00
1010 8.1540 12304.00 10314.60 111.00
1011 8.1600 11547.00 10310.60 107.00
1012 8.1660 11023.00 10306.60 105.00
1013 8.1720 10750.00 10836.70 104.00
1014 8.1780 10403.00 11331.70 102.00
1015 8.1840 10447.00 11381.00 102.00
1016 8.1900 10701.00 11434.60 103.00
1017 8.1960 10389.00 11493.00 102.00
1018 8.2020 10488.00 11556.50 102.00
1019 8.2080 10516.00 11625.90 103.00
1020 8.2140 10436.00 11701.80 102.00
1021 8.2200 10408.00 11785.10 102.00
1022 8.2260 10512.00 11876.50 103.00
1023 8.2320 10530.00 11977.30 103.00
1024 8.2380 10609.00 12088.60 103.00
1025 8.2440 10691.00 12211.90 103.00
1026 8.2500 11072.00 12347.90 105.00
1027 8.2560 11290.00 12500.80 106.00
1028 8.2620 11275.00 12671.80 106.00
1029 8.2680 11488.00 12864.00 107.00
1030 8.2740 11547.00 13080.80 107.00
1031 8.2800 11647.00 13326.70 108.00
1032 8.2860 11925.00 13605.80 109.00
1033 8.2920 12320.00 13924.70 111.00
1034 8.2980 12760.00 14292.60 113.00
1035 8.3040 13315.00 14719.70 115.00
1036 8.3100 13563.00 15220.30 116.00
1037 8.3160 13654.00 15809.20 117.00
1038 8.3220 13774.00 16509.80 117.00
1039 8.3280 14086.00 17351.60 119.00
1040 8.3340 14976.00 18374.30 122.00
1041 8.3400 16011.00 19633.00 127.00
1042 8.3460 17010.00 21204.50 130.00
1043 8.3520 18908.00 23202.20 138.00
1044 8.3580 21754.00 25805.90 147.00
1045 8.3640 24912.00 29366.00 158.00
1046 8.3700 29061.00 34765.20 170.00
1047 8.3760 36646.00 44466.00 191.00
1048 8.3820 51603.00 64682.60 227.00
1049 8.3880 81120.00 107906.00 285.00
1050 8.3940 147589.00 191968.00 384.00
1051 8.4000 281870.00 330071.00 531.00
1052 8.4060 490182.00 511701.00 700.00
1053 8.4120 690081.00 682877.00 831.00
1054 8.4180 765269.00 759591.00 875.00
1055 8.4240 681098.00 699698.00 825.00
1056 8.4300 508620.00 537258.00 713.00
1057 8.4360 340771.00 353571.00 584.00
1058 8.4420 213067.00 208365.00 462.00
1059 8.4480 129946.00 117291.00 360.00
1060 8.4540 82963.00 69281.20 288.00
1061 8.4600 57807.00 46556.90 240.00
1062 8.4660 42979.00 35760.80 207.00
1063 8.4720 33612.00 29907.10 183.00
1064 8.4780 27249.00 26135.60 165.00
1065 8.4840 23239.00 23408.00 152.00
1066 8.4900 20421.00 21324.00 143.00
1067 8.4960 18438.00 19686.30 136.00
1068 8.5020 17196.00 18376.80 131.00
1069 8.5080 16160.00 17311.70 127.00
1070 8.5140 15212.00 16434.50 123.00
1071 8.5200 14455.00 15703.50 120.00
1072 8.5260 13852.00 15087.90 118.00
1073 8.5320 13367.00 14564.60 116.00
1074 8.5380 12665.00 14115.80 113.00
1075 8.5440 12189.00 13729.10 110.00
1076 8.5500 12051.00 13391.70 110.00
1077 8.5560 11967.00 13096.10 109.00
1078 8.5620 11609.00 12835.70 108.00
1079 8.5680 11193.00 12604.90 106.00
1080 8.5740 10996.00 12399.40 105.00
1081 8.5800 10830.00 12209.50 104.00
1082 8.5860 10678.00 12037.10 103.00
1083 8.5920 10494.00 11882.00 102.00
1084 8.5980 10403.00 11739.80 102.00
1085 8.6040 10334.00 11610.80 102.00
1086 8.6100 10170.00 11492.60 101.00
1087 8.6160 10132.00 11382.80 101.00
1088 8.6220 10076.00 11282.50 100.00
1089 8.6280 9997.00 11188.50 100.00
1090 8.6340 9955.00 11102.30 100.00
1091 8.6400 10059.00 11021.90 100.00
1092 8.6460 9924.00 10945.80 100.00
1093 8.6520 9781.00 10875.50 99.00
1094 8.6580 9821.00 10808.50 99.00
1095 8.6640 9758.00 10243.90 99.00
1096 8.6700 9710.00 9743.00 99.00
1097 8.6760 9631.00 9730.99 98.00
1098 8.6820 9652.00 9718.97 98.00
1099 8.6880 9672.00 9705.96 98.00
1100 8.6940 9555.00 9693.95 98.00
1101 8.7000 9640.00 9947.84 98.00
1102 8.7060 9520.00 9949.06 98.00
1103 8.7120 9477.00 9950.28 97.00
1104 8.7180 9601.00 9953.61 98.00
1105 8.7240 9632.00 9958.17 98.00
1106 8.7300 9743.00 9963.09 99.00
1107 8.7360 10006.00 9970.54 100.00
1108 8.7420 9917.00 9978.67 100.00
1109 8.7480 9804.00 9989.71 99.00
1110 8.7540 9763.00 10001.90 99.00
1111 8.7600 9659.00 10017.40 98.00
1112 8.7660 9451.00 10035.70 97.00
1113 8.7720 9337.00 10056.10 97.00
1114 8.7780 9427.00 10080.90 97.00
1115 8.7840 9374.00 10108.80 97.00
1116 8.7900 9358.00 10142.30 97.00
1117 8.7960 9382.00 10180.20 97.00
1118 8.8020 9657.00 10225.20 98.00
1119 8.8080 9753.00 10277.60 99.00
1120 8.8140 9865.00 10337.40 99.00
1121 8.8200 9898.00 10408.40 99.00
1122 8.8260 9906.00 10490.50 100.00
1123 8.8320 9844.00 10588.00 99.00
1124 8.8380 9876.00 10702.20 99.00
1125 8.8440 9856.00 10838.90 99.00
1126 8.8500 10015.00 11002.30 100.00
1127 8.8560 10204.00 11195.10 101.00
1128 8.8620 10303.00 11430.10 102.00
1129 8.8680 10556.00 11719.50 103.00
1130 8.8740 10885.00 12080.00 104.00
1131 8.8800 11126.00 12536.10 105.00
1132 8.8860 11631.00 13120.50 108.00
1133 8.8920 12460.00 13892.10 112.00
1134 8.8980 13649.00 14969.60 117.00
1135 8.9040 15407.00 16665.00 124.00
1136 8.9100 18367.00 19834.80 136.00
1137 8.9160 23315.00 26552.20 153.00
1138 8.9220 33061.00 40705.10 182.00
1139 8.9280 59390.00 67258.50 244.00
1140 8.9340 98601.00 108702.00 314.00
1141 8.9400 159409.00 159572.00 399.00
1142 8.9460 206708.00 202014.00 455.00
1143 8.9520 204567.00 210174.00 452.00
1144 8.9580 162224.00 177642.00 403.00
1145 8.9640 110910.00 127064.00 333.00
1146 8.9700 70252.00 80851.00 265.00
1147 8.9760 46615.00 48736.60 216.00
1148 8.9820 32553.00 30504.60 180.00
1149 8.9880 25581.00 21547.40 160.00
1150 8.9940 23143.00 17359.90 152.00
1151 9.0000 22153.00 15233.00 149.00
1152 9.0060 19955.00 13948.80 141.00
1153 9.0120 16928.00 13051.30 130.00
1154 9.0180 14441.00 12374.10 120.00
1155 9.0240 13102.00 11843.90 114.00
1156 9.0300 12642.00 11419.50 112.00
1157 9.0360 12342.00 11073.90 111.00
1158 9.0420 11872.00 10788.20 109.00
1159 9.0480 11037.00 10548.90 105.00
1160 9.0540 10411.00 10346.00 102.00
1161 9.0600 9846.00 10173.10 99.00
1162 9.0660 9741.00 10022.40 99.00
1163 9.0720 9684.00 9890.66 98.00
1164 9.0780 9535.00 9774.50 98.00
1165 9.0840 9855.00 9671.26 99.00
1166 9.0900 10006.00 9578.80 100.00
1167 9.0960 9733.00 9495.44 99.00
1168 9.1020 9318.00 9419.77 97.00
1169 9.1080 8931.00 9350.70 95.00
1170 9.1140 8823.00 9287.26 94.00
1171 9.1200 8666.00 9228.71 93.00
1172 9.1260 8641.00 9174.39 93.00
1173 9.1320 8688.00 9123.76 93.00
1174 9.1380 8587.00 9076.36 93.00
1175 9.1440 8661.00 9032.80 93.00
1176 9.1500 8713.00 8990.75 93.00
1177 9.1560 8737.00 8950.93 93.00
1178 9.1620 8548.00 8913.09 92.00
1179 9.1680 8457.00 8877.01 92.00
1180 9.1740 8596.00 8842.51 93.00
1181 9.1800 8573.00 8809.43 93.00
1182 9.1860 8796.00 8777.63 94.00
1183 9.1920 8990.00 8746.98 95.00
1184 9.1980 8781.00 8717.38 94.00
1185 9.2040 8525.00 8429.65 92.00
1186 9.2100 8359.00 8413.63 91.00
1187 9.2160 8210.00 8397.62 91.00
1188 9.2220 8118.00 8381.60 90.00
1189 9.2280 8062.00 8365.59 90.00
1190 9.2340 7945.00 8350.57 89.00
1191 9.2400 7917.00 8334.55 89.00
1192 9.2460 7890.00 8318.54 89.00
1193 9.2520 7877.00 8302.52 89.00
1194 9.2580 7983.00 8286.50 89.00
1195 9.2640 7922.00 8270.49 89.00
1196 9.2700 7874.00 8254.47 89.00
1197 9.2760 7948.00 8238.46 89.00
1198 9.2820 7966.00 8222.44 89.00
1199 9.2880 7942.00 8206.42 89.00
1200 9.2940 8032.00 8190.41 90.00
1201 9.3000 7987.00 8174.39 89.00
1202 9.3060 7864.00 8158.37 89.00
1203 9.3120 7824.00 8142.36 88.00
1204 9.3180 7896.00 8126.34 89.00
1205 9.3240 7827.00 8111.32 88.00
1206 9.3300 7770.00 8111.32 88.00
1207 9.3360 7725.00 8114.33 88.00
1208 9.3420 7616.00 8117.33 87.00
1209 9.3480 7671.00 8121.33 88.00
1210 9.3540 7746.00 8124.34 88.00
1211 9.3600 7834.00 8127.34 89.00
1212 9.3660 7717.00 8130.34 88.00
1213 9.3720 7693.00 8134.35 88.00
1214 9.3780 7794.00 8137.35 88.00
1215 9.3840 7742.00 8140.35 88.00
1216 9.3900 7730.00 8144.36 88.00
1217 9.3960 7779.00 8147.36 88.00
1218 9.4020 7730.00 8150.36 88.00
1219 9.4080 7734.00 8154.37 88.00
1220 9.4140 7786.00 8157.37 88.00
1221 9.4200 7773.00 8160.38 88.00
1222 9.4260 7888.00 8163.38 89.00
1223 9.4320 7867.00 8167.38 89.00
1224 9.4380 7717.00 8170.39 88.00
1225 9.4440 7585.00 8173.39 87.00
1226 9.4500 7659.00 8177.39 88.00
1227 9.4560 7788.00 8180.40 88.00
1228 9.4620 7891.00 8183.40 89.00
1229 9.4680 7791.00 8187.40 88.00
1230 9.4740 7853.00 8190.41 89.00
1231 9.4800 8083.00 8193.41 90.00
1232 9.4860 8205.00 8196.41 91.00
1233 9.4920 8642.00 8200.42 93.00
1234 9.4980 9255.00 8203.42 96.00
1235 9.5040 10362.00 8206.42 102.00
1236 9.5100 11837.00 8210.43 109.00
1237 9.5160 12786.00 8213.43 113.00
1238 9.5220 13181.00 8216.43 115.00
1239 9.5280 13069.00 8301.73 114.00
1240 9.5340 12078.00 8404.27 110.00
1241 9.5400 10266.00 8415.81 101.00
1242 9.5460 9196.00 8427.96 96.00
1243 9.5520 8464.00 8441.80 92.00
1244 9.5580 8319.00 8455.38 91.00
1245 9.5640 8138.00 8469.78 90.00
1246 9.5700 8031.00 8486.10 90.00
1247 9.5760 7957.00 8502.44 89.00
1248 9.5820 7907.00 8519.90 89.00
1249 9.5880 7917.00 8539.62 89.00
1250 9.5940 7903.00 8559.74 89.00
1251 9.6000 7968.00 8581.45 89.00
1252 9.6060 7962.00 8604.94 89.00
1253 9.6120 7833.00 8631.44 89.00
1254 9.6180 7961.00 8659.23 89.00
1255 9.6240 8040.00 8689.62 90.00
1256 9.6300 8232.00 8724.00 91.00
1257 9.6360 8048.00 8788.84 90.00
1258 9.6420 8182.00 8858.65 90.00
1259 9.6480 8300.00 8932.07 91.00
1260 9.6540 8354.00 9011.88 91.00
1261 9.6600 8447.00 9098.02 92.00
1262 9.6660 8630.00 9190.67 93.00
1263 9.6720 8918.00 9293.27 94.00
1264 9.6780 9486.00 9405.65 97.00
1265 9.6840 10634.00 9532.07 103.00
1266 9.6900 11945.00 9674.46 109.00
1267 9.6960 12976.00 9835.64 114.00
1268 9.7020 12748.00 10022.50 113.00
1269 9.7080 11622.00 10239.80 108.00
1270 9.7140 10756.00 10498.40 104.00
1271 9.7200 10470.00 10809.70 102.00
1272 9.7260 10593.00 11190.60 103.00
1273 9.7320 10864.00 11671.30 104.00
1274 9.7380 11358.00 12302.90 107.00
1275 9.7440 12166.00 13211.60 110.00
1276 9.7500 13401.00 14710.60 116.00
1277 9.7560 15976.00 17543.80 126.00
1278 9.7620 20348.00 23191.80 143.00
1279 9.7680 29837.00 33899.70 173.00
1280 9.7740 49413.00 51898.40 222.00
1281 9.7800 88224.00 77493.90 297.00
1282 9.7860 138243.00 106587.00 372.00
1283 9.7920 175322.00 129254.00 419.00
1284 9.7980 175170.00 134211.00 419.00
1285 9.8040 143991.00 118513.00 379.00
1286 9.8100 102205.00 90744.70 320.00
1287 9.8160 68474.00 62712.90 262.00
1288 9.8220 44950.00 41961.70 212.00
1289 9.8280 31239.00 28305.80 177.00
1290 9.8340 23847.00 20823.10 154.00
1291 9.8400 18891.00 17090.30 137.00
1292 9.8460 16291.00 15244.60 128.00
1293 9.8520 14704.00 14248.30 121.00
1294 9.8580 13551.00 13633.80 116.00
1295 9.8640 12669.00 13210.10 113.00
1296 9.8700 12116.00 12882.40 110.00
1297 9.8760 11632.00 12641.10 108.00
1298 9.8820 11393.00 12465.40 107.00
1299 9.8880 11269.00 12341.60 106.00
1300 9.8940 11462.00 12260.10 107.00
1301 9.9000 11501.00 12214.30 107.00
1302 9.9060 11399.00 12199.70 107.00
1303 9.9120 10798.00 12213.20 104.00
1304 9.9180 10354.00 12253.20 102.00
1305 9.9240 10138.00 12318.80 101.00
1306 9.9300 10133.00 12410.10 101.00
1307 9.9360 10019.00 12528.00 100.00
1308 9.9420 9883.00 12674.20 99.00
1309 9.9480 9900.00 12851.50 99.00
1310 9.9540 10056.00 13063.30 100.00
1311 9.9600 9839.00 13314.60 99.00
1312 9.9660 10025.00 13611.40 100.00
1313 9.9720 10380.00 13962.00 102.00
1314 9.9780 10666.00 14376.70 103.00
1315 9.9840 10908.00 14869.10 104.00
1316 9.9900 11186.00 15456.60 106.00
1317 9.9960 11497.00 16163.00 107.00
1318 10.0020 12399.00 17018.90 111.00
1319 10.0080 13026.00 18067.20 114.00
1320 10.0140 14258.00 19360.40 119.00
1321 10.0200 15722.00 20957.20 125.00
1322 10.0260 18241.00 23027.40 135.00
1323 10.0320 21780.00 25832.00 148.00
1324 10.0380 27766.00 29998.70 167.00
1325 10.0440 37558.00 37122.80 194.00
1326 10.0500 55648.00 50975.30 236.00
1327 10.0560 91824.00 78891.50 303.00
1328 10.0620 157587.00 131526.00 397.00
1329 10.0680 252098.00 218521.00 502.00
1330 10.0740 369027.00 338987.00 607.00
1331 10.0800 465071.00 470256.00 682.00
1332 10.0860 498958.00 562339.00 706.00
1333 10.0920 465337.00 559282.00 682.00
1334 10.0980 389602.00 463268.00 624.00
1335 10.1040 304034.00 331422.00 551.00
1336 10.1100 229856.00 212426.00 479.00
1337 10.1160 165173.00 127286.00 406.00
1338 10.1220 117709.00 76179.80 343.00
1339 10.1280 82728.00 49221.70 288.00
1340 10.1340 59786.00 35815.20 245.00
1341 10.1400 42370.00 28840.70 206.00
1342 10.1460 32529.00 24693.10 180.00
1343 10.1520 27147.00 21850.50 165.00
1344 10.1580 24515.00 19723.00 157.00
1345 10.1640 22863.00 18057.20 151.00
1346 10.1700 21147.00 16719.70 145.00
1347 10.1760 19234.00 15629.20 139.00
1348 10.1820 16592.00 14726.50 129.00
1349 10.1880 14739.00 13969.20 121.00
1350 10.1940 13158.00 13327.90 115.00
1351 10.2000 12210.00 12778.80 110.00
1352 10.2060 11492.00 12302.90 107.00
1353 10.2120 11168.00 11888.80 106.00
1354 10.2180 10685.00 11524.60 103.00
1355 10.2240 10588.00 11201.00 103.00
1356 10.2300 10189.00 10913.30 101.00
1357 10.2360 9727.00 10653.90 99.00
1358 10.2420 9476.00 10420.50 97.00
1359 10.2480 9233.00 10208.50 96.00
1360 10.2540 9211.00 10013.90 96.00
1361 10.2600 8965.00 9836.17 95.00
1362 10.2660 8890.00 9672.31 94.00
1363 10.2720 8694.00 9528.55 93.00
1364 10.2780 8751.00 9403.47 94.00
1365 10.2840 8660.00 9288.87 93.00
1366 10.2900 8609.00 9181.93 93.00
1367 10.2960 8568.00 9084.24 93.00
1368 10.3020 8720.00 8993.97 93.00
1369 10.3080 8982.00 8913.84 95.00
1370 10.3140 9525.00 8842.37 98.00
1371 10.3200 11172.00 8780.80 106.00
1372 10.3260 12775.00 8723.61 113.00
1373 10.3320 13685.00 8664.94 117.00
1374 10.3380 14004.00 8598.31 118.00
1375 10.3440 12974.00 8521.82 114.00
1376 10.3500 11601.00 8444.46 108.00
1377 10.3560 10990.00 8370.24 105.00
1378 10.3620 10492.00 7549.02 102.00
1379 10.3680 11068.00 7520.06 105.00
1380 10.3740 12167.00 7495.32 110.00
1381 10.3800 14129.00 7471.42 119.00
1382 10.3860 15294.00 7449.43 124.00
1383 10.3920 14613.00 7426.83 121.00
1384 10.3980 11963.00 7405.42 109.00
1385 10.4040 10058.00 7383.11 100.00
1386 10.4100 8882.00 7361.87 94.00
1387 10.4160 8317.00 7339.67 91.00
1388 10.4220 7972.00 7317.50 89.00
1389 10.4280 7951.00 7296.36 89.00
1390 10.4340 7523.00 7274.24 87.00
1391 10.4400 7452.00 7253.13 86.00
1392 10.4460 7429.00 7231.04 86.00
1393 10.4520 7383.00 7209.96 86.00
1394 10.4580 7258.00 7187.88 85.00
1395 10.4640 7165.00 7166.81 85.00
1396 10.4700 7179.00 7144.75 85.00
1397 10.4760 7114.00 7123.70 84.00
1398 10.4820 7126.00 7101.64 84.00
1399 10.4880 7163.00 7080.60 85.00
1400 10.4940 7177.00 7058.55 85.00
1401 10.5000 7250.00 7037.51 85.00
1402 10.5060 7138.00 7015.46 84.00
1403 10.5120 7090.00 6994.42 84.00
1404 10.5180 6984.00 6972.39 84.00
1405 10.5240 6982.00 6950.35 84.00
1406 10.5300 7049.00 6929.31 84.00
1407 10.5360 6955.00 6907.28 83.00
1408 10.5420 7055.00 6886.25 84.00
1409 10.5480 7077.00 6864.22 84.00
1410 10.5540 6944.00 6843.19 83.00
1411 10.5600 7093.00 6821.15 84.00
1412 10.5660 7014.00 6800.12 84.00
1413 10.5720 7026.00 6778.09 84.00
1414 10.5780 6942.00 6757.07 83.00
1415 10.5840 6801.00 6735.04 82.00
1416 10.5900 6686.00 6714.01 82.00
1417 10.5960 6723.00 6691.98 82.00
1418 10.6020 6676.00 6670.96 82.00
1419 10.6080 6553.00 6658.94 81.00
1420 10.6140 6570.00 6657.83 81.00
1421 10.6200 6749.00 6656.83 82.00
1422 10.6260 6545.00 6654.83 81.00
1423 10.6320 6529.00 6653.83 81.00
1424 10.6380 6527.00 6652.83 81.00
1425 10.6440 6676.00 6650.83 82.00
1426 10.6500 6683.00 6649.82 82.00
1427 10.6560 6512.00 6648.82 81.00
1428 10.6620 6466.00 6646.82 80.00
1429 10.6680 6489.00 6645.82 81.00
1430 10.6740 6440.00 6644.82 80.00
1431 10.6800 6467.00 6642.82 80.00
1432 10.6860 6462.00 6641.82 80.00
1433 10.6920 6506.00 6640.82 81.00
1434 10.6980 6481.00 6638.81 81.00
1435 10.7040 6391.00 6637.81 80.00
1436 10.7100 6450.00 6636.81 80.00
1437 10.7160 6516.00 6634.81 81.00
1438 10.7220 6574.00 6633.81 81.00
1439 10.7280 6426.00 6632.81 80.00
1440 10.7340 6386.00 6631.81 80.00
1441 10.7400 6350.00 6629.80 80.00
1442 10.7460 6264.00 6628.80 79.00
1443 10.7520 6391.00 6634.57 80.00
1444 10.7580 6380.00 6620.23 80.00
1445 10.7640 6369.00 6606.94 80.00
1446 10.7700 6483.00 6592.69 81.00
1447 10.7760 6649.00 6578.49 82.00
1448 10.7820 6755.00 6565.36 82.00
1449 10.7880 7027.00 6551.28 84.00
1450 10.7940 7342.00 6538.28 86.00
1451 10.8000 8304.00 6524.35 91.00
1452 10.8060 9652.00 6510.50 98.00
1453 10.8120 10449.00 6497.75 102.00
1454 10.8180 10257.00 6484.10 101.00
1455 10.8240 9481.00 6471.57 97.00
1456 10.8300 8822.00 6458.16 94.00
1457 10.8360 8780.00 6444.90 94.00
1458 10.8420 9216.00 6432.79 96.00
1459 10.8480 9728.00 6419.86 99.00
1460 10.8540 9699.00 6408.14 98.00
1461 10.8600 9132.00 6395.65 96.00
1462 10.8660 8234.00 6383.42 91.00
1463 10.8720 7535.00 6372.48 87.00
1464 10.8780 7049.00 6360.89 84.00
1465 10.8840 6725.00 6350.70 82.00
1466 10.8900 6583.00 6339.96 81.00
1467 10.8960 6482.00 6329.76 81.00
1468 10.9020 6611.00 6321.19 81.00
1469 10.9080 6701.00 6322.58 82.00
1470 10.9140 6687.00 6316.06 82.00
1471 10.9200 6582.00 6309.63 81.00
1472 10.9260 6560.00 6304.50 81.00
1473 10.9320 6452.00 6301.96 80.00
1474 10.9380 6280.00 6300.35 79.00
1475 10.9440 6368.00 6302.17 80.00
1476 10.9500 6339.00 6306.00 80.00
1477 10.9560 6296.00 6313.69 79.00
1478 10.9620 6318.00 6327.37 79.00
1479 10.9680 6365.00 6359.68 80.00
1480 10.9740 6333.00 6401.14 80.00
1481 10.9800 6381.00 6456.61 80.00
1482 10.9860 6601.00 6536.98 81.00
1483 10.9920 6773.00 6668.52 82.00
1484 10.9980 7022.00 6910.71 84.00
1485 11.0040 7541.00 7377.56 87.00
1486 11.0100 8621.00 8241.62 93.00
1487 11.0160 10400.00 9681.44 102.00
1488 11.0220 12460.00 11756.00 112.00
1489 11.0280 14810.00 14237.60 122.00
1490 11.0340 16382.00 16475.10 128.00
1491 11.0400 16334.00 17446.20 128.00
1492 11.0460 15219.00 16537.60 123.00
1493 11.0520 13378.00 14327.70 116.00
1494 11.0580 11591.00 11842.60 108.00
1495 11.0640 10199.00 9749.87 101.00
1496 11.0700 9239.00 8290.12 96.00
1497 11.0760 8385.00 7411.59 92.00
1498 11.0820 8157.00 6937.80 90.00
1499 11.0880 8419.00 6694.72 92.00
1500 11.0940 9048.00 6566.41 95.00
1501 11.1000 10227.00 6492.19 101.00
1502 11.1060 12009.00 6445.42 110.00
1503 11.1120 13629.00 6415.46 117.00
1504 11.1180 13682.00 6398.18 117.00
1505 11.1240 11966.00 6392.15 109.00
1506 11.1300 9989.00 6397.77 100.00
1507 11.1360 8473.00 6418.01 92.00
1508 11.1420 7646.00 6461.73 87.00
1509 11.1480 7190.00 6551.10 85.00
1510 11.1540 6979.00 6853.56 84.00
1511 11.1600 7179.00 7331.72 85.00
1512 11.1660 7692.00 7992.54 88.00
1513 11.1720 8558.00 9035.44 93.00
1514 11.1780 10259.00 10444.10 101.00
1515 11.1840 12257.00 11990.90 111.00
1516 11.1900 13247.00 13181.80 115.00
1517 11.1960 13041.00 13400.20 114.00
1518 11.2020 11576.00 12509.10 108.00
1519 11.2080 9830.00 11033.60 99.00
1520 11.2140 8752.00 9553.61 94.00
1521 11.2200 7904.00 8386.16 89.00
1522 11.2260 7320.00 7612.76 86.00
1523 11.2320 6953.00 7168.82 83.00
1524 11.2380 6706.00 6941.48 82.00
1525 11.2440 6647.00 6833.66 82.00
1526 11.2500 6767.00 6785.11 82.00
1527 11.2560 6754.00 6765.80 82.00
1528 11.2620 6798.00 6762.83 82.00
1529 11.2680 6974.00 6771.04 84.00
1530 11.2740 7061.00 6788.33 84.00
1531 11.2800 7060.00 6813.79 84.00
1532 11.2860 6876.00 6847.12 83.00
1533 11.2920 6828.00 6888.39 83.00
1534 11.2980 6770.00 6938.00 82.00
1535 11.3040 6637.00 6996.62 81.00
1536 11.3100 6663.00 7061.26 82.00
1537 11.3160 6766.00 7135.26 82.00
1538 11.3220 6909.00 7222.34 83.00
1539 11.3280 6976.00 7324.79 84.00
1540 11.3340 6959.00 7430.23 83.00
1541 11.3400 7151.00 7573.29 85.00
1542 11.3460 7627.00 7742.83 87.00
1543 11.3520 7927.00 7945.02 89.00
1544 11.3580 8159.00 8187.87 90.00
1545 11.3640 8360.00 8482.11 91.00
1546 11.3700 8476.00 8842.28 92.00
1547 11.3760 8908.00 9289.22 94.00
1548 11.3820 9406.00 9854.01 97.00
1549 11.3880 9942.00 10597.30 100.00
1550 11.3940 10990.00 11644.70 105.00
1551 11.4000 12396.00 13288.80 111.00
1552 11.4060 14539.00 16180.40 121.00
1553 11.4120 18258.00 21578.60 135.00
1554 11.4180 25221.00 31476.20 159.00
1555 11.4240 38250.00 48206.70 196.00
1556 11.4300 63582.00 73252.60 252.00
1557 11.4360 105467.00 105328.00 325.00
1558 11.4420 154018.00 138483.00 392.00
1559 11.4480 186497.00 161535.00 432.00
1560 11.4540 180399.00 163419.00 425.00
1561 11.4600 144273.00 143133.00 380.00
1562 11.4660 102104.00 110744.00 320.00
1563 11.4720 66709.00 77950.70 258.00
1564 11.4780 43959.00 51594.10 210.00
1565 11.4840 30420.00 33567.80 174.00
1566 11.4900 21805.00 22699.30 148.00
1567 11.4960 16751.00 16707.50 129.00
1568 11.5020 14020.00 13495.80 118.00
1569 11.5080 12239.00 11688.10 111.00
1570 11.5140 10804.00 10552.80 104.00
1571 11.5200 9909.00 9753.81 100.00
1572 11.5260 9194.00 9146.71 96.00
1573 11.5320 8557.00 8665.50 93.00
1574 11.5380 8093.00 8274.92 90.00
1575 11.5440 7642.00 7953.09 87.00
1576 11.5500 7290.00 7684.41 85.00
1577 11.5560 7145.00 7456.68 85.00
1578 11.5620 6962.00 7263.38 83.00
1579 11.5680 6724.00 7097.12 82.00
1580 11.5740 6628.00 6952.86 81.00
1581 11.5800 6608.00 6826.80 81.00
1582 11.5860 6436.00 6715.81 80.00
1583 11.5920 6274.00 6617.46 79.00
1584 11.5980 6232.00 6530.78 79.00
1585 11.6040 6167.00 6455.13 79.00
1586 11.6100 6054.00 6387.22 78.00
1587 11.6160 5947.00 6325.97 77.00
1588 11.6220 5955.00 6271.47 77.00
1589 11.6280 6001.00 6220.96 77.00
1590 11.6340 5965.00 6174.81 77.00
1591 11.6400 6018.00 6132.47 78.00
1592 11.6460 6128.00 6093.50 78.00
1593 11.6520 6253.00 6058.51 79.00
1594 11.6580 6502.00 6025.15 81.00
1595 11.6640 6699.00 5994.13 82.00
1596 11.6700 6756.00 5965.21 82.00
1597 11.6760 6666.00 5938.17 82.00
1598 11.6820 6392.00 5913.80 80.00
1599 11.6880 6105.00 5889.96 78.00
1600 11.6940 5966.00 5867.49 77.00
1601 11.7000 5840.00 5846.26 76.00
1602 11.7060 5868.00 5826.16 77.00
1603 11.7120 5989.00 5808.08 77.00
1604 11.7180 6092.00 5789.94 78.00
1605 11.7240 6572.00 5772.65 81.00
1606 11.7300 6866.00 5756.14 83.00
1607 11.7360 6946.00 5740.35 83.00
1608 11.7420 6763.00 5726.21 82.00
1609 11.7480 6299.00 5596.38 79.00
1610 11.7540 5899.00 5477.62 77.00
1611 11.7600 5811.00 5472.62 76.00
1612 11.7660 5759.00 5467.61 76.00
1613 11.7720 5594.00 5463.61 75.00
1614 11.7780 5591.00 5458.60 75.00
1615 11.7840 5657.00 5453.60 75.00
1616 11.7900 5608.00 5448.59 75.00
1617 11.7960 5524.00 5443.59 74.00
1618 11.8020 5563.00 5439.58 75.00
1619 11.8080 5476.00 5434.58 74.00
1620 11.8140 5350.00 5429.57 73.00
1621 11.8200 5248.00 5435.62 72.00
1622 11.8260 5311.00 5434.06 73.00
1623 11.8320 5313.00 5433.53 73.00
1624 11.8380 5309.00 5434.04 73.00
1625 11.8440 5355.00 5433.57 73.00
1626 11.8500 5397.00 5434.14 73.00
1627 11.8560 5464.00 5433.74 74.00
1628 11.8620 5433.00 5434.39 74.00
1629 11.8680 5373.00 5434.09 73.00
1630 11.8740 5323.00 5434.83 73.00
1631 11.8800 5405.00 5434.63 74.00
1632 11.8860 5429.00 5435.49 74.00
1633 11.8920 5342.00 5435.41 73.00
1634 11.8980 5343.00 5436.41 73.00
1635 11.9040 5349.00 5436.49 73.00
1636 11.9100 5357.00 5437.66 73.00
1637 11.9160 5246.00 5437.93 72.00
1638 11.9220 5281.00 5439.31 73.00
1639 11.9280 5324.00 5439.82 73.00
1640 11.9340 5430.00 5441.47 74.00
1641 11.9400 5525.00 5442.28 74.00
1642 11.9460 5429.00 5444.28 74.00
1643 11.9520 5445.00 5445.48 74.00
1644 11.9580 5497.00 5447.91 74.00
1645 11.9640 5705.00 5449.62 76.00
1646 11.9700 5857.00 5452.64 77.00
1647 11.9760 6316.00 5456.02 79.00
1648 11.9820 6674.00 5458.82 82.00
1649 11.9880 6671.00 5463.12 82.00
1650 11.9940 6511.00 5467.00 81.00
1651 12.0000 6202.00 5472.57 79.00
1652 12.0060 5881.00 5477.98 77.00
1653 12.0120 5677.00 5485.38 75.00
1654 12.0180 5575.00 5493.00 75.00
1655 12.0240 5474.00 5503.13 74.00
1656 12.0300 5506.00 5514.11 74.00
1657 12.0360 5549.00 5528.43 74.00
1658 12.0420 5429.00 5544.74 74.00
1659 12.0480 5424.00 5565.93 74.00
1660 12.0540 5529.00 5591.35 74.00
1661 12.0600 5493.00 5625.37 74.00
1662 12.0660 5565.00 5670.81 75.00
1663 12.0720 5658.00 5740.64 75.00
1664 12.0780 5752.00 5857.18 76.00
1665 12.0840 6202.00 6070.62 79.00
1666 12.0900 6791.00 6459.18 82.00
1667 12.0960 7808.00 7128.03 88.00
1668 12.1020 9515.00 8160.98 98.00
1669 12.1080 11842.00 9555.35 109.00
1670 12.1140 14420.00 11134.30 120.00
1671 12.1200 16029.00 12488.60 127.00
1672 12.1260 16151.00 13030.80 127.00
1673 12.1320 15192.00 12446.60 123.00
1674 12.1380 13461.00 11072.10 116.00
1675 12.1440 11611.00 9493.34 108.00
1676 12.1500 10233.00 8109.96 101.00
1677 12.1560 9011.00 7090.84 95.00
1678 12.1620 8016.00 6434.65 90.00
1679 12.1680 7316.00 6052.73 86.00
1680 12.1740 6725.00 5844.27 82.00
1681 12.1800 6170.00 5728.27 79.00
1682 12.1860 6095.00 5659.68 78.00
1683 12.1920 6100.00 5612.85 78.00
1684 12.1980 6198.00 5579.20 79.00
1685 12.2040 6515.00 5552.01 81.00
1686 12.2100 7108.00 5530.99 84.00
1687 12.2160 7435.00 5512.81 86.00
1688 12.2220 7220.00 5498.59 85.00
1689 12.2280 6558.00 5485.69 81.00
1690 12.2340 6223.00 5475.63 79.00
1691 12.2400 5980.00 5466.06 77.00
1692 12.2460 5714.00 5458.69 76.00
1693 12.2520 5610.00 5451.32 75.00
1694 12.2580 5540.00 5445.78 74.00
1695 12.2640 5528.00 5439.92 74.00
1696 12.2700 5643.00 5435.64 75.00
1697 12.2760 5756.00 5430.86 76.00
1698 12.2820 5882.00 5427.49 77.00
1699 12.2880 5822.00 5423.48 76.00
1700 12.2940 5674.00 5420.79 75.00
1701 12.3000 5427.00 5417.36 74.00
1702 12.3060 5319.00 5415.17 73.00
1703 12.3120 5283.00 5412.18 73.00
1704 12.3180 5333.00 5410.38 73.00
1705 12.3240 5226.00 5407.73 72.00
1706 12.3300 5345.00 5406.22 73.00
1707 12.3360 5354.00 5403.84 73.00
1708 12.3420 5339.00 5402.58 73.00
1709 12.3480 5416.00 5400.41 74.00
1710 12.3540 5507.00 5399.33 74.00
1711 12.3600 5598.00 5398.34 75.00
1712 12.3660 5446.00 5396.41 74.00
1713 12.3720 5427.00 5395.56 74.00
1714 12.3780 5321.00 5393.76 73.00
1715 12.3840 5391.00 5393.02 73.00
1716 12.3900 5372.00 5391.32 73.00
1717 12.3960 5266.00 5390.68 73.00
1718 12.4020 5414.00 5389.07 74.00
1719 12.4080 5313.00 5388.50 73.00
1720 12.4140 5345.00 5386.97 73.00
1721 12.4200 5271.00 5385.47 73.00
1722 12.4260 5266.00 5382.99 73.00
1723 12.4320 5302.00 5381.55 73.00
1724 12.4380 5302.00 5369.51 73.00
1725 12.4440 5362.00 5367.51 73.00
1726 12.4500 5480.00 5366.51 74.00
1727 12.4560 5708.00 5365.51 76.00
1728 12.4620 5862.00 5363.50 77.00
1729 12.4680 5984.00 5362.50 77.00
1730 12.4740 6185.00 5360.50 79.00
1731 12.4800 5995.00 5359.50 77.00
1732 12.4860 5823.00 5358.50 76.00
1733 12.4920 5591.00 5356.50 75.00
1734 12.4980 5353.00 5355.50 73.00
1735 12.5040 5326.00 5354.50 73.00
1736 12.5100 5213.00 5352.49 72.00
1737 12.5160 5343.00 5351.49 73.00
1738 12.5220 5357.00 5350.49 73.00
1739 12.5280 5432.00 5348.49 74.00
1740 12.5340 5406.00 5347.49 74.00
1741 12.5400 5468.00 5346.49 74.00
1742 12.5460 5446.00 5344.48 74.00
1743 12.5520 5805.00 5343.48 76.00
1744 12.5580 6198.00 5342.48 79.00
1745 12.5640 6419.00 5340.48 80.00
1746 12.5700 6494.00 5339.48 81.00
1747 12.5760 6327.00 5337.48 80.00
1748 12.5820 6198.00 5336.48 79.00
1749 12.5880 6225.00 5335.48 79.00
1750 12.5940 6610.00 5333.47 81.00
1751 12.6000 7316.00 5332.47 86.00
1752 12.6060 8524.00 5331.47 92.00
1753 12.6120 9074.00 5329.47 95.00
1754 12.6180 8643.00 5328.47 93.00
1755 12.6240 7688.00 5327.47 88.00
1756 12.6300 6783.00 5325.47 82.00
1757 12.6360 6144.00 5324.46 78.00
1758 12.6420 5739.00 5323.46 76.00
1759 12.6480 5486.00 5321.46 74.00
1760 12.6540 5370.00 5320.46 73.00
1761 12.6600 5329.00 5319.46 73.00
1762 12.6660 5210.00 5317.46 72.00
1763 12.6720 5094.00 5316.46 71.00
1764 12.6780 5065.00 5314.45 71.00
1765 12.6840 4992.00 5313.45 71.00
1766 12.6900 5157.00 5312.45 72.00
1767 12.6960 5217.00 5310.45 72.00
1768 12.7020 5234.00 5309.45 72.00
1769 12.7080 5287.00 5308.45 73.00
1770 12.7140 5143.00 5306.45 72.00
1771 12.7200 5086.00 5305.44 71.00
1772 12.7260 4973.00 5304.44 71.00
1773 12.7320 5017.00 5302.44 71.00
1774 12.7380 5072.00 5301.44 71.00
1775 12.7440 5061.00 5300.44 71.00
1776 12.7500 5090.00 5298.44 71.00
1777 12.7560 5121.00 5297.44 72.00
1778 12.7620 5170.00 5296.44 72.00
1779 12.7680 5301.00 5294.43 73.00
1780 12.7740 5134.00 5293.43 72.00
1781 12.7800 5103.00 5291.43 71.00
1782 12.7860 5110.00 5290.43 71.00
1783 12.7920 5142.00 5289.43 72.00
1784 12.7980 5325.00 5287.43 73.00
1785 12.8040 5385.00 5286.43 73.00
1786 12.8100 5342.00 5285.42 73.00
1787 12.8160 5182.00 5283.42 72.00
1788 12.8220 5193.00 5282.42 72.00
1789 12.8280 5173.00 5281.42 72.00
1790 12.8340 5103.00 5279.42 71.00
1791 12.8400 5248.00 5278.42 72.00
1792 12.8460 5167.00 5277.42 72.00
1793 12.8520 5185.00 5275.41 72.00
1794 12.8580 5259.00 5274.41 73.00
1795 12.8640 5452.00 5273.41 74.00
1796 12.8700 5397.00 5271.41 73.00
1797 12.8760 5813.00 5270.41 76.00
1798 12.8820 5761.00 5268.41 76.00
1799 12.8880 5897.00 5267.41 77.00
1800 12.8940 5851.00 5266.40 76.00
1801 12.9000 5839.00 5264.40 76.00
1802 12.9060 5806.00 5263.40 76.00
1803 12.9120 5487.00 5262.40 74.00
1804 12.9180 5397.00 5260.40 73.00
1805 12.9240 5466.00 5259.40 74.00
1806 12.9300 5406.00 5258.40 74.00
1807 12.9360 5355.00 5256.39 73.00
1808 12.9420 5282.00 5255.39 73.00
1809 12.9480 5353.00 5254.39 73.00
1810 12.9540 5228.00 5257.63 72.00
1811 12.9600 5357.00 5261.45 73.00
1812 12.9660 5354.00 5260.83 73.00
1813 12.9720 5277.00 5259.24 73.00
1814 12.9780 5405.00 5258.66 74.00
1815 12.9840 5304.00 5257.11 73.00
1816 12.9900 5297.00 5256.60 73.00
1817 12.9960 5262.00 5256.11 73.00
1818 13.0020 5338.00 5254.65 73.00
1819 13.0080 5184.00 5254.23 72.00
1820 13.0140 5170.00 5253.85 72.00
1821 13.0200 5140.00 5252.51 72.00
1822 13.0260 5260.00 5252.22 73.00
1823 13.0320 5174.00 5251.98 72.00
1824 13.0380 5298.00 5250.79 73.00
1825 13.0440 5338.00 5250.67 73.00
1826 13.0500 5255.00 5250.61 72.00
1827 13.0560 5227.00 5249.63 72.00
1828 13.0620 5270.00 5249.73 73.00
1829 13.0680 5316.00 5249.93 73.00
1830 13.0740 5064.00 5249.22 71.00
1831 13.0800 5348.00 5249.63 73.00
1832 13.0860 5287.00 5250.18 73.00
1833 13.0920 5245.00 5253.87 72.00
1834 13.0980 5376.00 5257.72 73.00
1835 13.1040 5204.00 5261.76 72.00
1836 13.1100 5248.00 5266.01 72.00
1837 13.1160 5533.00 5340.68 74.00
1838 13.1220 5408.00 5349.09 74.00
1839 13.1280 5286.00 5356.97 73.00
1840 13.1340 5300.00 5365.38 73.00
1841 13.1400 5482.00 5374.41 74.00
1842 13.1460 5355.00 5384.13 73.00
1843 13.1520 5525.00 5394.65 74.00
1844 13.1580 5691.00 5406.10 75.00
1845 13.1640 5686.00 5418.65 75.00
1846 13.1700 5857.00 5795.68 77.00
1847 13.1760 6221.00 5824.48 79.00
1848 13.1820 6343.00 5855.89 80.00
1849 13.1880 6236.00 5891.35 79.00
1850 13.1940 6120.00 5929.47 78.00
1851 13.2000 6230.00 5972.01 79.00
1852 13.2060 6180.00 6020.11 79.00
1853 13.2120 6239.00 6075.56 79.00
1854 13.2180 6059.00 6141.76 78.00
1855 13.2240 6425.00 6225.69 80.00
1856 13.2300 6360.00 6341.90 80.00
1857 13.2360 6293.00 6518.55 79.00
1858 13.2420 6393.00 6803.04 80.00
1859 13.2480 6389.00 7261.78 80.00
1860 13.2540 6831.00 7964.63 83.00
1861 13.2600 7430.00 8951.58 86.00
1862 13.2660 8628.00 10180.60 93.00
1863 13.2720 10434.00 11485.50 102.00
1864 13.2780 11680.00 12543.00 108.00
1865 13.2840 11485.00 12964.10 107.00
1866 13.2900 10410.00 12578.60 102.00
1867 13.2960 9287.00 11606.30 96.00
1868 13.3020 8356.00 10440.60 91.00
1869 13.3080 7555.00 9386.36 87.00
1870 13.3140 7532.00 8593.13 87.00
1871 13.3200 7189.00 8089.80 85.00
1872 13.3260 7353.00 7834.02 86.00
1873 13.3320 7281.00 7755.81 85.00
1874 13.3380 7268.00 7795.20 85.00
1875 13.3440 7701.00 7911.50 88.00
1876 13.3500 8120.00 8083.79 90.00
1877 13.3560 8600.00 8305.11 93.00
1878 13.3620 9010.00 8577.70 95.00
1879 13.3680 9085.00 8910.61 95.00
1880 13.3740 8965.00 9322.40 95.00
1881 13.3800 9341.00 9850.12 97.00
1882 13.3860 9750.00 10569.70 99.00
1883 13.3920 10499.00 11632.90 102.00
1884 13.3980 12051.00 13313.30 110.00
1885 13.4040 14055.00 16029.30 119.00
1886 13.4100 17370.00 20299.10 132.00
1887 13.4160 23873.00 26562.10 155.00
1888 13.4220 34925.00 34877.00 187.00
1889 13.4280 49659.00 44597.10 223.00
1890 13.4340 63342.00 54082.80 252.00
1891 13.4400 65875.00 60757.80 257.00
1892 13.4460 61482.00 62608.20 248.00
1893 13.4520 54391.00 60798.30 233.00
1894 13.4580 50150.00 59480.40 224.00
1895 13.4640 53194.00 63431.20 231.00
1896 13.4700 65727.00 76784.60 256.00
1897 13.4760 92691.00 102154.00 304.00
1898 13.4820 140758.00 139378.00 375.00
1899 13.4880 195986.00 184043.00 443.00
1900 13.4940 247198.00 226245.00 497.00
1901 13.5000 266092.00 250880.00 516.00
1902 13.5060 244682.00 245447.00 495.00
1903 13.5120 199855.00 212506.00 447.00
1904 13.5180 151516.00 166511.00 389.00
1905 13.5240 109589.00 120817.00 331.00
1906 13.5300 78089.00 83002.80 279.00
1907 13.5360 55790.00 55589.00 236.00
1908 13.5420 39807.00 37738.00 200.00
1909 13.5480 30192.00 27015.40 174.00
1910 13.5540 23501.00 20839.20 153.00
1911 13.5600 18968.00 17237.50 138.00
1912 13.5660 15832.00 14992.10 126.00
1913 13.5720 14014.00 13453.00 118.00
1914 13.5780 12188.00 12306.10 110.00
1915 13.5840 11145.00 11404.10 106.00
1916 13.5900 10306.00 10672.10 102.00
1917 13.5960 9805.00 10067.30 99.00
1918 13.6020 9029.00 9561.18 95.00
1919 13.6080 8614.00 9134.57 93.00
1920 13.6140 8355.00 8764.95 91.00
1921 13.6200 8103.00 8447.62 90.00
1922 13.6260 7804.00 8177.09 88.00
1923 13.6320 7489.00 7941.64 87.00
1924 13.6380 7350.00 7735.48 86.00
1925 13.6440 7159.00 7553.97 85.00
1926 13.6500 7065.00 7393.40 84.00
1927 13.6560 6835.00 7250.71 83.00
1928 13.6620 6820.00 7123.38 83.00
1929 13.6680 6586.00 7009.30 81.00
1930 13.6740 6662.00 6906.73 82.00
1931 13.6800 6458.00 6815.17 80.00
1932 13.6860 6284.00 6731.43 79.00
1933 13.6920 6205.00 6655.42 79.00
1934 13.6980 6201.00 6586.24 79.00
1935 13.7040 6215.00 6523.11 79.00
1936 13.7100 6093.00 6465.38 78.00
1937 13.7160 6133.00 6412.45 78.00
1938 13.7220 6179.00 6363.82 79.00
1939 13.7280 6112.00 6319.07 78.00
1940 13.7340 6045.00 6277.79 78.00
1941 13.7400 6096.00 6239.67 78.00
1942 13.7460 6160.00 6205.39 78.00
1943 13.7520 6197.00 6174.70 79.00
1944 13.7580 6132.00 6146.36 78.00
1945 13.7640 6130.00 6120.16 78.00
1946 13.7700 5996.00 6095.92 77.00
1947 13.7760 6118.00 6006.33 78.00
1948 13.7820 6133.00 5987.87 78.00
1949 13.7880 6193.00 5970.80 79.00
1950 13.7940 5967.00 5954.00 77.00
1951 13.8000 5852.00 5939.38 76.00
1952 13.8060 5934.00 5925.85 77.00
1953 13.8120 5842.00 5913.31 76.00
1954 13.8180 5865.00 5901.71 77.00
1955 13.8240 5932.00 5890.96 77.00
1956 13.8300 5964.00 5881.02 77.00
1957 13.8360 5901.00 5512.66 77.00
1958 13.8420 6047.00 5516.66 78.00
1959 13.8480 5870.00 5520.67 77.00
1960 13.8540 5915.00 5524.67 77.00
1961 13.8600 6032.00 5528.67 78.00
1962 13.8660 5820.00 5532.68 76.00
1963 13.8720 5781.00 5536.68 76.00
1964 13.8780 5835.00 5540.69 76.00
1965 13.8840 5799.00 5544.69 76.00
1966 13.8900 5823.00 5548.69 76.00
1967 13.8960 5757.00 5552.70 76.00
1968 13.9020 5787.00 5556.70 76.00
1969 13.9080 5846.00 5560.71 76.00
1970 13.9140 5804.00 5564.71 76.00
1971 13.9200 5850.00 5568.72 76.00
1972 13.9260 5882.00 5571.72 77.00
1973 13.9320 5905.00 5735.51 77.00
1974 13.9380 5848.00 5745.22 76.00
1975 13.9440 5920.00 5755.23 77.00
1976 13.9500 6054.00 5894.07 78.00
1977 13.9560 5942.00 5909.32 77.00
1978 13.9620 6044.00 5925.21 78.00
1979 13.9680 6164.00 5941.78 79.00
1980 13.9740 6423.00 5959.07 80.00
1981 13.9800 6518.00 5977.16 81.00
1982 13.9860 6493.00 5996.10 81.00
1983 13.9920 6427.00 6015.96 80.00
1984 13.9980 6399.00 6036.82 80.00
1985 14.0040 6612.00 6058.77 81.00
1986 14.0100 6828.00 6081.91 83.00
1987 14.0160 7239.00 6106.34 85.00
1988 14.0220 7773.00 6132.17 88.00
1989 14.0280 7955.00 6159.54 89.00
1990 14.0340 7908.00 6188.60 89.00
1991 14.0400 7694.00 6219.52 88.00
1992 14.0460 7153.00 6252.48 85.00
1993 14.0520 6708.00 6287.69 82.00
1994 14.0580 6407.00 6325.40 80.00
1995 14.0640 6341.00 6364.87 80.00
1996 14.0700 6286.00 6408.42 79.00
1997 14.0760 6176.00 6455.41 79.00
1998 14.0820 6179.00 6506.23 79.00
1999 14.0880 6145.00 6561.37 78.00
2000 14.0940 6108.00 6621.36 78.00
2001 14.1000 6236.00 6686.85 79.00
2002 14.1060 6202.00 6761.51 79.00
2003 14.1120 6215.00 6840.45 79.00
2004 14.1180 6198.00 6927.50 79.00
2005 14.1240 6449.00 7032.77 80.00
2006 14.1300 6619.00 7140.30 81.00
2007 14.1360 6585.00 7260.39 81.00
2008 14.1420 6665.00 7398.18 82.00
2009 14.1480 6744.00 7556.23 82.00
2010 14.1540 6770.00 7734.70 82.00
2011 14.1600 6897.00 7937.49 83.00
2012 14.1660 7034.00 8169.55 84.00
2013 14.1720 7330.00 8436.99 86.00
2014 14.1780 7581.00 8748.81 87.00
2015 14.1840 7816.00 9113.28 88.00
2016 14.1900 8081.00 9545.27 90.00
2017 14.1960 8522.00 10064.90 92.00
2018 14.2020 9268.00 10704.00 96.00
2019 14.2080 10138.00 11520.80 101.00
2020 14.2140 11264.00 12629.00 106.00
2021 14.2200 13233.00 14256.10 115.00
2022 14.2260 16199.00 16826.40 127.00
2023 14.2320 20953.00 21055.40 145.00
2024 14.2380 28743.00 27976.20 170.00
2025 14.2440 40318.00 38820.50 201.00
2026 14.2500 57939.00 54654.60 241.00
2027 14.2560 82101.00 75846.50 287.00
2028 14.2620 110535.00 101368.00 332.00
2029 14.2680 141665.00 128036.00 376.00
2030 14.2740 164848.00 150344.00 406.00
2031 14.2800 173195.00 163047.00 416.00
2032 14.2860 168225.00 165103.00 410.00
2033 14.2920 153437.00 158008.00 392.00
2034 14.2980 134150.00 142295.00 366.00
2035 14.3040 114179.00 119467.00 338.00
2036 14.3100 95233.00 93916.90 309.00
2037 14.3160 76697.00 70209.30 277.00
2038 14.3220 62159.00 50857.10 249.00
2039 14.3280 49677.00 36514.20 223.00
2040 14.3340 39422.00 26714.90 199.00
2041 14.3400 31732.00 20437.00 178.00
2042 14.3460 25534.00 16578.10 160.00
2043 14.3520 21050.00 14218.10 145.00
2044 14.3580 17517.00 12720.60 132.00
2045 14.3640 15020.00 11703.80 123.00
2046 14.3700 13438.00 10963.10 116.00
2047 14.3760 11997.00 10391.80 110.00
2048 14.3820 10974.00 9938.35 105.00
2049 14.3880 10348.00 9574.98 102.00
2050 14.3940 9798.00 9287.13 99.00
2051 14.4000 9554.00 9069.77 98.00
2052 14.4060 9421.00 8927.16 97.00
2053 14.4120 9505.00 8874.51 97.00
2054 14.4180 9842.00 8938.05 99.00
2055 14.4240 10360.00 9152.78 102.00
2056 14.4300 11023.00 9555.40 105.00
2057 14.4360 12219.00 10171.40 111.00
2058 14.4420 13682.00 10988.40 117.00
2059 14.4480 14691.00 11932.80 121.00
2060 14.4540 15139.00 12871.70 123.00
2061 14.4600 14794.00 13664.90 122.00
2062 14.4660 14214.00 14153.70 119.00
2063 14.4720 13547.00 14122.30 116.00
2064 14.4780 12676.00 13458.90 113.00
2065 14.4840 11989.00 12339.80 109.00
2066 14.4900 11550.00 11082.00 107.00
2067 14.4960 11404.00 9927.26 107.00
2068 14.5020 11293.00 8998.08 106.00
2069 14.5080 10782.00 8320.12 104.00
2070 14.5140 9911.00 7864.41 100.00
2071 14.5200 9131.00 7574.67 96.00
2072 14.5260 8157.00 7394.06 90.00
2073 14.5320 7554.00 7278.63 87.00
2074 14.5380 7338.00 7199.97 86.00
2075 14.5440 7117.00 7142.09 84.00
2076 14.5500 6974.00 7096.70 84.00
2077 14.5560 6793.00 7059.62 82.00
2078 14.5620 6654.00 7029.63 82.00
2079 14.5680 6553.00 7003.46 81.00
2080 14.5740 6424.00 6981.18 80.00
2081 14.5800 6435.00 6962.16 80.00
2082 14.5860 6449.00 6945.90 80.00
2083 14.5920 6537.00 6932.02 81.00
2084 14.5980 6410.00 6920.17 80.00
2085 14.6040 6450.00 6910.10 80.00
2086 14.6100 6572.00 6913.52 81.00
2087 14.6160 6653.00 6906.80 82.00
2088 14.6220 6660.00 6895.32 82.00
2089 14.6280 6812.00 6741.27 83.00
2090 14.6340 7030.00 6735.29 84.00
2091 14.6400 6997.00 6731.00 84.00
2092 14.6460 7134.00 6599.59 84.00
2093 14.6520 7064.00 6600.72 84.00
2094 14.6580 6878.00 6601.17 83.00
2095 14.6640 6835.00 6602.90 83.00
2096 14.6700 6748.00 6603.89 82.00
2097 14.6760 6745.00 6605.14 82.00
2098 14.6820 6716.00 6607.61 82.00
2099 14.6880 6707.00 6609.31 82.00
2100 14.6940 6685.00 6612.23 82.00
2101 14.7000 6593.00 6614.35 81.00
2102 14.7060 6818.00 6617.68 83.00
2103 14.7120 6911.00 6620.22 83.00
2104 14.7180 7164.00 6623.96 85.00
2105 14.7240 7618.00 6626.91 87.00
2106 14.7300 7939.00 6631.16 89.00
2107 14.7360 8500.00 6634.56 92.00
2108 14.7420 8788.00 6639.20 94.00
2109 14.7480 9418.00 6643.09 97.00
2110 14.7540 10252.00 6648.25 101.00
2111 14.7600 11416.00 6652.69 107.00
2112 14.7660 12717.00 6658.46 113.00
2113 14.7720 12939.00 6663.56 114.00
2114 14.7780 12148.00 6670.04 110.00
2115 14.7840 10462.00 6675.94 102.00
2116 14.7900 9007.00 6683.30 95.00
2117 14.7960 8387.00 6690.19 92.00
2118 14.8020 7747.00 6695.79 88.00
2119 14.8080 7325.00 6704.02 86.00
2120 14.8140 6969.00 6714.01 83.00
2121 14.8200 6848.00 6723.86 83.00
2122 14.8260 6697.00 6727.12 82.00
2123 14.8320 6768.00 6739.42 82.00
2124 14.8380 7045.00 6739.07 84.00
2125 14.8440 7232.00 6733.30 85.00
2126 14.8500 7819.00 6729.44 88.00
2127 14.8560 8465.00 6726.85 92.00
2128 14.8620 8959.00 6728.02 95.00
2129 14.8680 8886.00 6815.60 94.00
2130 14.8740 8514.00 6904.22 92.00
2131 14.8800 7994.00 6922.78 89.00
2132 14.8860 7715.00 6949.47 88.00
2133 14.8920 7391.00 6985.93 86.00
2134 14.8980 7209.00 7036.94 85.00
2135 14.9040 7316.00 7110.71 86.00
2136 14.9100 7424.00 7226.95 86.00
2137 14.9160 7744.00 7416.72 88.00
2138 14.9220 8468.00 7731.49 92.00
2139 14.9280 9094.00 8243.14 95.00
2140 14.9340 10360.00 9038.25 102.00
2141 14.9400 11919.00 10189.00 109.00
2142 14.9460 13854.00 11721.80 118.00
2143 14.9520 16568.00 13573.70 129.00
2144 14.9580 19518.00 15535.70 140.00
2145 14.9640 21593.00 17236.40 147.00
2146 14.9700 22514.00 18282.50 150.00
2147 14.9760 21925.00 18529.60 148.00
2148 14.9820 20109.00 18043.60 142.00
2149 14.9880 17913.00 16886.30 134.00
2150 14.9940 15926.00 15196.60 126.00
2151 15.0000 14147.00 13298.20 119.00
2152 15.0060 12755.00 11519.50 113.00
2153 15.0120 11273.00 10048.20 106.00
2154 15.0180 9986.00 8939.93 100.00
2155 15.0240 8981.00 8169.96 95.00
2156 15.0300 8638.00 7669.51 93.00
2157 15.0360 7955.00 7361.05 89.00
2158 15.0420 7588.00 7176.44 87.00
2159 15.0480 7305.00 7069.17 85.00
2160 15.0540 7339.00 7008.12 86.00
2161 15.0600 6918.00 6976.61 83.00
2162 15.0660 7048.00 6982.12 84.00
2163 15.0720 6871.00 7014.25 83.00
2164 15.0780 6964.00 7059.31 83.00
2165 15.0840 7045.00 7115.97 84.00
2166 15.0900 6987.00 7182.02 84.00
2167 15.0960 7068.00 7257.61 84.00
2168 15.1020 7195.00 7342.79 85.00
2169 15.1080 7291.00 7442.71 85.00
2170 15.1140 7384.00 7562.06 86.00
2171 15.1200 7913.00 7705.45 89.00
2172 15.1260 8422.00 7878.79 92.00
2173 15.1320 8627.00 8085.89 93.00
2174 15.1380 9399.00 8335.25 97.00
2175 15.1440 10306.00 8637.82 102.00
2176 15.1500 10978.00 9010.66 105.00
2177 15.1560 12124.00 9485.17 110.00
2178 15.1620 12691.00 10117.80 113.00
2179 15.1680 12799.00 11026.10 113.00
2180 15.1740 13564.00 12430.50 116.00
2181 15.1800 14552.00 14719.90 121.00
2182 15.1860 16663.00 18489.80 129.00
2183 15.1920 20404.00 24521.00 143.00
2184 15.1980 26972.00 33606.80 164.00
2185 15.2040 38029.00 46237.10 195.00
2186 15.2100 56119.00 62119.60 237.00
2187 15.2160 85833.00 79759.00 293.00
2188 15.2220 115299.00 96024.70 340.00
2189 15.2280 130336.00 106338.00 361.00
2190 15.2340 121534.00 106722.00 349.00
2191 15.2400 100887.00 97011.50 318.00
2192 15.2460 75405.00 81017.10 275.00
2193 15.2520 55430.00 63363.70 235.00
2194 15.2580 40598.00 47298.50 201.00
2195 15.2640 30658.00 34434.40 175.00
2196 15.2700 24058.00 25112.90 155.00
2197 15.2760 19477.00 18896.90 140.00
2198 15.2820 16305.00 15000.20 128.00
2199 15.2880 14096.00 12635.80 119.00
2200 15.2940 12035.00 11189.60 110.00
2201 15.3000 10846.00 10260.50 104.00
2202 15.3060 9774.00 9618.11 99.00
2203 15.3120 9160.00 9140.30 96.00
2204 15.3180 8643.00 8766.28 93.00
2205 15.3240 8195.00 8464.63 91.00
2206 15.3300 7920.00 8201.33 89.00
2207 15.3360 7808.00 7990.54 88.00
2208 15.3420 7591.00 7813.22 87.00
2209 15.3480 7598.00 7651.74 87.00
2210 15.3540 7306.00 7521.64 85.00
2211 15.3600 7318.00 7409.42 86.00
2212 15.3660 7384.00 7312.06 86.00
2213 15.3720 6995.00 7228.22 84.00
2214 15.3780 6921.00 7153.97 83.00
2215 15.3840 7006.00 7088.74 84.00
2216 15.3900 6843.00 7031.25 83.00
2217 15.3960 6804.00 6981.44 82.00
2218 15.4020 6632.00 6936.39 81.00
2219 15.4080 6691.00 6896.37 82.00
2220 15.4140 6460.00 6860.76 80.00
2221 15.4200 6592.00 6828.98 81.00
2222 15.4260 6458.00 6801.63 80.00
2223 15.4320 6357.00 6776.29 80.00
2224 15.4380 6446.00 6753.96 80.00
2225 15.4440 6201.00 6733.71 79.00
2226 15.4500 6345.00 6716.61 80.00
2227 15.4560 6312.00 6700.35 79.00
2228 15.4620 6174.00 6685.90 79.00
2229 15.4680 6313.00 6672.03 79.00
2230 15.4740 6213.00 6655.57 79.00
2231 15.4800 6285.00 6640.41 79.00
2232 15.4860 6300.00 6626.43 79.00
2233 15.4920 6329.00 6614.53 80.00
2234 15.4980 6686.00 6602.64 82.00
2235 15.5040 6888.00 6591.66 83.00
2236 15.5100 7632.00 6582.54 87.00
2237 15.5160 8083.00 6573.23 90.00
2238 15.5220 8002.00 6564.65 89.00
2239 15.5280 8080.00 6556.78 90.00
2240 15.5340 7919.00 6550.58 89.00
2241 15.5400 7245.00 6544.01 85.00
2242 15.5460 6842.00 6538.07 83.00
2243 15.5520 6913.00 6532.73 83.00
2244 15.5580 6899.00 6528.98 83.00
2245 15.5640 6927.00 6524.83 83.00
2246 15.5700 6918.00 6521.29 83.00
2247 15.5760 7056.00 6519.38 84.00
2248 15.5820 7228.00 6517.14 85.00
2249 15.5880 7279.00 6515.61 85.00
2250 15.5940 7323.00 6433.79 86.00
2251 15.6000 7156.00 6363.14 85.00
2252 15.6060 6750.00 6369.23 82.00
2253 15.6120 6699.00 6376.40 82.00
2254 15.6180 6465.00 6386.10 80.00
2255 15.6240 6576.00 6397.17 81.00
2256 15.6300 6599.00 6412.20 81.00
2257 15.6360 6648.00 6434.28 82.00
2258 15.6420 6842.00 6469.91 83.00
2259 15.6480 6754.00 6525.78 82.00
2260 15.6540 6888.00 6614.90 83.00
2261 15.6600 6849.00 6751.63 83.00
2262 15.6660 6753.00 6944.29 82.00
2263 15.6720 7009.00 7194.65 84.00
2264 15.6780 7193.00 7486.74 85.00
2265 15.6840 7684.00 7781.98 88.00
2266 15.6900 7787.00 8011.58 88.00
2267 15.6960 7751.00 8097.69 88.00
2268 15.7020 7565.00 8004.42 87.00
2269 15.7080 7259.00 7771.02 85.00
2270 15.7140 6937.00 7478.01 83.00
2271 15.7200 6709.00 7190.54 82.00
2272 15.7260 6637.00 6947.56 81.00
2273 15.7320 6504.00 6761.86 81.00
2274 15.7380 6553.00 6633.00 81.00
2275 15.7440 6473.00 6550.47 80.00
2276 15.7500 6474.00 6502.46 80.00
2277 15.7560 6426.00 6476.20 80.00
2278 15.7620 6340.00 6464.77 80.00
2279 15.7680 6345.00 6467.54 80.00
2280 15.7740 6268.00 6477.25 79.00
2281 15.7800 6302.00 6496.04 79.00
2282 15.7860 6335.00 6522.53 80.00
2283 15.7920 6402.00 6554.49 80.00
2284 15.7980 6372.00 6584.01 80.00
2285 15.8040 6419.00 6603.38 80.00
2286 15.8100 6394.00 6605.21 80.00
2287 15.8160 6465.00 6586.07 80.00
2288 15.8220 6464.00 6553.95 80.00
2289 15.8280 6569.00 6517.91 81.00
2290 15.8340 6487.00 6485.52 81.00
2291 15.8400 6431.00 6458.18 80.00
2292 15.8460 6473.00 6437.93 80.00
2293 15.8520 6527.00 6425.15 81.00
2294 15.8580 6517.00 6416.41 81.00
2295 15.8640 6510.00 6411.16 81.00
2296 15.8700 6516.00 6408.11 81.00
2297 15.8760 6331.00 6407.37 80.00
2298 15.8820 6365.00 6406.40 80.00
2299 15.8880 6287.00 6405.89 79.00
2300 15.8940 6258.00 6406.70 79.00
2301 15.9000 6209.00 6406.73 79.00
2302 15.9060 6228.00 6406.94 79.00
2303 15.9120 6162.00 6407.30 78.00
2304 15.9180 6176.00 6408.79 79.00
2305 15.9240 6213.00 6412.40 79.00
2306 15.9300 6258.00 6417.11 79.00
2307 15.9360 6207.00 6420.92 79.00
2308 15.9420 6196.00 6424.82 79.00
2309 15.9480 6186.00 6429.81 79.00
2310 15.9540 6201.00 6433.88 79.00
2311 15.9600 6173.00 6438.04 79.00
2312 15.9660 6275.00 6442.28 79.00
2313 15.9720 6241.00 6447.63 79.00
2314 15.9780 6199.00 6452.06 79.00
2315 15.9840 6162.00 6456.61 78.00
2316 15.9900 6109.00 6462.27 78.00
2317 15.9960 6161.00 6467.07 78.00
2318 16.0020 6237.00 6472.01 79.00
2319 16.0080 6436.00 6477.11 80.00
2320 16.0140 6448.00 6483.41 80.00
2321 16.0200 6355.00 6488.94 80.00
2322 16.0260 6329.00 6494.72 80.00
2323 16.0320 6512.00 6501.82 81.00
2324 16.0380 6539.00 6508.30 81.00
2325 16.0440 6433.00 6515.25 80.00
2326 16.0500 6420.00 6522.78 80.00
2327 16.0560 6535.00 6532.07 81.00
2328 16.0620 6546.00 6541.40 81.00
2329 16.0680 6626.00 6552.28 81.00
2330 16.0740 6715.00 6564.02 82.00
2331 16.0800 6696.00 6581.64 82.00
2332 16.0860 6737.00 6606.42 82.00
2333 16.0920 6917.00 6643.15 83.00
2334 16.0980 7066.00 6699.77 84.00
2335 16.1040 7276.00 6782.89 85.00
2336 16.1100 7536.00 6902.13 87.00
2337 16.1160 7788.00 7063.78 88.00
2338 16.1220 8086.00 7263.38 90.00
2339 16.1280 8297.00 7486.62 91.00
2340 16.1340 8264.00 7703.06 91.00
2341 16.1400 8138.00 7870.19 90.00
2342 16.1460 8014.00 7938.47 90.00
2343 16.1520 7806.00 7880.99 88.00
2344 16.1580 7747.00 7718.13 88.00
2345 16.1640 7662.00 7500.94 88.00
2346 16.1700 7474.00 7280.20 86.00
2347 16.1760 7441.00 7087.21 86.00
2348 16.1820 7431.00 6936.89 86.00
2349 16.1880 7517.00 6828.18 87.00
2350 16.1940 7538.00 6756.47 87.00
2351 16.2000 7262.00 6713.07 85.00
2352 16.2060 6960.00 6686.93 83.00
2353 16.2120 6741.00 6782.29 82.00
2354 16.2180 6631.00 6777.32 81.00
2355 16.2240 6517.00 6862.29 81.00
2356 16.2300 6508.00 6866.23 81.00
2357 16.2360 6623.00 6871.86 81.00
2358 16.2420 6646.00 6879.78 82.00
2359 16.2480 6667.00 6887.78 82.00
2360 16.2540 6603.00 6896.71 81.00
2361 16.2600 6578.00 6906.51 81.00
2362 16.2660 6645.00 6918.11 82.00
2363 16.2720 6668.00 6929.48 82.00
2364 16.2780 6768.00 6941.62 82.00
2365 16.2840 6744.00 6955.52 82.00
2366 16.2900 6836.00 6969.18 83.00
2367 16.2960 7036.00 6983.64 84.00
2368 16.3020 7116.00 6998.92 84.00
2369 16.3080 7045.00 7016.06 84.00
2370 16.3140 6988.00 7033.10 84.00
2371 16.3200 6947.00 7051.11 83.00
2372 16.3260 6967.00 7071.15 83.00
2373 16.3320 6772.00 7091.30 82.00
2374 16.3380 6589.00 7112.63 81.00
2375 16.3440 6742.00 7135.26 82.00
2376 16.3500 6838.00 7160.30 83.00
2377 16.3560 6800.00 7184.86 82.00
2378 16.3620 6877.00 7208.08 83.00
2379 16.3680 6939.00 7233.15 83.00
2380 16.3740 6876.00 7260.23 83.00
2381 16.3800 6757.00 7289.55 82.00
2382 16.3860 6719.00 7321.34 82.00
2383 16.3920 6848.00 7355.88 83.00
2384 16.3980 6955.00 7393.48 83.00
2385 16.4040 7046.00 7434.49 84.00
2386 16.4100 6953.00 7479.36 83.00
2387 16.4160 6993.00 7528.57 84.00
2388 16.4220 7147.00 7582.66 85.00
2389 16.4280 7324.00 7642.28 86.00
2390 16.4340 7564.00 7708.24 87.00
2391 16.4400 7974.00 7781.45 89.00
2392 16.4460 8046.00 8019.08 90.00
2393 16.4520 7847.00 8115.14 89.00
2394 16.4580 7859.00 8222.61 89.00
2395 16.4640 7747.00 8343.40 88.00
2396 16.4700 7900.00 8479.76 89.00
2397 16.4760 7792.00 8634.61 88.00
2398 16.4820 7804.00 8875.26 88.00
2399 16.4880 7910.00 9080.43 89.00
2400 16.4940 8003.00 9317.45 89.00
2401 16.5000 8334.00 9641.02 91.00
2402 16.5060 8554.00 9967.90 92.00
2403 16.5120 9006.00 10358.30 95.00
2404 16.5180 9569.00 10835.80 98.00
2405 16.5240 10035.00 11442.40 100.00
2406 16.5300 11114.00 12252.70 105.00
2407 16.5360 12620.00 13411.30 112.00
2408 16.5420 14706.00 15162.00 121.00
2409 16.5480 18660.00 17895.70 137.00
2410 16.5540 23977.00 22169.00 155.00
2411 16.5600 31818.00 28661.50 178.00
2412 16.5660 43321.00 38053.50 208.00
2413 16.5720 57915.00 50765.40 241.00
2414 16.5780 75657.00 66655.40 275.00
2415 16.5840 93481.00 84659.30 306.00
2416 16.5900 108951.00 102419.00 330.00
2417 16.5960 117089.00 116390.00 342.00
2418 16.6020 119122.00 123130.00 345.00
2419 16.6080 113732.00 121094.00 337.00
2420 16.6140 103067.00 110953.00 321.00
2421 16.6200 89542.00 95172.50 299.00
2422 16.6260 77003.00 77216.60 277.00
2423 16.6320 65462.00 60099.30 256.00
2424 16.6380 55047.00 45612.10 235.00
2425 16.6440 45809.00 34413.70 214.00
2426 16.6500 37605.00 26366.10 194.00
2427 16.6560 31524.00 20926.50 178.00
2428 16.6620 26460.00 17413.50 163.00
2429 16.6680 22416.00 15200.80 150.00
2430 16.6740 19305.00 13805.30 139.00
2431 16.6800 17096.00 12902.40 131.00
2432 16.6860 15023.00 12294.50 123.00
2433 16.6920 13399.00 11870.30 116.00
2434 16.6980 12282.00 11570.00 111.00
2435 16.7040 11733.00 11362.50 108.00
2436 16.7100 11363.00 11230.90 107.00
2437 16.7160 10918.00 11166.20 104.00
2438 16.7220 10629.00 11164.10 103.00
2439 16.7280 10531.00 11223.40 103.00
2440 16.7340 10332.00 11346.20 102.00
2441 16.7400 10359.00 11538.10 102.00
2442 16.7460 10729.00 11809.50 104.00
2443 16.7520 10859.00 12179.60 104.00
2444 16.7580 11307.00 12684.00 106.00
2445 16.7640 11959.00 13391.10 109.00
2446 16.7700 13083.00 14427.50 114.00
2447 16.7760 14478.00 16015.70 120.00
2448 16.7820 16234.00 18516.70 127.00
2449 16.7880 18974.00 22442.40 138.00
2450 16.7940 23896.00 28422.10 155.00
2451 16.8000 31400.00 37066.20 177.00
2452 16.8060 42741.00 48752.20 207.00
2453 16.8120 62221.00 63331.70 249.00
2454 16.8180 86690.00 79859.40 294.00
2455 16.8240 113956.00 96325.00 338.00
2456 16.8300 130051.00 109605.00 361.00
2457 16.8360 133530.00 116405.00 365.00
2458 16.8420 121560.00 115715.00 349.00
2459 16.8480 106655.00 109950.00 327.00
2460 16.8540 95212.00 102828.00 309.00
2461 16.8600 90440.00 96965.50 301.00
2462 16.8660 91001.00 93093.50 302.00
2463 16.8720 93294.00 90297.10 305.00
2464 16.8780 92114.00 86955.20 304.00
2465 16.8840 86181.00 81958.60 294.00
2466 16.8900 75564.00 74919.20 275.00
2467 16.8960 64945.00 65890.20 255.00
2468 16.9020 55692.00 55616.30 236.00
2469 16.9080 46233.00 45353.40 215.00
2470 16.9140 37938.00 36178.60 195.00
2471 16.9200 30723.00 28645.10 175.00
2472 16.9260 24911.00 22874.80 158.00
2473 16.9320 20711.00 18697.20 144.00
2474 16.9380 17617.00 15800.20 133.00
2475 16.9440 14914.00 13877.00 122.00
2476 16.9500 13170.00 12561.60 115.00
2477 16.9560 12028.00 11702.00 110.00
2478 16.9620 11106.00 11052.00 105.00
2479 16.9680 10395.00 10559.40 102.00
2480 16.9740 9704.00 10167.80 99.00
2481 16.9800 9315.00 9845.04 97.00
2482 16.9860 8894.00 9572.64 94.00
2483 16.9920 8577.00 9233.52 93.00
2484 16.9980 8379.00 9034.87 92.00
2485 17.0040 8199.00 8779.13 91.00
2486 17.0100 8017.00 8630.37 90.00
2487 17.0160 8144.00 8499.83 90.00
2488 17.0220 8040.00 8384.86 90.00
2489 17.0280 8196.00 8283.24 91.00
2490 17.0340 8096.00 8193.21 90.00
2491 17.0400 7990.00 8113.31 89.00
2492 17.0460 7900.00 8042.34 89.00
2493 17.0520 7500.00 7979.25 87.00
2494 17.0580 7361.00 7923.21 86.00
2495 17.0640 7354.00 7873.53 86.00
2496 17.0700 7269.00 7829.58 85.00
2497 17.0760 7287.00 7790.92 85.00
2498 17.0820 7295.00 7757.13 85.00
2499 17.0880 7087.00 7727.90 84.00
2500 17.0940 6972.00 7702.96 83.00
2501 17.1000 6946.00 7682.14 83.00
2502 17.1060 6852.00 7665.30 83.00
2503 17.1120 6845.00 7652.37 83.00
2504 17.1180 6770.00 7643.35 82.00
2505 17.1240 6705.00 7638.29 82.00
2506 17.1300 6793.00 7637.33 82.00
2507 17.1360 6631.00 7640.66 81.00
2508 17.1420 6674.00 7648.59 82.00
2509 17.1480 6791.00 7661.54 82.00
2510 17.1540 6790.00 7680.07 82.00
2511 17.1600 6634.00 7704.97 81.00
2512 17.1660 6904.00 7737.39 83.00
2513 17.1720 7040.00 7779.12 84.00
2514 17.1780 7116.00 7828.18 84.00
2515 17.1840 6970.00 7892.08 83.00
2516 17.1900 7133.00 7983.69 84.00
2517 17.1960 7409.00 8120.08 86.00
2518 17.2020 7507.00 8328.93 87.00
2519 17.2080 7867.00 8650.27 89.00
2520 17.2140 8112.00 9134.30 90.00
2521 17.2200 8431.00 9833.03 92.00
2522 17.2260 8883.00 10784.20 94.00
2523 17.2320 9976.00 11837.60 100.00
2524 17.2380 11872.00 13237.00 109.00
2525 17.2440 14348.00 14681.20 120.00
2526 17.2500 16159.00 15925.60 127.00
2527 17.2560 16864.00 16665.40 130.00
2528 17.2620 15731.00 16693.60 125.00
2529 17.2680 14504.00 16072.60 120.00
2530 17.2740 13310.00 15035.50 115.00
2531 17.2800 11988.00 14049.10 109.00
2532 17.2860 11948.00 13338.30 109.00
2533 17.2920 12788.00 13091.30 113.00
2534 17.2980 13925.00 13613.20 118.00
2535 17.3040 16493.00 15069.10 128.00
2536 17.3100 20863.00 17665.80 144.00
2537 17.3160 25976.00 21567.30 161.00
2538 17.3220 33770.00 26811.10 184.00
2539 17.3280 41727.00 33195.70 204.00
2540 17.3340 48233.00 40160.60 220.00
2541 17.3400 52706.00 46695.30 230.00
2542 17.3460 55325.00 51497.50 235.00
2543 17.3520 51755.00 53428.50 227.00
2544 17.3580 48006.00 51952.00 219.00
2545 17.3640 42339.00 47367.60 206.00
2546 17.3700 37446.00 40803.70 194.00
2547 17.3760 32076.00 33656.20 179.00
2548 17.3820 27475.00 26988.60 166.00
2549 17.3880 23177.00 21390.70 152.00
2550 17.3940 19517.00 17059.70 140.00
2551 17.4000 16689.00 13926.40 129.00
2552 17.4060 14426.00 11781.20 120.00
2553 17.4120 12517.00 10367.30 112.00
2554 17.4180 11233.00 9449.41 106.00
2555 17.4240 10262.00 8845.02 101.00
2556 17.4300 9110.00 8430.69 95.00
2557 17.4360 8580.00 8129.59 93.00
2558 17.4420 8197.00 7897.71 91.00
2559 17.4480 7757.00 7710.55 88.00
2560 17.4540 7603.00 7554.64 87.00
2561 17.4600 7728.00 7422.08 88.00
2562 17.4660 7357.00 7307.74 86.00
2563 17.4720 7105.00 7208.12 84.00
2564 17.4780 7263.00 7120.61 85.00
2565 17.4840 7326.00 7043.17 86.00
2566 17.4900 7191.00 6974.14 85.00
2567 17.4960 7208.00 6912.22 85.00
2568 17.5020 7128.00 6856.38 84.00
2569 17.5080 7115.00 6805.75 84.00
2570 17.5140 6638.00 6759.56 81.00
2571 17.5200 6519.00 6717.24 81.00
2572 17.5260 6633.00 6678.29 81.00
2573 17.5320 6394.00 6642.27 80.00
2574 17.5380 6415.00 6608.82 80.00
2575 17.5440 6157.00 6583.38 78.00
2576 17.5500 6279.00 6549.39 79.00
2577 17.5560 6194.00 6515.17 79.00
2578 17.5620 6340.00 6482.54 80.00
2579 17.5680 6314.00 6451.35 79.00
2580 17.5740 6329.00 6421.44 80.00
2581 17.5800 6677.00 6392.68 82.00
2582 17.5860 6737.00 6364.96 82.00
2583 17.5920 7129.00 6338.19 84.00
2584 17.5980 7294.00 6312.27 85.00
2585 17.6040 7285.00 6287.13 85.00
2586 17.6100 7146.00 6262.69 85.00
2587 17.6160 6874.00 6238.92 83.00
2588 17.6220 6495.00 6215.74 81.00
2589 17.6280 6257.00 6193.10 79.00
2590 17.6340 6102.00 6170.97 78.00
2591 17.6400 6034.00 6149.32 78.00
2592 17.6460 6130.00 6128.10 78.00
2593 17.6520 5989.00 6107.28 77.00
2594 17.6580 5917.00 6086.84 77.00
2595 17.6640 5796.00 6053.27 76.00
2596 17.6700 5775.00 6033.90 76.00
2597 17.6760 5909.00 6014.83 77.00
2598 17.6820 5915.00 5996.04 77.00
2599 17.6880 5864.00 5977.51 77.00
2600 17.6940 5865.00 5958.23 77.00
2601 17.7000 5909.00 5940.20 77.00
2602 17.7060 5870.00 5922.40 77.00
2603 17.7120 5811.00 5904.82 76.00
2604 17.7180 5557.00 5887.47 75.00
2605 17.7240 5781.00 5870.32 76.00
2606 17.7300 5826.00 5853.40 76.00
2607 17.7360 5616.00 5836.68 75.00
2608 17.7420 5736.00 5820.17 76.00
2609 17.7480 5904.00 5803.88 77.00
2610 17.7540 5877.00 5756.26 77.00
2611 17.7600 5927.00 5742.73 77.00
2612 17.7660 5620.00 5683.94 75.00
2613 17.7720 5759.00 5670.70 76.00
2614 17.7780 5551.00 5657.69 75.00
2615 17.7840 5599.00 5644.83 75.00
2616 17.7900 5570.00 5632.21 75.00
2617 17.7960 5596.00 5619.84 75.00
2618 17.8020 5576.00 5607.78 75.00
2619 17.8080 5566.00 5596.07 75.00
2620 17.8140 5611.00 5584.76 75.00
2621 17.8200 5604.00 5573.93 75.00
2622 17.8260 5620.00 5574.67 75.00
2623 17.8320 5586.00 5579.08 75.00
2624 17.8380 5709.00 5584.27 76.00
2625 17.8440 5683.00 5590.43 75.00
2626 17.8500 5445.00 5597.75 74.00
2627 17.8560 5514.00 5606.52 74.00
2628 17.8620 5530.00 5617.17 74.00
2629 17.8680 5677.00 5630.37 75.00
2630 17.8740 5588.00 5646.29 75.00
2631 17.8800 5859.00 5669.04 77.00
2632 17.8860 5863.00 5701.46 77.00
2633 17.8920 5806.00 5750.07 76.00
2634 17.8980 6032.00 5825.25 78.00
2635 17.9040 6195.00 5941.83 79.00
2636 17.9100 6458.00 6118.43 80.00
2637 17.9160 6585.00 6374.24 81.00
2638 17.9220 7005.00 6766.10 84.00
2639 17.9280 7635.00 7210.62 87.00
2640 17.9340 8492.00 7766.44 92.00
2641 17.9400 9594.00 8310.20 98.00
2642 17.9460 10264.00 8790.23 101.00
2643 17.9520 10538.00 9091.96 103.00
2644 17.9580 10116.00 9115.02 101.00
2645 17.9640 9520.00 8851.58 98.00
2646 17.9700 8661.00 8392.30 93.00
2647 17.9760 7936.00 7855.40 89.00
2648 17.9820 7301.00 7332.88 85.00
2649 17.9880 6834.00 6879.44 83.00
2650 17.9940 6533.00 6519.41 81.00
2651 18.0000 6304.00 6253.85 79.00
2652 18.0060 6012.00 6070.18 78.00
2653 18.0120 5941.00 5948.53 77.00
2654 18.0180 5799.00 5871.97 76.00
2655 18.0240 5822.00 5824.10 76.00
2656 18.0300 5862.00 5793.98 77.00
2657 18.0360 6120.00 5774.62 78.00
2658 18.0420 6200.00 5761.95 79.00
2659 18.0480 6691.00 5753.70 82.00
2660 18.0540 6703.00 5748.68 82.00
2661 18.0600 6771.00 5746.20 82.00
2662 18.0660 6495.00 5745.91 81.00
2663 18.0720 6252.00 5747.59 79.00
2664 18.0780 6085.00 5750.14 78.00
2665 18.0840 5976.00 5755.56 77.00
2666 18.0900 5830.00 5762.94 76.00
2667 18.0960 5687.00 5772.54 75.00
2668 18.1020 5635.00 5784.91 75.00
2669 18.1080 5603.00 5801.04 75.00
2670 18.1140 5587.00 5822.65 75.00
2671 18.1200 5653.00 5852.42 75.00
2672 18.1260 5669.00 5894.11 75.00
2673 18.1320 5617.00 5952.41 75.00
2674 18.1380 5664.00 6032.12 75.00
2675 18.1440 5508.00 6135.62 74.00
2676 18.1500 5735.00 6265.30 76.00
2677 18.1560 5716.00 6415.23 76.00
2678 18.1620 5692.00 6573.35 75.00
2679 18.1680 5968.00 6718.71 77.00
2680 18.1740 6129.00 6823.29 78.00
2681 18.1800 6122.00 6863.25 78.00
2682 18.1860 6111.00 6836.56 78.00
2683 18.1920 6073.00 6764.69 78.00
2684 18.1980 6219.00 6676.28 79.00
2685 18.2040 6255.00 6594.59 79.00
2686 18.2100 6143.00 6534.88 78.00
2687 18.2160 6378.00 6504.13 80.00
2688 18.2220 6593.00 6507.00 81.00
2689 18.2280 6646.00 6541.74 82.00
2690 18.2340 6597.00 6606.31 81.00
2691 18.2400 6743.00 6699.24 82.00
2692 18.2460 6740.00 6820.96 82.00
2693 18.2520 6978.00 6975.22 84.00
2694 18.2580 7162.00 7171.02 85.00
2695 18.2640 7287.00 7440.58 85.00
2696 18.2700 7787.00 7789.09 88.00
2697 18.2760 8324.00 8287.82 91.00
2698 18.2820 8974.00 9030.31 95.00
2699 18.2880 10037.00 10158.90 100.00
2700 18.2940 11951.00 11862.70 109.00
2701 18.3000 15086.00 14364.40 123.00
2702 18.3060 18960.00 17881.80 138.00
2703 18.3120 24503.00 22555.30 157.00
2704 18.3180 31788.00 28362.00 178.00
2705 18.3240 39703.00 35011.40 199.00
2706 18.3300 47171.00 41852.70 217.00
2707 18.3360 52064.00 47827.00 228.00
2708 18.3420 53787.00 51686.10 232.00
2709 18.3480 52205.00 52511.00 228.00
2710 18.3540 48234.00 50119.30 220.00
2711 18.3600 42625.00 45103.90 206.00
2712 18.3660 37274.00 38589.10 193.00
2713 18.3720 31714.00 31752.80 178.00
2714 18.3780 26516.00 25457.00 163.00
2715 18.3840 22041.00 20181.70 148.00
2716 18.3900 18431.00 16071.80 136.00
2717 18.3960 15648.00 13059.00 125.00
2718 18.4020 13293.00 10959.30 115.00
2719 18.4080 11478.00 9547.94 107.00
2720 18.4140 9851.00 8615.78 99.00
2721 18.4200 8723.00 7994.72 93.00
2722 18.4260 8082.00 7569.86 90.00
2723 18.4320 7514.00 7264.38 87.00
2724 18.4380 7125.00 7032.71 84.00
2725 18.4440 6764.00 6848.87 82.00
2726 18.4500 6721.00 6698.06 82.00
2727 18.4560 6599.00 6571.64 81.00
2728 18.4620 6397.00 6464.12 80.00
2729 18.4680 6352.00 6371.83 80.00
2730 18.4740 6179.00 6292.11 79.00
2731 18.4800 6102.00 6222.91 78.00
2732 18.4860 5981.00 6161.56 77.00
2733 18.4920 6116.00 6108.80 78.00
2734 18.4980 6134.00 6062.59 78.00
2735 18.5040 6057.00 6022.07 78.00
2736 18.5100 5928.00 5986.54 77.00
2737 18.5160 6032.00 5955.46 78.00
2738 18.5220 6028.00 5928.37 78.00
2739 18.5280 5789.00 5904.89 76.00
2740 18.5340 5760.00 5884.77 76.00
2741 18.5400 5712.00 5867.79 76.00
2742 18.5460 5659.00 5853.80 75.00
2743 18.5520 5462.00 5841.73 74.00
2744 18.5580 5491.00 5833.56 74.00
2745 18.5640 5466.00 5828.33 74.00
2746 18.5700 5374.00 5826.19 73.00
2747 18.5760 5355.00 5827.33 73.00
2748 18.5820 5420.00 5832.09 74.00
2749 18.5880 5427.00 5840.94 74.00
2750 18.5940 5411.00 5854.62 74.00
2751 18.6000 5412.00 5872.92 74.00
2752 18.6060 5392.00 5900.64 73.00
2753 18.6120 5480.00 5939.92 74.00
2754 18.6180 5599.00 5996.14 75.00
2755 18.6240 5562.00 6082.49 75.00
2756 18.6300 5616.00 6216.05 75.00
2757 18.6360 5769.00 6424.25 76.00
2758 18.6420 6044.00 6744.03 78.00
2759 18.6480 6443.00 7218.41 80.00
2760 18.6540 6867.00 7888.33 83.00
2761 18.6600 7553.00 8779.38 87.00
2762 18.6660 8651.00 9883.74 93.00
2763 18.6720 10320.00 11143.20 102.00
2764 18.6780 12307.00 12431.30 111.00
2765 18.6840 14040.00 13541.40 118.00
2766 18.6900 14746.00 14205.40 121.00
2767 18.6960 14094.00 14212.30 119.00
2768 18.7020 12721.00 13556.90 113.00
2769 18.7080 11147.00 12446.90 106.00
2770 18.7140 9604.00 11150.40 98.00
2771 18.7200 8335.00 9877.58 91.00
2772 18.7260 7516.00 8756.32 87.00
2773 18.7320 6897.00 7847.19 83.00
2774 18.7380 6419.00 7159.20 80.00
2775 18.7440 6122.00 6668.04 78.00
2776 18.7500 5854.00 6332.59 77.00
2777 18.7560 5694.00 6108.70 75.00
2778 18.7620 5621.00 5961.19 75.00
2779 18.7680 5509.00 5820.22 74.00
2780 18.7740 5605.00 5750.54 75.00
2781 18.7800 5395.00 5662.73 73.00
2782 18.7860 5271.00 5622.87 73.00
2783 18.7920 5300.00 5590.39 73.00
2784 18.7980 5236.00 5563.17 72.00
2785 18.8040 5247.00 5539.94 72.00
2786 18.8100 5282.00 5519.88 73.00
2787 18.8160 5327.00 5502.39 73.00
2788 18.8220 5286.00 5486.01 73.00
2789 18.8280 5289.00 5472.42 73.00
2790 18.8340 5375.00 5460.33 73.00
2791 18.8400 5403.00 5449.51 74.00
2792 18.8460 5326.00 5431.77 73.00
2793 18.8520 5418.00 5413.96 74.00
2794 18.8580 5452.00 5396.95 74.00
2795 18.8640 5358.00 5379.64 73.00
2796 18.8700 5294.00 5363.95 73.00
2797 18.8760 5310.00 5348.79 73.00
2798 18.8820 5485.00 5333.10 74.00
2799 18.8880 5590.00 5318.83 75.00
2800 18.8940 5690.00 5304.92 75.00
2801 18.9000 5748.00 5339.53 76.00
2802 18.9060 5750.00 5327.60 76.00
2803 18.9120 5625.00 5315.99 75.00
2804 18.9180 5605.00 5303.68 75.00
2805 18.9240 5652.00 5292.63 75.00
2806 18.9300 5729.00 5281.85 76.00
2807 18.9360 5579.00 5270.31 75.00
2808 18.9420 5570.00 5260.00 75.00
2809 18.9480 5677.00 5249.91 75.00
2810 18.9540 5539.00 5239.04 74.00
2811 18.9600 5416.00 5229.38 74.00
2812 18.9660 5291.00 5219.92 73.00
2813 18.9720 5222.00 5209.66 72.00
2814 18.9780 5207.00 5200.60 72.00
2815 18.9840 5150.00 5191.75 72.00
2816 18.9900 5135.00 5182.09 72.00
2817 18.9960 5069.00 5173.64 71.00
2818 19.0020 5088.00 5165.41 71.00
2819 19.0080 5036.00 5156.38 71.00
2820 19.0140 5096.00 5148.57 71.00
2821 19.0200 5207.00 5141.00 72.00
2822 19.0260 5174.00 5132.66 72.00
2823 19.0320 5156.00 5125.58 72.00
2824 19.0380 5156.00 5118.76 72.00
2825 19.0440 5173.00 5111.22 72.00
2826 19.0500 5195.00 5104.97 72.00
2827 19.0560 5177.00 5099.05 72.00
2828 19.0620 5179.00 5092.45 72.00
2829 19.0680 5157.00 5093.23 72.00
2830 19.0740 5168.00 5106.42 72.00
2831 19.0800 5307.00 5119.02 73.00
2832 19.0860 5514.00 5133.08 74.00
2833 19.0920 5665.00 5146.63 75.00
2834 19.0980 5661.00 5161.73 75.00
2835 19.1040 5660.00 5178.30 75.00
2836 19.1100 5747.00 5194.69 76.00
2837 19.1160 5853.00 5212.13 77.00
2838 19.1220 5853.00 5230.07 77.00
2839 19.1280 5826.00 5234.15 76.00
2840 19.1340 5715.00 5254.33 76.00
2841 19.1400 5562.00 5274.57 75.00
2842 19.1460 5496.00 5297.03 74.00
2843 19.1520 5449.00 5319.84 74.00
2844 19.1580 5291.00 5345.18 73.00
2845 19.1640 5315.00 5371.25 73.00
2846 19.1700 5339.00 5400.29 73.00
2847 19.1760 5267.00 5430.58 73.00
2848 19.1820 5316.00 5464.45 73.00
2849 19.1880 5380.00 5500.29 73.00
2850 19.1940 5425.00 5540.57 74.00
2851 19.2000 5523.00 5583.85 74.00
2852 19.2060 5647.00 5632.80 75.00
2853 19.2120 5680.00 5719.03 75.00
2854 19.2180 5727.00 5780.95 76.00
2855 19.2240 5818.00 5876.19 76.00
2856 19.2300 5774.00 5956.22 76.00
2857 19.2360 5815.00 6047.13 76.00
2858 19.2420 6006.00 6154.24 77.00
2859 19.2480 6172.00 6280.76 79.00
2860 19.2540 6348.00 6437.66 80.00
2861 19.2600 6596.00 6638.36 81.00
2862 19.2660 6711.00 6911.58 82.00
2863 19.2720 7006.00 7299.48 84.00
2864 19.2780 7439.00 7873.12 86.00
2865 19.2840 7885.00 8728.62 89.00
2866 19.2900 8776.00 9992.13 94.00
2867 19.2960 10062.00 11797.80 100.00
2868 19.3020 11866.00 14266.80 109.00
2869 19.3080 14909.00 17452.30 122.00
2870 19.3140 19821.00 21296.80 141.00
2871 19.3200 26503.00 25575.70 163.00
2872 19.3260 34340.00 29846.80 185.00
2873 19.3320 40308.00 33419.40 201.00
2874 19.3380 41817.00 35463.10 204.00
2875 19.3440 38363.00 35368.80 196.00
2876 19.3500 32584.00 33171.70 181.00
2877 19.3560 26561.00 29521.90 163.00
2878 19.3620 21506.00 25251.80 147.00
2879 19.3680 17740.00 21023.40 133.00
2880 19.3740 14723.00 17260.30 121.00
2881 19.3800 12599.00 14168.10 112.00
2882 19.3860 10950.00 11792.60 105.00
2883 19.3920 9785.00 10069.00 99.00
2884 19.3980 8828.00 8877.83 94.00
2885 19.4040 8080.00 8080.96 90.00
2886 19.4100 7560.00 7557.57 87.00
2887 19.4160 7216.00 7210.90 85.00
2888 19.4220 7142.00 6976.76 85.00
2889 19.4280 6919.00 6811.10 83.00
2890 19.4340 6679.00 6690.51 82.00
2891 19.4400 6439.00 6598.56 80.00
2892 19.4460 6420.00 6529.06 80.00
2893 19.4520 6259.00 6475.26 79.00
2894 19.4580 6078.00 6436.38 78.00
2895 19.4640 5932.00 6408.88 77.00
2896 19.4700 5825.00 6394.12 76.00
2897 19.4760 5814.00 6390.47 76.00
2898 19.4820 5822.00 6395.54 76.00
2899 19.4880 5900.00 6414.48 77.00
2900 19.4940 5805.00 6455.25 76.00
2901 19.5000 5912.00 6525.62 77.00
2902 19.5060 5987.00 6631.43 77.00
2903 19.5120 6087.00 6781.27 78.00
2904 19.5180 6232.00 6980.32 79.00
2905 19.5240 6369.00 7228.36 80.00
2906 19.5300 6680.00 7516.76 82.00
2907 19.5360 7085.00 7825.20 84.00
2908 19.5420 7248.00 8120.07 85.00
2909 19.5480 7295.00 8359.00 85.00
2910 19.5540 7359.00 8502.84 86.00
2911 19.5600 7354.00 8540.81 86.00
2912 19.5660 7258.00 8493.33 85.00
2913 19.5720 7272.00 8406.42 85.00
2914 19.5780 7425.00 8338.85 86.00
2915 19.5840 7530.00 8352.25 87.00
2916 19.5900 7634.00 8512.54 87.00
2917 19.5960 7891.00 8893.19 89.00
2918 19.6020 8592.00 9588.63 93.00
2919 19.6080 9366.00 10713.50 97.00
2920 19.6140 10675.00 12394.60 103.00
2921 19.6200 12779.00 14751.10 113.00
2922 19.6260 16130.00 17857.70 127.00
2923 19.6320 20327.00 21703.30 143.00
2924 19.6380 26305.00 26133.90 162.00
2925 19.6440 33773.00 30788.80 184.00
2926 19.6500 41067.00 35086.80 203.00
2927 19.6560 45659.00 38293.70 214.00
2928 19.6620 46241.00 39789.70 215.00
2929 19.6680 43585.00 39312.40 209.00
2930 19.6740 38767.00 36976.80 197.00
2931 19.6800 33209.00 33220.50 182.00
2932 19.6860 27377.00 28707.70 165.00
2933 19.6920 22536.00 24102.40 150.00
2934 19.6980 18472.00 19885.20 136.00
2935 19.7040 15161.00 16319.20 123.00
2936 19.7100 12882.00 13490.20 113.00
2937 19.7160 11007.00 11360.60 105.00
2938 19.7220 9649.00 9828.36 98.00
2939 19.7280 8660.00 8762.72 93.00
2940 19.7340 8006.00 8034.25 89.00
2941 19.7400 7393.00 7536.75 86.00
2942 19.7460 6916.00 7190.37 83.00
2943 19.7520 6627.00 6940.18 81.00
2944 19.7580 6567.00 6751.04 81.00
2945 19.7640 6343.00 6601.65 80.00
2946 19.7700 6199.00 6479.09 79.00
2947 19.7760 6174.00 6377.04 79.00
2948 19.7820 6120.00 6288.76 78.00
2949 19.7880 6034.00 6164.53 78.00
2950 19.7940 6046.00 6098.95 78.00
2951 19.8000 5871.00 6107.12 77.00
2952 19.8060 5946.00 6057.96 77.00
2953 19.8120 5955.00 6014.56 77.00
2954 19.8180 5984.00 5977.10 77.00
2955 19.8240 6033.00 5942.91 78.00
2956 19.8300 6027.00 5912.40 78.00
2957 19.8360 6090.00 5885.12 78.00
2958 19.8420 6046.00 5860.67 78.00
2959 19.8480 5938.00 5838.71 77.00
2960 19.8540 5848.00 5818.97 76.00
2961 19.8600 5760.00 5801.20 76.00
2962 19.8660 5839.00 5786.21 76.00
2963 19.8720 5725.00 5771.81 76.00
2964 19.8780 5819.00 5758.86 76.00
2965 19.8840 5744.00 5747.22 76.00
2966 19.8900 5730.00 5736.79 76.00
2967 19.8960 5693.00 5727.48 75.00
2968 19.9020 5571.00 5719.19 75.00
2969 19.9080 5484.00 5711.85 74.00
2970 19.9140 5569.00 5706.43 75.00
2971 19.9200 5511.00 5706.91 74.00
2972 19.9260 5549.00 5705.30 74.00
2973 19.9320 5616.00 5704.48 75.00
2974 19.9380 5649.00 5704.41 75.00
2975 19.9440 5781.00 5705.07 76.00
2976 19.9500 6013.00 5705.46 78.00
2977 19.9560 6167.00 5707.56 79.00
2978 19.9620 6086.00 5710.37 78.00
2979 19.9680 6046.00 5713.89 78.00
2980 19.9740 6126.00 5718.13 78.00
2981 19.9800 5818.00 5723.11 76.00
2982 19.9860 5838.00 5727.84 76.00
2983 19.9920 5764.00 5734.36 76.00
2984 19.9980 5596.00 5739.85 75.00
2985 20.0040 5536.00 5748.09 74.00
2986 20.0100 5575.00 5755.92 75.00
2987 20.0160 5423.00 5766.06 74.00
2988 20.0220 5507.00 5776.22 74.00
2989 20.0280 5524.00 5788.48 74.00
2990 20.0340 5494.00 5801.94 74.00
2991 20.0400 5493.00 5816.70 74.00
2992 20.0460 5443.00 5832.88 74.00
2993 20.0520 5569.00 5850.62 75.00
2994 20.0580 5541.00 5870.09 74.00
2995 20.0640 5475.00 5890.47 74.00
2996 20.0700 5576.00 5913.99 75.00
2997 20.0760 5547.00 5939.90 74.00
2998 20.0820 5599.00 5968.50 75.00
2999 20.0880 5451.00 6000.13 74.00
3000 20.0940 5560.00 6035.24 75.00
3001 20.1000 5550.00 6073.29 74.00
3002 20.1060 5670.00 6116.89 75.00
3003 20.1120 5754.00 6134.44 76.00
3004 20.1180 5751.00 6190.19 76.00
3005 20.1240 5792.00 6227.00 76.00
3006 20.1300 5905.00 6298.88 77.00
3007 20.1360 5943.00 6379.74 77.00
3008 20.1420 6037.00 6473.67 78.00
3009 20.1480 6224.00 6582.45 79.00
3010 20.1540 6372.00 6710.12 80.00
3011 20.1600 6700.00 6863.02 82.00
3012 20.1660 7001.00 7051.36 84.00
3013 20.1720 7371.00 7296.20 86.00
3014 20.1780 7970.00 7618.95 89.00
3015 20.1840 8920.00 8070.86 94.00
3016 20.1900 10335.00 8725.13 102.00
3017 20.1960 11977.00 9686.61 109.00
3018 20.2020 14471.00 11092.90 120.00
3019 20.2080 17526.00 13102.30 132.00
3020 20.2140 20739.00 15864.20 144.00
3021 20.2200 25073.00 19482.70 158.00
3022 20.2260 29314.00 23960.10 171.00
3023 20.2320 33353.00 29139.80 183.00
3024 20.2380 37230.00 34652.20 193.00
3025 20.2440 39361.00 39856.40 198.00
3026 20.2500 40545.00 43841.70 201.00
3027 20.2560 39429.00 45629.50 199.00
3028 20.2620 36895.00 44680.60 192.00
3029 20.2680 34768.00 41289.10 186.00
3030 20.2740 31978.00 36359.20 179.00
3031 20.2800 29009.00 30863.10 170.00
3032 20.2860 26100.00 25543.00 162.00
3033 20.2920 23295.00 20839.00 153.00
3034 20.2980 21096.00 16975.80 145.00
3035 20.3040 18704.00 13997.00 137.00
3036 20.3100 16748.00 11828.50 129.00
3037 20.3160 15030.00 10332.60 123.00
3038 20.3220 13657.00 9357.66 117.00
3039 20.3280 12725.00 8772.34 113.00
3040 20.3340 12032.00 8473.92 110.00
3041 20.3400 11388.00 8393.51 107.00
3042 20.3460 11018.00 8485.50 105.00
3043 20.3520 10962.00 8715.10 105.00
3044 20.3580 10737.00 9046.51 104.00
3045 20.3640 11117.00 9430.48 105.00
3046 20.3700 10648.00 9800.71 103.00
3047 20.3760 10426.00 10066.00 102.00
3048 20.3820 9994.00 10134.70 100.00
3049 20.3880 9705.00 9960.11 99.00
3050 20.3940 9335.00 9573.09 97.00
3051 20.4000 8892.00 9056.09 94.00
3052 20.4060 8762.00 8498.66 94.00
3053 20.4120 8531.00 7964.79 92.00
3054 20.4180 8492.00 7494.11 92.00
3055 20.4240 7981.00 7104.92 89.00
3056 20.4300 7965.00 6799.99 89.00
3057 20.4360 7585.00 6570.53 87.00
3058 20.4420 7036.00 6404.83 84.00
3059 20.4480 6895.00 6286.72 83.00
3060 20.4540 6615.00 6202.58 81.00
3061 20.4600 6401.00 6182.35 80.00
3062 20.4660 6289.00 6137.80 79.00
3063 20.4720 6250.00 6136.04 79.00
3064 20.4780 6132.00 6109.74 78.00
3065 20.4840 6183.00 6088.65 79.00
3066 20.4900 6022.00 6071.61 78.00
3067 20.4960 5957.00 6057.96 77.00
3068 20.5020 5919.00 6047.26 77.00
3069 20.5080 5805.00 6039.27 76.00
3070 20.5140 5824.00 6032.82 76.00
3071 20.5200 5823.00 6029.85 76.00
3072 20.5260 5643.00 6029.38 75.00
3073 20.5320 5865.00 6031.54 77.00
3074 20.5380 5764.00 6034.65 76.00
3075 20.5440 5736.00 6041.29 76.00
3076 20.5500 5838.00 6052.52 76.00
3077 20.5560 5794.00 6070.25 76.00
3078 20.5620 5607.00 6097.59 75.00
3079 20.5680 5833.00 6139.43 76.00
3080 20.5740 5740.00 6202.82 76.00
3081 20.5800 5820.00 6297.13 76.00
3082 20.5860 5884.00 6433.32 77.00
3083 20.5920 6071.00 6622.25 78.00
3084 20.5980 6165.00 6872.17 79.00
3085 20.6040 6635.00 7184.88 81.00
3086 20.6100 6884.00 7552.06 83.00
3087 20.6160 7536.00 7951.35 87.00
3088 20.6220 8307.00 8342.96 91.00
3089 20.6280 8934.00 8667.25 95.00
3090 20.6340 9030.00 8854.43 95.00
3091 20.6400 8835.00 8854.49 94.00
3092 20.6460 8141.00 8670.68 90.00
3093 20.6520 7825.00 8357.51 88.00
3094 20.6580 7454.00 7985.37 86.00
3095 20.6640 6938.00 7612.98 83.00
3096 20.6700 6702.00 7279.70 82.00
3097 20.6760 6458.00 7008.73 80.00
3098 20.6820 6454.00 6811.08 80.00
3099 20.6880 6412.00 6689.65 80.00
3100 20.6940 6594.00 6644.28 81.00
3101 20.7000 6742.00 6673.96 82.00
3102 20.7060 6899.00 6779.12 83.00
3103 20.7120 7114.00 6961.18 84.00
3104 20.7180 7422.00 7219.62 86.00
3105 20.7240 8000.00 7485.68 89.00
3106 20.7300 8242.00 7871.18 91.00
3107 20.7360 8600.00 8282.12 93.00
3108 20.7420 8651.00 8670.74 93.00
3109 20.7480 8663.00 8971.39 93.00
3110 20.7540 8673.00 9116.04 93.00
3111 20.7600 8542.00 9068.49 92.00
3112 20.7660 8421.00 8850.41 92.00
3113 20.7720 8042.00 8525.51 90.00
3114 20.7780 8062.00 8162.39 90.00
3115 20.7840 7634.00 7813.80 87.00
3116 20.7900 7295.00 7513.37 85.00
3117 20.7960 7026.00 7280.22 84.00
3118 20.8020 6879.00 7115.48 83.00
3119 20.8080 6966.00 7017.63 83.00
3120 20.8140 6846.00 6980.51 83.00
3121 20.8200 6871.00 6991.19 83.00
3122 20.8260 6825.00 7043.61 83.00
3123 20.8320 7019.00 7132.95 84.00
3124 20.8380 7114.00 7258.58 84.00
3125 20.8440 7258.00 7425.50 85.00
3126 20.8500 7638.00 7640.24 87.00
3127 20.8560 7813.00 7938.56 88.00
3128 20.8620 8062.00 8354.10 90.00
3129 20.8680 8750.00 8949.99 94.00
3130 20.8740 9603.00 9817.74 98.00
3131 20.8800 10326.00 11080.20 102.00
3132 20.8860 11974.00 12885.50 109.00
3133 20.8920 14300.00 15390.50 120.00
3134 20.8980 17547.00 18728.40 132.00
3135 20.9040 22528.00 22963.80 150.00
3136 20.9100 28830.00 28045.60 170.00
3137 20.9160 36623.00 33744.50 191.00
3138 20.9220 45031.00 39603.20 212.00
3139 20.9280 51318.00 44897.20 227.00
3140 20.9340 54796.00 48730.70 234.00
3141 20.9400 54115.00 50296.40 233.00
3142 20.9460 50864.00 49239.90 226.00
3143 20.9520 45422.00 45816.70 213.00
3144 20.9580 40077.00 40761.20 200.00
3145 20.9640 34181.00 34966.80 185.00
3146 20.9700 28745.00 29197.60 170.00
3147 20.9760 23695.00 23962.70 154.00
3148 20.9820 20107.00 19540.60 142.00
3149 20.9880 17004.00 16014.40 130.00
3150 20.9940 14343.00 13336.50 120.00
3151 21.0000 12336.00 11386.10 111.00
3152 21.0060 10992.00 10011.20 105.00
3153 21.0120 9700.00 9059.84 98.00
3154 21.0180 8925.00 8402.81 94.00
3155 21.0240 8230.00 7942.10 91.00
3156 21.0300 7722.00 7608.65 88.00
3157 21.0360 7466.00 7357.24 86.00
3158 21.0420 7093.00 7159.47 84.00
3159 21.0480 7035.00 6998.33 84.00
3160 21.0540 6924.00 6863.49 83.00
3161 21.0600 6585.00 6748.62 81.00
3162 21.0660 6453.00 6649.48 80.00
3163 21.0720 6370.00 6563.19 80.00
3164 21.0780 6367.00 6487.69 80.00
3165 21.0840 6370.00 6421.24 80.00
3166 21.0900 6479.00 6362.54 80.00
3167 21.0960 6376.00 6310.51 80.00
3168 21.1020 6283.00 6264.29 79.00
3169 21.1080 6204.00 6218.43 79.00
3170 21.1140 6232.00 6181.88 79.00
3171 21.1200 6185.00 6149.20 79.00
3172 21.1260 6011.00 6120.04 78.00
3173 21.1320 5987.00 6094.05 77.00
3174 21.1380 5926.00 6070.92 77.00
3175 21.1440 5879.00 6050.46 77.00
3176 21.1500 5906.00 6033.52 77.00
3177 21.1560 5901.00 6017.88 77.00
3178 21.1620 5884.00 6004.50 77.00
3179 21.1680 5834.00 5993.34 76.00
3180 21.1740 5822.00 5986.45 76.00
3181 21.1800 5821.00 5982.99 76.00
3182 21.1860 5902.00 5982.31 77.00
3183 21.1920 5845.00 5985.05 76.00
3184 21.1980 5847.00 5991.32 76.00
3185 21.2040 6030.00 6004.98 78.00
3186 21.2100 6029.00 6027.87 78.00
3187 21.2160 5991.00 6063.15 77.00
3188 21.2220 6076.00 6118.32 78.00
3189 21.2280 6095.00 6194.27 78.00
3190 21.2340 6088.00 6306.76 78.00
3191 21.2400 6209.00 6459.17 79.00
3192 21.2460 6243.00 6653.97 79.00
3193 21.2520 6441.00 6888.71 80.00
3194 21.2580 6790.00 7156.34 82.00
3195 21.2640 7081.00 7436.99 84.00
3196 21.2700 7486.00 7699.08 87.00
3197 21.2760 7754.00 7905.84 88.00
3198 21.2820 7723.00 8020.42 88.00
3199 21.2880 7561.00 8021.39 87.00
3200 21.2940 7329.00 7912.10 86.00
3201 21.3000 7014.00 7714.14 84.00
3202 21.3060 6935.00 7464.72 83.00
3203 21.3120 6679.00 7202.35 82.00
3204 21.3180 6444.00 6960.06 80.00
3205 21.3240 6409.00 6756.09 80.00
3206 21.3300 6269.00 6597.90 79.00
3207 21.3360 6110.00 6487.72 78.00
3208 21.3420 6226.00 6418.56 79.00
3209 21.3480 6230.00 6379.13 79.00
3210 21.3540 6124.00 6358.82 78.00
3211 21.3600 6170.00 6344.14 79.00
3212 21.3660 6167.00 6325.46 79.00
3213 21.3720 5890.00 6302.88 77.00
3214 21.3780 6143.00 6279.48 78.00
3215 21.3840 5897.00 6261.27 77.00
3216 21.3900 6130.00 6258.32 78.00
3217 21.3960 6203.00 6278.58 79.00
3218 21.4020 6372.00 6332.43 80.00
3219 21.4080 6166.00 6430.92 79.00
3220 21.4140 6351.00 6548.93 80.00
3221 21.4200 6498.00 6780.01 81.00
3222 21.4260 6592.00 7058.59 81.00
3223 21.4320 6832.00 7455.30 83.00
3224 21.4380 7356.00 7926.84 86.00
3225 21.4440 7875.00 8447.32 89.00
3226 21.4500 8667.00 8973.56 93.00
3227 21.4560 9231.00 9435.78 96.00
3228 21.4620 9233.00 9765.16 96.00
3229 21.4680 9404.00 9852.08 97.00
3230 21.4740 8635.00 9689.25 93.00
3231 21.4800 8224.00 9320.27 91.00
3232 21.4860 7661.00 8830.43 88.00
3233 21.4920 7512.00 8310.33 87.00
3234 21.4980 7001.00 7800.94 84.00
3235 21.5040 6833.00 7350.72 83.00
3236 21.5100 6535.00 6977.51 81.00
3237 21.5160 6482.00 6685.01 81.00
3238 21.5220 6453.00 6466.04 80.00
3239 21.5280 6545.00 6310.55 81.00
3240 21.5340 6312.00 6203.82 79.00
3241 21.5400 6542.00 6131.94 81.00
3242 21.5460 6427.00 6086.44 80.00
3243 21.5520 6440.00 6058.79 80.00
3244 21.5580 6181.00 6043.22 79.00
3245 21.5640 6258.00 6039.27 79.00
3246 21.5700 6179.00 6045.14 79.00
3247 21.5760 6188.00 6060.21 79.00
3248 21.5820 6327.00 6087.49 80.00
3249 21.5880 6372.00 6126.95 80.00
3250 21.5940 6345.00 6177.98 80.00
3251 21.6000 6471.00 6241.75 80.00
3252 21.6060 6472.00 6314.88 80.00
3253 21.6120 6288.00 6393.16 79.00
3254 21.6180 6377.00 6468.88 80.00
3255 21.6240 6375.00 6533.87 80.00
3256 21.6300 6216.00 6574.27 79.00
3257 21.6360 6098.00 6578.20 78.00
3258 21.6420 6219.00 6545.28 79.00
3259 21.6480 6235.00 6482.66 79.00
3260 21.6540 6017.00 6402.72 78.00
3261 21.6600 6124.00 6319.83 78.00
3262 21.6660 6039.00 6241.87 78.00
3263 21.6720 6116.00 6173.20 78.00
3264 21.6780 5837.00 6118.33 76.00
3265 21.6840 5943.00 6106.25 77.00
3266 21.6900 5879.00 6076.15 77.00
3267 21.6960 5855.00 6057.09 77.00
3268 21.7020 5953.00 6043.86 77.00
3269 21.7080 5986.00 6035.44 77.00
3270 21.7140 5929.00 6032.18 77.00
3271 21.7200 6071.00 6030.83 78.00
3272 21.7260 5922.00 6032.58 77.00
3273 21.7320 5980.00 6034.91 77.00
3274 21.7380 5937.00 6039.50 77.00
3275 21.7440 5922.00 6045.20 77.00
3276 21.7500 6025.00 6050.94 78.00
3277 21.7560 6043.00 6058.69 78.00
3278 21.7620 5928.00 6064.61 77.00
3279 21.7680 5878.00 6074.54 77.00
3280 21.7740 5933.00 6084.63 77.00
3281 21.7800 6016.00 6095.19 78.00
3282 21.7860 6256.00 6107.95 79.00
3283 21.7920 6107.00 6123.22 78.00
3284 21.7980 6105.00 6140.19 78.00
3285 21.8040 6221.00 6158.05 79.00
3286 21.8100 6254.00 6179.08 79.00
3287 21.8160 6220.00 6201.58 79.00
3288 21.8220 6199.00 6227.94 79.00
3289 21.8280 6308.00 6256.61 79.00
3290 21.8340 6238.00 6290.21 79.00
3291 21.8400 6200.00 6327.52 79.00
3292 21.8460 6144.00 6371.19 78.00
3293 21.8520 6171.00 6422.78 79.00
3294 21.8580 6129.00 6483.45 78.00
3295 21.8640 6170.00 6559.27 79.00
3296 21.8700 6343.00 6654.97 80.00
3297 21.8760 6465.00 6783.10 80.00
3298 21.8820 6663.00 6957.78 82.00
3299 21.8880 7013.00 7203.95 84.00
3300 21.8940 7296.00 7550.05 85.00
3301 21.9000 7658.00 8035.44 88.00
3302 21.9060 8369.00 8699.38 91.00
3303 21.9120 9233.00 9578.17 96.00
3304 21.9180 10181.00 10698.90 101.00
3305 21.9240 11594.00 12063.20 108.00
3306 21.9300 13261.00 13642.80 115.00
3307 21.9360 15159.00 15357.50 123.00
3308 21.9420 16951.00 17071.50 130.00
3309 21.9480 18812.00 18584.20 137.00
3310 21.9540 20404.00 19673.40 143.00
3311 21.9600 21222.00 20195.40 146.00
3312 21.9660 20996.00 20169.20 145.00
3313 21.9720 20623.00 19702.00 144.00
3314 21.9780 19797.00 18894.30 141.00
3315 21.9840 18376.00 17822.10 136.00
3316 21.9900 17046.00 16547.90 131.00
3317 21.9960 15751.00 15103.20 126.00
3318 22.0020 14642.00 13626.80 121.00
3319 22.0080 13580.00 12234.90 117.00
3320 22.0140 12614.00 11001.50 112.00
3321 22.0200 11690.00 9964.93 108.00
3322 22.0260 10725.00 9136.33 104.00
3323 22.0320 10058.00 8488.84 100.00
3324 22.0380 9511.00 8006.58 98.00
3325 22.0440 9003.00 7658.73 95.00
3326 22.0500 8487.00 7418.38 92.00
3327 22.0560 8163.00 7269.32 90.00
3328 22.0620 8013.00 7169.02 90.00
3329 22.0680 7873.00 7111.39 89.00
3330 22.0740 7686.00 7088.00 88.00
3331 22.0800 7524.00 7092.01 87.00
3332 22.0860 7508.00 7120.92 87.00
3333 22.0920 7504.00 7179.51 87.00
3334 22.0980 7548.00 7273.70 87.00
3335 22.1040 7648.00 7420.28 87.00
3336 22.1100 7906.00 7640.51 89.00
3337 22.1160 8488.00 7970.24 92.00
3338 22.1220 9165.00 8452.76 96.00
3339 22.1280 10045.00 9143.18 100.00
3340 22.1340 11449.00 10099.80 107.00
3341 22.1400 12921.00 11369.50 114.00
3342 22.1460 14727.00 12982.20 121.00
3343 22.1520 16825.00 14922.00 130.00
3344 22.1580 18670.00 17159.60 137.00
3345 22.1640 20463.00 19473.00 143.00
3346 22.1700 22092.00 21667.10 149.00
3347 22.1760 22869.00 23411.40 151.00
3348 22.1820 22716.00 24375.10 151.00
3349 22.1880 21794.00 24264.50 148.00
3350 22.1940 20681.00 23135.20 144.00
3351 22.2000 19277.00 21268.30 139.00
3352 22.2060 18024.00 19025.60 134.00
3353 22.2120 16688.00 16718.50 129.00
3354 22.2180 15279.00 14560.60 124.00
3355 22.2240 13810.00 12682.50 118.00
3356 22.2300 12579.00 11138.40 112.00
3357 22.2360 11363.00 9932.38 107.00
3358 22.2420 10357.00 9030.07 102.00
3359 22.2480 9725.00 8381.29 99.00
3360 22.2540 9212.00 7927.11 96.00
3361 22.2600 8710.00 7613.71 93.00
3362 22.2660 8331.00 7400.41 91.00
3363 22.2720 7957.00 7251.66 89.00
3364 22.2780 7679.00 7147.73 88.00
3365 22.2840 7522.00 7072.16 87.00
3366 22.2900 7302.00 7017.98 85.00
3367 22.2960 7158.00 6981.03 85.00
3368 22.3020 7006.00 6953.57 84.00
3369 22.3080 7019.00 6935.90 84.00
3370 22.3140 7105.00 6925.84 84.00
3371 22.3200 7063.00 6924.69 84.00
3372 22.3260 7095.00 6930.06 84.00
3373 22.3320 7168.00 6943.83 85.00
3374 22.3380 7230.00 6964.05 85.00
3375 22.3440 7317.00 6993.01 86.00
3376 22.3500 7226.00 7029.24 85.00
3377 22.3560 7086.00 7075.55 84.00
3378 22.3620 7092.00 7132.14 84.00
3379 22.3680 7165.00 7199.92 85.00
3380 22.3740 7266.00 7283.80 85.00
3381 22.3800 7346.00 7386.31 86.00
3382 22.3860 7441.00 7516.78 86.00
3383 22.3920 7627.00 7684.45 87.00
3384 22.3980 7775.00 7908.40 88.00
3385 22.4040 8026.00 8211.30 90.00
3386 22.4100 8536.00 8629.41 92.00
3387 22.4160 8983.00 9205.70 95.00
3388 22.4220 9744.00 9991.96 99.00
3389 22.4280 10744.00 11047.50 104.00
3390 22.4340 12007.00 12426.70 110.00
3391 22.4400 13991.00 14172.60 118.00
3392 22.4460 16488.00 16297.30 128.00
3393 22.4520 19136.00 18755.00 138.00
3394 22.4580 22475.00 21482.60 150.00
3395 22.4640 26004.00 24291.80 161.00
3396 22.4700 29607.00 26948.40 172.00
3397 22.4760 32660.00 29206.70 181.00
3398 22.4820 35237.00 30860.90 188.00
3399 22.4880 35929.00 31754.20 190.00
3400 22.4940 34195.00 31823.50 185.00
3401 22.5000 31544.00 31072.90 178.00
3402 22.5060 29367.00 29666.80 171.00
3403 22.5120 27754.00 27906.60 167.00
3404 22.5180 26425.00 26093.50 163.00
3405 22.5240 25040.00 24436.50 158.00
3406 22.5300 24032.00 23026.30 155.00
3407 22.5360 22829.00 21879.50 151.00
3408 22.5420 21540.00 20969.60 147.00
3409 22.5480 20208.00 20240.20 142.00
3410 22.5540 18893.00 19583.30 137.00
3411 22.5600 17580.00 18867.20 133.00
3412 22.5660 16455.00 17994.60 128.00
3413 22.5720 15445.00 16971.10 124.00
3414 22.5780 14864.00 15890.10 122.00
3415 22.5840 14125.00 14881.20 119.00
3416 22.5900 13687.00 14064.80 117.00
3417 22.5960 13762.00 13544.40 117.00
3418 22.6020 14094.00 13410.70 119.00
3419 22.6080 15119.00 13746.30 123.00
3420 22.6140 16436.00 14629.10 128.00
3421 22.6200 18267.00 16120.10 135.00
3422 22.6260 20502.00 18257.20 143.00
3423 22.6320 23405.00 21037.60 153.00
3424 22.6380 27003.00 24398.20 164.00
3425 22.6440 31087.00 28184.90 176.00
3426 22.6500 34582.00 32129.80 186.00
3427 22.6560 38115.00 35830.90 195.00
3428 22.6620 39870.00 38812.90 200.00
3429 22.6680 40481.00 40691.70 201.00
3430 22.6740 40039.00 41326.20 200.00
3431 22.6800 38267.00 40792.20 196.00
3432 22.6860 36306.00 39181.30 191.00
3433 22.6920 33845.00 36659.10 184.00
3434 22.6980 31440.00 33363.60 177.00
3435 22.7040 28719.00 29602.30 169.00
3436 22.7100 26405.00 25749.90 162.00
3437 22.7160 24438.00 22116.20 156.00
3438 22.7220 22589.00 18907.80 150.00
3439 22.7280 20576.00 16217.50 143.00
3440 22.7340 18717.00 14066.80 137.00
3441 22.7400 17149.00 12421.50 131.00
3442 22.7460 15846.00 11224.10 126.00
3443 22.7520 14817.00 10400.00 122.00
3444 22.7580 13990.00 9872.31 118.00
3445 22.7640 13493.00 9571.27 116.00
3446 22.7700 12832.00 9430.71 113.00
3447 22.7760 11968.00 9396.37 109.00
3448 22.7820 11548.00 9418.41 107.00
3449 22.7880 10794.00 9457.98 104.00
3450 22.7940 10141.00 9482.73 101.00
3451 22.8000 9976.00 9441.26 100.00
3452 22.8060 9433.00 9312.19 97.00
3453 22.8120 9100.00 9089.88 95.00
3454 22.8180 9034.00 8798.29 95.00
3455 22.8240 8641.00 8476.37 93.00
3456 22.8300 8573.00 8147.21 93.00
3457 22.8360 8325.00 7838.17 91.00
3458 22.8420 8190.00 7565.49 90.00
3459 22.8480 7832.00 7333.58 88.00
3460 22.8540 7759.00 7145.36 88.00
3461 22.8600 7501.00 6995.57 87.00
3462 22.8660 7439.00 6880.79 86.00
3463 22.8720 7270.00 6793.44 85.00
3464 22.8780 7144.00 6726.34 85.00
3465 22.8840 7022.00 6676.16 84.00
3466 22.8900 6914.00 6636.78 83.00
3467 22.8960 6965.00 6607.22 83.00
3468 22.9020 6804.00 6583.59 82.00
3469 22.9080 6855.00 6566.79 83.00
3470 22.9140 6785.00 6554.49 82.00
3471 22.9200 6651.00 6549.00 82.00
3472 22.9260 6637.00 6550.38 81.00
3473 22.9320 6528.00 6559.68 81.00
3474 22.9380 6332.00 6582.12 80.00
3475 22.9440 6646.00 6620.42 82.00
3476 22.9500 6529.00 6682.86 81.00
3477 22.9560 6580.00 6776.10 81.00
3478 22.9620 6740.00 6908.60 82.00
3479 22.9680 6873.00 7088.26 83.00
3480 22.9740 7027.00 7320.68 84.00
3481 22.9800 7231.00 7599.66 85.00
3482 22.9860 7667.00 7921.81 88.00
3483 22.9920 8249.00 8288.85 91.00
3484 22.9980 8890.00 8660.54 94.00
3485 23.0040 9507.00 8996.30 98.00
3486 23.0100 10284.00 9223.06 101.00
3487 23.0160 10450.00 9343.96 102.00
3488 23.0220 10233.00 9312.65 101.00
3489 23.0280 10082.00 9139.76 100.00
3490 23.0340 9496.00 8857.92 97.00
3491 23.0400 8822.00 8507.98 94.00
3492 23.0460 8576.00 8149.04 93.00
3493 23.0520 8035.00 7812.23 90.00
3494 23.0580 7592.00 7523.04 87.00
3495 23.0640 7493.00 7294.70 87.00
3496 23.0700 7442.00 7134.30 86.00
3497 23.0760 7357.00 7027.69 86.00
3498 23.0820 7263.00 6991.35 85.00
3499 23.0880 7465.00 7002.96 86.00
3500 23.0940 7521.00 7049.10 87.00
3501 23.1000 7485.00 7114.97 87.00
3502 23.1060 7659.00 7178.98 88.00
3503 23.1120 7754.00 7226.89 88.00
3504 23.1180 7825.00 7245.89 88.00
3505 23.1240 7801.00 7232.84 88.00
3506 23.1300 7751.00 7190.92 88.00
3507 23.1360 7765.00 7125.96 88.00
3508 23.1420 7671.00 7039.22 88.00
3509 23.1480 7542.00 6940.58 87.00
3510 23.1540 7729.00 6837.92 88.00
3511 23.1600 7459.00 6742.56 86.00
3512 23.1660 7366.00 6656.05 86.00
3513 23.1720 7406.00 6584.50 86.00
3514 23.1780 6991.00 6491.99 84.00
3515 23.1840 6958.00 6451.89 83.00
3516 23.1900 6909.00 6426.64 83.00
3517 23.1960 6617.00 6413.06 81.00
3518 23.2020 6712.00 6409.05 82.00
3519 23.2080 6709.00 6386.67 82.00
3520 23.2140 6547.00 6399.44 81.00
3521 23.2200 6517.00 6421.20 81.00
3522 23.2260 6481.00 6453.46 81.00
3523 23.2320 6454.00 6502.44 80.00
3524 23.2380 6703.00 6573.59 82.00
3525 23.2440 6753.00 6676.00 82.00
3526 23.2500 6853.00 6821.76 83.00
3527 23.2560 7163.00 7025.57 85.00
3528 23.2620 7386.00 7303.64 86.00
3529 23.2680 7736.00 7671.11 88.00
3530 23.2740 8110.00 8142.68 90.00
3531 23.2800 9050.00 8723.37 95.00
3532 23.2860 9816.00 9408.11 99.00
3533 23.2920 10747.00 10176.30 104.00
3534 23.2980 11669.00 10987.10 108.00
3535 23.3040 12634.00 11771.90 112.00
3536 23.3100 13240.00 12445.80 115.00
3537 23.3160 14016.00 12926.00 118.00
3538 23.3220 14140.00 13166.20 119.00
3539 23.3280 13696.00 13179.20 117.00
3540 23.3340 13663.00 12990.10 117.00
3541 23.3400 12668.00 12619.60 113.00
3542 23.3460 11995.00 12081.00 110.00
3543 23.3520 11363.00 11408.30 107.00
3544 23.3580 10649.00 10657.80 103.00
3545 23.3640 10229.00 9898.26 101.00
3546 23.3700 9334.00 9185.01 97.00
3547 23.3760 8827.00 8553.04 94.00
3548 23.3820 8670.00 8017.95 93.00
3549 23.3880 8068.00 7581.29 90.00
3550 23.3940 7685.00 7238.55 88.00
3551 23.4000 7472.00 6976.67 86.00
3552 23.4060 7197.00 6781.50 85.00
3553 23.4120 6912.00 6638.60 83.00
3554 23.4180 6961.00 6534.89 83.00
3555 23.4240 6897.00 6458.44 83.00
3556 23.4300 7027.00 6402.83 84.00
3557 23.4360 6734.00 6360.94 82.00
3558 23.4420 6683.00 6328.51 82.00
3559 23.4480 6622.00 6302.68 81.00
3560 23.4540 6500.00 6281.66 81.00
3561 23.4600 6421.00 6264.26 80.00
3562 23.4660 6381.00 6248.71 80.00
3563 23.4720 6249.00 6236.52 79.00
3564 23.4780 6115.00 6226.35 78.00
3565 23.4840 6130.00 6217.94 78.00
3566 23.4900 6162.00 6211.11 78.00
3567 23.4960 5978.00 6205.75 77.00
3568 23.5020 6064.00 6201.75 78.00
3569 23.5080 6035.00 6198.07 78.00
3570 23.5140 5918.00 6196.73 77.00
3571 23.5200 6047.00 6196.77 78.00
3572 23.5260 6085.00 6198.33 78.00
3573 23.5320 6047.00 6199.42 78.00
3574 23.5380 5901.00 6208.09 77.00
3575 23.5440 6041.00 6218.70 78.00
3576 23.5500 5892.00 6231.31 77.00
3577 23.5560 6006.00 6251.35 77.00
3578 23.5620 5957.00 6278.69 77.00
3579 23.5680 6246.00 6315.68 79.00
3580 23.5740 6171.00 6365.87 79.00
3581 23.5800 6381.00 6429.92 80.00
3582 23.5860 6448.00 6528.49 80.00
3583 23.5920 6604.00 6642.74 81.00
3584 23.5980 6904.00 6762.78 83.00
3585 23.6040 7019.00 6901.90 84.00
3586 23.6100 7469.00 7054.59 86.00
3587 23.6160 7801.00 7215.45 88.00
3588 23.6220 8077.00 7376.03 90.00
3589 23.6280 8301.00 7528.71 91.00
3590 23.6340 8301.00 7671.13 91.00
3591 23.6400 8438.00 7807.84 92.00
3592 23.6460 8521.00 7944.80 92.00
3593 23.6520 8634.00 8083.00 93.00
3594 23.6580 8586.00 8215.89 93.00
3595 23.6640 8580.00 8331.95 93.00
3596 23.6700 8500.00 8417.91 92.00
3597 23.6760 8384.00 8461.64 92.00
3598 23.6820 8058.00 8448.96 90.00
3599 23.6880 7781.00 8366.78 88.00
3600 23.6940 7497.00 8213.64 87.00
3601 23.7000 7308.00 8001.80 85.00
3602 23.7060 7215.00 7757.87 85.00
3603 23.7120 7215.00 7507.66 85.00
3604 23.7180 6971.00 7270.95 83.00
3605 23.7240 6865.00 7061.23 83.00
3606 23.7300 6974.00 6882.78 84.00
3607 23.7360 6708.00 6737.96 82.00
3608 23.7420 6640.00 6625.02 81.00
3609 23.7480 6648.00 6540.44 82.00
3610 23.7540 6719.00 6478.50 82.00
3611 23.7600 6842.00 6435.52 83.00
3612 23.7660 6753.00 6404.93 82.00
3613 23.7720 6838.00 6384.07 83.00
3614 23.7780 6698.00 6369.78 82.00
3615 23.7840 6662.00 6360.13 82.00
3616 23.7900 6522.00 6354.71 81.00
3617 23.7960 6068.00 6350.59 78.00
3618 23.8020 6160.00 6348.18 78.00
3619 23.8080 6311.00 6347.10 79.00
3620 23.8140 6196.00 6347.11 79.00
3621 23.8200 6158.00 6349.06 78.00
3622 23.8260 5993.00 6350.83 77.00
3623 23.8320 6145.00 6353.36 78.00
3624 23.8380 6158.00 6356.58 78.00
3625 23.8440 5993.00 6352.68 77.00
3626 23.8500 6012.00 6379.48 78.00
3627 23.8560 6077.00 6385.25 78.00
3628 23.8620 6041.00 6391.64 78.00
3629 23.8680 6148.00 6428.78 78.00
3630 23.8740 6162.00 6431.50 78.00
3631 23.8800 6057.00 6441.61 78.00
3632 23.8860 6070.00 6451.43 78.00
3633 23.8920 5976.00 6480.27 77.00
3634 23.8980 5959.00 6485.03 77.00
3635 23.9040 5976.00 6490.65 77.00
3636 23.9100 6055.00 6498.18 78.00
3637 23.9160 6018.00 6505.69 78.00
3638 23.9220 5976.00 6515.28 77.00
3639 23.9280 5939.00 6525.05 77.00
3640 23.9340 5990.00 6536.12 77.00
3641 23.9400 5977.00 6549.64 77.00
3642 23.9460 6160.00 6563.75 78.00
3643 23.9520 6124.00 6580.67 78.00
3644 23.9580 6212.00 6598.61 79.00
3645 23.9640 6240.00 6618.84 79.00
3646 23.9700 6340.00 6642.66 80.00
3647 23.9760 6319.00 6668.47 79.00
3648 23.9820 6437.00 6697.71 80.00
3649 23.9880 6396.00 6731.94 80.00
3650 23.9940 6536.00 6769.86 81.00
3651 24.0000 6476.00 6814.44 80.00
3652 24.0060 6551.00 6864.95 81.00
3653 24.0120 6637.00 6924.28 81.00
3654 24.0180 6736.00 6996.37 82.00
3655 24.0240 6874.00 7083.74 83.00
3656 24.0300 6982.00 7195.49 84.00
3657 24.0360 6902.00 7340.47 83.00
3658 24.0420 7101.00 7535.99 84.00
3659 24.0480 7341.00 7806.03 86.00
3660 24.0540 7707.00 8179.44 88.00
3661 24.0600 8066.00 8696.56 90.00
3662 24.0660 8715.00 9399.66 93.00
3663 24.0720 9372.00 10334.70 97.00
3664 24.0780 10833.00 11539.70 104.00
3665 24.0840 12322.00 13034.50 111.00
3666 24.0900 14539.00 14812.80 121.00
3667 24.0960 17294.00 16827.80 132.00
3668 24.1020 20576.00 18976.30 143.00
3669 24.1080 24527.00 21096.40 157.00
3670 24.1140 27117.00 22953.00 165.00
3671 24.1200 28901.00 24274.60 170.00
3672 24.1260 28549.00 24823.90 169.00
3673 24.1320 27064.00 24490.70 165.00
3674 24.1380 24406.00 23348.20 156.00
3675 24.1440 21733.00 21610.70 147.00
3676 24.1500 19417.00 19548.00 139.00
3677 24.1560 17060.00 17407.40 131.00
3678 24.1620 14897.00 15416.80 122.00
3679 24.1680 13137.00 13596.80 115.00
3680 24.1740 11752.00 12051.90 108.00
3681 24.1800 10589.00 10799.50 103.00
3682 24.1860 9410.00 9825.70 97.00
3683 24.1920 8971.00 9094.12 95.00
3684 24.1980 8481.00 8560.75 92.00
3685 24.2040 8085.00 8185.09 90.00
3686 24.2100 7923.00 7924.55 89.00
3687 24.2160 7688.00 7749.00 88.00
3688 24.2220 7333.00 7629.94 86.00
3689 24.2280 7425.00 7557.74 86.00
3690 24.2340 7333.00 7518.15 86.00
3691 24.2400 7675.00 7503.12 88.00
3692 24.2460 7457.00 7510.59 86.00
3693 24.2520 7389.00 7536.12 86.00
3694 24.2580 7221.00 7579.09 85.00
3695 24.2640 7339.00 7639.19 86.00
3696 24.2700 7187.00 7713.03 85.00
3697 24.2760 7309.00 7800.09 85.00
3698 24.2820 7297.00 7900.35 85.00
3699 24.2880 7488.00 8012.95 87.00
3700 24.2940 7612.00 8143.94 87.00
3701 24.3000 7811.00 8303.34 88.00
3702 24.3060 7953.00 8506.74 89.00
3703 24.3120 8305.00 8780.05 91.00
3704 24.3180 8868.00 9153.56 94.00
3705 24.3240 9261.00 9671.51 96.00
3706 24.3300 9979.00 10385.30 100.00
3707 24.3360 11316.00 11357.50 106.00
3708 24.3420 12780.00 12654.80 113.00
3709 24.3480 14910.00 14339.40 122.00
3710 24.3540 17486.00 16463.50 132.00
3711 24.3600 20134.00 19051.10 142.00
3712 24.3660 23877.00 22084.60 155.00
3713 24.3720 27802.00 25490.40 167.00
3714 24.3780 30836.00 29110.70 176.00
3715 24.3840 34447.00 32711.50 186.00
3716 24.3900 37138.00 36012.40 193.00
3717 24.3960 39590.00 38751.20 199.00
3718 24.4020 41492.00 40724.10 204.00
3719 24.4080 42171.00 41779.00 205.00
3720 24.4140 41710.00 41833.80 204.00
3721 24.4200 40552.00 40915.90 201.00
3722 24.4260 38555.00 39151.20 196.00
3723 24.4320 35559.00 36699.80 189.00
3724 24.4380 33074.00 33707.20 182.00
3725 24.4440 30409.00 30351.70 174.00
3726 24.4500 28202.00 26856.80 168.00
3727 24.4560 25212.00 23453.50 159.00
3728 24.4620 22492.00 20325.40 150.00
3729 24.4680 20293.00 17582.20 142.00
3730 24.4740 18180.00 15269.10 135.00
3731 24.4800 16391.00 13384.20 128.00
3732 24.4860 14971.00 11889.90 122.00
3733 24.4920 13646.00 10736.20 117.00
3734 24.4980 12566.00 9865.49 112.00
3735 24.5040 11794.00 9216.88 109.00
3736 24.5100 10752.00 8740.33 104.00
3737 24.5160 10010.00 8389.37 100.00
3738 24.5220 9598.00 8130.21 98.00
3739 24.5280 9171.00 7937.67 96.00
3740 24.5340 8660.00 7791.32 93.00
3741 24.5400 8170.00 7680.58 90.00
3742 24.5460 8047.00 7595.17 90.00
3743 24.5520 7963.00 7530.77 89.00
3744 24.5580 7797.00 7485.16 88.00
3745 24.5640 7530.00 7454.43 87.00
3746 24.5700 7373.00 7439.60 86.00
3747 24.5760 7404.00 7438.45 86.00
3748 24.5820 7326.00 7452.40 86.00
3749 24.5880 7201.00 7484.67 85.00
3750 24.5940 7380.00 7535.63 86.00
3751 24.6000 7433.00 7608.30 86.00
3752 24.6060 7324.00 7711.39 86.00
3753 24.6120 7458.00 7854.62 86.00
3754 24.6180 7695.00 8054.85 88.00
3755 24.6240 7884.00 8337.15 89.00
3756 24.6300 8134.00 8737.05 90.00
3757 24.6360 8647.00 9302.60 93.00
3758 24.6420 9256.00 10093.50 96.00
3759 24.6480 10095.00 11178.60 100.00
3760 24.6540 11089.00 12627.00 105.00
3761 24.6600 12451.00 14499.00 112.00
3762 24.6660 14194.00 16814.70 119.00
3763 24.6720 17053.00 19601.00 131.00
3764 24.6780 21286.00 22760.00 146.00
3765 24.6840 26827.00 26178.20 164.00
3766 24.6900 33408.00 29602.30 183.00
3767 24.6960 39275.00 32684.10 198.00
3768 24.7020 42341.00 34988.40 206.00
3769 24.7080 41439.00 36086.40 204.00
3770 24.7140 37395.00 35736.70 193.00
3771 24.7200 33159.00 34023.70 182.00
3772 24.7260 28201.00 31301.10 168.00
3773 24.7320 23606.00 28021.80 154.00
3774 24.7380 20323.00 24587.40 143.00
3775 24.7440 17686.00 21293.60 133.00
3776 24.7500 15357.00 18328.20 124.00
3777 24.7560 13583.00 15793.90 117.00
3778 24.7620 12165.00 13722.90 110.00
3779 24.7680 11123.00 12093.20 105.00
3780 24.7740 10240.00 10849.40 101.00
3781 24.7800 9617.00 9921.68 98.00
3782 24.7860 9065.00 9237.21 95.00
3783 24.7920 8736.00 8734.73 93.00
3784 24.7980 8338.00 8368.30 91.00
3785 24.8040 7997.00 8105.99 89.00
3786 24.8100 8015.00 7919.79 90.00
3787 24.8160 8007.00 7793.36 89.00
3788 24.8220 8046.00 7711.99 90.00
3789 24.8280 8125.00 7661.96 90.00
3790 24.8340 8090.00 7627.52 90.00
3791 24.8400 7935.00 7596.00 89.00
3792 24.8460 7775.00 7550.92 88.00
3793 24.8520 7593.00 7480.57 87.00
3794 24.8580 7311.00 7380.14 86.00
3795 24.8640 7012.00 7262.16 84.00
3796 24.8700 6715.00 7118.97 82.00
3797 24.8760 6612.00 6970.41 81.00
3798 24.8820 6416.00 6825.81 80.00
3799 24.8880 6142.00 6696.17 78.00
3800 24.8940 5987.00 6576.72 77.00
3801 24.9000 5960.00 6473.38 77.00
3802 24.9060 6042.00 6386.19 78.00
3803 24.9120 5999.00 6313.92 77.00
3804 24.9180 5897.00 6254.69 77.00
3805 24.9240 5954.00 6206.21 77.00
3806 24.9300 5938.00 6166.28 77.00
3807 24.9360 5920.00 6132.98 77.00
3808 24.9420 5881.00 6084.42 77.00
3809 24.9480 5864.00 6059.29 77.00
3810 24.9540 5886.00 6037.99 77.00
3811 24.9600 5902.00 5989.30 77.00
3812 24.9660 5878.00 5972.54 77.00
3813 24.9720 5867.00 5957.18 77.00
3814 24.9780 5850.00 5942.99 76.00
3815 24.9840 5819.00 5909.75 76.00
3816 24.9900 5791.00 5897.91 76.00
3817 24.9960 5768.00 5886.87 76.00
3818 25.0020 5789.00 5876.53 76.00
3819 25.0080 5904.00 5865.85 77.00
3820 25.0140 5877.00 5856.76 77.00
3821 25.0200 5846.00 5848.21 76.00
3822 25.0260 5895.00 5840.18 77.00
3823 25.0320 5802.00 5832.60 76.00
3824 25.0380 5663.00 5825.47 75.00
3825 25.0440 5619.00 5818.74 75.00
3826 25.0500 5572.00 5812.39 75.00
3827 25.0560 5743.00 5806.41 76.00
3828 25.0620 5786.00 5799.76 76.00
3829 25.0680 5696.00 5794.45 75.00
3830 25.0740 5773.00 5789.44 76.00
3831 25.0800 5746.00 5784.73 76.00
3832 25.0860 5690.00 5780.32 75.00
3833 25.0920 5763.00 5776.19 76.00
3834 25.0980 5643.00 5772.33 75.00
3835 25.1040 5566.00 5768.74 75.00
3836 25.1100 5600.00 5765.42 75.00
3837 25.1160 5562.00 5762.36 75.00
3838 25.1220 5547.00 5758.57 74.00
3839 25.1280 5517.00 5756.05 74.00
3840 25.1340 5518.00 5753.79 74.00
3841 25.1400 5564.00 5751.82 75.00
3842 25.1460 5568.00 5750.13 75.00
3843 25.1520 5590.00 5748.73 75.00
3844 25.1580 5580.00 5749.46 75.00
3845 25.1640 5504.00 5748.72 74.00
3846 25.1700 5502.00 5748.33 74.00
3847 25.1760 5608.00 5747.30 75.00
3848 25.1820 5554.00 5747.65 75.00
3849 25.1880 5483.00 5748.41 74.00
3850 25.1940 5440.00 5749.61 74.00
3851 25.2000 5392.00 5751.30 73.00
3852 25.2060 5461.00 5752.52 74.00
3853 25.2120 5518.00 5755.32 74.00
3854 25.2180 5541.00 5757.77 74.00
3855 25.2240 5537.00 5761.94 74.00
3856 25.2300 5460.00 5765.93 74.00
3857 25.2360 5483.00 5771.86 74.00
3858 25.2420 5551.00 5778.57 75.00
3859 25.2480 5622.00 5787.43 75.00
3860 25.2540 5619.00 5796.42 75.00
3861 25.2600 5620.00 5808.46 75.00
3862 25.2660 5717.00 5773.29 76.00
3863 25.2720 5741.00 5792.51 76.00
3864 25.2780 5829.00 5815.35 76.00
3865 25.2840 5829.00 5845.36 76.00
3866 25.2900 5896.00 5882.54 77.00
3867 25.2960 6071.00 5931.25 78.00
3868 25.3020 6179.00 5995.47 79.00
3869 25.3080 6323.00 6073.82 80.00
3870 25.3140 6452.00 6174.74 80.00
3871 25.3200 6500.00 6292.69 81.00
3872 25.3260 6646.00 6434.58 82.00
3873 25.3320 6860.00 6598.78 83.00
3874 25.3380 6997.00 6785.55 84.00
3875 25.3440 7130.00 6992.77 84.00
3876 25.3500 7203.00 7219.23 85.00
3877 25.3560 7332.00 7460.48 86.00
3878 25.3620 7381.00 7716.44 86.00
3879 25.3680 7381.00 7986.97 86.00
3880 25.3740 7639.00 8283.74 87.00
3881 25.3800 7871.00 8623.86 89.00
3882 25.3860 8196.00 9032.95 91.00
3883 25.3920 8795.00 9527.38 94.00
3884 25.3980 9477.00 10114.30 97.00
3885 25.4040 10159.00 10779.20 101.00
3886 25.4100 11172.00 11487.80 106.00
3887 25.4160 12299.00 12180.50 111.00
3888 25.4220 13192.00 12779.50 115.00
3889 25.4280 13790.00 13202.20 117.00
3890 25.4340 14115.00 13399.00 119.00
3891 25.4400 13977.00 13359.50 118.00
3892 25.4460 13578.00 13100.00 117.00
3893 25.4520 12927.00 12650.70 114.00
3894 25.4580 12167.00 12040.50 110.00
3895 25.4640 11480.00 11314.50 107.00
3896 25.4700 10754.00 10528.30 104.00
3897 25.4760 9984.00 9742.68 100.00
3898 25.4820 9231.00 9003.93 96.00
3899 25.4880 8636.00 8344.81 93.00
3900 25.4940 8338.00 7778.42 91.00
3901 25.5000 7917.00 7309.41 89.00
3902 25.5060 7440.00 6930.67 86.00
3903 25.5120 7175.00 6634.35 85.00
3904 25.5180 6926.00 6405.55 83.00
3905 25.5240 6659.00 6233.23 82.00
3906 25.5300 6426.00 6103.06 80.00
3907 25.5360 6197.00 6006.38 79.00
3908 25.5420 6115.00 5932.41 78.00
3909 25.5480 6248.00 5876.51 79.00
3910 25.5540 6175.00 5831.74 79.00
3911 25.5600 6171.00 5796.65 79.00
3912 25.5660 6156.00 5767.85 78.00
3913 25.5720 6063.00 5742.77 78.00
3914 25.5780 6020.00 5722.36 78.00
3915 25.5840 5943.00 5703.92 77.00
3916 25.5900 5955.00 5689.01 77.00
3917 25.5960 5900.00 5675.29 77.00
3918 25.6020 5870.00 5664.59 77.00
3919 25.6080 5891.00 5654.78 77.00
3920 25.6140 5878.00 5647.85 77.00
3921 25.6200 5840.00 5641.88 76.00
3922 25.6260 5804.00 5639.11 76.00
3923 25.6320 5756.00 5638.96 76.00
3924 25.6380 5813.00 5641.09 76.00
3925 25.6440 5712.00 5648.53 76.00
3926 25.6500 5678.00 5660.65 75.00
3927 25.6560 5773.00 5681.23 76.00
3928 25.6620 5795.00 5710.36 76.00
3929 25.6680 5918.00 5752.30 77.00
3930 25.6740 6047.00 5808.22 78.00
3931 25.6800 6191.00 5878.71 79.00
3932 25.6860 6144.00 5966.36 78.00
3933 25.6920 6273.00 6068.22 79.00
3934 25.6980 6503.00 6183.38 81.00
3935 25.7040 6611.00 6304.27 81.00
3936 25.7100 6789.00 6424.23 82.00
3937 25.7160 6853.00 6541.59 83.00
3938 25.7220 6793.00 6619.13 82.00
3939 25.7280 6791.00 6665.69 82.00
3940 25.7340 6799.00 6657.68 82.00
3941 25.7400 6770.00 6610.62 82.00
3942 25.7460 6656.00 6537.06 82.00
3943 25.7520 6693.00 6452.23 82.00
3944 25.7580 6636.00 6372.66 81.00
3945 25.7640 6607.00 6307.53 81.00
3946 25.7700 6762.00 6266.63 82.00
3947 25.7760 6809.00 6252.62 83.00
3948 25.7820 6859.00 6269.50 83.00
3949 25.7880 6997.00 6315.99 84.00
3950 25.7940 7112.00 6388.89 84.00
3951 25.8000 7232.00 6486.52 85.00
3952 25.8060 7422.00 6602.34 86.00
3953 25.8120 7376.00 6734.09 86.00
3954 25.8180 7514.00 6879.52 87.00
3955 25.8240 7452.00 7041.80 86.00
3956 25.8300 7464.00 7232.56 86.00
3957 25.8360 7547.00 7460.65 87.00
3958 25.8420 7744.00 7734.94 88.00
3959 25.8480 7982.00 8052.41 89.00
3960 25.8540 8488.00 8423.63 92.00
3961 25.8600 8954.00 8782.79 95.00
3962 25.8660 9403.00 9111.33 97.00
3963 25.8720 9600.00 9364.35 98.00
3964 25.8780 9583.00 9508.72 98.00
3965 25.8840 9333.00 9483.61 97.00
3966 25.8900 8850.00 9300.76 94.00
3967 25.8960 8386.00 8989.79 92.00
3968 25.9020 7873.00 8594.99 89.00
3969 25.9080 7530.00 8162.59 87.00
3970 25.9140 7282.00 7733.69 85.00
3971 25.9200 7031.00 7334.63 84.00
3972 25.9260 6935.00 6985.35 83.00
3973 25.9320 6779.00 6694.63 82.00
3974 25.9380 6624.00 6462.61 81.00
3975 25.9440 6576.00 6293.89 81.00
3976 25.9500 6785.00 6180.00 82.00
3977 25.9560 6922.00 6116.76 83.00
3978 25.9620 6960.00 6095.19 83.00
3979 25.9680 7020.00 6110.11 84.00
3980 25.9740 6940.00 6153.12 83.00
3981 25.9800 6842.00 6215.26 83.00
3982 25.9860 7029.00 6289.67 84.00
3983 25.9920 6919.00 6364.02 83.00
3984 25.9980 6967.00 6420.15 83.00
3985 26.0040 6882.00 6463.62 83.00
3986 26.0100 6832.00 6475.43 83.00
3987 26.0160 6704.00 6453.00 82.00
3988 26.0220 6766.00 6395.79 82.00
3989 26.0280 6746.00 6307.72 82.00
3990 26.0340 6762.00 6207.97 82.00
3991 26.0400 6538.00 6103.60 81.00
3992 26.0460 6457.00 6002.01 80.00
3993 26.0520 6406.00 5907.91 80.00
3994 26.0580 6365.00 5826.78 80.00
3995 26.0640 6269.00 5758.15 79.00
3996 26.0700 6162.00 5704.11 78.00
3997 26.0760 6106.00 5661.75 78.00
3998 26.0820 5994.00 5631.59 77.00
3999 26.0880 6143.00 5610.83 78.00
4000 26.0940 6005.00 5596.70 77.00
4001 26.1000 5863.00 5589.65 77.00
4002 26.1060 5756.00 5586.37 76.00
4003 26.1120 5712.00 5587.91 76.00
4004 26.1180 5789.00 5592.59 76.00
4005 26.1240 5741.00 5600.85 76.00
4006 26.1300 5774.00 5609.75 76.00
4007 26.1360 5647.00 5621.05 75.00
4008 26.1420 5773.00 5633.80 76.00
4009 26.1480 5775.00 5650.13 76.00
4010 26.1540 5968.00 5693.97 77.00
4011 26.1600 6191.00 5716.78 79.00
4012 26.1660 6229.00 5761.22 79.00
4013 26.1720 6170.00 5791.29 79.00
4014 26.1780 6303.00 5827.55 79.00
4015 26.1840 6321.00 5869.42 80.00
4016 26.1900 6332.00 5930.33 80.00
4017 26.1960 6264.00 5992.86 79.00
4018 26.2020 6471.00 6072.88 80.00
4019 26.2080 6657.00 6187.14 82.00
4020 26.2140 6813.00 6323.32 83.00
4021 26.2200 7126.00 6505.06 84.00
4022 26.2260 7433.00 6748.09 86.00
4023 26.2320 7938.00 7071.58 89.00
4024 26.2380 8442.00 7495.62 92.00
4025 26.2440 9394.00 8042.83 97.00
4026 26.2500 10192.00 8728.94 101.00
4027 26.2560 11191.00 9565.94 106.00
4028 26.2620 12206.00 10549.70 110.00
4029 26.2680 13439.00 11664.40 116.00
4030 26.2740 14528.00 12866.90 121.00
4031 26.2800 15706.00 14091.70 125.00
4032 26.2860 16396.00 15240.40 128.00
4033 26.2920 16779.00 16192.70 130.00
4034 26.2980 16909.00 16829.90 130.00
4035 26.3040 16742.00 17062.30 129.00
4036 26.3100 16387.00 16869.50 128.00
4037 26.3160 15662.00 16287.10 125.00
4038 26.3220 15288.00 15409.30 124.00
4039 26.3280 14344.00 14353.90 120.00
4040 26.3340 13658.00 13241.40 117.00
4041 26.3400 12953.00 12170.60 114.00
4042 26.3460 12501.00 11213.80 112.00
4043 26.3520 12038.00 10423.30 110.00
4044 26.3580 11906.00 9829.38 109.00
4045 26.3640 11509.00 9455.48 107.00
4046 26.3700 11200.00 9315.00 106.00
4047 26.3760 11550.00 9423.00 107.00
4048 26.3820 11619.00 9791.22 108.00
4049 26.3880 12261.00 10435.80 111.00
4050 26.3940 13072.00 11367.10 114.00
4051 26.4000 14568.00 12590.90 121.00
4052 26.4060 16412.00 14101.50 128.00
4053 26.4120 18786.00 15866.80 137.00
4054 26.4180 21383.00 17828.10 146.00
4055 26.4240 23951.00 19883.10 155.00
4056 26.4300 26297.00 21884.80 162.00
4057 26.4360 27995.00 23644.80 167.00
4058 26.4420 29134.00 24972.80 171.00
4059 26.4480 28702.00 25727.10 169.00
4060 26.4540 27950.00 25840.70 167.00
4061 26.4600 27071.00 25328.80 165.00
4062 26.4660 24943.00 24235.70 158.00
4063 26.4720 22797.00 22669.30 151.00
4064 26.4780 21170.00 20772.10 145.00
4065 26.4840 18915.00 18720.20 138.00
4066 26.4900 17642.00 16671.50 133.00
4067 26.4960 16111.00 14750.20 127.00
4068 26.5020 14614.00 13032.10 121.00
4069 26.5080 12883.00 11555.70 114.00
4070 26.5140 11671.00 10330.50 108.00
4071 26.5200 10742.00 9343.01 104.00
4072 26.5260 10006.00 8570.41 100.00
4073 26.5320 9365.00 7978.39 97.00
4074 26.5380 8704.00 7535.55 93.00
4075 26.5440 7963.00 7208.10 89.00
4076 26.5500 7932.00 6970.36 89.00
4077 26.5560 7470.00 6798.59 86.00
4078 26.5620 7055.00 6674.40 84.00
4079 26.5680 6827.00 6586.98 83.00
4080 26.5740 6939.00 6525.36 83.00
4081 26.5800 6702.00 6485.47 82.00
4082 26.5860 6682.00 6460.99 82.00
4083 26.5920 6592.00 6454.26 81.00
4084 26.5980 6391.00 6457.41 80.00
4085 26.6040 6515.00 6475.81 81.00
4086 26.6100 6456.00 6506.81 80.00
4087 26.6160 6601.00 6553.63 81.00
4088 26.6220 6454.00 6617.47 80.00
4089 26.6280 6622.00 6700.86 81.00
4090 26.6340 6766.00 6811.16 82.00
4091 26.6400 7060.00 6954.33 84.00
4092 26.6460 6922.00 7144.06 83.00
4093 26.6520 7275.00 7394.72 85.00
4094 26.6580 7510.00 7730.37 87.00
4095 26.6640 7952.00 8177.93 89.00
4096 26.6700 8490.00 8775.78 92.00
4097 26.6760 9076.00 9565.31 95.00
4098 26.6820 9930.00 10591.80 100.00
4099 26.6880 10891.00 11904.40 104.00
4100 26.6940 12489.00 13540.80 112.00
4101 26.7000 14610.00 15528.50 121.00
4102 26.7060 17120.00 17866.90 131.00
4103 26.7120 20296.00 20529.40 142.00
4104 26.7180 24202.00 23445.70 156.00
4105 26.7240 28896.00 26501.70 170.00
4106 26.7300 34544.00 29528.50 186.00
4107 26.7360 39382.00 32304.60 198.00
4108 26.7420 42229.00 34579.50 205.00
4109 26.7480 42711.00 36132.70 207.00
4110 26.7540 41511.00 36855.80 204.00
4111 26.7600 39011.00 36776.00 198.00
4112 26.7660 36372.00 36038.20 191.00
4113 26.7720 33353.00 34825.00 183.00
4114 26.7780 29856.00 33292.10 173.00
4115 26.7840 27694.00 31529.50 166.00
4116 26.7900 24993.00 29573.50 158.00
4117 26.7960 22660.00 27446.60 151.00
4118 26.8020 20809.00 25176.20 144.00
4119 26.8080 19338.00 22824.80 139.00
4120 26.8140 17583.00 20475.20 133.00
4121 26.8200 15949.00 18216.50 126.00
4122 26.8260 14735.00 16121.30 121.00
4123 26.8320 13748.00 14241.30 117.00
4124 26.8380 12602.00 12601.60 112.00
4125 26.8440 11818.00 11205.80 109.00
4126 26.8500 10821.00 10053.40 104.00
4127 26.8560 9952.00 9109.22 100.00
4128 26.8620 9366.00 8361.12 97.00
4129 26.8680 8950.00 7766.03 95.00
4130 26.8740 8416.00 7302.73 92.00
4131 26.8800 7991.00 6941.93 89.00
4132 26.8860 7637.00 6650.79 87.00
4133 26.8920 7250.00 6430.87 85.00
4134 26.8980 6976.00 6254.50 84.00
4135 26.9040 6623.00 6103.86 81.00
4136 26.9100 6568.00 5984.61 81.00
4137 26.9160 6353.00 5884.37 80.00
4138 26.9220 6205.00 5796.80 79.00
4139 26.9280 5929.00 5720.90 77.00
4140 26.9340 5892.00 5652.52 77.00
4141 26.9400 5698.00 5592.18 75.00
4142 26.9460 5779.00 5536.80 76.00
4143 26.9520 5621.00 5487.49 75.00
4144 26.9580 5650.00 5442.62 75.00
4145 26.9640 5587.00 5400.68 75.00
4146 26.9700 5537.00 5363.25 74.00
4147 26.9760 5389.00 5327.99 73.00
4148 26.9820 5462.00 5296.64 74.00
4149 26.9880 5329.00 5267.00 73.00
4150 26.9940 5393.00 5241.95 73.00
4151 27.0000 5307.00 5219.39 73.00
4152 27.0060 5266.00 5199.29 73.00
4153 27.0120 5263.00 5181.66 73.00
4154 27.0180 5262.00 5165.48 73.00
4155 27.0240 5101.00 5152.74 71.00
4156 27.0300 5070.00 5142.36 71.00
4157 27.0360 5028.00 5114.03 71.00
4158 27.0420 4970.00 5108.20 70.00
4159 27.0480 4890.00 5103.87 70.00
4160 27.0540 5116.00 5100.46 72.00
4161 27.0600 5222.00 5081.46 72.00
4162 27.0660 5105.00 5077.68 71.00
4163 27.0720 5075.00 5071.23 71.00
4164 27.0780 5081.00 5066.33 71.00
4165 27.0840 5268.00 5056.93 73.00
4166 27.0900 5142.00 5046.57 72.00
4167 27.0960 5004.00 5039.12 71.00
4168 27.1020 4995.00 5031.42 71.00
4169 27.1080 4934.00 5026.92 70.00
4170 27.1140 4875.00 5027.18 70.00
4171 27.1200 5072.00 5034.10 71.00
4172 27.1260 5130.00 5049.41 72.00
4173 27.1320 5106.00 5073.85 71.00
4174 27.1380 5098.00 5110.97 71.00
4175 27.1440 5149.00 5160.90 72.00
4176 27.1500 5202.00 5224.10 72.00
4177 27.1560 5308.00 5299.92 73.00
4178 27.1620 5339.00 5386.40 73.00
4179 27.1680 5571.00 5479.79 75.00
4180 27.1740 5819.00 5574.36 76.00
4181 27.1800 5869.00 5661.86 77.00
4182 27.1860 5960.00 5731.92 77.00
4183 27.1920 5985.00 5772.62 77.00
4184 27.1980 6025.00 5777.96 78.00
4185 27.2040 5900.00 5745.31 77.00
4186 27.2100 5817.00 5680.30 76.00
4187 27.2160 5839.00 5593.05 76.00
4188 27.2220 5640.00 5494.42 75.00
4189 27.2280 5468.00 5393.64 74.00
4190 27.2340 5476.00 5297.44 74.00
4191 27.2400 5379.00 5210.24 73.00
4192 27.2460 5289.00 5134.63 73.00
4193 27.2520 5185.00 5070.64 72.00
4194 27.2580 5237.00 5020.16 72.00
4195 27.2640 5237.00 4981.19 72.00
4196 27.2700 5195.00 4952.30 72.00
4197 27.2760 5105.00 4931.88 71.00
4198 27.2820 5005.00 4918.33 71.00
4199 27.2880 4943.00 4910.27 70.00
4200 27.2940 4983.00 4906.59 71.00
4201 27.3000 4965.00 4906.45 70.00
4202 27.3060 5019.00 4909.32 71.00
4203 27.3120 4968.00 4914.91 70.00
4204 27.3180 4906.00 4921.27 70.00
4205 27.3240 4865.00 4932.25 70.00
4206 27.3300 4929.00 4945.33 70.00
4207 27.3360 5017.00 4963.12 71.00
4208 27.3420 5128.00 4960.50 72.00
4209 27.3480 5167.00 4989.72 72.00
4210 27.3540 5150.00 5009.91 72.00
4211 27.3600 5244.00 5059.86 72.00
4212 27.3660 5408.00 5126.29 74.00
4213 27.3720 5564.00 5215.54 75.00
4214 27.3780 5744.00 5335.68 76.00
4215 27.3840 5887.00 5487.28 77.00
4216 27.3900 6206.00 5700.12 79.00
4217 27.3960 6696.00 5976.55 82.00
4218 27.4020 7175.00 6315.70 85.00
4219 27.4080 7767.00 6749.12 88.00
4220 27.4140 8362.00 7281.12 91.00
4221 27.4200 9107.00 7882.28 95.00
4222 27.4260 9741.00 8551.40 99.00
4223 27.4320 10243.00 9261.99 101.00
4224 27.4380 10691.00 9973.49 103.00
4225 27.4440 10915.00 10628.50 104.00
4226 27.4500 11142.00 11159.60 106.00
4227 27.4560 11127.00 11500.30 105.00
4228 27.4620 10870.00 11603.60 104.00
4229 27.4680 10616.00 11454.90 103.00
4230 27.4740 10191.00 11076.30 101.00
4231 27.4800 9707.00 10519.80 99.00
4232 27.4860 9369.00 9851.97 97.00
4233 27.4920 8955.00 9138.61 95.00
4234 27.4980 8428.00 8433.85 92.00
4235 27.5040 8148.00 7775.82 90.00
4236 27.5100 7809.00 7188.63 88.00
4237 27.5160 7439.00 6688.91 86.00
4238 27.5220 7212.00 6270.75 85.00
4239 27.5280 6873.00 5933.94 83.00
4240 27.5340 6580.00 5669.98 81.00
4241 27.5400 6292.00 5470.47 79.00
4242 27.5460 6029.00 5318.92 78.00
4243 27.5520 5870.00 5206.90 77.00
4244 27.5580 5718.00 5125.07 76.00
4245 27.5640 5557.00 5065.89 75.00
4246 27.5700 5529.00 5023.62 74.00
4247 27.5760 5333.00 4994.29 73.00
4248 27.5820 5199.00 4975.39 72.00
4249 27.5880 5244.00 4965.70 72.00
4250 27.5940 5223.00 4965.08 72.00
4251 27.6000 5240.00 4975.44 72.00
4252 27.6060 5231.00 4997.60 72.00
4253 27.6120 5133.00 5034.32 72.00
4254 27.6180 5110.00 5089.19 71.00
4255 27.6240 5197.00 5166.41 72.00
4256 27.6300 5287.00 5270.53 73.00
4257 27.6360 5404.00 5406.03 74.00
4258 27.6420 5604.00 5576.55 75.00
4259 27.6480 5773.00 5784.24 76.00
4260 27.6540 5948.00 6028.48 77.00
4261 27.6600 6217.00 6305.43 79.00
4262 27.6660 6520.00 6606.20 81.00
4263 27.6720 6874.00 6916.34 83.00
4264 27.6780 7163.00 7214.52 85.00
4265 27.6840 7349.00 7476.73 86.00
4266 27.6900 7536.00 7678.25 87.00
4267 27.6960 7628.00 7800.55 87.00
4268 27.7020 7596.00 7832.79 87.00
4269 27.7080 7393.00 7771.21 86.00
4270 27.7140 7156.00 7619.72 85.00
4271 27.7200 6951.00 7391.72 83.00
4272 27.7260 6653.00 7108.99 82.00
4273 27.7320 6479.00 6797.66 80.00
4274 27.7380 6301.00 6481.73 79.00
4275 27.7440 5982.00 6180.10 77.00
4276 27.7500 5790.00 5905.24 76.00
4277 27.7560 5645.00 5664.41 75.00
4278 27.7620 5455.00 5460.40 74.00
4279 27.7680 5364.00 5292.59 73.00
4280 27.7740 5196.00 5158.27 72.00
4281 27.7800 5045.00 5053.34 71.00
4282 27.7860 5003.00 4973.11 71.00
4283 27.7920 4914.00 4912.81 70.00
4284 27.7980 4858.00 4868.15 70.00
4285 27.8040 4834.00 4833.88 70.00
4286 27.8100 4810.00 4810.19 69.00
4287 27.8160 4840.00 4793.17 70.00
4288 27.8220 4769.00 4781.16 69.00
4289 27.8280 4687.00 4772.99 68.00
4290 27.8340 4716.00 4768.85 69.00
4291 27.8400 4741.00 4766.24 69.00
4292 27.8460 4712.00 4764.81 69.00
4293 27.8520 4671.00 4764.42 68.00
4294 27.8580 4719.00 4766.97 69.00
4295 27.8640 4794.00 4771.45 69.00
4296 27.8700 4814.00 4777.93 69.00
4297 27.8760 4859.00 4785.51 70.00
4298 27.8820 4845.00 4796.38 70.00
4299 27.8880 4828.00 4809.80 69.00
4300 27.8940 4863.00 4826.13 70.00
4301 27.9000 4890.00 4844.93 70.00
4302 27.9060 4976.00 4869.02 71.00
4303 27.9120 5143.00 4898.61 72.00
4304 27.9180 5197.00 4935.49 72.00
4305 27.9240 5089.00 4981.38 71.00
4306 27.9300 5180.00 5042.13 72.00
4307 27.9360 5346.00 5122.22 73.00
4308 27.9420 5453.00 5228.92 74.00
4309 27.9480 5547.00 5370.80 74.00
4310 27.9540 5685.00 5561.39 75.00
4311 27.9600 5833.00 5812.85 76.00
4312 27.9660 6119.00 6139.27 78.00
4313 27.9720 6370.00 6552.64 80.00
4314 27.9780 6753.00 7065.11 82.00
4315 27.9840 7370.00 7680.14 86.00
4316 27.9900 8289.00 8394.62 91.00
4317 27.9960 9639.00 9193.07 98.00
4318 28.0020 11300.00 10049.50 106.00
4319 28.0080 13173.00 10918.20 115.00
4320 28.0140 15033.00 11736.20 123.00
4321 28.0200 16161.00 12420.40 127.00
4322 28.0260 15986.00 12884.30 126.00
4323 28.0320 15156.00 13055.10 123.00
4324 28.0380 14063.00 12906.70 119.00
4325 28.0440 12800.00 12470.90 113.00
4326 28.0500 11647.00 11827.50 108.00
4327 28.0560 10579.00 11068.10 103.00
4328 28.0620 9636.00 10278.50 98.00
4329 28.0680 9076.00 9519.23 95.00
4330 28.0740 8363.00 8854.47 91.00
4331 28.0800 7706.00 8304.36 88.00
4332 28.0860 7514.00 7897.09 87.00
4333 28.0920 7484.00 7634.02 87.00
4334 28.0980 7317.00 7509.84 86.00
4335 28.1040 7607.00 7511.04 87.00
4336 28.1100 7880.00 7615.96 89.00
4337 28.1160 8190.00 7794.77 90.00
4338 28.1220 8650.00 8014.19 93.00
4339 28.1280 9149.00 8232.73 96.00
4340 28.1340 9504.00 8409.23 97.00
4341 28.1400 9496.00 8510.25 97.00
4342 28.1460 9417.00 8522.61 97.00
4343 28.1520 9338.00 8427.81 97.00
4344 28.1580 9035.00 8240.05 95.00
4345 28.1640 8460.00 7971.71 92.00
4346 28.1700 8280.00 7643.44 91.00
4347 28.1760 7784.00 7277.96 88.00
4348 28.1820 7332.00 6900.48 86.00
4349 28.1880 6912.00 6536.81 83.00
4350 28.1940 6648.00 6195.75 82.00
4351 28.2000 6355.00 5891.32 80.00
4352 28.2060 6044.00 5628.48 78.00
4353 28.2120 5729.00 5407.95 76.00
4354 28.2180 5646.00 5226.84 75.00
4355 28.2240 5409.00 5083.35 74.00
4356 28.2300 5350.00 4972.45 73.00
4357 28.2360 5301.00 4887.93 73.00
4358 28.2420 5135.00 4824.58 72.00
4359 28.2480 4936.00 4780.05 70.00
4360 28.2540 5016.00 4749.54 71.00
4361 28.2600 4977.00 4729.85 71.00
4362 28.2660 4987.00 4717.16 71.00
4363 28.2720 4935.00 4712.67 70.00
4364 28.2780 4965.00 4709.59 70.00
4365 28.2840 4949.00 4707.17 70.00
4366 28.2900 4786.00 4702.09 69.00
4367 28.2960 4870.00 4694.37 70.00
4368 28.3020 4712.00 4681.79 69.00
4369 28.3080 4700.00 4661.50 69.00
4370 28.3140 4686.00 4638.42 68.00
4371 28.3200 4660.00 4613.32 68.00
4372 28.3260 4590.00 4586.58 68.00
4373 28.3320 4616.00 4556.86 68.00
4374 28.3380 4577.00 4530.13 68.00
4375 28.3440 4561.00 4506.05 68.00
4376 28.3500 4681.00 4484.51 68.00
4377 28.3560 4565.00 4465.50 68.00
4378 28.3620 4487.00 4448.03 67.00
4379 28.3680 4453.00 4433.96 67.00
4380 28.3740 4608.00 4422.04 68.00
4381 28.3800 4607.00 4411.98 68.00
4382 28.3860 4663.00 4402.47 68.00
4383 28.3920 4495.00 4395.24 67.00
4384 28.3980 4568.00 4389.03 68.00
4385 28.4040 4579.00 4383.64 68.00
4386 28.4100 4545.00 4377.90 67.00
4387 28.4160 4531.00 4373.71 67.00
4388 28.4220 4526.00 4370.66 67.00
4389 28.4280 4542.00 4367.31 67.00
4390 28.4340 4501.00 4363.30 67.00
4391 28.4400 4575.00 4360.60 68.00
4392 28.4460 4659.00 4358.35 68.00
4393 28.4520 4624.00 4356.23 68.00
4394 28.4580 4511.00 4353.39 67.00
4395 28.4640 4627.00 4351.81 68.00
4396 28.4700 4566.00 4350.50 68.00
4397 28.4760 4530.00 4349.46 67.00
4398 28.4820 4547.00 4350.70 67.00
4399 28.4880 4681.00 4358.23 68.00
4400 28.4940 4554.00 4365.57 67.00
4401 28.5000 4425.00 4373.70 67.00
4402 28.5060 4552.00 4381.16 67.00
4403 28.5120 4527.00 4389.95 67.00
4404 28.5180 4572.00 4398.10 68.00
4405 28.5240 4724.00 4407.63 69.00
4406 28.5300 4599.00 4416.57 68.00
4407 28.5360 4551.00 4427.27 67.00
4408 28.5420 4528.00 4437.14 67.00
4409 28.5480 4534.00 4448.54 67.00
4410 28.5540 4508.00 4459.51 67.00
4411 28.5600 4624.00 4472.11 68.00
4412 28.5660 4610.00 4484.43 68.00
4413 28.5720 4565.00 4498.54 68.00
4414 28.5780 4649.00 4512.56 68.00
4415 28.5840 4543.00 4528.65 67.00
4416 28.5900 4550.00 4544.97 67.00
4417 28.5960 4626.00 4563.80 68.00
4418 28.6020 4611.00 4584.51 68.00
4419 28.6080 4569.00 4606.57 68.00
4420 28.6140 4660.00 4632.69 68.00
4421 28.6200 4795.00 4661.78 69.00
4422 28.6260 4629.00 4697.05 68.00
4423 28.6320 4735.00 4738.06 69.00
4424 28.6380 4718.00 4788.70 69.00
4425 28.6440 4615.00 4856.08 68.00
4426 28.6500 4868.00 4931.02 70.00
4427 28.6560 4964.00 5012.41 70.00
4428 28.6620 4947.00 5122.18 70.00
4429 28.6680 5113.00 5251.83 72.00
4430 28.6740 5301.00 5405.58 73.00
4431 28.6800 5422.00 5582.93 74.00
4432 28.6860 5696.00 5786.88 75.00
4433 28.6920 5825.00 6015.02 76.00
4434 28.6980 6103.00 6268.52 78.00
4435 28.7040 6489.00 6542.88 81.00
4436 28.7100 6634.00 6837.25 81.00
4437 28.7160 7001.00 7148.02 84.00
4438 28.7220 7147.00 7478.90 85.00
4439 28.7280 7649.00 7834.90 87.00
4440 28.7340 7881.00 8223.77 89.00
4441 28.7400 8430.00 8655.81 92.00
4442 28.7460 8993.00 9131.12 95.00
4443 28.7520 9851.00 9643.94 99.00
4444 28.7580 10658.00 10171.50 103.00
4445 28.7640 11167.00 10676.70 106.00
4446 28.7700 12144.00 11120.10 110.00
4447 28.7760 12138.00 11452.00 110.00
4448 28.7820 12203.00 11637.60 110.00
4449 28.7880 11644.00 11670.70 108.00
4450 28.7940 11277.00 11575.30 106.00
4451 28.8000 11450.00 11383.80 107.00
4452 28.8060 11537.00 11122.30 107.00
4453 28.8120 10921.00 10808.60 105.00
4454 28.8180 10687.00 10444.40 103.00
4455 28.8240 10332.00 10033.20 102.00
4456 28.8300 10115.00 9581.42 101.00
4457 28.8360 9603.00 9110.61 98.00
4458 28.8420 9308.00 8645.22 96.00
4459 28.8480 9284.00 8208.05 96.00
4460 28.8540 8973.00 7818.00 95.00
4461 28.8600 8601.00 7481.82 93.00
4462 28.8660 8598.00 7203.72 93.00
4463 28.8720 8082.00 6978.99 90.00
4464 28.8780 7816.00 6804.98 88.00
4465 28.8840 7680.00 6673.32 88.00
4466 28.8900 7330.00 6577.75 86.00
4467 28.8960 7128.00 6505.61 84.00
4468 28.9020 6810.00 6445.94 83.00
4469 28.9080 6599.00 6383.13 81.00
4470 28.9140 6466.00 6308.09 80.00
4471 28.9200 6201.00 6213.37 79.00
4472 28.9260 6098.00 6102.02 78.00
4473 28.9320 5943.00 5978.51 77.00
4474 28.9380 5644.00 5851.78 75.00
4475 28.9440 5690.00 5726.89 75.00
4476 28.9500 5620.00 5610.70 75.00
4477 28.9560 5531.00 5504.44 74.00
4478 28.9620 5195.00 5412.04 72.00
4479 28.9680 5170.00 5333.82 72.00
4480 28.9740 5219.00 5268.81 72.00
4481 28.9800 5213.00 5218.79 72.00
4482 28.9860 5033.00 5181.49 71.00
4483 28.9920 5136.00 5158.37 72.00
4484 28.9980 5115.00 5146.73 72.00
4485 29.0040 5011.00 5147.80 71.00
4486 29.0100 4904.00 5158.86 70.00
4487 29.0160 4886.00 5181.95 70.00
4488 29.0220 5030.00 5211.45 71.00
4489 29.0280 5024.00 5248.95 71.00
4490 29.0340 5009.00 5292.76 71.00
4491 29.0400 5056.00 5341.63 71.00
4492 29.0460 5211.00 5391.47 72.00
4493 29.0520 5138.00 5437.51 72.00
4494 29.0580 5270.00 5476.61 73.00
4495 29.0640 5361.00 5505.21 73.00
4496 29.0700 5423.00 5521.60 74.00
4497 29.0760 5415.00 5527.42 74.00
4498 29.0820 5322.00 5523.39 73.00
4499 29.0880 5417.00 5514.25 74.00
4500 29.0940 5400.00 5503.84 73.00
4501 29.1000 5264.00 5495.54 73.00
4502 29.1060 5352.00 5492.91 73.00
4503 29.1120 5449.00 5495.36 74.00
4504 29.1180 5491.00 5504.21 74.00
4505 29.1240 5544.00 5517.88 74.00
4506 29.1300 5346.00 5534.25 73.00
4507 29.1360 5427.00 5551.53 74.00
4508 29.1420 5605.00 5565.40 75.00
4509 29.1480 5435.00 5575.92 74.00
4510 29.1540 5415.00 5583.68 74.00
4511 29.1600 5600.00 5591.09 75.00
4512 29.1660 5499.00 5598.98 74.00
4513 29.1720 5422.00 5607.59 74.00
4514 29.1780 5383.00 5619.26 73.00
4515 29.1840 5439.00 5636.04 74.00
4516 29.1900 5610.00 5661.53 75.00
4517 29.1960 5479.00 5701.20 74.00
4518 29.2020 5575.00 5763.45 75.00
4519 29.2080 5738.00 5855.05 76.00
4520 29.2140 5882.00 5986.83 77.00
4521 29.2200 6119.00 6169.27 78.00
4522 29.2260 6410.00 6412.84 80.00
4523 29.2320 6922.00 6728.13 83.00
4524 29.2380 7213.00 7120.50 85.00
4525 29.2440 7633.00 7594.27 87.00
4526 29.2500 8382.00 8148.05 92.00
4527 29.2560 9081.00 8772.65 95.00
4528 29.2620 9807.00 9449.26 99.00
4529 29.2680 10376.00 10146.90 102.00
4530 29.2740 11273.00 10823.40 106.00
4531 29.2800 11464.00 11423.70 107.00
4532 29.2860 11644.00 11886.40 108.00
4533 29.2920 11578.00 12156.40 108.00
4534 29.2980 11663.00 12196.50 108.00
4535 29.3040 11178.00 12002.80 106.00
4536 29.3100 11003.00 11603.00 105.00
4537 29.3160 10586.00 11046.80 103.00
4538 29.3220 9926.00 10395.60 100.00
4539 29.3280 9513.00 9704.53 98.00
4540 29.3340 9052.00 9021.04 95.00
4541 29.3400 8436.00 8378.92 92.00
4542 29.3460 8277.00 7799.95 91.00
4543 29.3520 7724.00 7294.86 88.00
4544 29.3580 7053.00 6870.13 84.00
4545 29.3640 7018.00 6519.01 84.00
4546 29.3700 6708.00 6238.13 82.00
4547 29.3760 6398.00 6023.90 80.00
4548 29.3820 6288.00 5852.22 79.00
4549 29.3880 5955.00 5721.07 77.00
4550 29.3940 5727.00 5619.68 76.00
4551 29.4000 5606.00 5541.71 75.00
4552 29.4060 5533.00 5481.32 74.00
4553 29.4120 5331.00 5437.35 73.00
4554 29.4180 5337.00 5391.90 73.00
4555 29.4240 5144.00 5361.86 72.00
4556 29.4300 5191.00 5337.40 72.00
4557 29.4360 5184.00 5317.33 72.00
4558 29.4420 5133.00 5300.80 72.00
4559 29.4480 5053.00 5288.16 71.00
4560 29.4540 5071.00 5276.96 71.00
4561 29.4600 4969.00 5267.86 70.00
4562 29.4660 5087.00 5255.81 71.00
4563 29.4720 4987.00 5250.22 71.00
4564 29.4780 4950.00 5247.08 70.00
4565 29.4840 5013.00 5244.27 71.00
4566 29.4900 4990.00 5242.73 71.00
4567 29.4960 4892.00 5237.42 70.00
4568 29.5020 4873.00 5233.38 70.00
4569 29.5080 4932.00 5230.70 70.00
4570 29.5140 4898.00 5229.94 70.00
4571 29.5200 4966.00 5230.44 70.00
4572 29.5260 4932.00 5232.91 70.00
4573 29.5320 4930.00 5241.94 70.00
4574 29.5380 5034.00 5249.58 71.00
4575 29.5440 5099.00 5260.51 71.00
4576 29.5500 5069.00 5276.28 71.00
4577 29.5560 5060.00 5293.78 71.00
4578 29.5620 5009.00 5317.99 71.00
4579 29.5680 5023.00 5347.64 71.00
4580 29.5740 5101.00 5385.20 71.00
4581 29.5800 5195.00 5426.55 72.00
4582 29.5860 5260.00 5474.82 73.00
4583 29.5920 5456.00 5527.84 74.00
4584 29.5980 5531.00 5586.17 74.00
4585 29.6040 5513.00 5654.80 74.00
4586 29.6100 5609.00 5720.52 75.00
4587 29.6160 5755.00 5786.87 76.00
4588 29.6220 5823.00 5852.73 76.00
4589 29.6280 5760.00 5914.52 76.00
4590 29.6340 5839.00 5973.26 76.00
4591 29.6400 5875.00 6030.10 77.00
4592 29.6460 5879.00 6086.42 77.00
4593 29.6520 5962.00 6142.25 77.00
4594 29.6580 6146.00 6196.63 78.00
4595 29.6640 6268.00 6243.59 79.00
4596 29.6700 6286.00 6279.03 79.00
4597 29.6760 6272.00 6298.07 79.00
4598 29.6820 6129.00 6297.12 78.00
4599 29.6880 6049.00 6274.18 78.00
4600 29.6940 6026.00 6229.99 78.00
4601 29.7000 5903.00 6164.65 77.00
4602 29.7060 5895.00 6083.90 77.00
4603 29.7120 5825.00 5993.65 76.00
4604 29.7180 5847.00 5902.53 76.00
4605 29.7240 5810.00 5816.29 76.00
4606 29.7300 5650.00 5739.88 75.00
4607 29.7360 5666.00 5677.57 75.00
4608 29.7420 5690.00 5629.69 75.00
4609 29.7480 5727.00 5597.92 76.00
4610 29.7540 5740.00 5581.98 76.00
4611 29.7600 5690.00 5584.51 75.00
4612 29.7660 5940.00 5595.86 77.00
4613 29.7720 6043.00 5623.27 78.00
4614 29.7780 6008.00 5651.68 78.00
4615 29.7840 6069.00 5703.02 78.00
4616 29.7900 6135.00 5736.32 78.00
4617 29.7960 6093.00 5767.69 78.00
4618 29.8020 5986.00 5797.20 77.00
4619 29.8080 5899.00 5812.15 77.00
4620 29.8140 5801.00 5811.40 76.00
4621 29.8200 5727.00 5794.27 76.00
4622 29.8260 5612.00 5761.99 75.00
4623 29.8320 5500.00 5717.87 74.00
4624 29.8380 5416.00 5675.38 74.00
4625 29.8440 5366.00 5623.66 73.00
4626 29.8500 5400.00 5572.31 73.00
4627 29.8560 5347.00 5524.97 73.00
4628 29.8620 5292.00 5483.40 73.00
4629 29.8680 5254.00 5448.62 72.00
4630 29.8740 5286.00 5421.07 73.00
4631 29.8800 5229.00 5402.05 72.00
4632 29.8860 5148.00 5388.68 72.00
4633 29.8920 5224.00 5381.78 72.00
4634 29.8980 5324.00 5380.85 73.00
4635 29.9040 5325.00 5386.73 73.00
4636 29.9100 5203.00 5396.80 72.00
4637 29.9160 5156.00 5421.30 72.00
4638 29.9220 5217.00 5445.14 72.00
4639 29.9280 5314.00 5476.26 73.00
4640 29.9340 5206.00 5515.46 72.00
4641 29.9400 5130.00 5560.54 72.00
4642 29.9460 5393.00 5627.81 73.00
4643 29.9520 5566.00 5713.82 75.00
4644 29.9580 5665.00 5820.47 75.00
4645 29.9640 5820.00 5963.67 76.00
4646 29.9700 6152.00 6143.20 78.00
4647 29.9760 6457.00 6367.03 80.00
4648 29.9820 6660.00 6639.12 82.00
4649 29.9880 7005.00 6961.53 84.00
4650 29.9940 7327.00 7336.49 86.00
4651 30.0000 7755.00 7760.56 88.00
4652 30.0060 8283.00 8222.62 91.00
4653 30.0120 8883.00 8707.57 94.00
4654 30.0180 9529.00 9195.40 98.00
4655 30.0240 10007.00 9654.29 100.00
4656 30.0300 10393.00 10047.40 102.00
4657 30.0360 10694.00 10342.50 103.00
4658 30.0420 10850.00 10516.50 104.00
4659 30.0480 10785.00 10564.70 104.00
4660 30.0540 10745.00 10502.40 104.00
4661 30.0600 10684.00 10349.30 103.00
4662 30.0660 10468.00 10123.00 102.00
4663 30.0720 10227.00 9838.18 101.00
4664 30.0780 9884.00 9504.67 99.00
4665 30.0840 9520.00 9135.19 98.00
4666 30.0900 9137.00 8747.10 96.00
4667 30.0960 8816.00 8363.86 94.00
4668 30.1020 8532.00 8004.99 92.00
4669 30.1080 8351.00 7686.07 91.00
4670 30.1140 8419.00 7420.94 92.00
4671 30.1200 8254.00 7216.24 91.00
4672 30.1260 7887.00 7075.44 89.00
4673 30.1320 7663.00 7002.60 88.00
4674 30.1380 7660.00 6996.87 88.00
4675 30.1440 7623.00 7055.71 87.00
4676 30.1500 7565.00 7178.03 87.00
4677 30.1560 7750.00 7357.97 88.00
4678 30.1620 7965.00 7588.65 89.00
4679 30.1680 8146.00 7859.79 90.00
4680 30.1740 8383.00 8161.14 92.00
4681 30.1800 8663.00 8475.95 93.00
4682 30.1860 8939.00 8784.63 95.00
4683 30.1920 9281.00 9070.56 96.00
4684 30.1980 9476.00 9319.24 97.00
4685 30.2040 9438.00 9526.34 97.00
4686 30.2100 9367.00 9701.21 97.00
4687 30.2160 9455.00 9856.40 97.00
4688 30.2220 9637.00 10003.80 98.00
4689 30.2280 9574.00 10147.80 98.00
4690 30.2340 9703.00 10288.50 99.00
4691 30.2400 9965.00 10417.20 100.00
4692 30.2460 10181.00 10522.40 101.00
4693 30.2520 10313.00 10592.40 102.00
4694 30.2580 10218.00 10609.50 101.00
4695 30.2640 9942.00 10553.70 100.00
4696 30.2700 9611.00 10411.80 98.00
4697 30.2760 9411.00 10179.60 97.00
4698 30.2820 9132.00 9867.54 96.00
4699 30.2880 8594.00 9502.94 93.00
4700 30.2940 8095.00 9114.56 90.00
4701 30.3000 7762.00 8729.17 88.00
4702 30.3060 7618.00 8367.49 87.00
4703 30.3120 7399.00 8047.41 86.00
4704 30.3180 7244.00 7779.06 85.00
4705 30.3240 7146.00 7569.58 85.00
4706 30.3300 7060.00 7424.67 84.00
4707 30.3360 7133.00 7350.10 84.00
4708 30.3420 7227.00 7349.04 85.00
4709 30.3480 7261.00 7429.82 85.00
4710 30.3540 7501.00 7599.24 87.00
4711 30.3600 7806.00 7870.03 88.00
4712 30.3660 8254.00 8257.74 91.00
4713 30.3720 8771.00 8778.16 94.00
4714 30.3780 9588.00 9448.96 98.00
4715 30.3840 10658.00 10289.40 103.00
4716 30.3900 11650.00 11305.30 108.00
4717 30.3960 12811.00 12505.40 113.00
4718 30.4020 14195.00 13882.80 119.00
4719 30.4080 16060.00 15416.20 127.00
4720 30.4140 18003.00 17064.20 134.00
4721 30.4200 19949.00 18769.30 141.00
4722 30.4260 22052.00 20445.30 148.00
4723 30.4320 23792.00 21995.30 154.00
4724 30.4380 25285.00 23311.10 159.00
4725 30.4440 26434.00 24292.50 163.00
4726 30.4500 26730.00 24859.50 163.00
4727 30.4560 26177.00 24978.40 162.00
4728 30.4620 25587.00 24670.60 160.00
4729 30.4680 24490.00 24009.40 156.00
4730 30.4740 23281.00 23091.70 153.00
4731 30.4800 21756.00 22019.00 147.00
4732 30.4860 20138.00 20881.20 142.00
4733 30.4920 18623.00 19740.20 136.00
4734 30.4980 17623.00 18630.60 133.00
4735 30.5040 16433.00 17567.70 128.00
4736 30.5100 15479.00 16553.60 124.00
4737 30.5160 14836.00 15594.20 122.00
4738 30.5220 14193.00 14709.80 119.00
4739 30.5280 13783.00 13923.20 117.00
4740 30.5340 13396.00 13257.90 116.00
4741 30.5400 13135.00 12727.20 115.00
4742 30.5460 12643.00 12335.00 112.00
4743 30.5520 12387.00 12070.60 111.00
4744 30.5580 12314.00 11912.70 111.00
4745 30.5640 12299.00 11833.70 111.00
4746 30.5700 12013.00 11795.00 110.00
4747 30.5760 11637.00 11752.20 108.00
4748 30.5820 11410.00 11663.70 107.00
4749 30.5880 10977.00 11493.40 105.00
4750 30.5940 10770.00 11223.30 104.00
4751 30.6000 10457.00 10857.00 102.00
4752 30.6060 10134.00 10419.70 101.00
4753 30.6120 9700.00 9942.67 98.00
4754 30.6180 9437.00 9456.79 97.00
4755 30.6240 9179.00 8990.45 96.00
4756 30.6300 8853.00 8561.67 94.00
4757 30.6360 8463.00 8181.39 92.00
4758 30.6420 8331.00 7857.21 91.00
4759 30.6480 8067.00 7588.27 90.00
4760 30.6540 7860.00 7369.12 89.00
4761 30.6600 7669.00 7193.95 88.00
4762 30.6660 7390.00 7049.36 86.00
4763 30.6720 7225.00 6924.75 85.00
4764 30.6780 7174.00 6809.52 85.00
4765 30.6840 7079.00 6699.79 84.00
4766 30.6900 6759.00 6592.68 82.00
4767 30.6960 6541.00 6488.05 81.00
4768 30.7020 6416.00 6389.87 80.00
4769 30.7080 6275.00 6292.17 79.00
4770 30.7140 6206.00 6208.53 79.00
4771 30.7200 6216.00 6134.18 79.00
4772 30.7260 6067.00 6067.18 78.00
4773 30.7320 6026.00 6005.05 78.00
4774 30.7380 5952.00 5947.98 77.00
4775 30.7440 5855.00 5890.05 77.00
4776 30.7500 5914.00 5837.03 77.00
4777 30.7560 5740.00 5784.41 76.00
4778 30.7620 5581.00 5734.69 75.00
4779 30.7680 5436.00 5687.49 74.00
4780 30.7740 5519.00 5642.59 74.00
4781 30.7800 5496.00 5602.43 74.00
4782 30.7860 5319.00 5566.31 73.00
4783 30.7920 5299.00 5533.27 73.00
4784 30.7980 5413.00 5505.29 74.00
4785 30.8040 5362.00 5481.21 73.00
4786 30.8100 5219.00 5459.77 72.00
4787 30.8160 5141.00 5442.67 72.00
4788 30.8220 5131.00 5428.61 72.00
4789 30.8280 5240.00 5417.27 72.00
4790 30.8340 5270.00 5407.34 73.00
4791 30.8400 5292.00 5399.63 73.00
4792 30.8460 5415.00 5392.95 74.00
4793 30.8520 5368.00 5388.21 73.00
4794 30.8580 5179.00 5385.34 72.00
4795 30.8640 5084.00 5384.36 71.00
4796 30.8700 5117.00 5381.14 72.00
4797 30.8760 5254.00 5384.02 72.00
4798 30.8820 5280.00 5388.79 73.00
4799 30.8880 5233.00 5395.41 72.00
4800 30.8940 5313.00 5410.81 73.00
4801 30.9000 5440.00 5420.85 74.00
4802 30.9060 5385.00 5438.04 73.00
4803 30.9120 5382.00 5448.31 73.00
4804 30.9180 5480.00 5461.25 74.00
4805 30.9240 5488.00 5474.33 74.00
4806 30.9300 5534.00 5487.40 74.00
4807 30.9360 5546.00 5500.76 74.00
4808 30.9420 5485.00 5509.43 74.00
4809 30.9480 5577.00 5526.57 75.00
4810 30.9540 5549.00 5547.93 74.00
4811 30.9600 5532.00 5575.33 74.00
4812 30.9660 5482.00 5609.72 74.00
4813 30.9720 5638.00 5655.10 75.00
4814 30.9780 5563.00 5712.55 75.00
4815 30.9840 5683.00 5784.09 75.00
4816 30.9900 5724.00 5871.86 76.00
4817 30.9960 5755.00 5982.86 76.00
4818 31.0020 5866.00 6108.64 77.00
4819 31.0080 6127.00 6258.70 78.00
4820 31.0140 6312.00 6429.25 79.00
4821 31.0200 6332.00 6624.54 80.00
4822 31.0260 6611.00 6845.05 81.00
4823 31.0320 7065.00 7089.68 84.00
4824 31.0380 7355.00 7353.89 86.00
4825 31.0440 7635.00 7629.30 87.00
4826 31.0500 7937.00 7902.27 89.00
4827 31.0560 8089.00 8155.88 90.00
4828 31.0620 8401.00 8370.73 92.00
4829 31.0680 8573.00 8530.15 93.00
4830 31.0740 8535.00 8624.67 92.00
4831 31.0800 8451.00 8653.49 92.00
4832 31.0860 8211.00 8621.56 91.00
4833 31.0920 8134.00 8534.89 90.00
4834 31.0980 8027.00 8397.42 90.00
4835 31.1040 7845.00 8208.39 89.00
4836 31.1100 7673.00 7980.58 88.00
4837 31.1160 7499.00 7714.98 87.00
4838 31.1220 7235.00 7435.29 85.00
4839 31.1280 7084.00 7132.86 84.00
4840 31.1340 6880.00 6857.98 83.00
4841 31.1400 6738.00 6601.46 82.00
4842 31.1460 6447.00 6364.79 80.00
4843 31.1520 6284.00 6160.39 79.00
4844 31.1580 6165.00 5984.32 79.00
4845 31.1640 6062.00 5835.89 78.00
4846 31.1700 5903.00 5712.98 77.00
4847 31.1760 5800.00 5611.99 76.00
4848 31.1820 5743.00 5531.90 76.00
4849 31.1880 5631.00 5463.98 75.00
4850 31.1940 5515.00 5414.66 74.00
4851 31.2000 5486.00 5376.45 74.00
4852 31.2060 5379.00 5347.09 73.00
4853 31.2120 5349.00 5324.69 73.00
4854 31.2180 5238.00 5307.82 72.00
4855 31.2240 5115.00 5297.57 72.00
4856 31.2300 5079.00 5294.24 71.00
4857 31.2360 5160.00 5288.72 72.00
4858 31.2420 5024.00 5286.56 71.00
4859 31.2480 5214.00 5287.47 72.00
4860 31.2540 5092.00 5290.31 71.00
4861 31.2600 5096.00 5297.79 71.00
4862 31.2660 5227.00 5308.92 72.00
4863 31.2720 5258.00 5318.32 73.00
4864 31.2780 5148.00 5337.77 72.00
4865 31.2840 5177.00 5362.62 72.00
4866 31.2900 5304.00 5390.82 73.00
4867 31.2960 5356.00 5423.10 73.00
4868 31.3020 5404.00 5460.03 74.00
4869 31.3080 5453.00 5498.92 74.00
4870 31.3140 5621.00 5540.92 75.00
4871 31.3200 5680.00 5582.87 75.00
4872 31.3260 5747.00 5624.14 76.00
4873 31.3320 5631.00 5663.36 75.00
4874 31.3380 5707.00 5695.46 76.00
4875 31.3440 5761.00 5717.98 76.00
4876 31.3500 5645.00 5728.84 75.00
4877 31.3560 5639.00 5723.20 75.00
4878 31.3620 5696.00 5706.07 75.00
4879 31.3680 5505.00 5676.75 74.00
4880 31.3740 5530.00 5639.93 74.00
4881 31.3800 5564.00 5600.41 75.00
4882 31.3860 5538.00 5559.48 74.00
4883 31.3920 5482.00 5521.66 74.00
4884 31.3980 5423.00 5486.78 74.00
4885 31.4040 5429.00 5457.06 74.00
4886 31.4100 5435.00 5434.15 74.00
4887 31.4160 5512.00 5416.23 74.00
4888 31.4220 5392.00 5405.62 73.00
4889 31.4280 5315.00 5399.70 73.00
4890 31.4340 5272.00 5399.63 73.00
4891 31.4400 5377.00 5419.24 73.00
4892 31.4460 5331.00 5429.77 73.00
4893 31.4520 5409.00 5445.33 74.00
4894 31.4580 5504.00 5477.40 74.00
4895 31.4640 5429.00 5504.25 74.00
4896 31.4700 5387.00 5539.03 73.00
4897 31.4760 5487.00 5581.52 74.00
4898 31.4820 5451.00 5635.26 74.00
4899 31.4880 5442.00 5704.69 74.00
4900 31.4940 5557.00 5792.40 75.00
4901 31.5000 5658.00 5906.34 75.00
4902 31.5060 5785.00 6053.06 76.00
4903 31.5120 5896.00 6238.52 77.00
4904 31.5180 6090.00 6473.96 78.00
4905 31.5240 6294.00 6766.04 79.00
4906 31.5300 6637.00 7123.50 81.00
4907 31.5360 7255.00 7552.74 85.00
4908 31.5420 7342.00 8054.60 86.00
4909 31.5480 8282.00 8628.89 91.00
4910 31.5540 9053.00 9264.63 95.00
4911 31.5600 10477.00 9954.00 102.00
4912 31.5660 11938.00 10660.20 109.00
4913 31.5720 13433.00 11353.00 116.00
4914 31.5780 14807.00 11989.20 122.00
4915 31.5840 16357.00 12513.80 128.00
4916 31.5900 16287.00 12880.90 128.00
4917 31.5960 16082.00 13041.80 127.00
4918 31.6020 15159.00 12987.90 123.00
4919 31.6080 14073.00 12740.60 119.00
4920 31.6140 13009.00 12347.80 114.00
4921 31.6200 12161.00 11866.60 110.00
4922 31.6260 11125.00 11359.60 105.00
4923 31.6320 10793.00 10874.40 104.00
4924 31.6380 10105.00 10451.40 101.00
4925 31.6440 9774.00 10119.80 99.00
4926 31.6500 9704.00 9890.42 99.00
4927 31.6560 9768.00 9771.10 99.00
4928 31.6620 10088.00 9754.10 100.00
4929 31.6680 10237.00 9824.84 101.00
4930 31.6740 10581.00 9961.70 103.00
4931 31.6800 11040.00 10125.30 105.00
4932 31.6860 11124.00 10279.20 105.00
4933 31.6920 11087.00 10383.50 105.00
4934 31.6980 10608.00 10400.60 103.00
4935 31.7040 10206.00 10311.90 101.00
4936 31.7100 10042.00 10111.30 100.00
4937 31.7160 9483.00 9813.16 97.00
4938 31.7220 9206.00 9443.50 96.00
4939 31.7280 8722.00 9029.50 93.00
4940 31.7340 8368.00 8601.20 91.00
4941 31.7400 7973.00 8179.24 89.00
4942 31.7460 7619.00 7782.32 87.00
4943 31.7520 7462.00 7423.49 86.00
4944 31.7580 6968.00 7104.19 83.00
4945 31.7640 6752.00 6837.76 82.00
4946 31.7700 6541.00 6618.72 81.00
4947 31.7760 6252.00 6446.43 79.00
4948 31.7820 6161.00 6318.88 78.00
4949 31.7880 6174.00 6230.46 79.00
4950 31.7940 6136.00 6175.84 78.00
4951 31.8000 6148.00 6158.58 78.00
4952 31.8060 6024.00 6171.63 78.00
4953 31.8120 6184.00 6217.55 79.00
4954 31.8180 6079.00 6290.81 78.00
4955 31.8240 6266.00 6395.11 79.00
4956 31.8300 6289.00 6533.35 79.00
4957 31.8360 6481.00 6705.87 81.00
4958 31.8420 6950.00 6916.95 83.00
4959 31.8480 7191.00 7166.04 85.00
4960 31.8540 7537.00 7454.09 87.00
4961 31.8600 7996.00 7779.75 89.00
4962 31.8660 8375.00 8135.23 92.00
4963 31.8720 8834.00 8512.59 94.00
4964 31.8780 9281.00 8900.07 96.00
4965 31.8840 9632.00 9279.84 98.00
4966 31.8900 10235.00 9640.40 101.00
4967 31.8960 10422.00 9969.20 102.00
4968 31.9020 10597.00 10259.70 103.00
4969 31.9080 10584.00 10505.40 103.00
4970 31.9140 10619.00 10691.60 103.00
4971 31.9200 10599.00 10802.70 103.00
4972 31.9260 10329.00 10816.50 102.00
4973 31.9320 10145.00 10718.40 101.00
4974 31.9380 9791.00 10506.00 99.00
4975 31.9440 9461.00 10190.10 97.00
4976 31.9500 9180.00 9798.19 96.00
4977 31.9560 8948.00 9361.11 95.00
4978 31.9620 8653.00 8907.55 93.00
4979 31.9680 8382.00 8464.04 92.00
4980 31.9740 8027.00 8046.69 90.00
4981 31.9800 7860.00 7668.66 89.00
4982 31.9860 7511.00 7338.26 87.00
4983 31.9920 7403.00 7056.84 86.00
4984 31.9980 7215.00 6831.32 85.00
4985 32.0040 6786.00 6648.78 82.00
4986 32.0100 6864.00 6511.84 83.00
4987 32.0160 6784.00 6417.56 82.00
4988 32.0220 6360.00 6360.54 80.00
4989 32.0280 6357.00 6339.21 80.00
4990 32.0340 6531.00 6356.01 81.00
4991 32.0400 6415.00 6405.48 80.00
4992 32.0460 6414.00 6491.36 80.00
4993 32.0520 6463.00 6622.69 80.00
4994 32.0580 6556.00 6804.72 81.00
4995 32.0640 6558.00 7049.63 81.00
4996 32.0700 6931.00 7367.51 83.00
4997 32.0760 7344.00 7773.52 86.00
4998 32.0820 7434.00 8279.80 86.00
4999 32.0880 7930.00 8896.83 89.00
5000 32.0940 8724.00 9634.93 93.00
5001 32.1000 9619.00 10494.60 98.00
5002 32.1060 10335.00 11474.30 102.00
5003 32.1120 11702.00 12558.60 108.00
5004 32.1180 13155.00 13720.20 115.00
5005 32.1240 14915.00 14920.90 122.00
5006 32.1300 16722.00 16100.50 129.00
5007 32.1360 18452.00 17189.80 136.00
5008 32.1420 19334.00 18106.60 139.00
5009 32.1480 20195.00 18778.70 142.00
5010 32.1540 20230.00 19149.70 142.00
5011 32.1600 19975.00 19194.70 141.00
5012 32.1660 19046.00 18925.40 138.00
5013 32.1720 18542.00 18380.20 136.00
5014 32.1780 17132.00 17625.50 131.00
5015 32.1840 16196.00 16738.40 127.00
5016 32.1900 15279.00 15795.70 124.00
5017 32.1960 13920.00 14868.40 118.00
5018 32.2020 13606.00 14008.40 117.00
5019 32.2080 12975.00 13255.60 114.00
5020 32.2140 12538.00 12632.80 112.00
5021 32.2200 12221.00 12157.10 111.00
5022 32.2260 11998.00 11834.00 110.00
5023 32.2320 12045.00 11662.10 110.00
5024 32.2380 12306.00 11634.90 111.00
5025 32.2440 12319.00 11732.80 111.00
5026 32.2500 12207.00 11931.20 110.00
5027 32.2560 12485.00 12193.70 112.00
5028 32.2620 12702.00 12476.30 113.00
5029 32.2680 12959.00 12735.70 114.00
5030 32.2740 12781.00 12929.70 113.00
5031 32.2800 12759.00 13031.30 113.00
5032 32.2860 12522.00 13024.90 112.00
5033 32.2920 12246.00 12899.50 111.00
5034 32.2980 11992.00 12675.80 110.00
5035 32.3040 11942.00 12350.00 109.00
5036 32.3100 11660.00 11953.40 108.00
5037 32.3160 11432.00 11504.30 107.00
5038 32.3220 11264.00 11034.70 106.00
5039 32.3280 11086.00 10571.20 105.00
5040 32.3340 10717.00 10134.20 104.00
5041 32.3400 10668.00 9738.78 103.00
5042 32.3460 10159.00 9387.37 101.00
5043 32.3520 9921.00 9081.22 100.00
5044 32.3580 9716.00 8811.00 99.00
5045 32.3640 9389.00 8569.96 97.00
5046 32.3700 9122.00 8348.23 96.00
5047 32.3760 8858.00 8135.73 94.00
5048 32.3820 8496.00 7925.91 92.00
5049 32.3880 8012.00 7711.02 90.00
5050 32.3940 7777.00 7491.62 88.00
5051 32.4000 7715.00 7264.33 88.00
5052 32.4060 7259.00 7044.43 85.00
5053 32.4120 7007.00 6831.43 84.00
5054 32.4180 6821.00 6634.81 83.00
5055 32.4240 6708.00 6457.85 82.00
5056 32.4300 6540.00 6302.49 81.00
5057 32.4360 6382.00 6169.59 80.00
5058 32.4420 6198.00 6062.17 79.00
5059 32.4480 6207.00 5978.55 79.00
5060 32.4540 6049.00 5920.53 78.00
5061 32.4600 5921.00 5885.35 77.00
5062 32.4660 5864.00 5873.95 77.00
5063 32.4720 5727.00 5883.82 76.00
5064 32.4780 5668.00 5912.05 75.00
5065 32.4840 5738.00 5958.25 76.00
5066 32.4900 5744.00 6017.48 76.00
5067 32.4960 5848.00 6087.98 76.00
5068 32.5020 5954.00 6164.30 77.00
5069 32.5080 6019.00 6239.74 78.00
5070 32.5140 6120.00 6309.68 78.00
5071 32.5200 6116.00 6364.93 78.00
5072 32.5260 6101.00 6400.93 78.00
5073 32.5320 6018.00 6412.97 78.00
5074 32.5380 6048.00 6399.88 78.00
5075 32.5440 5992.00 6367.56 77.00
5076 32.5500 5925.00 6320.52 77.00
5077 32.5560 5881.00 6268.00 77.00
5078 32.5620 5875.00 6214.54 77.00
5079 32.5680 5865.00 6167.22 77.00
5080 32.5740 5871.00 6128.41 77.00
5081 32.5800 5873.00 6098.95 77.00
5082 32.5860 5857.00 6081.35 77.00
5083 32.5920 5840.00 6073.18 76.00
5084 32.5980 5793.00 6072.48 76.00
5085 32.6040 5765.00 6084.12 76.00
5086 32.6100 5869.00 6109.59 77.00
5087 32.6160 5966.00 6140.58 77.00
5088 32.6220 5916.00 6181.95 77.00
5089 32.6280 5916.00 6237.47 77.00
5090 32.6340 5992.00 6305.33 77.00
5091 32.6400 6287.00 6389.19 79.00
5092 32.6460 6583.00 6499.00 81.00
5093 32.6520 6594.00 6630.32 81.00
5094 32.6580 6720.00 6785.97 82.00
5095 32.6640 6876.00 6963.67 83.00
5096 32.6700 6920.00 7164.21 83.00
5097 32.6760 7014.00 7385.19 84.00
5098 32.6820 7433.00 7622.92 86.00
5099 32.6880 7561.00 7874.79 87.00
5100 32.6940 7758.00 8130.90 88.00
5101 32.7000 8122.00 8380.54 90.00
5102 32.7060 8445.00 8605.32 92.00
5103 32.7120 8571.00 8788.84 93.00
5104 32.7180 8882.00 8913.84 94.00
5105 32.7240 8948.00 8969.79 95.00
5106 32.7300 8700.00 8957.19 93.00
5107 32.7360 8531.00 8878.95 92.00
5108 32.7420 8450.00 8744.35 92.00
5109 32.7480 8376.00 8559.35 92.00
5110 32.7540 8080.00 8329.62 90.00
5111 32.7600 7820.00 8065.51 88.00
5112 32.7660 7598.00 7775.74 87.00
5113 32.7720 7202.00 7475.55 85.00
5114 32.7780 7004.00 7177.03 84.00
5115 32.7840 6883.00 6890.22 83.00
5116 32.7900 6819.00 6625.12 83.00
5117 32.7960 6537.00 6384.63 81.00
5118 32.8020 6053.00 6173.16 78.00
5119 32.8080 5976.00 5993.70 77.00
5120 32.8140 5948.00 5837.69 77.00
5121 32.8200 5844.00 5710.79 76.00
5122 32.8260 5698.00 5602.09 75.00
5123 32.8320 5467.00 5514.55 74.00
5124 32.8380 5318.00 5443.51 73.00
5125 32.8440 5252.00 5390.79 72.00
5126 32.8500 5209.00 5348.10 72.00
5127 32.8560 5058.00 5314.81 71.00
5128 32.8620 5112.00 5278.15 71.00
5129 32.8680 5093.00 5261.34 71.00
5130 32.8740 5034.00 5255.97 71.00
5131 32.8800 4911.00 5245.88 70.00
5132 32.8860 4986.00 5248.20 71.00
5133 32.8920 5047.00 5255.60 71.00
5134 32.8980 5057.00 5266.87 71.00
5135 32.9040 5059.00 5283.76 71.00
5136 32.9100 5060.00 5304.02 71.00
5137 32.9160 4936.00 5329.22 70.00
5138 32.9220 4968.00 5357.78 70.00
5139 32.9280 5027.00 5386.31 71.00
5140 32.9340 5089.00 5418.89 71.00
5141 32.9400 5136.00 5450.90 72.00
5142 32.9460 5109.00 5483.44 71.00
5143 32.9520 5220.00 5514.13 72.00
5144 32.9580 5282.00 5545.05 73.00
5145 32.9640 5284.00 5575.61 73.00
5146 32.9700 5341.00 5605.18 73.00
5147 32.9760 5287.00 5635.97 73.00
5148 32.9820 5181.00 5665.96 72.00
5149 32.9880 5304.00 5690.44 73.00
5150 32.9940 5476.00 5723.00 74.00
5151 33.0000 5560.00 5756.41 75.00
5152 33.0060 5382.00 5793.82 73.00
5153 33.0120 5325.00 5836.30 73.00
5154 33.0180 5405.00 5877.25 74.00
5155 33.0240 5351.00 5929.15 73.00
5156 33.0300 5476.00 5985.68 74.00
5157 33.0360 5629.00 6048.90 75.00
5158 33.0420 5769.00 6120.57 76.00
5159 33.0480 5922.00 6194.20 77.00
5160 33.0540 5921.00 6269.61 77.00
5161 33.0600 6081.00 6345.06 78.00
5162 33.0660 6101.00 6413.84 78.00
5163 33.0720 6054.00 6466.46 78.00
5164 33.0780 6102.00 6499.73 78.00
5165 33.0840 6120.00 6504.40 78.00
5166 33.0900 6011.00 6477.60 78.00
5167 33.0960 5898.00 6419.34 77.00
5168 33.1020 5830.00 6331.81 76.00
5169 33.1080 5682.00 6226.39 75.00
5170 33.1140 5546.00 6107.94 74.00
5171 33.1200 5488.00 5985.84 74.00
5172 33.1260 5418.00 5864.32 74.00
5173 33.1320 5421.00 5750.20 74.00
5174 33.1380 5284.00 5645.65 73.00
5175 33.1440 5127.00 5551.70 72.00
5176 33.1500 4999.00 5471.32 71.00
5177 33.1560 4975.00 5402.72 71.00
5178 33.1620 4993.00 5347.35 71.00
5179 33.1680 4931.00 5303.36 70.00
5180 33.1740 4862.00 5268.57 70.00
5181 33.1800 4845.00 5243.73 70.00
5182 33.1860 4756.00 5225.58 69.00
5183 33.1920 4747.00 5215.03 69.00
5184 33.1980 4754.00 5209.18 69.00
5185 33.2040 4755.00 5209.41 69.00
5186 33.2100 4855.00 5214.42 70.00
5187 33.2160 4823.00 5223.25 69.00
5188 33.2220 4813.00 5238.34 69.00
5189 33.2280 4793.00 5257.52 69.00
5190 33.2340 4752.00 5284.12 69.00
5191 33.2400 4816.00 5319.92 69.00
5192 33.2460 4929.00 5367.15 70.00
5193 33.2520 5029.00 5426.88 71.00
5194 33.2580 5013.00 5506.57 71.00
5195 33.2640 5073.00 5605.72 71.00
5196 33.2700 5145.00 5728.52 72.00
5197 33.2760 5234.00 5877.56 72.00
5198 33.2820 5310.00 6054.79 73.00
5199 33.2880 5527.00 6260.72 74.00
5200 33.2940 5849.00 6494.54 76.00
5201 33.3000 6106.00 6753.19 78.00
5202 33.3060 6450.00 7031.24 80.00
5203 33.3120 7015.00 7317.97 84.00
5204 33.3180 7657.00 7601.72 88.00
5205 33.3240 8139.00 7865.43 90.00
5206 33.3300 8453.00 8089.98 92.00
5207 33.3360 8590.00 8253.49 93.00
5208 33.3420 8245.00 8337.78 91.00
5209 33.3480 7881.00 8332.64 89.00
5210 33.3540 7616.00 8240.38 87.00
5211 33.3600 7303.00 8072.61 85.00
5212 33.3660 7145.00 7849.77 85.00
5213 33.3720 6861.00 7593.35 83.00
5214 33.3780 6474.00 7323.27 80.00
5215 33.3840 6228.00 7054.38 79.00
5216 33.3900 6106.00 6799.04 78.00
5217 33.3960 5967.00 6564.95 77.00
5218 33.4020 5911.00 6360.18 77.00
5219 33.4080 5918.00 6185.05 77.00
5220 33.4140 5909.00 6042.15 77.00
5221 33.4200 5819.00 5931.29 76.00
5222 33.4260 5736.00 5851.65 76.00
5223 33.4320 5635.00 5802.25 75.00
5224 33.4380 5596.00 5782.27 75.00
5225 33.4440 5594.00 5787.02 75.00
5226 33.4500 5814.00 5827.19 76.00
5227 33.4560 5932.00 5897.98 77.00
5228 33.4620 5909.00 6003.18 77.00
5229 33.4680 6129.00 6146.40 78.00
5230 33.4740 6443.00 6332.13 80.00
5231 33.4800 6682.00 6562.24 82.00
5232 33.4860 7018.00 6846.13 84.00
5233 33.4920 7494.00 7184.38 87.00
5234 33.4980 7784.00 7579.62 88.00
5235 33.5040 8201.00 8029.27 91.00
5236 33.5100 8791.00 8529.97 94.00
5237 33.5160 9209.00 9074.68 96.00
5238 33.5220 9729.00 9650.58 99.00
5239 33.5280 10256.00 10239.60 101.00
5240 33.5340 10601.00 10818.80 103.00
5241 33.5400 10758.00 11360.60 104.00
5242 33.5460 11102.00 11841.00 105.00
5243 33.5520 11256.00 12237.80 106.00
5244 33.5580 11340.00 12545.50 106.00
5245 33.5640 11361.00 12766.80 107.00
5246 33.5700 11312.00 12913.60 106.00
5247 33.5760 11357.00 13000.00 107.00
5248 33.5820 11448.00 13037.20 107.00
5249 33.5880 11689.00 13031.90 108.00
5250 33.5940 11954.00 12985.70 109.00
5251 33.6000 12145.00 12891.90 110.00
5252 33.6060 12258.00 12740.70 111.00
5253 33.6120 11980.00 12518.20 109.00
5254 33.6180 11714.00 12211.90 108.00
5255 33.6240 11054.00 11817.70 105.00
5256 33.6300 10202.00 11343.90 101.00
5257 33.6360 9650.00 10810.50 98.00
5258 33.6420 9140.00 10245.90 96.00
5259 33.6480 8584.00 9675.15 93.00
5260 33.6540 8063.00 9123.79 90.00
5261 33.6600 7727.00 8610.84 88.00
5262 33.6660 7422.00 8150.04 86.00
5263 33.6720 7206.00 7750.64 85.00
5264 33.6780 6941.00 7417.90 83.00
5265 33.6840 6840.00 7155.21 83.00
5266 33.6900 6683.00 6963.23 82.00
5267 33.6960 6755.00 6838.45 82.00
5268 33.7020 6877.00 6778.69 83.00
5269 33.7080 6824.00 6779.55 83.00
5270 33.7140 6930.00 6835.11 83.00
5271 33.7200 7032.00 6939.27 84.00
5272 33.7260 7208.00 7083.70 85.00
5273 33.7320 7487.00 7258.54 87.00
5274 33.7380 7699.00 7454.30 88.00
5275 33.7440 7939.00 7656.44 89.00
5276 33.7500 8100.00 7853.66 90.00
5277 33.7560 7987.00 8034.78 89.00
5278 33.7620 7954.00 8190.42 89.00
5279 33.7680 7745.00 8313.51 88.00
5280 33.7740 7488.00 8396.26 87.00
5281 33.7800 7310.00 8431.56 85.00
5282 33.7860 7303.00 8414.96 85.00
5283 33.7920 7195.00 8343.45 85.00
5284 33.7980 6949.00 8224.07 83.00
5285 33.8040 6899.00 8065.25 83.00
5286 33.8100 6713.00 7880.38 82.00
5287 33.8160 6519.00 7679.73 81.00
5288 33.8220 6400.00 7474.13 80.00
5289 33.8280 6369.00 7266.29 80.00
5290 33.8340 6161.00 7061.38 78.00
5291 33.8400 6016.00 6860.30 78.00
5292 33.8460 5815.00 6662.01 76.00
5293 33.8520 5820.00 6468.48 76.00
5294 33.8580 5820.00 6281.49 76.00
5295 33.8640 5544.00 6103.48 74.00
5296 33.8700 5350.00 5936.68 73.00
5297 33.8760 5139.00 5783.18 72.00
5298 33.8820 4954.00 5644.19 70.00
5299 33.8880 4934.00 5521.17 70.00
5300 33.8940 4853.00 5411.92 70.00
5301 33.9000 4920.00 5316.79 70.00
5302 33.9060 4865.00 5234.87 70.00
5303 33.9120 4842.00 5164.92 70.00
5304 33.9180 4831.00 5105.76 70.00
5305 33.9240 4755.00 5056.14 69.00
5306 33.9300 4692.00 5014.82 68.00
5307 33.9360 4680.00 4981.66 68.00
5308 33.9420 4698.00 4953.63 69.00
5309 33.9480 4681.00 4930.83 68.00
5310 33.9540 4672.00 4910.54 68.00
5311 33.9600 4699.00 4893.15 69.00
5312 33.9660 4659.00 4879.24 68.00
5313 33.9720 4613.00 4869.49 68.00
5314 33.9780 4552.00 4861.65 67.00
5315 33.9840 4661.00 4857.52 68.00
5316 33.9900 4805.00 4854.94 69.00
5317 33.9960 4649.00 4854.70 68.00
5318 34.0020 4656.00 4857.55 68.00
5319 34.0080 4617.00 4861.17 68.00
5320 34.0140 4698.00 4866.10 69.00
5321 34.0200 4718.00 4872.79 69.00
5322 34.0260 4665.00 4878.50 68.00
5323 34.0320 4725.00 4884.41 69.00
5324 34.0380 4660.00 4887.61 68.00
5325 34.0440 4724.00 4889.24 69.00
5326 34.0500 4817.00 4888.04 69.00
5327 34.0560 4704.00 4885.18 69.00
5328 34.0620 4660.00 4877.92 68.00
5329 34.0680 4734.00 4870.38 69.00
5330 34.0740 4609.00 4862.94 68.00
5331 34.0800 4516.00 4855.91 67.00
5332 34.0860 4618.00 4843.77 68.00
5333 34.0920 4627.00 4838.88 68.00
5334 34.0980 4629.00 4836.64 68.00
5335 34.1040 4677.00 4834.66 68.00
5336 34.1100 4626.00 4834.23 68.00
5337 34.1160 4581.00 4832.32 68.00
5338 34.1220 4599.00 4828.82 68.00
5339 34.1280 4614.00 4823.71 68.00
5340 34.1340 4701.00 4814.40 69.00
5341 34.1400 4660.00 4801.82 68.00
5342 34.1460 4686.00 4789.89 68.00
5343 34.1520 4668.00 4774.23 68.00
5344 34.1580 4635.00 4757.81 68.00
5345 34.1640 4778.00 4738.61 69.00
5346 34.1700 4669.00 4719.65 68.00
5347 34.1760 4682.00 4704.04 68.00
5348 34.1820 4836.00 4687.77 70.00
5349 34.1880 4762.00 4673.91 69.00
5350 34.1940 4735.00 4664.09 69.00
5351 34.2000 4715.00 4656.81 69.00
5352 34.2060 4790.00 4654.47 69.00
5353 34.2120 4847.00 4655.27 70.00
5354 34.2180 4743.00 4660.30 69.00
5355 34.2240 4765.00 4670.45 69.00
5356 34.2300 4902.00 4683.40 70.00
5357 34.2360 4848.00 4699.60 70.00
5358 34.2420 4815.00 4719.24 69.00
5359 34.2480 4875.00 4739.25 70.00
5360 34.2540 4949.00 4760.31 70.00
5361 34.2600 4852.00 4778.92 70.00
5362 34.2660 4859.00 4794.53 70.00
5363 34.2720 4819.00 4806.52 69.00
5364 34.2780 4697.00 4811.35 69.00
5365 34.2840 4731.00 4808.78 69.00
5366 34.2900 4769.00 4794.32 69.00
5367 34.2960 4770.00 4775.83 69.00
5368 34.3020 4677.00 4747.83 68.00
5369 34.3080 4615.00 4717.41 68.00
5370 34.3140 4638.00 4683.81 68.00
5371 34.3200 4629.00 4649.84 68.00
5372 34.3260 4522.00 4615.00 67.00
5373 34.3320 4430.00 4583.35 67.00
5374 34.3380 4504.00 4552.01 67.00
5375 34.3440 4576.00 4523.28 68.00
5376 34.3500 4483.00 4498.47 67.00
5377 34.3560 4575.00 4478.25 68.00
5378 34.3620 4412.00 4454.51 66.00
5379 34.3680 4345.00 4434.03 66.00
5380 34.3740 4533.00 4419.44 67.00
5381 34.3800 4458.00 4408.03 67.00
5382 34.3860 4534.00 4397.49 67.00
5383 34.3920 4270.00 4388.53 65.00
5384 34.3980 4368.00 4381.90 66.00
5385 34.4040 4333.00 4380.39 66.00
5386 34.4100 4394.00 4382.85 66.00
5387 34.4160 4340.00 4385.17 66.00
5388 34.4220 4437.00 4389.32 67.00
5389 34.4280 4289.00 4394.30 65.00
5390 34.4340 4451.00 4400.20 67.00
5391 34.4400 4324.00 4406.16 66.00
5392 34.4460 4493.00 4414.41 67.00
5393 34.4520 4380.00 4424.23 66.00
5394 34.4580 4333.00 4434.97 66.00
5395 34.4640 4270.00 4449.07 65.00
5396 34.4700 4492.00 4465.99 67.00
5397 34.4760 4383.00 4486.22 66.00
5398 34.4820 4442.00 4509.22 67.00
5399 34.4880 4420.00 4537.43 66.00
5400 34.4940 4411.00 4570.13 66.00
5401 34.5000 4509.00 4605.47 67.00
5402 34.5060 4624.00 4646.26 68.00
5403 34.5120 4575.00 4692.05 68.00
5404 34.5180 4754.00 4741.01 69.00
5405 34.5240 4683.00 4790.86 68.00
5406 34.5300 4651.00 4841.84 68.00
5407 34.5360 4796.00 4886.70 69.00
5408 34.5420 4704.00 4930.27 69.00
5409 34.5480 4722.00 4964.40 69.00
5410 34.5540 4796.00 4988.08 69.00
5411 34.5600 4795.00 4998.15 69.00
5412 34.5660 4734.00 4993.12 69.00
5413 34.5720 4585.00 4976.19 68.00
5414 34.5780 4601.00 4948.29 68.00
5415 34.5840 4580.00 4913.84 68.00
5416 34.5900 4581.00 4874.39 68.00
5417 34.5960 4631.00 4834.67 68.00
5418 34.6020 4597.00 4794.98 68.00
5419 34.6080 4638.00 4758.77 68.00
5420 34.6140 4555.00 4725.29 67.00
5421 34.6200 4508.00 4697.22 67.00
5422 34.6260 4500.00 4673.95 67.00
5423 34.6320 4519.00 4654.58 67.00
5424 34.6380 4568.00 4640.98 68.00
5425 34.6440 4490.00 4631.88 67.00
5426 34.6500 4466.00 4627.14 67.00
5427 34.6560 4486.00 4624.92 67.00
5428 34.6620 4471.00 4627.10 67.00
5429 34.6680 4459.00 4632.38 67.00
5430 34.6740 4502.00 4639.60 67.00
5431 34.6800 4364.00 4650.72 66.00
5432 34.6860 4513.00 4665.64 67.00
5433 34.6920 4346.00 4682.19 66.00
5434 34.6980 4507.00 4701.68 67.00
5435 34.7040 4581.00 4725.90 68.00
5436 34.7100 4466.00 4754.95 67.00
5437 34.7160 4599.00 4792.18 68.00
5438 34.7220 4514.00 4838.21 67.00
5439 34.7280 4687.00 4893.87 68.00
5440 34.7340 4750.00 4963.16 69.00
5441 34.7400 4765.00 5047.13 69.00
5442 34.7460 4873.00 5147.67 70.00
5443 34.7520 5023.00 5265.57 71.00
5444 34.7580 4977.00 5403.97 71.00
5445 34.7640 5077.00 5562.34 71.00
5446 34.7700 5596.00 5739.20 75.00
5447 34.7760 5770.00 5934.84 76.00
5448 34.7820 5859.00 6145.10 77.00
5449 34.7880 6418.00 6363.98 80.00
5450 34.7940 6667.00 6587.23 82.00
5451 34.8000 7001.00 6804.72 84.00
5452 34.8060 7270.00 7006.84 85.00
5453 34.8120 7622.00 7183.57 87.00
5454 34.8180 7867.00 7329.16 89.00
5455 34.8240 7919.00 7438.91 89.00
5456 34.8300 7918.00 7512.62 89.00
5457 34.8360 7767.00 7557.86 88.00
5458 34.8420 7558.00 7582.93 87.00
5459 34.8480 7451.00 7598.10 86.00
5460 34.8540 7540.00 7617.50 87.00
5461 34.8600 7288.00 7651.48 85.00
5462 34.8660 7451.00 7709.11 86.00
5463 34.8720 7485.00 7794.99 87.00
5464 34.8780 7733.00 7912.33 88.00
5465 34.8840 8033.00 8056.45 90.00
5466 34.8900 8262.00 8218.38 91.00
5467 34.8960 8461.00 8386.44 92.00
5468 34.9020 9059.00 8543.46 95.00
5469 34.9080 9357.00 8668.08 97.00
5470 34.9140 9252.00 8742.94 96.00
5471 34.9200 9236.00 8754.86 96.00
5472 34.9260 9204.00 8697.43 96.00
5473 34.9320 8719.00 8570.94 93.00
5474 34.9380 8227.00 8384.51 91.00
5475 34.9440 7884.00 8148.34 89.00
5476 34.9500 7597.00 7874.74 87.00
5477 34.9560 7242.00 7579.85 85.00
5478 34.9620 6977.00 7276.60 84.00
5479 34.9680 6758.00 6976.86 82.00
5480 34.9740 6434.00 6692.96 80.00
5481 34.9800 6311.00 6432.38 79.00
5482 34.9860 6049.00 6200.92 78.00
5483 34.9920 6049.00 6001.73 78.00
5484 34.9980 5969.00 5838.93 77.00
5485 35.0040 5919.00 5712.58 77.00
5486 35.0100 5835.00 5622.04 76.00
5487 35.0160 5848.00 5569.06 76.00
5488 35.0220 5874.00 5552.22 77.00
5489 35.0280 5846.00 5570.33 76.00
5490 35.0340 5846.00 5624.76 76.00
5491 35.0400 5743.00 5713.83 76.00
5492 35.0460 5865.00 5836.52 77.00
5493 35.0520 6199.00 5989.67 79.00
5494 35.0580 6522.00 6173.91 81.00
5495 35.0640 6652.00 6383.87 82.00
5496 35.0700 6955.00 6612.99 83.00
5497 35.0760 7188.00 6855.57 85.00
5498 35.0820 7404.00 7100.40 86.00
5499 35.0880 7624.00 7333.76 87.00
5500 35.0940 7835.00 7543.22 89.00
5501 35.1000 7890.00 7713.19 89.00
5502 35.1060 7760.00 7831.57 88.00
5503 35.1120 7826.00 7889.05 88.00
5504 35.1180 7792.00 7884.18 88.00
5505 35.1240 7431.00 7816.65 86.00
5506 35.1300 7260.00 7689.83 85.00
5507 35.1360 7184.00 7513.33 85.00
5508 35.1420 6963.00 7296.96 83.00
5509 35.1480 6769.00 7052.28 82.00
5510 35.1540 6424.00 6794.65 80.00
5511 35.1600 6301.00 6535.17 79.00
5512 35.1660 6193.00 6283.65 79.00
5513 35.1720 5963.00 6046.36 77.00
5514 35.1780 5870.00 5830.15 77.00
5515 35.1840 5778.00 5636.85 76.00
5516 35.1900 5636.00 5466.30 75.00
5517 35.1960 5481.00 5320.38 74.00
5518 35.2020 5330.00 5196.85 73.00
5519 35.2080 5263.00 5092.82 73.00
5520 35.2140 5242.00 5008.00 72.00
5521 35.2200 5167.00 4938.92 72.00
5522 35.2260 5023.00 4883.15 71.00
5523 35.2320 4937.00 4837.39 70.00
5524 35.2380 4869.00 4801.53 70.00
5525 35.2440 4781.00 4772.79 69.00
5526 35.2500 4724.00 4748.68 69.00
5527 35.2560 4656.00 4729.97 68.00
5528 35.2620 4600.00 4714.71 68.00
5529 35.2680 4582.00 4701.13 68.00
5530 35.2740 4534.00 4690.73 67.00
5531 35.2800 4514.00 4682.44 67.00
5532 35.2860 4517.00 4675.19 67.00
5533 35.2920 4483.00 4668.17 67.00
5534 35.2980 4513.00 4663.26 67.00
5535 35.3040 4579.00 4659.38 68.00
5536 35.3100 4566.00 4655.92 68.00
5537 35.3160 4531.00 4654.11 67.00
5538 35.3220 4494.00 4653.42 67.00
5539 35.3280 4453.00 4652.07 67.00
5540 35.3340 4445.00 4653.99 67.00
5541 35.3400 4564.00 4657.55 68.00
5542 35.3460 4563.00 4662.96 68.00
5543 35.3520 4474.00 4671.55 67.00
5544 35.3580 4601.00 4681.60 68.00
5545 35.3640 4643.00 4694.48 68.00
5546 35.3700 4591.00 4710.50 68.00
5547 35.3760 4570.00 4729.96 68.00
5548 35.3820 4617.00 4753.10 68.00
5549 35.3880 4634.00 4780.70 68.00
5550 35.3940 4697.00 4811.39 69.00
5551 35.4000 4731.00 4845.55 69.00
5552 35.4060 4763.00 4882.63 69.00
5553 35.4120 4823.00 4921.81 69.00
5554 35.4180 4923.00 4961.94 70.00
5555 35.4240 5013.00 5002.42 71.00
5556 35.4300 4950.00 5040.16 70.00
5557 35.4360 4894.00 5074.43 70.00
5558 35.4420 4952.00 5103.71 70.00
5559 35.4480 4987.00 5126.36 71.00
5560 35.4540 4874.00 5140.75 70.00
5561 35.4600 4854.00 5146.48 70.00
5562 35.4660 4805.00 5140.78 69.00
5563 35.4720 4709.00 5125.03 69.00
5564 35.4780 4680.00 5100.66 68.00
5565 35.4840 4705.00 5070.08 69.00
5566 35.4900 4687.00 5036.28 68.00
5567 35.4960 4691.00 5001.37 68.00
5568 35.5020 4674.00 4967.82 68.00
5569 35.5080 4607.00 4937.74 68.00
5570 35.5140 4599.00 4911.74 68.00
5571 35.5200 4650.00 4891.01 68.00
5572 35.5260 4662.00 4876.27 68.00
5573 35.5320 4597.00 4867.23 68.00
5574 35.5380 4507.00 4863.98 67.00
5575 35.5440 4512.00 4866.13 67.00
5576 35.5500 4591.00 4873.05 68.00
5577 35.5560 4705.00 4883.98 69.00
5578 35.5620 4720.00 4898.98 69.00
5579 35.5680 4624.00 4915.85 68.00
5580 35.5740 4585.00 4933.39 68.00
5581 35.5800 4597.00 4951.36 68.00
5582 35.5860 4654.00 4970.38 68.00
5583 35.5920 4679.00 4989.32 68.00
5584 35.5980 4669.00 5013.27 68.00
5585 35.6040 4612.00 5041.52 68.00
5586 35.6100 4703.00 5075.74 69.00
5587 35.6160 4911.00 5116.23 70.00
5588 35.6220 4808.00 5166.99 69.00
5589 35.6280 4779.00 5227.66 69.00
5590 35.6340 4918.00 5298.71 70.00
5591 35.6400 4986.00 5379.74 71.00
5592 35.6460 5073.00 5469.42 71.00
5593 35.6520 5248.00 5565.37 72.00
5594 35.6580 5379.00 5663.96 73.00
5595 35.6640 5559.00 5760.26 75.00
5596 35.6700 5718.00 5849.01 76.00
5597 35.6760 5676.00 5921.17 75.00
5598 35.6820 5636.00 5970.54 75.00
5599 35.6880 5626.00 5990.08 75.00
5600 35.6940 5548.00 5977.46 74.00
5601 35.7000 5467.00 5934.30 74.00
5602 35.7060 5217.00 5867.08 72.00
5603 35.7120 5069.00 5777.70 71.00
5604 35.7180 5041.00 5676.06 71.00
5605 35.7240 4964.00 5564.86 70.00
5606 35.7300 4826.00 5453.69 69.00
5607 35.7360 4749.00 5345.58 69.00
5608 35.7420 4760.00 5244.28 69.00
5609 35.7480 4670.00 5150.89 68.00
5610 35.7540 4538.00 5067.27 67.00
5611 35.7600 4412.00 4994.03 66.00
5612 35.7660 4474.00 4931.10 67.00
5613 35.7720 4550.00 4878.06 67.00
5614 35.7780 4458.00 4835.09 67.00
5615 35.7840 4355.00 4799.21 66.00
5616 35.7900 4455.00 4770.33 67.00
5617 35.7960 4553.00 4747.32 67.00
5618 35.8020 4582.00 4729.18 68.00
5619 35.8080 4531.00 4714.94 67.00
5620 35.8140 4425.00 4703.80 67.00
5621 35.8200 4429.00 4695.09 67.00
5622 35.8260 4494.00 4688.27 67.00
5623 35.8320 4537.00 4680.91 67.00
5624 35.8380 4524.00 4671.69 67.00
5625 35.8440 4417.00 4663.36 66.00
5626 35.8500 4448.00 4656.74 67.00
5627 35.8560 4542.00 4649.70 67.00
5628 35.8620 4482.00 4643.14 67.00
5629 35.8680 4399.00 4638.00 66.00
5630 35.8740 4399.00 4632.22 66.00
5631 35.8800 4411.00 4624.73 66.00
5632 35.8860 4503.00 4620.66 67.00
5633 35.8920 4440.00 4615.88 67.00
5634 35.8980 4448.00 4613.02 67.00
5635 35.9040 4500.00 4609.80 67.00
5636 35.9100 4471.00 4603.26 67.00
5637 35.9160 4512.00 4599.61 67.00
5638 35.9220 4483.00 4597.23 67.00
5639 35.9280 4488.00 4594.15 67.00
5640 35.9340 4513.00 4591.40 67.00
5641 35.9400 4571.00 4590.01 68.00
5642 35.9460 4529.00 4588.05 67.00
5643 35.9520 4521.00 4586.61 67.00
5644 35.9580 4480.00 4586.80 67.00
5645 35.9640 4388.00 4586.79 66.00
5646 35.9700 4513.00 4587.76 67.00
5647 35.9760 4432.00 4590.96 67.00
5648 35.9820 4341.00 4594.63 66.00
5649 35.9880 4467.00 4600.11 67.00
5650 35.9940 4518.00 4608.71 67.00
5651 36.0000 4487.00 4619.77 67.00
5652 36.0060 4384.00 4637.60 66.00
5653 36.0120 4499.00 4657.50 67.00
5654 36.0180 4643.00 4681.67 68.00
5655 36.0240 4607.00 4713.05 68.00
5656 36.0300 4659.00 4744.04 68.00
5657 36.0360 4762.00 4777.21 69.00
5658 36.0420 4738.00 4815.10 69.00
5659 36.0480 4819.00 4854.10 69.00
5660 36.0540 4855.00 4896.82 70.00
5661 36.0600 4897.00 4938.54 70.00
5662 36.0660 4952.00 4976.79 70.00
5663 36.0720 4894.00 5011.74 70.00
5664 36.0780 4897.00 5045.23 70.00
5665 36.0840 4841.00 5069.93 70.00
5666 36.0900 4840.00 5087.60 70.00
5667 36.0960 4922.00 5102.14 70.00
5668 36.1020 4846.00 5109.89 70.00
5669 36.1080 4956.00 5113.78 70.00
5670 36.1140 4946.00 5114.59 70.00
5671 36.1200 4953.00 5116.39 70.00
5672 36.1260 4907.00 5123.52 70.00
5673 36.1320 4829.00 5132.31 69.00
5674 36.1380 4977.00 5145.18 71.00
5675 36.1440 5098.00 5165.67 71.00
5676 36.1500 5157.00 5193.06 72.00
5677 36.1560 5138.00 5226.93 72.00
5678 36.1620 5180.00 5266.19 72.00
5679 36.1680 5342.00 5308.03 73.00
5680 36.1740 5359.00 5352.07 73.00
5681 36.1800 5603.00 5396.75 75.00
5682 36.1860 5396.00 5435.25 73.00
5683 36.1920 5451.00 5466.48 74.00
5684 36.1980 5610.00 5491.23 75.00
5685 36.2040 5572.00 5506.94 75.00
5686 36.2100 5501.00 5513.45 74.00
5687 36.2160 5522.00 5510.50 74.00
5688 36.2220 5548.00 5498.15 74.00
5689 36.2280 5573.00 5479.64 75.00
5690 36.2340 5609.00 5456.28 75.00
5691 36.2400 5578.00 5430.90 75.00
5692 36.2460 5485.00 5406.15 74.00
5693 36.2520 5418.00 5383.97 74.00
5694 36.2580 5479.00 5367.30 74.00
5695 36.2640 5595.00 5356.33 75.00
5696 36.2700 5497.00 5349.95 74.00
5697 36.2760 5536.00 5349.68 74.00
5698 36.2820 5464.00 5353.39 74.00
5699 36.2880 5511.00 5359.66 74.00
5700 36.2940 5405.00 5370.50 74.00
5701 36.3000 5288.00 5376.69 73.00
5702 36.3060 5397.00 5382.73 73.00
5703 36.3120 5357.00 5387.15 73.00
5704 36.3180 5294.00 5389.95 73.00
5705 36.3240 5359.00 5390.42 73.00
5706 36.3300 5375.00 5391.04 73.00
5707 36.3360 5292.00 5391.26 73.00
5708 36.3420 5347.00 5391.31 73.00
5709 36.3480 5447.00 5391.05 74.00
5710 36.3540 5417.00 5389.10 74.00
5711 36.3600 5438.00 5386.08 74.00
5712 36.3660 5381.00 5379.95 73.00
5713 36.3720 5378.00 5370.63 73.00
5714 36.3780 5259.00 5357.23 73.00
5715 36.3840 5218.00 5343.05 72.00
5716 36.3900 5315.00 5329.50 73.00
5717 36.3960 5207.00 5319.42 72.00
5718 36.4020 5277.00 5315.15 73.00
5719 36.4080 5291.00 5321.72 73.00
5720 36.4140 5307.00 5340.73 73.00
5721 36.4200 5467.00 5374.70 74.00
5722 36.4260 5539.00 5425.73 74.00
5723 36.4320 5637.00 5494.38 75.00
5724 36.4380 5687.00 5583.67 75.00
5725 36.4440 5936.00 5692.90 77.00
5726 36.4500 6078.00 5821.48 78.00
5727 36.4560 6180.00 5966.76 79.00
5728 36.4620 6239.00 6127.87 79.00
5729 36.4680 6726.00 6299.29 82.00
5730 36.4740 6768.00 6475.40 82.00
5731 36.4800 6807.00 6647.75 83.00
5732 36.4860 7078.00 6808.23 84.00
5733 36.4920 7226.00 6951.65 85.00
5734 36.4980 7413.00 7067.90 86.00
5735 36.5040 7342.00 7150.38 86.00
5736 36.5100 7259.00 7193.31 85.00
5737 36.5160 7188.00 7196.31 85.00
5738 36.5220 7200.00 7158.55 85.00
5739 36.5280 7156.00 7082.86 85.00
5740 36.5340 7059.00 6973.39 84.00
5741 36.5400 6976.00 6839.74 84.00
5742 36.5460 6795.00 6687.04 82.00
5743 36.5520 6720.00 6524.07 82.00
5744 36.5580 6603.00 6359.42 81.00
5745 36.5640 6540.00 6196.42 81.00
5746 36.5700 6291.00 6045.36 79.00
5747 36.5760 6297.00 5907.45 79.00
5748 36.5820 6183.00 5787.22 79.00
5749 36.5880 6088.00 5686.59 78.00
5750 36.5940 6011.00 5608.06 78.00
5751 36.6000 5831.00 5552.05 76.00
5752 36.6060 5782.00 5518.85 76.00
5753 36.6120 5854.00 5507.64 77.00
5754 36.6180 5721.00 5519.76 76.00
5755 36.6240 5639.00 5553.69 75.00
5756 36.6300 5750.00 5608.43 76.00
5757 36.6360 5744.00 5682.62 76.00
5758 36.6420 5686.00 5773.33 75.00
5759 36.6480 5740.00 5880.21 76.00
5760 36.6540 5831.00 5999.03 76.00
5761 36.6600 6076.00 6125.71 78.00
5762 36.6660 6075.00 6254.21 78.00
5763 36.6720 6170.00 6380.51 79.00
5764 36.6780 6234.00 6496.91 79.00
5765 36.6840 6270.00 6596.58 79.00
5766 36.6900 6430.00 6673.65 80.00
5767 36.6960 6495.00 6722.75 81.00
5768 36.7020 6332.00 6744.10 80.00
5769 36.7080 6213.00 6737.81 79.00
5770 36.7140 6169.00 6708.14 79.00
5771 36.7200 6161.00 6660.94 78.00
5772 36.7260 6145.00 6606.84 78.00
5773 36.7320 6051.00 6554.24 78.00
5774 36.7380 6069.00 6512.29 78.00
5775 36.7440 6040.00 6488.50 78.00
5776 36.7500 6096.00 6492.58 78.00
5777 36.7560 6167.00 6530.30 79.00
5778 36.7620 6453.00 6607.80 80.00
5779 36.7680 6731.00 6729.56 82.00
5780 36.7740 6793.00 6898.74 82.00
5781 36.7800 7336.00 7120.43 86.00
5782 36.7860 7640.00 7395.10 87.00
5783 36.7920 8226.00 7722.73 91.00
5784 36.7980 8793.00 8100.29 94.00
5785 36.8040 9429.00 8525.30 97.00
5786 36.8100 9962.00 8989.88 100.00
5787 36.8160 10805.00 9482.66 104.00
5788 36.8220 11532.00 9990.63 107.00
5789 36.8280 11806.00 10498.50 109.00
5790 36.8340 12251.00 10993.10 111.00
5791 36.8400 12642.00 11460.30 112.00
5792 36.8460 13235.00 11888.10 115.00
5793 36.8520 13229.00 12265.60 115.00
5794 36.8580 13279.00 12585.00 115.00
5795 36.8640 13299.00 12835.30 115.00
5796 36.8700 13047.00 13008.00 114.00
5797 36.8760 12989.00 13096.00 114.00
5798 36.8820 12668.00 13101.20 113.00
5799 36.8880 12235.00 13026.70 111.00
5800 36.8940 12287.00 12881.90 111.00
5801 36.9000 12066.00 12679.30 110.00
5802 36.9060 11874.00 12431.40 109.00
5803 36.9120 11701.00 12154.10 108.00
5804 36.9180 11334.00 11857.60 106.00
5805 36.9240 11186.00 11550.30 106.00
5806 36.9300 11227.00 11236.20 106.00
5807 36.9360 10897.00 10919.60 104.00
5808 36.9420 10721.00 10601.10 104.00
5809 36.9480 10489.00 10282.60 102.00
5810 36.9540 10336.00 9967.42 102.00
5811 36.9600 10127.00 9662.33 101.00
5812 36.9660 9873.00 9372.01 99.00
5813 36.9720 9568.00 9099.20 98.00
5814 36.9780 9117.00 8844.43 95.00
5815 36.9840 9364.00 8607.53 97.00
5816 36.9900 8800.00 8383.51 94.00
5817 36.9960 8646.00 8174.44 93.00
5818 37.0020 8702.00 7975.87 93.00
5819 37.0080 8395.00 7793.27 92.00
5820 37.0140 8267.00 7626.21 91.00
5821 37.0200 7837.00 7480.51 89.00
5822 37.0260 7939.00 7358.99 89.00
5823 37.0320 7787.00 7265.93 88.00
5824 37.0380 7729.00 7200.85 88.00
5825 37.0440 7657.00 7165.40 88.00
5826 37.0500 7646.00 7156.75 87.00
5827 37.0560 7792.00 7171.60 88.00
5828 37.0620 7595.00 7204.67 87.00
5829 37.0680 7476.00 7253.06 86.00
5830 37.0740 7900.00 7312.19 89.00
5831 37.0800 8591.00 7373.57 93.00
5832 37.0860 8717.00 7431.53 93.00
5833 37.0920 8860.00 7480.91 94.00
5834 37.0980 8819.00 7512.15 94.00
5835 37.1040 8587.00 7517.29 93.00
5836 37.1100 8199.00 7488.65 91.00
5837 37.1160 7865.00 7422.19 89.00
5838 37.1220 7501.00 7320.29 87.00
5839 37.1280 7394.00 7187.19 86.00
5840 37.1340 7163.00 7030.89 85.00
5841 37.1400 6797.00 6859.54 82.00
5842 37.1460 6575.00 6683.43 81.00
5843 37.1520 6407.00 6508.48 80.00
5844 37.1580 6364.00 6339.85 80.00
5845 37.1640 6079.00 6181.08 78.00
5846 37.1700 5819.00 6033.41 76.00
5847 37.1760 5850.00 5899.88 76.00
5848 37.1820 5779.00 5779.37 76.00
5849 37.1880 5727.00 5673.19 76.00
5850 37.1940 5621.00 5579.21 75.00
5851 37.2000 5514.00 5498.71 74.00
5852 37.2060 5420.00 5429.68 74.00
5853 37.2120 5411.00 5371.05 74.00
5854 37.2180 5318.00 5320.72 73.00
5855 37.2240 5420.00 5279.57 74.00
5856 37.2300 5220.00 5245.69 72.00
5857 37.2360 5507.00 5218.42 74.00
5858 37.2420 5329.00 5197.31 73.00
5859 37.2480 5331.00 5183.89 73.00
5860 37.2540 5157.00 5175.00 72.00
5861 37.2600 5319.00 5172.60 73.00
5862 37.2660 5338.00 5177.17 73.00
5863 37.2720 5330.00 5188.39 73.00
5864 37.2780 5257.00 5209.07 73.00
5865 37.2840 5259.00 5239.13 73.00
5866 37.2900 5240.00 5279.60 72.00
5867 37.2960 5371.00 5333.06 73.00
5868 37.3020 5566.00 5395.16 75.00
5869 37.3080 5511.00 5472.63 74.00
5870 37.3140 5501.00 5563.62 74.00
5871 37.3200 5857.00 5666.44 77.00
5872 37.3260 5886.00 5782.40 77.00
5873 37.3320 5981.00 5910.30 77.00
5874 37.3380 6143.00 6045.32 78.00
5875 37.3440 6138.00 6186.27 78.00
5876 37.3500 6340.00 6326.07 80.00
5877 37.3560 6407.00 6460.73 80.00
5878 37.3620 6499.00 6584.11 81.00
5879 37.3680 6433.00 6689.49 80.00
5880 37.3740 6573.00 6771.20 81.00
5881 37.3800 6532.00 6823.60 81.00
5882 37.3860 6468.00 6845.60 80.00
5883 37.3920 6536.00 6835.01 81.00
5884 37.3980 6253.00 6792.72 79.00
5885 37.4040 6384.00 6720.58 80.00
5886 37.4100 6155.00 6624.94 78.00
5887 37.4160 6075.00 6509.99 78.00
5888 37.4220 5931.00 6381.53 77.00
5889 37.4280 6124.00 6244.01 78.00
5890 37.4340 5909.00 6104.63 77.00
5891 37.4400 5885.00 5966.61 77.00
5892 37.4460 5725.00 5833.66 76.00
5893 37.4520 5670.00 5708.59 75.00
5894 37.4580 5393.00 5596.44 73.00
5895 37.4640 5319.00 5492.69 73.00
5896 37.4700 5460.00 5400.95 74.00
5897 37.4760 5343.00 5321.40 73.00
5898 37.4820 5159.00 5252.80 72.00
5899 37.4880 5092.00 5196.82 71.00
5900 37.4940 4972.00 5151.10 71.00
5901 37.5000 5154.00 5113.81 72.00
5902 37.5060 5037.00 5086.54 71.00
5903 37.5120 5046.00 5066.14 71.00
5904 37.5180 5078.00 5052.75 71.00
5905 37.5240 4892.00 5044.47 70.00
5906 37.5300 4928.00 5041.93 70.00
5907 37.5360 4943.00 5045.92 70.00
5908 37.5420 5069.00 5053.65 71.00
5909 37.5480 5027.00 5064.15 71.00
5910 37.5540 4946.00 5078.84 70.00
5911 37.5600 5038.00 5097.13 71.00
5912 37.5660 5026.00 5115.24 71.00
5913 37.5720 5039.00 5135.46 71.00
5914 37.5780 4894.00 5156.03 70.00
5915 37.5840 4975.00 5175.21 71.00
5916 37.5900 5001.00 5194.38 71.00
5917 37.5960 5121.00 5212.14 72.00
5918 37.6020 5139.00 5227.26 72.00
5919 37.6080 4986.00 5241.61 71.00
5920 37.6140 5106.00 5253.96 71.00
5921 37.6200 4990.00 5262.97 71.00
5922 37.6260 4947.00 5270.05 70.00
5923 37.6320 4892.00 5273.56 70.00
5924 37.6380 4938.00 5271.98 70.00
5925 37.6440 5000.00 5267.23 71.00
5926 37.6500 4863.00 5255.03 70.00
5927 37.6560 4874.00 5243.01 70.00
5928 37.6620 4898.00 5230.78 70.00
5929 37.6680 4888.00 5218.98 70.00
5930 37.6740 4762.00 5207.33 69.00
5931 37.6800 4828.00 5201.39 69.00
5932 37.6860 4812.00 5198.14 69.00
5933 37.6920 5002.00 5200.67 71.00
5934 37.6980 5003.00 5215.64 71.00
5935 37.7040 4873.00 5239.96 70.00
5936 37.7100 5010.00 5274.57 71.00
5937 37.7160 5173.00 5326.82 72.00
5938 37.7220 5123.00 5394.85 72.00
5939 37.7280 5124.00 5481.35 72.00
5940 37.7340 5269.00 5591.07 73.00
5941 37.7400 5394.00 5723.55 73.00
5942 37.7460 5535.00 5882.57 74.00
5943 37.7520 5747.00 6068.67 76.00
5944 37.7580 5840.00 6278.19 76.00
5945 37.7640 6285.00 6518.67 79.00
5946 37.7700 6668.00 6784.46 82.00
5947 37.7760 7087.00 7070.72 84.00
5948 37.7820 7398.00 7374.26 86.00
5949 37.7880 7816.00 7685.32 88.00
5950 37.7940 8124.00 7993.71 90.00
5951 37.8000 8667.00 8289.35 93.00
5952 37.8060 9207.00 8558.01 96.00
5953 37.8120 9347.00 8783.08 97.00
5954 37.8180 9664.00 8958.29 98.00
5955 37.8240 9495.00 9070.66 97.00
5956 37.8300 9163.00 9113.35 96.00
5957 37.8360 9113.00 9087.29 95.00
5958 37.8420 8771.00 8996.63 94.00
5959 37.8480 8564.00 8849.36 93.00
5960 37.8540 8143.00 8660.49 90.00
5961 37.8600 7708.00 8443.26 88.00
5962 37.8660 7492.00 8210.53 87.00
5963 37.8720 7354.00 7975.47 86.00
5964 37.8780 7145.00 7746.13 85.00
5965 37.8840 7004.00 7526.00 84.00
5966 37.8900 6948.00 7318.84 83.00
5967 37.8960 6883.00 7125.06 83.00
5968 37.9020 6711.00 6940.97 82.00
5969 37.9080 6514.00 6766.49 81.00
5970 37.9140 6333.00 6598.52 80.00
5971 37.9200 6259.00 6438.31 79.00
5972 37.9260 5975.00 6284.31 77.00
5973 37.9320 5905.00 6137.98 77.00
5974 37.9380 5752.00 6000.86 76.00
5975 37.9440 5602.00 5877.85 75.00
5976 37.9500 5428.00 5767.91 74.00
5977 37.9560 5312.00 5671.69 73.00
5978 37.9620 5284.00 5589.79 73.00
5979 37.9680 5184.00 5522.08 72.00
5980 37.9740 5224.00 5469.85 72.00
5981 37.9800 5094.00 5432.87 71.00
5982 37.9860 5159.00 5410.39 72.00
5983 37.9920 5126.00 5404.68 72.00
5984 37.9980 5103.00 5414.72 71.00
5985 38.0040 5283.00 5440.14 73.00
5986 38.0100 5446.00 5482.77 74.00
5987 38.0160 5333.00 5541.66 73.00
5988 38.0220 5369.00 5615.52 73.00
5989 38.0280 5445.00 5705.73 74.00
5990 38.0340 5656.00 5810.51 75.00
5991 38.0400 5859.00 5927.26 77.00
5992 38.0460 6019.00 6055.79 78.00
5993 38.0520 6113.00 6191.92 78.00
5994 38.0580 6135.00 6330.59 78.00
5995 38.0640 6482.00 6468.56 81.00
5996 38.0700 6648.00 6598.40 82.00
5997 38.0760 6678.00 6712.23 82.00
5998 38.0820 6758.00 6805.63 82.00
5999 38.0880 6832.00 6872.86 83.00
6000 38.0940 6731.00 6910.83 82.00
6001 38.1000 6714.00 6922.30 82.00
6002 38.1060 6931.00 6909.05 83.00
6003 38.1120 6868.00 6873.55 83.00
6004 38.1180 6780.00 6821.00 82.00
6005 38.1240 6581.00 6751.49 81.00
6006 38.1300 6423.00 6668.29 80.00
6007 38.1360 6384.00 6571.63 80.00
6008 38.1420 6308.00 6462.32 79.00
6009 38.1480 6243.00 6345.19 79.00
6010 38.1540 6240.00 6223.29 79.00
6011 38.1600 6279.00 6100.22 79.00
6012 38.1660 6088.00 5982.50 78.00
6013 38.1720 5888.00 5873.15 77.00
6014 38.1780 5776.00 5774.48 76.00
6015 38.1840 5708.00 5691.20 76.00
6016 38.1900 5522.00 5623.55 74.00
6017 38.1960 5637.00 5573.81 75.00
6018 38.2020 5707.00 5544.61 76.00
6019 38.2080 5612.00 5534.91 75.00
6020 38.2140 5687.00 5547.20 75.00
6021 38.2200 5709.00 5582.89 76.00
6022 38.2260 5871.00 5640.35 77.00
6023 38.2320 5967.00 5720.86 77.00
6024 38.2380 6033.00 5825.01 78.00
6025 38.2440 6147.00 5950.24 78.00
6026 38.2500 6337.00 6094.91 80.00
6027 38.2560 6409.00 6257.87 80.00
6028 38.2620 6656.00 6434.51 82.00
6029 38.2680 6761.00 6619.05 82.00
6030 38.2740 6853.00 6806.57 83.00
6031 38.2800 7038.00 6989.15 84.00
6032 38.2860 7379.00 7156.01 86.00
6033 38.2920 7343.00 7299.36 86.00
6034 38.2980 7299.00 7409.07 85.00
6035 38.3040 7227.00 7477.65 85.00
6036 38.3100 7216.00 7504.43 85.00
6037 38.3160 7214.00 7489.79 85.00
6038 38.3220 7306.00 7441.97 85.00
6039 38.3280 7205.00 7368.29 85.00
6040 38.3340 6931.00 7276.52 83.00
6041 38.3400 7004.00 7176.52 84.00
6042 38.3460 7147.00 7073.82 85.00
6043 38.3520 7047.00 6971.33 84.00
6044 38.3580 6874.00 6873.91 83.00
6045 38.3640 6765.00 6781.59 82.00
6046 38.3700 6666.00 6692.94 82.00
6047 38.3760 6773.00 6608.75 82.00
6048 38.3820 6574.00 6526.27 81.00
6049 38.3880 6317.00 6442.60 79.00
6050 38.3940 6145.00 6358.83 78.00
6051 38.4000 5997.00 6271.35 77.00
6052 38.4060 5885.00 6177.34 77.00
6053 38.4120 5807.00 6079.22 76.00
6054 38.4180 5758.00 5976.63 76.00
6055 38.4240 5555.00 5870.02 75.00
6056 38.4300 5445.00 5764.02 74.00
6057 38.4360 5399.00 5659.75 73.00
6058 38.4420 5311.00 5558.38 73.00
6059 38.4480 5190.00 5463.72 72.00
6060 38.4540 5196.00 5378.13 72.00
6061 38.4600 5170.00 5297.36 72.00
6062 38.4660 5082.00 5227.20 71.00
6063 38.4720 4964.00 5164.26 70.00
6064 38.4780 4959.00 5108.24 70.00
6065 38.4840 4982.00 5061.78 71.00
6066 38.4900 4874.00 5023.00 70.00
6067 38.4960 4837.00 4990.44 70.00
6068 38.5020 4814.00 4965.54 69.00
6069 38.5080 4837.00 4948.08 70.00
6070 38.5140 4746.00 4934.11 69.00
6071 38.5200 4718.00 4927.50 69.00
6072 38.5260 4819.00 4924.92 69.00
6073 38.5320 4906.00 4928.15 70.00
6074 38.5380 4789.00 4935.98 69.00
6075 38.5440 4793.00 4947.28 69.00
6076 38.5500 4805.00 4964.64 69.00
6077 38.5560 4878.00 4985.42 70.00
6078 38.5620 4927.00 5010.32 70.00
6079 38.5680 4817.00 5037.81 69.00
6080 38.5740 4835.00 5069.10 70.00
6081 38.5800 4973.00 5102.76 71.00
6082 38.5860 5055.00 5136.90 71.00
6083 38.5920 5076.00 5172.42 71.00
6084 38.5980 5090.00 5206.95 71.00
6085 38.6040 5153.00 5241.33 72.00
6086 38.6100 5195.00 5268.46 72.00
6087 38.6160 5220.00 5291.35 72.00
6088 38.6220 5228.00 5308.20 72.00
6089 38.6280 5265.00 5318.83 73.00
6090 38.6340 5210.00 5322.79 72.00
6091 38.6400 5135.00 5322.87 72.00
6092 38.6460 5118.00 5320.54 72.00
6093 38.6520 5163.00 5318.92 72.00
6094 38.6580 5127.00 5316.66 72.00
6095 38.6640 5172.00 5320.93 72.00
6096 38.6700 5287.00 5330.16 73.00
6097 38.6760 5426.00 5348.59 74.00
6098 38.6820 5369.00 5375.38 73.00
6099 38.6880 5426.00 5418.56 74.00
6100 38.6940 5489.00 5471.26 74.00
6101 38.7000 5638.00 5540.36 75.00
6102 38.7060 5831.00 5620.50 76.00
6103 38.7120 5941.00 5713.69 77.00
6104 38.7180 6063.00 5818.19 78.00
6105 38.7240 6100.00 5935.11 78.00
6106 38.7300 6140.00 6061.95 78.00
6107 38.7360 6230.00 6196.87 79.00
6108 38.7420 6263.00 6336.42 79.00
6109 38.7480 6460.00 6477.85 80.00
6110 38.7540 6591.00 6619.14 81.00
6111 38.7600 6566.00 6752.62 81.00
6112 38.7660 6618.00 6874.78 81.00
6113 38.7720 6727.00 6978.73 82.00
6114 38.7780 6823.00 7059.16 83.00
6115 38.7840 6815.00 7110.68 83.00
6116 38.7900 6789.00 7132.19 82.00
6117 38.7960 6661.00 7121.54 82.00
6118 38.8020 6567.00 7076.79 81.00
6119 38.8080 6472.00 7002.04 80.00
6120 38.8140 6368.00 6901.06 80.00
6121 38.8200 6386.00 6779.78 80.00
6122 38.8260 6275.00 6637.37 79.00
6123 38.8320 6198.00 6482.53 79.00
6124 38.8380 6021.00 6321.76 78.00
6125 38.8440 5847.00 6166.43 76.00
6126 38.8500 5794.00 6008.31 76.00
6127 38.8560 5668.00 5858.62 75.00
6128 38.8620 5591.00 5719.38 75.00
6129 38.8680 5488.00 5591.23 74.00
6130 38.8740 5308.00 5477.16 73.00
6131 38.8800 5203.00 5376.86 72.00
6132 38.8860 5190.00 5291.48 72.00
6133 38.8920 5316.00 5215.26 73.00
6134 38.8980 5374.00 5151.44 73.00
6135 38.9040 5293.00 5097.95 73.00
6136 38.9100 5207.00 5052.60 72.00
6137 38.9160 5183.00 5016.18 72.00
6138 38.9220 5123.00 4986.54 72.00
6139 38.9280 5005.00 4962.61 71.00
6140 38.9340 5016.00 4939.86 71.00
6141 38.9400 4956.00 4924.63 70.00
6142 38.9460 4842.00 4912.63 70.00
6143 38.9520 4850.00 4902.26 70.00
6144 38.9580 4876.00 4895.06 70.00
6145 38.9640 4915.00 4889.65 70.00
6146 38.9700 4791.00 4885.77 69.00
6147 38.9760 4804.00 4882.17 69.00
6148 38.9820 4853.00 4879.18 70.00
6149 38.9880 4810.00 4878.75 69.00
6150 38.9940 4836.00 4879.24 70.00
6151 39.0000 4757.00 4879.57 69.00
6152 39.0060 4659.00 4880.70 68.00
6153 39.0120 4715.00 4881.56 69.00
6154 39.0180 4715.00 4883.10 69.00
6155 39.0240 4632.00 4884.27 68.00
6156 39.0300 4678.00 4887.00 68.00
6157 39.0360 4714.00 4890.24 69.00
6158 39.0420 4748.00 4894.11 69.00
6159 39.0480 4697.00 4898.17 69.00
6160 39.0540 4647.00 4902.55 68.00
6161 39.0600 4660.00 4907.24 68.00
6162 39.0660 4726.00 4912.22 69.00
6163 39.0720 4753.00 4919.70 69.00
6164 39.0780 4805.00 4926.19 69.00
6165 39.0840 4716.00 4932.55 69.00
6166 39.0900 4732.00 4939.73 69.00
6167 39.0960 4844.00 4948.04 70.00
6168 39.1020 4836.00 4957.80 70.00
6169 39.1080 4795.00 4969.37 69.00
6170 39.1140 4851.00 4983.10 70.00
6171 39.1200 4958.00 4999.37 70.00
6172 39.1260 4935.00 5018.57 70.00
6173 39.1320 4858.00 5040.05 70.00
6174 39.1380 4896.00 5066.17 70.00
6175 39.1440 4929.00 5096.31 70.00
6176 39.1500 5080.00 5130.81 71.00
6177 39.1560 5142.00 5166.10 72.00
6178 39.1620 5090.00 5210.45 71.00
6179 39.1680 5081.00 5260.28 71.00
6180 39.1740 4984.00 5316.03 71.00
6181 39.1800 5095.00 5378.21 71.00
6182 39.1860 5221.00 5446.00 72.00
6183 39.1920 5273.00 5522.45 73.00
6184 39.1980 5275.00 5606.49 73.00
6185 39.2040 5326.00 5698.14 73.00
6186 39.2100 5450.00 5797.35 74.00
6187 39.2160 5639.00 5903.77 75.00
6188 39.2220 5824.00 6016.47 76.00
6189 39.2280 5921.00 6135.62 77.00
6190 39.2340 6091.00 6258.98 78.00
6191 39.2400 6198.00 6386.02 79.00
6192 39.2460 6443.00 6513.73 80.00
6193 39.2520 6625.00 6639.64 81.00
6194 39.2580 6633.00 6761.24 81.00
6195 39.2640 6617.00 6875.83 81.00
6196 39.2700 6606.00 6985.01 81.00
6197 39.2760 6621.00 7088.43 81.00
6198 39.2820 6644.00 7187.22 82.00
6199 39.2880 7004.00 7282.43 84.00
6200 39.2940 7244.00 7373.21 85.00
6201 39.3000 7466.00 7460.09 86.00
6202 39.3060 7570.00 7540.07 87.00
6203 39.3120 7752.00 7607.33 88.00
6204 39.3180 7679.00 7658.58 88.00
6205 39.3240 7695.00 7690.52 88.00
6206 39.3300 7641.00 7701.58 87.00
6207 39.3360 7636.00 7692.37 87.00
6208 39.3420 7626.00 7665.49 87.00
6209 39.3480 7619.00 7624.60 87.00
6210 39.3540 7551.00 7574.64 87.00
6211 39.3600 7428.00 7519.42 86.00
6212 39.3660 7362.00 7462.22 86.00
6213 39.3720 7113.00 7405.59 84.00
6214 39.3780 7058.00 7351.66 84.00
6215 39.3840 7072.00 7302.47 84.00
6216 39.3900 7055.00 7260.33 84.00
6217 39.3960 6772.00 7227.53 82.00
6218 39.4020 6728.00 7204.98 82.00
6219 39.4080 6870.00 7195.89 83.00
6220 39.4140 6973.00 7199.66 84.00
6221 39.4200 7105.00 7216.05 84.00
6222 39.4260 7270.00 7244.64 85.00
6223 39.4320 7242.00 7284.91 85.00
6224 39.4380 7205.00 7336.58 85.00
6225 39.4440 7317.00 7399.31 86.00
6226 39.4500 7546.00 7472.43 87.00
6227 39.4560 7700.00 7553.57 88.00
6228 39.4620 7866.00 7642.49 89.00
6229 39.4680 8087.00 7735.69 90.00
6230 39.4740 8143.00 7829.08 90.00
6231 39.4800 7979.00 7921.60 89.00
6232 39.4860 7957.00 8012.07 89.00
6233 39.4920 8154.00 8100.75 90.00
6234 39.4980 8288.00 8189.94 91.00
6235 39.5040 8379.00 8280.57 92.00
6236 39.5100 8267.00 8371.83 91.00
6237 39.5160 8392.00 8464.96 92.00
6238 39.5220 8434.00 8555.32 92.00
6239 39.5280 8648.00 8639.65 93.00
6240 39.5340 8715.00 8713.87 93.00
6241 39.5400 8633.00 8773.78 93.00
6242 39.5460 8777.00 8815.12 94.00
6243 39.5520 8796.00 8833.61 94.00
6244 39.5580 8526.00 8825.44 92.00
6245 39.5640 8368.00 8787.24 91.00
6246 39.5700 8293.00 8721.61 91.00
6247 39.5760 8320.00 8631.65 91.00
6248 39.5820 8197.00 8525.91 91.00
6249 39.5880 8138.00 8415.37 90.00
6250 39.5940 7930.00 8312.59 89.00
6251 39.6000 7719.00 8231.07 88.00
6252 39.6060 8031.00 8182.60 90.00
6253 39.6120 8068.00 8177.85 90.00
6254 39.6180 8521.00 8224.64 92.00
6255 39.6240 8587.00 8331.77 93.00
6256 39.6300 8988.00 8502.25 95.00
6257 39.6360 9256.00 8738.79 96.00
6258 39.6420 9625.00 9042.04 98.00
6259 39.6480 10499.00 9408.28 102.00
6260 39.6540 10839.00 9829.78 104.00
6261 39.6600 11374.00 10299.30 107.00
6262 39.6660 11898.00 10802.00 109.00
6263 39.6720 12557.00 11318.70 112.00
6264 39.6780 12724.00 11832.80 113.00
6265 39.6840 13125.00 12318.80 115.00
6266 39.6900 13366.00 12752.10 116.00
6267 39.6960 13493.00 13110.00 116.00
6268 39.7020 13590.00 13372.30 117.00
6269 39.7080 13475.00 13524.40 116.00
6270 39.7140 13204.00 13560.60 115.00
6271 39.7200 12588.00 13478.10 112.00
6272 39.7260 12358.00 13284.40 111.00
6273 39.7320 11996.00 12994.60 110.00
6274 39.7380 11513.00 12623.70 107.00
6275 39.7440 11250.00 12190.80 106.00
6276 39.7500 10825.00 11711.00 104.00
6277 39.7560 10457.00 11200.60 102.00
6278 39.7620 9992.00 10672.80 100.00
6279 39.7680 9484.00 10139.70 97.00
6280 39.7740 8958.00 9612.70 95.00
6281 39.7800 8614.00 9100.79 93.00
6282 39.7860 8560.00 8616.06 93.00
6283 39.7920 7979.00 8163.89 89.00
6284 39.7980 7877.00 7750.13 89.00
6285 39.8040 7372.00 7378.67 86.00
6286 39.8100 6980.00 7049.37 84.00
6287 39.8160 7095.00 6763.43 84.00
6288 39.8220 6649.00 6518.53 82.00
6289 39.8280 6392.00 6313.18 80.00
6290 39.8340 6296.00 6144.60 79.00
6291 39.8400 6230.00 6011.95 79.00
6292 39.8460 6066.00 5912.22 78.00
6293 39.8520 6149.00 5843.44 78.00
6294 39.8580 6022.00 5803.70 78.00
6295 39.8640 5976.00 5791.32 77.00
6296 39.8700 6077.00 5804.77 78.00
6297 39.8760 6025.00 5842.60 78.00
6298 39.8820 5909.00 5903.29 77.00
6299 39.8880 6237.00 5984.11 79.00
6300 39.8940 6131.00 6084.96 78.00
6301 39.9000 6211.00 6202.22 79.00
6302 39.9060 6512.00 6332.54 81.00
6303 39.9120 6778.00 6472.02 82.00
6304 39.9180 7221.00 6615.67 85.00
6305 39.9240 7819.00 6757.54 88.00
6306 39.9300 7976.00 6890.67 89.00
6307 39.9360 8254.00 7007.21 91.00
6308 39.9420 8392.00 7097.77 92.00
6309 39.9480 8431.00 7156.51 92.00
6310 39.9540 8224.00 7176.18 91.00
6311 39.9600 7690.00 7153.61 88.00
6312 39.9660 7482.00 7089.47 86.00
6313 39.9720 7163.00 6988.23 85.00
6314 39.9780 6944.00 6857.09 83.00
6315 39.9840 6737.00 6704.51 82.00
6316 39.9900 6414.00 6539.24 80.00
6317 39.9960 6163.00 6368.02 79.00
6318 40.0020 5869.00 6199.17 77.00
6319 40.0080 5752.00 6037.00 76.00
6320 40.0140 5703.00 5885.51 76.00
6321 40.0200 5579.00 5747.66 75.00
6322 40.0260 5475.00 5625.48 74.00
6323 40.0320 5356.00 5520.19 73.00
6324 40.0380 5206.00 5432.44 72.00
6325 40.0440 5132.00 5361.97 72.00
6326 40.0500 5099.00 5307.67 71.00
6327 40.0560 5049.00 5270.57 71.00
6328 40.0620 5039.00 5248.58 71.00
6329 40.0680 4972.00 5240.41 71.00
6330 40.0740 5093.00 5244.60 71.00
6331 40.0800 5095.00 5259.57 71.00
6332 40.0860 5177.00 5283.35 72.00
6333 40.0920 5165.00 5314.69 72.00
6334 40.0980 5185.00 5351.32 72.00
6335 40.1040 5284.00 5390.07 73.00
6336 40.1100 5459.00 5430.62 74.00
6337 40.1160 5354.00 5469.70 73.00
6338 40.1220 5273.00 5505.22 73.00
6339 40.1280 5214.00 5534.82 72.00
6340 40.1340 5232.00 5559.80 72.00
6341 40.1400 5242.00 5578.69 72.00
6342 40.1460 5308.00 5594.32 73.00
6343 40.1520 5344.00 5607.21 73.00
6344 40.1580 5304.00 5617.64 73.00
6345 40.1640 5335.00 5628.41 73.00
6346 40.1700 5446.00 5638.67 74.00
6347 40.1760 5427.00 5647.86 74.00
6348 40.1820 5396.00 5654.85 73.00
6349 40.1880 5408.00 5658.16 74.00
6350 40.1940 5387.00 5654.42 73.00
6351 40.2000 5408.00 5647.15 74.00
6352 40.2060 5365.00 5631.58 73.00
6353 40.2120 5326.00 5609.01 73.00
6354 40.2180 5364.00 5581.22 73.00
6355 40.2240 5241.00 5547.80 72.00
6356 40.2300 5187.00 5507.69 72.00
6357 40.2360 5287.00 5461.89 73.00
6358 40.2420 5125.00 5411.07 72.00
6359 40.2480 5113.00 5356.40 72.00
6360 40.2540 5090.00 5298.22 71.00
6361 40.2600 4987.00 5239.92 71.00
6362 40.2660 4986.00 5184.05 71.00
6363 40.2720 4975.00 5132.83 71.00
6364 40.2780 5008.00 5084.71 71.00
6365 40.2840 4934.00 5042.25 70.00
6366 40.2900 4797.00 5006.14 69.00
6367 40.2960 4876.00 4976.10 70.00
6368 40.3020 4833.00 4953.74 70.00
6369 40.3080 4782.00 4938.23 69.00
6370 40.3140 4890.00 4927.82 70.00
6371 40.3200 4770.00 4924.91 69.00
6372 40.3260 4837.00 4927.31 70.00
6373 40.3320 4916.00 4934.11 70.00
6374 40.3380 4793.00 4944.85 69.00
6375 40.3440 4772.00 4956.92 69.00
6376 40.3500 4728.00 4969.61 69.00
6377 40.3560 4802.00 4979.31 69.00
6378 40.3620 4753.00 4989.69 69.00
6379 40.3680 4845.00 4996.21 70.00
6380 40.3740 4792.00 5000.94 69.00
6381 40.3800 4765.00 5001.98 69.00
6382 40.3860 4760.00 4999.67 69.00
6383 40.3920 4758.00 4993.88 69.00
6384 40.3980 4724.00 4984.57 69.00
6385 40.4040 4710.00 4969.96 69.00
6386 40.4100 4614.00 4953.44 68.00
6387 40.4160 4695.00 4933.57 69.00
6388 40.4220 4711.00 4909.93 69.00
6389 40.4280 4749.00 4885.35 69.00
6390 40.4340 4575.00 4859.84 68.00
6391 40.4400 4563.00 4832.41 68.00
6392 40.4460 4505.00 4808.07 67.00
6393 40.4520 4479.00 4783.29 67.00
6394 40.4580 4584.00 4763.85 68.00
6395 40.4640 4461.00 4746.93 67.00
6396 40.4700 4368.00 4734.19 66.00
6397 40.4760 4488.00 4723.92 67.00
6398 40.4820 4649.00 4719.14 68.00
6399 40.4880 4611.00 4719.31 68.00
6400 40.4940 4519.00 4724.91 67.00
6401 40.5000 4427.00 4736.46 67.00
6402 40.5060 4426.00 4754.53 67.00
6403 40.5120 4615.00 4779.70 68.00
6404 40.5180 4552.00 4812.59 67.00
6405 40.5240 4577.00 4853.76 68.00
6406 40.5300 4635.00 4902.87 68.00
6407 40.5360 4942.00 4962.15 70.00
6408 40.5420 4838.00 5030.94 70.00
6409 40.5480 4880.00 5109.28 70.00
6410 40.5540 5011.00 5196.44 71.00
6411 40.5600 5079.00 5293.09 71.00
6412 40.5660 5307.00 5397.21 73.00
6413 40.5720 5489.00 5505.54 74.00
6414 40.5780 5636.00 5619.18 75.00
6415 40.5840 5758.00 5728.49 76.00
6416 40.5900 5910.00 5838.84 77.00
6417 40.5960 6178.00 5944.53 79.00
6418 40.6020 6340.00 6038.33 80.00
6419 40.6080 6333.00 6116.87 80.00
6420 40.6140 6406.00 6183.06 80.00
6421 40.6200 6528.00 6232.61 81.00
6422 40.6260 6481.00 6265.88 81.00
6423 40.6320 6585.00 6284.34 81.00
6424 40.6380 6485.00 6289.10 81.00
6425 40.6440 6406.00 6281.91 80.00
6426 40.6500 6377.00 6270.56 80.00
6427 40.6560 6361.00 6253.41 80.00
6428 40.6620 6320.00 6233.14 79.00
6429 40.6680 6456.00 6211.04 80.00
6430 40.6740 6403.00 6187.46 80.00
6431 40.6800 6383.00 6161.81 80.00
6432 40.6860 6258.00 6132.74 79.00
6433 40.6920 6294.00 6097.50 79.00
6434 40.6980 6282.00 6056.19 79.00
6435 40.7040 6186.00 6006.39 79.00
6436 40.7100 5956.00 5946.84 77.00
6437 40.7160 5848.00 5877.42 76.00
6438 40.7220 5700.00 5798.68 75.00
6439 40.7280 5529.00 5711.92 74.00
6440 40.7340 5420.00 5619.06 74.00
6441 40.7400 5363.00 5522.33 73.00
6442 40.7460 5302.00 5423.14 73.00
6443 40.7520 5245.00 5325.64 72.00
6444 40.7580 5189.00 5230.91 72.00
6445 40.7640 5153.00 5140.57 72.00
6446 40.7700 5176.00 5055.90 72.00
6447 40.7760 4971.00 4977.73 71.00
6448 40.7820 4937.00 4906.57 70.00
6449 40.7880 4861.00 4842.61 70.00
6450 40.7940 4954.00 4785.70 70.00
6451 40.8000 4729.00 4734.60 69.00
6452 40.8060 4784.00 4690.90 69.00
6453 40.8120 4596.00 4652.89 68.00
6454 40.8180 4519.00 4620.39 67.00
6455 40.8240 4634.00 4592.62 68.00
6456 40.8300 4464.00 4568.99 67.00
6457 40.8360 4475.00 4548.93 67.00
6458 40.8420 4419.00 4529.86 66.00
6459 40.8480 4421.00 4513.65 66.00
6460 40.8540 4436.00 4501.31 67.00
6461 40.8600 4317.00 4490.91 66.00
6462 40.8660 4284.00 4482.02 65.00
6463 40.8720 4411.00 4474.40 66.00
6464 40.8780 4324.00 4467.87 66.00
6465 40.8840 4375.00 4462.39 66.00
6466 40.8900 4401.00 4457.56 66.00
6467 40.8960 4218.00 4453.43 65.00
6468 40.9020 4242.00 4450.27 65.00
6469 40.9080 4290.00 4446.32 65.00
6470 40.9140 4277.00 4444.26 65.00
6471 40.9200 4303.00 4442.33 66.00
6472 40.9260 4258.00 4440.89 65.00
6473 40.9320 4218.00 4440.11 65.00
6474 40.9380 4256.00 4439.63 65.00
6475 40.9440 4190.00 4439.66 65.00
6476 40.9500 4194.00 4440.23 65.00
6477 40.9560 4300.00 4441.42 66.00
6478 40.9620 4137.00 4442.29 64.00
6479 40.9680 4219.00 4444.95 65.00
6480 40.9740 4215.00 4448.53 65.00
6481 40.9800 4302.00 4453.22 66.00
6482 40.9860 4271.00 4458.22 65.00
6483 40.9920 4194.00 4465.79 65.00
6484 40.9980 4255.00 4474.22 65.00
6485 41.0040 4224.00 4484.85 65.00
6486 41.0100 4364.00 4499.07 66.00
6487 41.0160 4285.00 4515.30 65.00
6488 41.0220 4346.00 4533.98 66.00
6489 41.0280 4264.00 4558.58 65.00
6490 41.0340 4412.00 4586.52 66.00
6491 41.0400 4306.00 4620.23 66.00
6492 41.0460 4581.00 4658.06 68.00
6493 41.0520 4618.00 4702.50 68.00
6494 41.0580 4571.00 4752.36 68.00
6495 41.0640 4649.00 4806.84 68.00
6496 41.0700 4915.00 4866.78 70.00
6497 41.0760 4800.00 4932.77 69.00
6498 41.0820 5004.00 5002.12 71.00
6499 41.0880 5114.00 5073.91 72.00
6500 41.0940 5255.00 5149.65 72.00
6501 41.1000 5073.00 5224.76 71.00
6502 41.1060 5198.00 5299.58 72.00
6503 41.1120 5240.00 5370.36 72.00
6504 41.1180 5298.00 5436.62 73.00
6505 41.1240 5260.00 5498.24 73.00
6506 41.1300 5284.00 5551.83 73.00
6507 41.1360 5406.00 5599.54 74.00
6508 41.1420 5412.00 5641.69 74.00
6509 41.1480 5372.00 5676.62 73.00
6510 41.1540 5451.00 5705.50 74.00
6511 41.1600 5473.00 5729.26 74.00
6512 41.1660 5435.00 5745.37 74.00
6513 41.1720 5453.00 5753.92 74.00
6514 41.1780 5383.00 5754.93 73.00
6515 41.1840 5435.00 5745.78 74.00
6516 41.1900 5619.00 5728.64 75.00
6517 41.1960 5324.00 5702.67 73.00
6518 41.2020 5374.00 5670.84 73.00
6519 41.2080 5382.00 5636.53 73.00
6520 41.2140 5328.00 5600.98 73.00
6521 41.2200 5251.00 5565.15 72.00
6522 41.2260 5308.00 5532.08 73.00
6523 41.2320 5389.00 5500.16 73.00
6524 41.2380 5203.00 5470.11 72.00
6525 41.2440 5142.00 5442.30 72.00
6526 41.2500 5228.00 5413.94 72.00
6527 41.2560 5213.00 5386.41 72.00
6528 41.2620 5111.00 5356.89 71.00
6529 41.2680 5066.00 5327.21 71.00
6530 41.2740 5098.00 5298.13 71.00
6531 41.2800 5095.00 5267.98 71.00
6532 41.2860 5010.00 5238.27 71.00
6533 41.2920 4985.00 5210.69 71.00
6534 41.2980 4855.00 5184.75 70.00
6535 41.3040 4875.00 5161.05 70.00
6536 41.3100 4771.00 5141.90 69.00
6537 41.3160 4787.00 5126.98 69.00
6538 41.3220 4849.00 5119.87 70.00
6539 41.3280 4882.00 5116.25 70.00
6540 41.3340 4879.00 5118.28 70.00
6541 41.3400 4919.00 5126.32 70.00
6542 41.3460 4975.00 5137.29 71.00
6543 41.3520 5030.00 5152.35 71.00
6544 41.3580 5012.00 5167.15 71.00
6545 41.3640 4963.00 5179.24 70.00
6546 41.3700 4992.00 5187.50 71.00
6547 41.3760 5081.00 5191.17 71.00
6548 41.3820 4991.00 5187.19 71.00
6549 41.3880 4935.00 5177.41 70.00
6550 41.3940 4949.00 5160.65 70.00
6551 41.4000 4881.00 5139.53 70.00
6552 41.4060 4853.00 5117.14 70.00
6553 41.4120 4761.00 5093.68 69.00
6554 41.4180 4767.00 5072.21 69.00
6555 41.4240 4759.00 5055.48 69.00
6556 41.4300 4796.00 5042.84 69.00
6557 41.4360 4800.00 5037.10 69.00
6558 41.4420 4825.00 5037.97 69.00
6559 41.4480 4828.00 5044.45 69.00
6560 41.4540 4782.00 5058.27 69.00
6561 41.4600 4545.00 5076.83 67.00
6562 41.4660 4571.00 5100.22 68.00
6563 41.4720 4693.00 5128.27 69.00
6564 41.4780 4828.00 5159.00 69.00
6565 41.4840 4977.00 5189.49 71.00
6566 41.4900 4961.00 5220.81 70.00
6567 41.4960 4806.00 5249.81 69.00
6568 41.5020 4976.00 5276.33 71.00
6569 41.5080 5049.00 5300.24 71.00
6570 41.5140 5072.00 5316.52 71.00
6571 41.5200 5021.00 5328.85 71.00
6572 41.5260 5036.00 5332.47 71.00
6573 41.5320 5006.00 5327.65 71.00
6574 41.5380 5018.00 5314.71 71.00
6575 41.5440 4960.00 5291.14 70.00
6576 41.5500 4892.00 5260.30 70.00
6577 41.5560 4936.00 5224.09 70.00
6578 41.5620 4896.00 5179.00 70.00
6579 41.5680 4871.00 5127.94 70.00
6580 41.5740 4854.00 5073.38 70.00
6581 41.5800 4739.00 5013.54 69.00
6582 41.5860 4694.00 4953.39 69.00
6583 41.5920 4659.00 4890.01 68.00
6584 41.5980 4642.00 4827.97 68.00
6585 41.6040 4672.00 4769.09 68.00
6586 41.6100 4592.00 4711.67 68.00
6587 41.6160 4534.00 4659.28 67.00
6588 41.6220 4469.00 4611.46 67.00
6589 41.6280 4485.00 4568.12 67.00
6590 41.6340 4509.00 4529.76 67.00
6591 41.6400 4363.00 4497.24 66.00
6592 41.6460 4349.00 4469.56 66.00
6593 41.6520 4351.00 4447.60 66.00
6594 41.6580 4292.00 4429.73 66.00
6595 41.6640 4284.00 4416.94 65.00
6596 41.6700 4307.00 4410.31 66.00
6597 41.6760 4319.00 4407.63 66.00
6598 41.6820 4291.00 4410.03 66.00
6599 41.6880 4282.00 4419.27 65.00
6600 41.6940 4351.00 4432.11 66.00
6601 41.7000 4422.00 4450.06 66.00
6602 41.7060 4463.00 4474.73 67.00
6603 41.7120 4405.00 4503.22 66.00
6604 41.7180 4399.00 4537.85 66.00
6605 41.7240 4478.00 4576.49 67.00
6606 41.7300 4587.00 4619.75 68.00
6607 41.7360 4635.00 4668.12 68.00
6608 41.7420 4761.00 4718.84 69.00
6609 41.7480 4917.00 4771.87 70.00
6610 41.7540 4868.00 4826.87 70.00
6611 41.7600 4929.00 4880.17 70.00
6612 41.7660 5027.00 4931.04 71.00
6613 41.7720 5037.00 4978.57 71.00
6614 41.7780 5025.00 5019.16 71.00
6615 41.7840 5099.00 5053.61 71.00
6616 41.7900 5022.00 5079.31 71.00
6617 41.7960 4945.00 5097.16 70.00
6618 41.8020 4910.00 5108.36 70.00
6619 41.8080 4927.00 5111.29 70.00
6620 41.8140 5033.00 5107.16 71.00
6621 41.8200 5041.00 5097.14 71.00
6622 41.8260 4956.00 5079.35 70.00
6623 41.8320 4828.00 5054.98 69.00
6624 41.8380 4777.00 5025.48 69.00
6625 41.8440 4806.00 4989.51 69.00
6626 41.8500 4780.00 4950.26 69.00
6627 41.8560 4686.00 4906.99 68.00
6628 41.8620 4687.00 4862.62 68.00
6629 41.8680 4687.00 4819.43 68.00
6630 41.8740 4645.00 4777.31 68.00
6631 41.8800 4613.00 4738.86 68.00
6632 41.8860 4525.00 4706.44 67.00
6633 41.8920 4500.00 4679.20 67.00
6634 41.8980 4476.00 4658.93 67.00
6635 41.9040 4441.00 4647.21 67.00
6636 41.9100 4435.00 4642.29 67.00
6637 41.9160 4488.00 4646.15 67.00
6638 41.9220 4644.00 4656.47 68.00
6639 41.9280 4643.00 4673.67 68.00
6640 41.9340 4588.00 4697.83 68.00
6641 41.9400 4674.00 4725.79 68.00
6642 41.9460 4704.00 4757.01 69.00
6643 41.9520 4830.00 4790.65 69.00
6644 41.9580 4891.00 4822.53 70.00
6645 41.9640 4841.00 4851.22 70.00
6646 41.9700 4943.00 4875.20 70.00
6647 41.9760 4884.00 4890.20 70.00
6648 41.9820 4801.00 4896.25 69.00
6649 41.9880 4796.00 4890.54 69.00
6650 41.9940 4744.00 4874.23 69.00
6651 42.0000 4722.00 4849.49 69.00
6652 42.0060 4633.00 4816.27 68.00
6653 42.0120 4486.00 4777.88 67.00
6654 42.0180 4476.00 4737.68 67.00
6655 42.0240 4456.00 4695.82 67.00
6656 42.0300 4373.00 4654.81 66.00
6657 42.0360 4321.00 4618.29 66.00
6658 42.0420 4277.00 4585.05 65.00
6659 42.0480 4252.00 4558.16 65.00
6660 42.0540 4266.00 4535.77 65.00
6661 42.0600 4246.00 4520.79 65.00
6662 42.0660 4265.00 4513.92 65.00
6663 42.0720 4312.00 4513.32 66.00
6664 42.0780 4308.00 4521.99 66.00
6665 42.0840 4256.00 4537.71 65.00
6666 42.0900 4260.00 4560.10 65.00
6667 42.0960 4243.00 4588.65 65.00
6668 42.1020 4241.00 4621.23 65.00
6669 42.1080 4275.00 4659.93 65.00
6670 42.1140 4266.00 4702.27 65.00
6671 42.1200 4295.00 4747.36 66.00
6672 42.1260 4375.00 4793.53 66.00
6673 42.1320 4497.00 4839.68 67.00
6674 42.1380 4453.00 4884.67 67.00
6675 42.1440 4511.00 4927.64 67.00
6676 42.1500 4548.00 4968.62 67.00
6677 42.1560 4518.00 5007.64 67.00
6678 42.1620 4562.00 5046.25 68.00
6679 42.1680 4549.00 5085.55 67.00
6680 42.1740 4559.00 5128.97 68.00
6681 42.1800 4710.00 5177.81 69.00
6682 42.1860 4807.00 5233.74 69.00
6683 42.1920 4891.00 5297.70 70.00
6684 42.1980 4984.00 5370.52 71.00
6685 42.2040 5168.00 5451.72 72.00
6686 42.2100 5319.00 5539.98 73.00
6687 42.2160 5261.00 5634.20 73.00
6688 42.2220 5322.00 5731.49 73.00
6689 42.2280 5518.00 5828.89 74.00
6690 42.2340 5629.00 5922.97 75.00
6691 42.2400 5681.00 6010.23 75.00
6692 42.2460 5796.00 6087.24 76.00
6693 42.2520 5968.00 6150.99 77.00
6694 42.2580 6055.00 6198.87 78.00
6695 42.2640 6001.00 6228.96 77.00
6696 42.2700 5949.00 6240.17 77.00
6697 42.2760 5939.00 6232.24 77.00
6698 42.2820 5900.00 6205.81 77.00
6699 42.2880 5911.00 6162.74 77.00
6700 42.2940 5919.00 6105.89 77.00
6701 42.3000 5680.00 6038.29 75.00
6702 42.3060 5546.00 5965.18 74.00
6703 42.3120 5551.00 5891.65 75.00
6704 42.3180 5557.00 5821.53 75.00
6705 42.3240 5601.00 5759.81 75.00
6706 42.3300 5656.00 5706.67 75.00
6707 42.3360 5705.00 5666.49 76.00
6708 42.3420 5710.00 5637.62 76.00
6709 42.3480 5691.00 5621.26 75.00
6710 42.3540 5789.00 5616.52 76.00
6711 42.3600 5883.00 5621.82 77.00
6712 42.3660 5636.00 5635.10 75.00
6713 42.3720 5732.00 5654.02 76.00
6714 42.3780 5840.00 5677.58 76.00
6715 42.3840 5773.00 5701.74 76.00
6716 42.3900 5703.00 5725.93 76.00
6717 42.3960 5730.00 5748.84 76.00
6718 42.4020 5818.00 5769.05 76.00
6719 42.4080 5838.00 5786.46 76.00
6720 42.4140 5782.00 5800.01 76.00
6721 42.4200 5869.00 5809.66 77.00
6722 42.4260 5974.00 5816.44 77.00
6723 42.4320 6056.00 5821.84 78.00
6724 42.4380 6091.00 5827.83 78.00
6725 42.4440 6100.00 5836.38 78.00
6726 42.4500 6003.00 5849.13 77.00
6727 42.4560 6084.00 5866.16 78.00
6728 42.4620 6154.00 5889.68 78.00
6729 42.4680 6312.00 5918.15 79.00
6730 42.4740 6221.00 5949.26 79.00
6731 42.4800 6198.00 5982.97 79.00
6732 42.4860 6160.00 6015.74 78.00
6733 42.4920 6208.00 6044.81 79.00
6734 42.4980 6180.00 6066.83 79.00
6735 42.5040 6188.00 6080.80 79.00
6736 42.5100 6182.00 6084.34 79.00
6737 42.5160 6148.00 6076.49 78.00
6738 42.5220 6072.00 6057.10 78.00
6739 42.5280 6126.00 6026.86 78.00
6740 42.5340 6069.00 5987.29 78.00
6741 42.5400 5987.00 5940.53 77.00
6742 42.5460 5969.00 5889.74 77.00
6743 42.5520 5815.00 5836.78 76.00
6744 42.5580 5752.00 5782.87 76.00
6745 42.5640 5755.00 5730.67 76.00
6746 42.5700 5779.00 5681.43 76.00
6747 42.5760 5719.00 5636.02 76.00
6748 42.5820 5582.00 5595.44 75.00
6749 42.5880 5628.00 5558.11 75.00
6750 42.5940 5802.00 5524.28 76.00
6751 42.6000 5967.00 5493.14 77.00
6752 42.6060 5991.00 5463.58 77.00
6753 42.6120 5860.00 5434.27 77.00
6754 42.6180 5865.00 5403.63 77.00
6755 42.6240 5925.00 5369.95 77.00
6756 42.6300 5823.00 5331.60 76.00
6757 42.6360 5819.00 5287.28 76.00
6758 42.6420 5715.00 5236.29 76.00
6759 42.6480 5562.00 5178.56 75.00
6760 42.6540 5384.00 5114.83 73.00
6761 42.6600 5403.00 5046.42 74.00
6762 42.6660 5212.00 4975.00 72.00
6763 42.6720 5073.00 4902.40 71.00
6764 42.6780 4894.00 4830.38 70.00
6765 42.6840 4788.00 4760.52 69.00
6766 42.6900 4834.00 4694.02 70.00
6767 42.6960 4738.00 4631.89 69.00
6768 42.7020 4639.00 4574.83 68.00
6769 42.7080 4670.00 4522.75 68.00
6770 42.7140 4580.00 4478.79 68.00
6771 42.7200 4561.00 4438.83 68.00
6772 42.7260 4495.00 4404.53 67.00
6773 42.7320 4515.00 4375.68 67.00
6774 42.7380 4476.00 4351.86 67.00
6775 42.7440 4319.00 4332.52 66.00
6776 42.7500 4389.00 4317.46 66.00
6777 42.7560 4381.00 4307.54 66.00
6778 42.7620 4418.00 4298.91 66.00
6779 42.7680 4379.00 4293.07 66.00
6780 42.7740 4331.00 4288.78 66.00
6781 42.7800 4337.00 4286.25 66.00
6782 42.7860 4388.00 4284.58 66.00
6783 42.7920 4314.00 4283.05 66.00
6784 42.7980 4341.00 4281.50 66.00
6785 42.8040 4374.00 4279.97 66.00
6786 42.8100 4355.00 4276.75 66.00
6787 42.8160 4345.00 4272.31 66.00
6788 42.8220 4347.00 4266.61 66.00
6789 42.8280 4231.00 4259.78 65.00
6790 42.8340 4210.00 4252.07 65.00
6791 42.8400 4240.00 4243.85 65.00
6792 42.8460 4266.00 4235.45 65.00
6793 42.8520 4193.00 4227.19 65.00
6794 42.8580 4151.00 4219.36 64.00
6795 42.8640 4139.00 4212.31 64.00
6796 42.8700 4207.00 4206.36 65.00
6797 42.8760 4192.00 4200.80 65.00
6798 42.8820 4206.00 4196.12 65.00
6799 42.8880 4125.00 4192.29 64.00
6800 42.8940 4106.00 4189.25 64.00
6801 42.9000 4235.00 4186.85 65.00
6802 42.9060 4274.00 4184.92 65.00
6803 42.9120 4208.00 4183.30 65.00
6804 42.9180 4207.00 4180.61 65.00
6805 42.9240 4060.00 4179.09 64.00
6806 42.9300 4010.00 4177.73 63.00
6807 42.9360 4069.00 4175.97 64.00
6808 42.9420 4134.00 4174.15 64.00
6809 42.9480 4184.00 4172.40 65.00
6810 42.9540 4223.00 4170.90 65.00
6811 42.9600 4191.00 4169.87 65.00
6812 42.9660 4054.00 4169.49 64.00
6813 42.9720 4064.00 4169.95 64.00
6814 42.9780 4066.00 4171.44 64.00
6815 42.9840 4037.00 4173.11 64.00
6816 42.9900 4219.00 4177.11 65.00
6817 42.9960 4168.00 4182.53 65.00
6818 43.0020 4168.00 4188.87 65.00
6819 43.0080 4067.00 4197.36 64.00
6820 43.0140 4111.00 4206.40 64.00
6821 43.0200 4153.00 4217.94 64.00
6822 43.0260 4235.00 4230.88 65.00
6823 43.0320 4133.00 4244.47 64.00
6824 43.0380 4247.00 4259.61 65.00
6825 43.0440 4331.00 4274.43 66.00
6826 43.0500 4343.00 4290.57 66.00
6827 43.0560 4225.00 4305.49 65.00
6828 43.0620 4172.00 4320.71 65.00
6829 43.0680 4295.00 4334.71 66.00
6830 43.0740 4137.00 4346.00 64.00
6831 43.0800 4081.00 4356.19 64.00
6832 43.0860 4234.00 4362.58 65.00
6833 43.0920 4257.00 4367.31 65.00
6834 43.0980 4151.00 4370.00 64.00
6835 43.1040 4317.00 4369.29 66.00
6836 43.1100 4200.00 4368.12 65.00
6837 43.1160 4218.00 4363.80 65.00
6838 43.1220 4167.00 4359.59 65.00
6839 43.1280 4133.00 4354.27 64.00
6840 43.1340 4202.00 4351.03 65.00
6841 43.1400 4189.00 4349.04 65.00
6842 43.1460 4188.00 4348.51 65.00
6843 43.1520 4260.00 4352.25 65.00
6844 43.1580 4268.00 4359.11 65.00
6845 43.1640 4322.00 4372.20 66.00
6846 43.1700 4225.00 4391.00 65.00
6847 43.1760 4369.00 4414.37 66.00
6848 43.1820 4359.00 4446.74 66.00
6849 43.1880 4360.00 4486.15 66.00
6850 43.1940 4282.00 4535.28 65.00
6851 43.2000 4338.00 4592.42 66.00
6852 43.2060 4402.00 4659.58 66.00
6853 43.2120 4445.00 4737.72 67.00
6854 43.2180 4522.00 4824.79 67.00
6855 43.2240 4664.00 4922.56 68.00
6856 43.2300 4727.00 5026.68 69.00
6857 43.2360 4851.00 5141.46 70.00
6858 43.2420 5079.00 5262.69 71.00
6859 43.2480 5173.00 5387.24 72.00
6860 43.2540 5330.00 5514.57 73.00
6861 43.2600 5609.00 5639.49 75.00
6862 43.2660 5748.00 5760.59 76.00
6863 43.2720 5970.00 5872.88 77.00
6864 43.2780 5924.00 5971.45 77.00
6865 43.2840 6071.00 6054.77 78.00
6866 43.2900 5965.00 6117.95 77.00
6867 43.2960 6065.00 6161.40 78.00
6868 43.3020 6002.00 6182.75 77.00
6869 43.3080 5961.00 6184.78 77.00
6870 43.3140 6043.00 6168.12 78.00
6871 43.3200 5977.00 6132.90 77.00
6872 43.3260 6083.00 6084.97 78.00
6873 43.3320 5855.00 6023.40 77.00
6874 43.3380 5712.00 5952.06 76.00
6875 43.3440 5564.00 5871.96 75.00
6876 43.3500 5570.00 5783.84 75.00
6877 43.3560 5452.00 5691.71 74.00
6878 43.3620 5396.00 5594.33 73.00
6879 43.3680 5386.00 5498.21 73.00
6880 43.3740 5347.00 5402.86 73.00
6881 43.3800 5112.00 5309.01 71.00
6882 43.3860 5093.00 5220.81 71.00
6883 43.3920 5082.00 5137.66 71.00
6884 43.3980 5072.00 5062.54 71.00
6885 43.4040 4912.00 4995.54 70.00
6886 43.4100 5061.00 4939.84 71.00
6887 43.4160 5055.00 4895.42 71.00
6888 43.4220 5014.00 4862.51 71.00
6889 43.4280 5017.00 4843.01 71.00
6890 43.4340 5001.00 4835.39 71.00
6891 43.4400 5104.00 4841.63 71.00
6892 43.4460 5117.00 4859.37 72.00
6893 43.4520 4980.00 4889.26 71.00
6894 43.4580 5186.00 4931.64 72.00
6895 43.4640 5183.00 4982.33 72.00
6896 43.4700 5324.00 5043.09 73.00
6897 43.4760 5394.00 5108.57 73.00
6898 43.4820 5299.00 5180.37 73.00
6899 43.4880 5493.00 5253.70 74.00
6900 43.4940 5297.00 5324.40 73.00
6901 43.5000 5547.00 5390.98 74.00
6902 43.5060 5367.00 5447.90 73.00
6903 43.5120 5381.00 5493.66 73.00
6904 43.5180 5358.00 5525.42 73.00
6905 43.5240 5421.00 5540.44 74.00
6906 43.5300 5313.00 5540.48 73.00
6907 43.5360 5435.00 5524.36 74.00
6908 43.5420 5415.00 5495.37 74.00
6909 43.5480 5442.00 5455.84 74.00
6910 43.5540 5216.00 5406.83 72.00
6911 43.5600 5293.00 5353.59 73.00
6912 43.5660 5196.00 5297.41 72.00
6913 43.5720 5242.00 5243.81 72.00
6914 43.5780 5192.00 5193.86 72.00
6915 43.5840 5143.00 5151.81 72.00
6916 43.5900 4967.00 5120.49 70.00
6917 43.5960 4910.00 5100.52 70.00
6918 43.6020 5165.00 5094.96 72.00
6919 43.6080 5123.00 5103.82 72.00
6920 43.6140 5200.00 5129.30 72.00
6921 43.6200 5257.00 5170.61 73.00
6922 43.6260 5411.00 5226.42 74.00
6923 43.6320 5308.00 5297.91 73.00
6924 43.6380 5545.00 5382.29 74.00
6925 43.6440 5646.00 5478.43 75.00
6926 43.6500 5683.00 5582.29 75.00
6927 43.6560 5936.00 5692.55 77.00
6928 43.6620 6022.00 5804.46 78.00
6929 43.6680 6171.00 5913.29 79.00
6930 43.6740 6210.00 6015.26 79.00
6931 43.6800 6213.00 6104.90 79.00
6932 43.6860 6282.00 6180.95 79.00
6933 43.6920 6400.00 6240.30 80.00
6934 43.6980 6218.00 6281.03 79.00
6935 43.7040 6448.00 6305.13 80.00
6936 43.7100 6508.00 6311.11 81.00
6937 43.7160 6448.00 6301.60 80.00
6938 43.7220 6499.00 6276.36 81.00
6939 43.7280 6257.00 6235.22 79.00
6940 43.7340 6231.00 6180.77 79.00
6941 43.7400 6225.00 6113.32 79.00
6942 43.7460 5997.00 6036.67 77.00
6943 43.7520 6029.00 5951.49 78.00
6944 43.7580 5879.00 5862.33 77.00
6945 43.7640 5700.00 5770.47 75.00
6946 43.7700 5780.00 5676.66 76.00
6947 43.7760 5780.00 5586.28 76.00
6948 43.7820 5505.00 5496.11 74.00
6949 43.7880 5569.00 5410.64 75.00
6950 43.7940 5573.00 5330.02 75.00
6951 43.8000 5272.00 5254.19 73.00
6952 43.8060 5331.00 5186.51 73.00
6953 43.8120 5304.00 5123.42 73.00
6954 43.8180 5115.00 5067.38 72.00
6955 43.8240 5234.00 5015.69 72.00
6956 43.8300 5112.00 4969.42 71.00
6957 43.8360 5082.00 4926.63 71.00
6958 43.8420 5056.00 4885.67 71.00
6959 43.8480 4979.00 4847.64 71.00
6960 43.8540 4937.00 4810.58 70.00
6961 43.8600 4758.00 4776.65 69.00
6962 43.8660 4882.00 4745.12 70.00
6963 43.8720 4764.00 4715.30 69.00
6964 43.8780 4635.00 4689.46 68.00
6965 43.8840 4762.00 4665.61 69.00
6966 43.8900 4630.00 4645.94 68.00
6967 43.8960 4578.00 4629.30 68.00
6968 43.9020 4689.00 4614.58 68.00
6969 43.9080 4587.00 4603.78 68.00
6970 43.9140 4721.00 4594.94 69.00
6971 43.9200 4559.00 4590.21 68.00
6972 43.9260 4496.00 4587.75 67.00
6973 43.9320 4429.00 4589.69 67.00
6974 43.9380 4554.00 4595.02 67.00
6975 43.9440 4600.00 4602.58 68.00
6976 43.9500 4584.00 4613.98 68.00
6977 43.9560 4638.00 4626.67 68.00
6978 43.9620 4733.00 4641.88 69.00
6979 43.9680 4681.00 4658.54 68.00
6980 43.9740 4710.00 4673.18 69.00
6981 43.9800 4665.00 4687.74 68.00
6982 43.9860 4699.00 4699.54 69.00
6983 43.9920 4766.00 4710.36 69.00
6984 43.9980 4586.00 4717.59 68.00
6985 44.0040 4684.00 4723.55 68.00
6986 44.0100 4628.00 4727.58 68.00
6987 44.0160 4581.00 4729.30 68.00
6988 44.0220 4753.00 4731.52 69.00
6989 44.0280 4847.00 4733.15 70.00
6990 44.0340 4661.00 4738.39 68.00
6991 44.0400 4723.00 4744.49 69.00
6992 44.0460 4698.00 4752.27 69.00
6993 44.0520 4658.00 4763.96 68.00
6994 44.0580 4821.00 4777.50 69.00
6995 44.0640 4727.00 4794.20 69.00
6996 44.0700 4843.00 4812.71 70.00
6997 44.0760 4793.00 4830.73 69.00
6998 44.0820 4831.00 4849.03 70.00
6999 44.0880 4789.00 4864.34 69.00
7000 44.0940 4763.00 4877.52 69.00
7001 44.1000 4750.00 4885.63 69.00
7002 44.1060 4642.00 4890.01 68.00
7003 44.1120 4827.00 4889.20 69.00
7004 44.1180 4662.00 4881.93 68.00
7005 44.1240 4593.00 4870.05 68.00
7006 44.1300 4732.00 4851.54 69.00
7007 44.1360 4721.00 4828.42 69.00
7008 44.1420 4583.00 4799.97 68.00
7009 44.1480 4539.00 4765.42 67.00
7010 44.1540 4430.00 4727.51 67.00
7011 44.1600 4383.00 4685.15 66.00
7012 44.1660 4378.00 4641.44 66.00
7013 44.1720 4376.00 4595.71 66.00
7014 44.1780 4401.00 4550.97 66.00
7015 44.1840 4278.00 4508.16 65.00
7016 44.1900 4270.00 4465.59 65.00
7017 44.1960 4214.00 4427.34 65.00
7018 44.2020 4237.00 4390.68 65.00
7019 44.2080 4323.00 4358.56 66.00
7020 44.2140 4151.00 4330.20 64.00
7021 44.2200 4196.00 4304.62 65.00
7022 44.2260 4216.00 4284.18 65.00
7023 44.2320 4200.00 4266.76 65.00
7024 44.2380 4270.00 4254.58 65.00
7025 44.2440 4232.00 4246.67 65.00
7026 44.2500 4165.00 4240.85 65.00
7027 44.2560 4102.00 4241.79 64.00
7028 44.2620 4076.00 4246.30 64.00
7029 44.2680 4167.00 4255.24 65.00
7030 44.2740 4146.00 4269.12 64.00
7031 44.2800 4245.00 4288.77 65.00
7032 44.2860 4310.00 4313.17 66.00
7033 44.2920 4246.00 4341.23 65.00
7034 44.2980 4268.00 4374.77 65.00
7035 44.3040 4308.00 4411.48 66.00
7036 44.3100 4368.00 4452.01 66.00
7037 44.3160 4454.00 4496.77 67.00
7038 44.3220 4537.00 4542.98 67.00
7039 44.3280 4630.00 4591.87 68.00
7040 44.3340 4670.00 4641.69 68.00
7041 44.3400 4660.00 4689.76 68.00
7042 44.3460 4828.00 4737.04 69.00
7043 44.3520 4988.00 4780.20 71.00
7044 44.3580 4985.00 4819.65 71.00
7045 44.3640 4928.00 4852.84 70.00
7046 44.3700 4866.00 4877.43 70.00
7047 44.3760 4813.00 4894.40 69.00
7048 44.3820 4770.00 4901.32 69.00
7049 44.3880 4896.00 4900.56 70.00
7050 44.3940 4845.00 4890.81 70.00
7051 44.4000 4711.00 4872.48 69.00
7052 44.4060 4698.00 4848.73 69.00
7053 44.4120 4650.00 4818.76 68.00
7054 44.4180 4599.00 4785.80 68.00
7055 44.4240 4568.00 4749.97 68.00
7056 44.4300 4524.00 4711.27 67.00
7057 44.4360 4557.00 4672.59 68.00
7058 44.4420 4616.00 4632.62 68.00
7059 44.4480 4591.00 4594.38 68.00
7060 44.4540 4528.00 4556.72 67.00
7061 44.4600 4580.00 4519.51 68.00
7062 44.4660 4449.00 4485.31 67.00
7063 44.4720 4402.00 4452.59 66.00
7064 44.4780 4388.00 4423.75 66.00
7065 44.4840 4367.00 4397.44 66.00
7066 44.4900 4250.00 4373.57 65.00
7067 44.4960 4326.00 4355.32 66.00
7068 44.5020 4278.00 4340.88 65.00
7069 44.5080 4276.00 4329.30 65.00
7070 44.5140 4251.00 4322.54 65.00
7071 44.5200 4298.00 4317.81 66.00
7072 44.5260 4315.00 4318.46 66.00
7073 44.5320 4308.00 4322.67 66.00
7074 44.5380 4327.00 4329.40 66.00
7075 44.5440 4341.00 4340.68 66.00
7076 44.5500 4392.00 4354.60 66.00
7077 44.5560 4408.00 4373.52 66.00
7078 44.5620 4354.00 4396.15 66.00
7079 44.5680 4389.00 4421.85 66.00
7080 44.5740 4393.00 4452.60 66.00
7081 44.5800 4503.00 4486.33 67.00
7082 44.5860 4468.00 4524.99 67.00
7083 44.5920 4532.00 4566.76 67.00
7084 44.5980 4630.00 4610.21 68.00
7085 44.6040 4692.00 4656.56 68.00
7086 44.6100 4750.00 4702.83 69.00
7087 44.6160 4892.00 4749.95 70.00
7088 44.6220 4879.00 4795.87 70.00
7089 44.6280 4948.00 4838.59 70.00
7090 44.6340 4940.00 4879.46 70.00
7091 44.6400 4915.00 4915.99 70.00
7092 44.6460 4926.00 4950.05 70.00
7093 44.6520 5087.00 4980.82 71.00
7094 44.6580 5124.00 5005.57 72.00
7095 44.6640 5078.00 5031.49 71.00
7096 44.6700 5094.00 5055.39 71.00
7097 44.6760 5108.00 5080.51 71.00
7098 44.6820 5171.00 5107.11 72.00
7099 44.6880 5243.00 5135.27 72.00
7100 44.6940 5201.00 5167.74 72.00
7101 44.7000 5191.00 5203.90 72.00
7102 44.7060 5329.00 5241.09 73.00
7103 44.7120 5447.00 5283.71 74.00
7104 44.7180 5436.00 5327.47 74.00
7105 44.7240 5502.00 5373.33 74.00
7106 44.7300 5556.00 5419.00 75.00
7107 44.7360 5488.00 5462.24 74.00
7108 44.7420 5510.00 5503.70 74.00
7109 44.7480 5615.00 5539.90 75.00
7110 44.7540 5570.00 5570.61 75.00
7111 44.7600 5559.00 5594.49 75.00
7112 44.7660 5566.00 5607.37 75.00
7113 44.7720 5551.00 5609.98 75.00
7114 44.7780 5519.00 5599.72 74.00
7115 44.7840 5417.00 5576.95 74.00
7116 44.7900 5424.00 5541.85 74.00
7117 44.7960 5410.00 5493.35 74.00
7118 44.8020 5351.00 5435.50 73.00
7119 44.8080 5407.00 5367.58 74.00
7120 44.8140 5340.00 5293.76 73.00
7121 44.8200 5152.00 5215.08 72.00
7122 44.8260 5071.00 5133.52 71.00
7123 44.8320 5031.00 5052.68 71.00
7124 44.8380 5036.00 4972.45 71.00
7125 44.8440 5026.00 4896.92 71.00
7126 44.8500 4923.00 4825.73 70.00
7127 44.8560 4864.00 4759.49 70.00
7128 44.8620 4825.00 4701.56 69.00
7129 44.8680 4881.00 4650.34 70.00
7130 44.8740 4937.00 4608.73 70.00
7131 44.8800 4876.00 4576.23 70.00
7132 44.8860 4803.00 4551.82 69.00
7133 44.8920 4858.00 4538.18 70.00
7134 44.8980 4929.00 4533.97 70.00
7135 44.9040 4903.00 4538.44 70.00
7136 44.9100 4918.00 4552.40 70.00
7137 44.9160 4978.00 4573.81 71.00
7138 44.9220 5048.00 4604.08 71.00
7139 44.9280 5058.00 4641.39 71.00
7140 44.9340 5123.00 4683.78 72.00
7141 44.9400 5111.00 4732.13 71.00
7142 44.9460 5142.00 4783.02 72.00
7143 44.9520 5180.00 4836.91 72.00
7144 44.9580 5268.00 4891.14 73.00
7145 44.9640 5354.00 4942.71 73.00
7146 44.9700 5264.00 4993.34 73.00
7147 44.9760 5288.00 5038.78 73.00
7148 44.9820 5244.00 5080.53 72.00
7149 44.9880 5249.00 5117.11 72.00
7150 44.9940 5305.00 5146.71 73.00
7151 45.0000 5231.00 5171.74 72.00
7152 45.0060 5258.00 5188.97 73.00
7153 45.0120 5125.00 5199.69 72.00
7154 45.0180 5008.00 5201.99 71.00
7155 45.0240 5022.00 5193.87 71.00
7156 45.0300 4949.00 5176.56 70.00
7157 45.0360 4939.00 5148.10 70.00
7158 45.0420 4933.00 5110.54 70.00
7159 45.0480 4850.00 5064.44 70.00
7160 45.0540 4772.00 5010.82 69.00
7161 45.0600 4730.00 4954.09 69.00
7162 45.0660 4649.00 4894.78 68.00
7163 45.0720 4601.00 4837.11 68.00
7164 45.0780 4555.00 4782.29 67.00
7165 45.0840 4511.00 4731.66 67.00
7166 45.0900 4506.00 4688.33 67.00
7167 45.0960 4573.00 4651.43 68.00
7168 45.1020 4560.00 4623.43 68.00
7169 45.1080 4495.00 4603.52 67.00
7170 45.1140 4554.00 4593.58 67.00
7171 45.1200 4565.00 4591.52 68.00
7172 45.1260 4557.00 4599.02 68.00
7173 45.1320 4613.00 4613.15 68.00
7174 45.1380 4699.00 4635.37 69.00
7175 45.1440 4817.00 4662.75 69.00
7176 45.1500 4860.00 4695.60 70.00
7177 45.1560 4841.00 4730.22 70.00
7178 45.1620 4962.00 4766.71 70.00
7179 45.1680 5153.00 4800.88 72.00
7180 45.1740 5218.00 4832.44 72.00
7181 45.1800 5185.00 4857.09 72.00
7182 45.1860 5223.00 4874.75 72.00
7183 45.1920 5118.00 4881.81 72.00
7184 45.1980 5122.00 4879.41 72.00
7185 45.2040 5122.00 4865.54 72.00
7186 45.2100 4891.00 4843.04 70.00
7187 45.2160 4774.00 4811.46 69.00
7188 45.2220 4812.00 4774.85 69.00
7189 45.2280 4742.00 4733.42 69.00
7190 45.2340 4622.00 4691.38 68.00
7191 45.2400 4579.00 4648.73 68.00
7192 45.2460 4518.00 4609.23 67.00
7193 45.2520 4433.00 4573.16 67.00
7194 45.2580 4390.00 4541.99 66.00
7195 45.2640 4357.00 4515.91 66.00
7196 45.2700 4404.00 4496.77 66.00
7197 45.2760 4425.00 4483.38 67.00
7198 45.2820 4427.00 4477.96 67.00
7199 45.2880 4429.00 4478.47 67.00
7200 45.2940 4440.00 4486.64 67.00
7201 45.3000 4351.00 4499.97 66.00
7202 45.3060 4430.00 4520.70 67.00
7203 45.3120 4461.00 4543.95 67.00
7204 45.3180 4361.00 4571.50 66.00
7205 45.3240 4374.00 4599.85 66.00
7206 45.3300 4468.00 4629.78 67.00
7207 45.3360 4568.00 4657.65 68.00
7208 45.3420 4853.00 4684.05 70.00
7209 45.3480 4921.00 4705.76 70.00
7210 45.3540 4751.00 4723.88 69.00
7211 45.3600 4714.00 4735.91 69.00
7212 45.3660 4661.00 4743.74 68.00
7213 45.3720 4624.00 4744.70 68.00
7214 45.3780 4607.00 4742.06 68.00
7215 45.3840 4619.00 4733.53 68.00
7216 45.3900 4528.00 4721.41 67.00
7217 45.3960 4550.00 4703.95 67.00
7218 45.4020 4521.00 4683.44 67.00
7219 45.4080 4508.00 4658.88 67.00
7220 45.4140 4539.00 4632.76 67.00
7221 45.4200 4519.00 4603.93 67.00
7222 45.4260 4436.00 4575.13 67.00
7223 45.4320 4387.00 4545.05 66.00
7224 45.4380 4374.00 4515.91 66.00
7225 45.4440 4251.00 4486.51 65.00
7226 45.4500 4241.00 4458.65 65.00
7227 45.4560 4264.00 4430.34 65.00
7228 45.4620 4280.00 4403.55 65.00
7229 45.4680 4310.00 4376.30 66.00
7230 45.4740 4248.00 4350.85 65.00
7231 45.4800 4219.00 4325.49 65.00
7232 45.4860 4200.00 4302.65 65.00
7233 45.4920 4205.00 4280.64 65.00
7234 45.4980 4149.00 4261.95 64.00
7235 45.5040 4170.00 4244.78 65.00
7236 45.5100 4190.00 4231.38 65.00
7237 45.5160 4177.00 4219.80 65.00
7238 45.5220 4149.00 4212.01 64.00
7239 45.5280 4167.00 4205.85 65.00
7240 45.5340 4185.00 4202.93 65.00
7241 45.5400 4159.00 4201.21 64.00
7242 45.5460 4138.00 4202.00 64.00
7243 45.5520 4171.00 4202.81 65.00
7244 45.5580 4133.00 4205.05 64.00
7245 45.5640 4098.00 4206.13 64.00
7246 45.5700 4189.00 4208.00 65.00
7247 45.5760 4227.00 4207.12 65.00
7248 45.5820 4106.00 4205.66 64.00
7249 45.5880 4073.00 4201.37 64.00
7250 45.5940 3990.00 4196.59 63.00
7251 45.6000 4140.00 4188.95 64.00
7252 45.6060 4094.00 4180.30 64.00
7253 45.6120 3994.00 4169.39 63.00
7254 45.6180 4038.00 4158.66 64.00
7255 45.6240 4011.00 4146.07 63.00
7256 45.6300 3940.00 4135.70 63.00
7257 45.6360 4013.00 4127.85 63.00
7258 45.6420 3955.00 4122.41 63.00
7259 45.6480 4103.00 4118.88 64.00
7260 45.6540 4093.00 4117.74 64.00
7261 45.6600 4020.00 4118.78 63.00
7262 45.6660 4092.00 4124.76 64.00
7263 45.6720 4069.00 4133.41 64.00
7264 45.6780 4088.00 4146.11 64.00
7265 45.6840 4023.00 4163.18 63.00
7266 45.6900 4072.00 4184.95 64.00
7267 45.6960 4154.00 4212.66 64.00
7268 45.7020 4233.00 4244.53 65.00
7269 45.7080 4229.00 4281.68 65.00
7270 45.7140 4303.00 4324.14 66.00
7271 45.7200 4276.00 4371.67 65.00
7272 45.7260 4424.00 4424.99 67.00
7273 45.7320 4436.00 4482.00 67.00
7274 45.7380 4636.00 4543.43 68.00
7275 45.7440 4656.00 4608.09 68.00
7276 45.7500 4631.00 4675.03 68.00
7277 45.7560 4754.00 4744.02 69.00
7278 45.7620 4859.00 4811.57 70.00
7279 45.7680 4878.00 4877.05 70.00
7280 45.7740 4905.00 4937.41 70.00
7281 45.7800 5031.00 4993.56 71.00
7282 45.7860 5042.00 5042.75 71.00
7283 45.7920 5158.00 5084.72 72.00
7284 45.7980 4917.00 5116.95 70.00
7285 45.8040 5176.00 5138.86 72.00
7286 45.8100 5183.00 5152.55 72.00
7287 45.8160 5098.00 5158.07 71.00
7288 45.8220 4988.00 5157.18 71.00
7289 45.8280 5022.00 5149.26 71.00
7290 45.8340 5113.00 5136.70 72.00
7291 45.8400 5001.00 5120.33 71.00
7292 45.8460 4969.00 5101.56 70.00
7293 45.8520 5071.00 5081.88 71.00
7294 45.8580 5119.00 5059.79 72.00
7295 45.8640 4964.00 5036.57 70.00
7296 45.8700 5032.00 5012.41 71.00
7297 45.8760 4776.00 4987.50 69.00
7298 45.8820 4929.00 4963.07 70.00
7299 45.8880 4858.00 4937.39 70.00
7300 45.8940 4876.00 4911.75 70.00
7301 45.9000 4990.00 4886.39 71.00
7302 45.9060 4803.00 4861.53 69.00
7303 45.9120 4749.00 4837.26 69.00
7304 45.9180 4691.00 4814.68 68.00
7305 45.9240 4619.00 4791.96 68.00
7306 45.9300 4639.00 4770.06 68.00
7307 45.9360 4531.00 4749.42 67.00
7308 45.9420 4549.00 4730.17 67.00
7309 45.9480 4417.00 4713.76 66.00
7310 45.9540 4403.00 4698.52 66.00
7311 45.9600 4332.00 4685.59 66.00
7312 45.9660 4492.00 4675.00 67.00
7313 45.9720 4471.00 4666.58 67.00
7314 45.9780 4365.00 4660.47 66.00
7315 45.9840 4377.00 4655.09 66.00
7316 45.9900 4526.00 4650.34 67.00
7317 45.9960 4547.00 4645.61 67.00
7318 46.0020 4461.00 4640.38 67.00
7319 46.0080 4291.00 4635.06 66.00
7320 46.0140 4425.00 4627.42 67.00
7321 46.0200 4324.00 4618.30 66.00
7322 46.0260 4264.00 4607.64 65.00
7323 46.0320 4470.00 4595.46 67.00
7324 46.0380 4316.00 4581.84 66.00
7325 46.0440 4301.00 4566.40 66.00
7326 46.0500 4324.00 4550.14 66.00
7327 46.0560 4212.00 4532.72 65.00
7328 46.0620 4224.00 4514.28 65.00
7329 46.0680 4189.00 4495.04 65.00
7330 46.0740 4142.00 4476.32 64.00
7331 46.0800 4158.00 4456.49 64.00
7332 46.0860 4100.00 4436.99 64.00
7333 46.0920 4062.00 4419.44 64.00
7334 46.0980 4135.00 4398.19 64.00
7335 46.1040 4149.00 4377.18 64.00
7336 46.1100 4046.00 4357.04 64.00
7337 46.1160 4103.00 4339.32 64.00
7338 46.1220 4218.00 4323.67 65.00
7339 46.1280 4142.00 4311.59 64.00
7340 46.1340 4126.00 4301.56 64.00
7341 46.1400 4229.00 4294.51 65.00
7342 46.1460 4081.00 4290.14 64.00
7343 46.1520 4160.00 4289.04 64.00
7344 46.1580 4162.00 4292.37 65.00
7345 46.1640 4185.00 4298.37 65.00
7346 46.1700 4201.00 4308.22 65.00
7347 46.1760 4280.00 4322.16 65.00
7348 46.1820 4375.00 4341.84 66.00
7349 46.1880 4239.00 4364.47 65.00
7350 46.1940 4241.00 4391.86 65.00
7351 46.2000 4508.00 4424.03 67.00
7352 46.2060 4524.00 4460.28 67.00
7353 46.2120 4476.00 4502.50 67.00
7354 46.2180 4619.00 4548.99 68.00
7355 46.2240 4691.00 4600.27 68.00
7356 46.2300 4834.00 4655.23 70.00
7357 46.2360 4870.00 4714.63 70.00
7358 46.2420 4889.00 4776.85 70.00
7359 46.2480 4929.00 4839.66 70.00
7360 46.2540 5032.00 4903.88 71.00
7361 46.2600 5034.00 4966.31 71.00
7362 46.2660 5057.00 5027.81 71.00
7363 46.2720 5023.00 5083.76 71.00
7364 46.2780 5117.00 5134.15 72.00
7365 46.2840 5308.00 5177.73 73.00
7366 46.2900 5349.00 5214.62 73.00
7367 46.2960 5232.00 5242.49 72.00
7368 46.3020 5226.00 5262.41 72.00
7369 46.3080 5188.00 5274.81 72.00
7370 46.3140 5142.00 5280.14 72.00
7371 46.3200 5285.00 5279.82 73.00
7372 46.3260 5108.00 5272.56 71.00
7373 46.3320 5160.00 5258.65 72.00
7374 46.3380 5197.00 5238.69 72.00
7375 46.3440 5138.00 5213.99 72.00
7376 46.3500 5039.00 5183.13 71.00
7377 46.3560 4961.00 5147.83 70.00
7378 46.3620 4936.00 5108.53 70.00
7379 46.3680 4997.00 5068.22 71.00
7380 46.3740 5111.00 5025.37 71.00
7381 46.3800 4960.00 4980.34 70.00
7382 46.3860 4898.00 4935.46 70.00
7383 46.3920 4907.00 4887.87 70.00
7384 46.3980 4845.00 4839.92 70.00
7385 46.4040 4702.00 4790.64 69.00
7386 46.4100 4596.00 4739.56 68.00
7387 46.4160 4596.00 4687.73 68.00
7388 46.4220 4597.00 4637.70 68.00
7389 46.4280 4587.00 4587.70 68.00
7390 46.4340 4507.00 4539.76 67.00
7391 46.4400 4531.00 4493.99 67.00
7392 46.4460 4369.00 4451.25 66.00
7393 46.4520 4404.00 4412.95 66.00
7394 46.4580 4402.00 4377.71 66.00
7395 46.4640 4371.00 4346.24 66.00
7396 46.4700 4401.00 4318.99 66.00
7397 46.4760 4424.00 4297.09 67.00
7398 46.4820 4413.00 4278.25 66.00
7399 46.4880 4464.00 4264.24 67.00
7400 46.4940 4320.00 4254.69 66.00
7401 46.5000 4345.00 4249.60 66.00
7402 46.5060 4412.00 4249.92 66.00
7403 46.5120 4480.00 4253.61 67.00
7404 46.5180 4434.00 4261.62 67.00
7405 46.5240 4396.00 4273.86 66.00
7406 46.5300 4252.00 4291.31 65.00
7407 46.5360 4355.00 4311.96 66.00
7408 46.5420 4324.00 4336.57 66.00
7409 46.5480 4378.00 4365.10 66.00
7410 46.5540 4439.00 4397.33 67.00
7411 46.5600 4266.00 4434.14 65.00
7412 46.5660 4424.00 4473.40 67.00
7413 46.5720 4424.00 4514.34 67.00
7414 46.5780 4513.00 4556.94 67.00
7415 46.5840 4563.00 4601.12 68.00
7416 46.5900 4563.00 4643.87 68.00
7417 46.5960 4563.00 4684.57 68.00
7418 46.6020 4489.00 4721.91 67.00
7419 46.6080 4795.00 4754.45 69.00
7420 46.6140 4620.00 4781.73 68.00
7421 46.6200 4722.00 4800.38 69.00
7422 46.6260 4716.00 4810.92 69.00
7423 46.6320 4636.00 4812.60 68.00
7424 46.6380 4653.00 4806.28 68.00
7425 46.6440 4583.00 4790.24 68.00
7426 46.6500 4602.00 4766.15 68.00
7427 46.6560 4511.00 4734.93 67.00
7428 46.6620 4319.00 4697.64 66.00
7429 46.6680 4421.00 4656.48 66.00
7430 46.6740 4422.00 4610.61 66.00
7431 46.6800 4342.00 4562.24 66.00
7432 46.6860 4403.00 4512.55 66.00
7433 46.6920 4296.00 4463.66 66.00
7434 46.6980 4349.00 4414.65 66.00
7435 46.7040 4231.00 4367.58 65.00
7436 46.7100 4161.00 4323.06 65.00
7437 46.7160 4282.00 4282.83 65.00
7438 46.7220 4167.00 4245.43 65.00
7439 46.7280 4205.00 4212.18 65.00
7440 46.7340 4170.00 4183.28 65.00
7441 46.7400 4169.00 4161.81 65.00
7442 46.7460 4146.00 4144.75 64.00
7443 46.7520 4153.00 4131.97 64.00
7444 46.7580 4173.00 4123.44 65.00
7445 46.7640 4265.00 4118.60 65.00
7446 46.7700 4165.00 4117.31 65.00
7447 46.7760 4327.00 4119.21 66.00
7448 46.7820 4348.00 4123.96 66.00
7449 46.7880 4149.00 4132.47 64.00
7450 46.7940 4149.00 4141.76 64.00
7451 46.8000 4359.00 4152.61 66.00
7452 46.8060 4244.00 4164.67 65.00
7453 46.8120 4320.00 4177.58 66.00
7454 46.8180 4281.00 4190.67 65.00
7455 46.8240 4193.00 4202.83 65.00
7456 46.8300 4217.00 4214.62 65.00
7457 46.8360 4321.00 4224.44 66.00
7458 46.8420 4330.00 4232.72 66.00
7459 46.8480 4250.00 4239.61 65.00
7460 46.8540 4350.00 4242.76 66.00
7461 46.8600 4187.00 4243.32 65.00
7462 46.8660 4277.00 4241.31 65.00
7463 46.8720 4214.00 4237.01 65.00
7464 46.8780 4226.00 4230.85 65.00
7465 46.8840 4163.00 4223.40 65.00
7466 46.8900 4251.00 4214.79 65.00
7467 46.8960 4189.00 4206.55 65.00
7468 46.9020 4214.00 4198.85 65.00
7469 46.9080 4083.00 4193.27 64.00
7470 46.9140 4187.00 4188.03 65.00
7471 46.9200 4214.00 4185.11 65.00
7472 46.9260 4217.00 4184.55 65.00
7473 46.9320 4233.00 4186.57 65.00
7474 46.9380 4198.00 4191.32 65.00
7475 46.9440 4324.00 4198.80 66.00
7476 46.9500 4304.00 4208.95 66.00
7477 46.9560 4369.00 4221.20 66.00
7478 46.9620 4405.00 4236.18 66.00
7479 46.9680 4499.00 4254.18 67.00
7480 46.9740 4344.00 4272.94 66.00
7481 46.9800 4232.00 4293.16 65.00
7482 46.9860 4167.00 4314.58 65.00
7483 46.9920 4214.00 4336.97 65.00
7484 46.9980 4354.00 4360.16 66.00
7485 47.0040 4454.00 4383.93 67.00
7486 47.0100 4633.00 4408.14 68.00
7487 47.0160 4560.00 4432.69 68.00
7488 47.0220 4715.00 4457.51 69.00
7489 47.0280 4679.00 4482.30 68.00
7490 47.0340 4562.00 4508.91 68.00
7491 47.0400 4602.00 4535.29 68.00
7492 47.0460 4638.00 4562.87 68.00
7493 47.0520 4578.00 4592.12 68.00
7494 47.0580 4554.00 4623.74 67.00
7495 47.0640 4699.00 4658.59 69.00
7496 47.0700 4672.00 4697.24 68.00
7497 47.0760 4635.00 4740.30 68.00
7498 47.0820 4648.00 4788.26 68.00
7499 47.0880 4847.00 4841.35 70.00
7500 47.0940 4910.00 4900.28 70.00
7501 47.1000 4939.00 4963.13 70.00
7502 47.1060 5037.00 5029.98 71.00
7503 47.1120 5044.00 5099.65 71.00
7504 47.1180 5081.00 5170.58 71.00
7505 47.1240 5158.00 5240.92 72.00
7506 47.1300 5281.00 5309.00 73.00
7507 47.1360 5134.00 5371.80 72.00
7508 47.1420 5266.00 5427.68 73.00
7509 47.1480 5064.00 5475.31 71.00
7510 47.1540 5260.00 5514.70 73.00
7511 47.1600 5244.00 5544.37 72.00
7512 47.1660 5352.00 5564.84 73.00
7513 47.1720 5373.00 5577.16 73.00
7514 47.1780 5311.00 5583.04 73.00
7515 47.1840 5226.00 5584.08 72.00
7516 47.1900 5183.00 5582.36 72.00
7517 47.1960 5185.00 5578.95 72.00
7518 47.2020 5267.00 5575.99 73.00
7519 47.2080 5303.00 5575.15 73.00
7520 47.2140 5324.00 5578.94 73.00
7521 47.2200 5310.00 5586.57 73.00
7522 47.2260 5328.00 5599.89 73.00
7523 47.2320 5482.00 5619.33 74.00
7524 47.2380 5666.00 5645.01 75.00
7525 47.2440 5471.00 5676.63 74.00
7526 47.2500 5640.00 5713.82 75.00
7527 47.2560 5627.00 5755.84 75.00
7528 47.2620 5782.00 5800.92 76.00
7529 47.2680 5855.00 5846.88 77.00
7530 47.2740 5947.00 5892.20 77.00
7531 47.2800 6097.00 5935.66 78.00
7532 47.2860 6160.00 5972.82 78.00
7533 47.2920 6061.00 6002.54 78.00
7534 47.2980 5943.00 6023.06 77.00
7535 47.3040 5962.00 6033.44 77.00
7536 47.3100 5978.00 6033.61 77.00
7537 47.3160 5948.00 6024.47 77.00
7538 47.3220 5943.00 6006.97 77.00
7539 47.3280 5955.00 5985.23 77.00
7540 47.3340 5978.00 5961.34 77.00
7541 47.3400 6143.00 5939.19 78.00
7542 47.3460 6036.00 5919.67 78.00
7543 47.3520 6012.00 5906.45 78.00
7544 47.3580 6076.00 5901.09 78.00
7545 47.3640 6084.00 5905.10 78.00
7546 47.3700 6243.00 5919.17 79.00
7547 47.3760 6328.00 5942.63 80.00
7548 47.3820 6304.00 5975.99 79.00
7549 47.3880 6580.00 6018.41 81.00
7550 47.3940 6644.00 6067.25 82.00
7551 47.4000 6496.00 6121.78 81.00
7552 47.4060 6478.00 6177.36 80.00
7553 47.4120 6441.00 6232.03 80.00
7554 47.4180 6451.00 6282.32 80.00
7555 47.4240 6427.00 6324.60 80.00
7556 47.4300 6380.00 6355.31 80.00
7557 47.4360 6429.00 6371.23 80.00
7558 47.4420 6419.00 6369.29 80.00
7559 47.4480 6259.00 6349.22 79.00
7560 47.4540 6198.00 6310.02 79.00
7561 47.4600 6119.00 6253.36 78.00
7562 47.4660 6016.00 6178.99 78.00
7563 47.4720 5851.00 6090.41 76.00
7564 47.4780 5753.00 5990.62 76.00
7565 47.4840 5797.00 5882.85 76.00
7566 47.4900 5720.00 5770.19 76.00
7567 47.4960 5618.00 5655.60 75.00
7568 47.5020 5549.00 5541.50 74.00
7569 47.5080 5466.00 5430.13 74.00
7570 47.5140 5395.00 5323.33 73.00
7571 47.5200 5191.00 5223.55 72.00
7572 47.5260 5163.00 5131.20 72.00
7573 47.5320 5192.00 5046.19 72.00
7574 47.5380 5119.00 4970.35 72.00
7575 47.5440 4936.00 4904.93 70.00
7576 47.5500 4871.00 4848.65 70.00
7577 47.5560 4911.00 4802.34 70.00
7578 47.5620 4930.00 4765.74 70.00
7579 47.5680 4924.00 4738.58 70.00
7580 47.5740 4865.00 4719.74 70.00
7581 47.5800 4925.00 4708.26 70.00
7582 47.5860 5000.00 4704.04 71.00
7583 47.5920 5034.00 4703.71 71.00
7584 47.5980 5059.00 4706.74 71.00
7585 47.6040 5070.00 4711.48 71.00
7586 47.6100 5021.00 4716.26 71.00
7587 47.6160 4963.00 4719.46 70.00
7588 47.6220 4993.00 4719.59 71.00
7589 47.6280 5034.00 4715.41 71.00
7590 47.6340 4998.00 4706.29 71.00
7591 47.6400 4940.00 4691.37 70.00
7592 47.6460 4896.00 4671.77 70.00
7593 47.6520 4877.00 4645.79 70.00
7594 47.6580 4879.00 4614.51 70.00
7595 47.6640 4796.00 4579.82 69.00
7596 47.6700 4763.00 4542.18 69.00
7597 47.6760 4856.00 4502.62 70.00
7598 47.6820 4842.00 4461.81 70.00
7599 47.6880 4774.00 4421.20 69.00
7600 47.6940 4717.00 4382.05 69.00
7601 47.7000 4623.00 4344.77 68.00
7602 47.7060 4388.00 4310.99 66.00
7603 47.7120 4199.00 4279.21 65.00
7604 47.7180 4235.00 4250.89 65.00
7605 47.7240 4319.00 4225.86 66.00
7606 47.7300 4375.00 4205.00 66.00
7607 47.7360 4410.00 4188.03 66.00
7608 47.7420 4432.00 4174.94 67.00
7609 47.7480 4404.00 4165.65 66.00
7610 47.7540 4326.00 4160.00 66.00
7611 47.7600 4391.00 4157.83 66.00
7612 47.7660 4439.00 4159.90 67.00
7613 47.7720 4416.00 4164.09 66.00
7614 47.7780 4448.00 4170.93 67.00
7615 47.7840 4445.00 4180.49 67.00
7616 47.7900 4407.00 4192.03 66.00
7617 47.7960 4342.00 4205.70 66.00
7618 47.8020 4440.00 4220.66 67.00
7619 47.8080 4528.00 4236.73 67.00
7620 47.8140 4400.00 4253.54 66.00
7621 47.8200 4338.00 4270.32 66.00
7622 47.8260 4297.00 4286.62 66.00
7623 47.8320 4314.00 4302.78 66.00
7624 47.8380 4289.00 4316.28 65.00
7625 47.8440 4242.00 4327.48 65.00
7626 47.8500 4247.00 4335.80 65.00
7627 47.8560 4286.00 4340.78 65.00
7628 47.8620 4338.00 4342.04 66.00
7629 47.8680 4357.00 4339.17 66.00
7630 47.8740 4304.00 4332.18 66.00
7631 47.8800 4286.00 4321.35 65.00
7632 47.8860 4290.00 4306.97 65.00
7633 47.8920 4217.00 4290.65 65.00
7634 47.8980 4289.00 4270.57 65.00
7635 47.9040 4264.00 4248.90 65.00
7636 47.9100 4238.00 4226.00 65.00
7637 47.9160 4168.00 4202.22 65.00
7638 47.9220 4108.00 4178.47 64.00
7639 47.9280 4121.00 4154.96 64.00
7640 47.9340 4175.00 4131.68 65.00
7641 47.9400 4182.00 4109.39 65.00
7642 47.9460 4067.00 4087.87 64.00
7643 47.9520 4096.00 4068.59 64.00
7644 47.9580 4113.00 4049.73 64.00
7645 47.9640 4032.00 4032.40 63.00
7646 47.9700 3989.00 4016.68 63.00
7647 47.9760 4017.00 4002.59 63.00
7648 47.9820 4060.00 3990.13 64.00
7649 47.9880 4060.00 3979.25 64.00
7650 47.9940 4015.00 3969.89 63.00
7651 48.0000 4066.00 3961.98 64.00
7652 48.0060 4080.00 3955.45 64.00
7653 48.0120 4028.00 3951.21 63.00
7654 48.0180 4012.00 3947.20 63.00
7655 48.0240 3931.00 3944.26 63.00
7656 48.0300 4002.00 3942.51 63.00
7657 48.0360 4089.00 3941.85 64.00
7658 48.0420 4036.00 3942.16 64.00
7659 48.0480 4020.00 3943.65 63.00
7660 48.0540 3940.00 3946.26 63.00
7661 48.0600 3863.00 3950.06 62.00
7662 48.0660 3972.00 3955.22 63.00
7663 48.0720 4036.00 3961.70 64.00
7664 48.0780 3956.00 3968.73 63.00
7665 48.0840 3919.00 3978.19 63.00
7666 48.0900 3943.00 3988.90 63.00
7667 48.0960 4021.00 4002.77 63.00
7668 48.1020 4081.00 4018.04 64.00
7669 48.1080 4109.00 4036.97 64.00
7670 48.1140 4187.00 4057.52 65.00
7671 48.1200 4111.00 4082.60 64.00
7672 48.1260 4139.00 4110.25 64.00
7673 48.1320 4137.00 4142.21 64.00
7674 48.1380 4175.00 4177.14 65.00
7675 48.1440 4276.00 4216.67 65.00
7676 48.1500 4360.00 4259.12 66.00
7677 48.1560 4399.00 4306.16 66.00
7678 48.1620 4343.00 4355.75 66.00
7679 48.1680 4422.00 4409.54 66.00
7680 48.1740 4554.00 4465.03 67.00
7681 48.1800 4654.00 4523.58 68.00
7682 48.1860 4755.00 4582.42 69.00
7683 48.1920 4740.00 4642.62 69.00
7684 48.1980 4703.00 4701.18 69.00
7685 48.2040 4741.00 4757.84 69.00
7686 48.2100 4968.00 4811.84 70.00
7687 48.2160 4991.00 4863.35 71.00
7688 48.2220 5004.00 4909.34 71.00
7689 48.2280 5095.00 4950.90 71.00
7690 48.2340 5012.00 4985.98 71.00
7691 48.2400 4984.00 5016.10 71.00
7692 48.2460 5120.00 5039.03 72.00
7693 48.2520 5127.00 5057.42 72.00
7694 48.2580 5074.00 5070.45 71.00
7695 48.2640 5018.00 5080.63 71.00
7696 48.2700 5035.00 5087.01 71.00
7697 48.2760 5063.00 5092.74 71.00
7698 48.2820 5018.00 5096.63 71.00
7699 48.2880 5091.00 5101.56 71.00
7700 48.2940 5187.00 5106.08 72.00
7701 48.3000 5241.00 5112.37 72.00
7702 48.3060 5108.00 5118.26 71.00
7703 48.3120 5208.00 5125.20 72.00
7704 48.3180 5248.00 5130.71 72.00
7705 48.3240 5244.00 5134.85 72.00
7706 48.3300 5215.00 5134.85 72.00
7707 48.3360 5158.00 5131.68 72.00
7708 48.3420 5088.00 5122.66 71.00
7709 48.3480 5126.00 5109.38 72.00
7710 48.3540 5146.00 5090.11 72.00
7711 48.3600 5111.00 5066.39 71.00
7712 48.3660 4856.00 5039.41 70.00
7713 48.3720 4996.00 5010.22 71.00
7714 48.3780 4985.00 4979.87 71.00
7715 48.3840 4982.00 4949.82 71.00
7716 48.3900 4882.00 4918.45 70.00
7717 48.3960 4869.00 4889.27 70.00
7718 48.4020 4895.00 4859.36 70.00
7719 48.4080 4889.00 4830.86 70.00
7720 48.4140 4801.00 4801.56 69.00
7721 48.4200 4887.00 4773.26 70.00
7722 48.4260 4709.00 4743.96 69.00
7723 48.4320 4745.00 4715.20 69.00
7724 48.4380 4727.00 4685.40 69.00
7725 48.4440 4644.00 4656.51 68.00
7726 48.4500 4513.00 4626.01 67.00
7727 48.4560 4586.00 4597.20 68.00
7728 48.4620 4648.00 4568.24 68.00
7729 48.4680 4531.00 4540.72 67.00
7730 48.4740 4458.00 4513.35 67.00
7731 48.4800 4408.00 4488.62 66.00
7732 48.4860 4457.00 4465.14 67.00
7733 48.4920 4467.00 4445.66 67.00
7734 48.4980 4416.00 4428.56 66.00
7735 48.5040 4466.00 4416.21 67.00
7736 48.5100 4386.00 4409.72 66.00
7737 48.5160 4544.00 4406.31 67.00
7738 48.5220 4498.00 4411.44 67.00
7739 48.5280 4531.00 4421.09 67.00
7740 48.5340 4601.00 4439.04 68.00
7741 48.5400 4534.00 4463.05 67.00
7742 48.5460 4502.00 4493.74 67.00
7743 48.5520 4661.00 4529.32 68.00
7744 48.5580 4696.00 4571.02 69.00
7745 48.5640 4743.00 4616.42 69.00
7746 48.5700 4873.00 4666.96 70.00
7747 48.5760 4926.00 4718.00 70.00
7748 48.5820 4899.00 4770.64 70.00
7749 48.5880 4921.00 4820.88 70.00
7750 48.5940 4859.00 4869.42 70.00
7751 48.6000 4898.00 4912.07 70.00
7752 48.6060 4996.00 4949.13 71.00
7753 48.6120 4988.00 4977.05 71.00
7754 48.6180 4981.00 4996.67 71.00
7755 48.6240 4896.00 5005.25 70.00
7756 48.6300 5000.00 5004.47 71.00
7757 48.6360 4806.00 4992.41 69.00
7758 48.6420 4811.00 4972.16 69.00
7759 48.6480 4733.00 4941.40 69.00
7760 48.6540 4810.00 4904.26 69.00
7761 48.6600 4788.00 4859.10 69.00
7762 48.6660 4563.00 4809.81 68.00
7763 48.6720 4542.00 4756.25 67.00
7764 48.6780 4646.00 4701.57 68.00
7765 48.6840 4601.00 4644.45 68.00
7766 48.6900 4564.00 4588.37 68.00
7767 48.6960 4414.00 4532.83 66.00
7768 48.7020 4435.00 4479.96 67.00
7769 48.7080 4364.00 4428.85 66.00
7770 48.7140 4367.00 4381.69 66.00
7771 48.7200 4423.00 4337.39 67.00
7772 48.7260 4324.00 4296.62 66.00
7773 48.7320 4237.00 4258.49 65.00
7774 48.7380 4213.00 4224.83 65.00
7775 48.7440 4212.00 4193.71 65.00
7776 48.7500 4268.00 4167.25 65.00
7777 48.7560 4311.00 4143.50 66.00
7778 48.7620 4222.00 4124.52 65.00
7779 48.7680 4166.00 4108.35 65.00
7780 48.7740 4175.00 4097.00 65.00
7781 48.7800 4242.00 4088.42 65.00
7782 48.7860 4093.00 4084.58 64.00
7783 48.7920 4114.00 4083.37 64.00
7784 48.7980 4145.00 4086.69 64.00
7785 48.8040 4094.00 4092.35 64.00
7786 48.8100 4152.00 4102.17 64.00
7787 48.8160 4183.00 4113.92 65.00
7788 48.8220 4145.00 4129.27 64.00
7789 48.8280 4150.00 4145.89 64.00
7790 48.8340 4185.00 4165.36 65.00
7791 48.8400 4341.00 4185.17 66.00
7792 48.8460 4275.00 4206.70 65.00
7793 48.8520 4374.00 4227.46 66.00
7794 48.8580 4280.00 4248.77 65.00
7795 48.8640 4330.00 4267.82 66.00
7796 48.8700 4368.00 4286.10 66.00
7797 48.8760 4400.00 4301.01 66.00
7798 48.8820 4268.00 4314.18 65.00
7799 48.8880 4381.00 4323.39 66.00
7800 48.8940 4445.00 4330.65 67.00
7801 48.9000 4320.00 4334.19 66.00
7802 48.9060 4417.00 4336.27 66.00
7803 48.9120 4451.00 4335.71 67.00
7804 48.9180 4515.00 4334.96 67.00
7805 48.9240 4443.00 4332.67 67.00
7806 48.9300 4335.00 4331.40 66.00
7807 48.9360 4275.00 4329.36 65.00
7808 48.9420 4367.00 4329.51 66.00
7809 48.9480 4350.00 4329.81 66.00
7810 48.9540 4266.00 4332.14 65.00
7811 48.9600 4248.00 4335.07 65.00
7812 48.9660 4428.00 4340.30 67.00
7813 48.9720 4323.00 4345.68 66.00
7814 48.9780 4218.00 4352.95 65.00
7815 48.9840 4172.00 4359.79 65.00
7816 48.9900 4330.00 4367.75 66.00
7817 48.9960 4136.00 4374.27 64.00
7818 49.0020 4362.00 4380.60 66.00
7819 49.0080 4290.00 4384.21 65.00
7820 49.0140 4380.00 4386.44 66.00
7821 49.0200 4181.00 4384.21 65.00
7822 49.0260 4185.00 4379.18 65.00
7823 49.0320 4259.00 4369.01 65.00
7824 49.0380 4277.00 4355.66 65.00
7825 49.0440 4184.00 4337.34 65.00
7826 49.0500 4254.00 4316.57 65.00
7827 49.0560 4052.00 4292.05 64.00
7828 49.0620 4110.00 4266.84 64.00
7829 49.0680 4165.00 4239.34 65.00
7830 49.0740 4094.00 4212.63 64.00
7831 49.0800 3931.00 4185.49 63.00
7832 49.0860 3845.00 4160.61 62.00
7833 49.0920 4017.00 4137.55 63.00
7834 49.0980 4039.00 4116.81 64.00
7835 49.1040 4074.00 4097.77 64.00
7836 49.1100 4079.00 4082.94 64.00
7837 49.1160 4098.00 4071.12 64.00
7838 49.1220 4085.00 4062.65 64.00
7839 49.1280 4123.00 4057.62 64.00
7840 49.1340 4131.00 4055.99 64.00
7841 49.1400 3926.00 4056.72 63.00
7842 49.1460 3988.00 4061.66 63.00
7843 49.1520 4120.00 4069.62 64.00
7844 49.1580 4083.00 4080.36 64.00
7845 49.1640 4243.00 4093.60 65.00
7846 49.1700 4087.00 4109.02 64.00
7847 49.1760 4226.00 4126.30 65.00
7848 49.1820 4183.00 4144.08 65.00
7849 49.1880 4167.00 4163.95 65.00
7850 49.1940 4252.00 4184.49 65.00
7851 49.2000 4295.00 4205.17 66.00
7852 49.2060 4320.00 4225.44 66.00
7853 49.2120 4262.00 4244.67 65.00
7854 49.2180 4430.00 4261.20 67.00
7855 49.2240 4423.00 4276.43 67.00
7856 49.2300 4400.00 4288.83 66.00
7857 49.2360 4323.00 4298.04 66.00
7858 49.2420 4353.00 4303.91 66.00
7859 49.2480 4463.00 4306.55 67.00
7860 49.2540 4337.00 4305.31 66.00
7861 49.2600 4339.00 4302.73 66.00
7862 49.2660 4298.00 4298.48 66.00
7863 49.2720 4307.00 4293.30 66.00
7864 49.2780 4341.00 4287.93 66.00
7865 49.2840 4306.00 4283.05 66.00
7866 49.2900 4195.00 4277.82 65.00
7867 49.2960 4264.00 4275.64 65.00
7868 49.3020 4231.00 4275.48 65.00
7869 49.3080 4269.00 4277.66 65.00
7870 49.3140 4151.00 4282.45 64.00
7871 49.3200 4378.00 4290.09 66.00
7872 49.3260 4217.00 4298.82 65.00
7873 49.3320 4303.00 4312.71 66.00
7874 49.3380 4297.00 4329.92 66.00
7875 49.3440 4355.00 4350.53 66.00
7876 49.3500 4279.00 4374.50 65.00
7877 49.3560 4405.00 4401.37 66.00
7878 49.3620 4367.00 4431.60 66.00
7879 49.3680 4550.00 4463.46 67.00
7880 49.3740 4483.00 4498.40 67.00
7881 49.3800 4601.00 4534.79 68.00
7882 49.3860 4754.00 4571.88 69.00
7883 49.3920 4677.00 4608.77 68.00
7884 49.3980 4725.00 4644.70 69.00
7885 49.4040 4802.00 4677.77 69.00
7886 49.4100 4735.00 4709.29 69.00
7887 49.4160 4694.00 4737.43 69.00
7888 49.4220 4651.00 4762.26 68.00
7889 49.4280 4677.00 4782.76 68.00
7890 49.4340 4803.00 4799.56 69.00
7891 49.4400 4751.00 4812.46 69.00
7892 49.4460 4676.00 4823.19 68.00
7893 49.4520 4785.00 4831.17 69.00
7894 49.4580 4887.00 4837.12 70.00
7895 49.4640 4726.00 4841.53 69.00
7896 49.4700 4779.00 4844.97 69.00
7897 49.4760 4775.00 4846.90 69.00
7898 49.4820 4752.00 4849.89 69.00
7899 49.4880 4647.00 4852.78 68.00
7900 49.4940 4627.00 4855.87 68.00
7901 49.5000 4662.00 4859.38 68.00
7902 49.5060 4712.00 4862.45 69.00
7903 49.5120 4736.00 4866.12 69.00
7904 49.5180 4639.00 4868.83 68.00
7905 49.5240 4633.00 4872.40 68.00
7906 49.5300 4634.00 4876.29 68.00
7907 49.5360 4680.00 4879.01 68.00
7908 49.5420 4665.00 4880.98 68.00
7909 49.5480 4631.00 4882.14 68.00
7910 49.5540 4648.00 4881.29 68.00
7911 49.5600 4693.00 4880.36 69.00
7912 49.5660 4685.00 4878.29 68.00
7913 49.5720 4718.00 4876.14 69.00
7914 49.5780 4747.00 4873.98 69.00
7915 49.5840 4736.00 4872.27 69.00
7916 49.5900 4770.00 4870.54 69.00
7917 49.5960 4816.00 4871.22 69.00
7918 49.6020 4754.00 4873.69 69.00
7919 49.6080 4824.00 4878.21 69.00
7920 49.6140 4918.00 4884.91 70.00
7921 49.6200 4877.00 4893.81 70.00
7922 49.6260 4936.00 4903.81 70.00
7923 49.6320 5024.00 4916.70 71.00
7924 49.6380 4823.00 4931.21 69.00
7925 49.6440 4919.00 4947.03 70.00
7926 49.6500 4908.00 4963.85 70.00
7927 49.6560 4930.00 4981.44 70.00
7928 49.6620 4983.00 4998.68 71.00
7929 49.6680 5008.00 5017.52 71.00
7930 49.6740 5051.00 5037.06 71.00
7931 49.6800 5203.00 5057.49 72.00
7932 49.6860 5217.00 5079.13 72.00
7933 49.6920 5171.00 5102.42 72.00
7934 49.6980 5194.00 5127.88 72.00
7935 49.7040 5307.00 5154.19 73.00
7936 49.7100 5237.00 5185.75 72.00
7937 49.7160 5381.00 5221.05 73.00
7938 49.7220 5462.00 5260.28 74.00
7939 49.7280 5478.00 5302.43 74.00
7940 49.7340 5500.00 5348.57 74.00
7941 49.7400 5585.00 5395.92 75.00
7942 49.7460 5610.00 5445.12 75.00
7943 49.7520 5542.00 5493.55 74.00
7944 49.7580 5556.00 5539.03 75.00
7945 49.7640 5525.00 5580.10 74.00
7946 49.7700 5603.00 5614.79 75.00
7947 49.7760 5720.00 5640.36 76.00
7948 49.7820 5717.00 5657.45 76.00
7949 49.7880 5617.00 5664.08 75.00
7950 49.7940 5630.00 5659.66 75.00
7951 49.8000 5688.00 5644.04 75.00
7952 49.8060 5505.00 5617.11 74.00
7953 49.8120 5349.00 5578.21 73.00
7954 49.8180 5317.00 5529.84 73.00
7955 49.8240 5221.00 5471.45 72.00
7956 49.8300 5215.00 5404.23 72.00
7957 49.8360 5182.00 5329.02 72.00
7958 49.8420 5147.00 5247.14 72.00
7959 49.8480 4957.00 5158.72 70.00
7960 49.8540 4914.00 5067.54 70.00
7961 49.8600 4741.00 4974.37 69.00
7962 49.8660 4761.00 4880.74 69.00
7963 49.8720 4642.00 4788.29 68.00
7964 49.8780 4585.00 4698.44 68.00
7965 49.8840 4562.00 4612.22 68.00
7966 49.8900 4591.00 4529.83 68.00
7967 49.8960 4401.00 4453.38 66.00
7968 49.9020 4374.00 4382.57 66.00
7969 49.9080 4420.00 4317.60 66.00
7970 49.9140 4310.00 4258.56 66.00
7971 49.9200 4221.00 4205.40 65.00
7972 49.9260 4170.00 4156.87 65.00
7973 49.9320 4185.00 4114.75 65.00
7974 49.9380 4073.00 4077.71 64.00
7975 49.9440 4082.00 4045.46 64.00
7976 49.9500 4067.00 4017.40 64.00
7977 49.9560 4029.00 3993.19 63.00
7978 49.9620 4013.00 3971.40 63.00
7979 49.9680 4025.00 3953.52 63.00
7980 49.9740 4008.00 3938.33 63.00
7981 49.9800 3988.00 3925.34 63.00
7982 49.9860 3943.00 3914.32 63.00
7983 49.9920 3913.00 3904.73 63.00
7984 49.9980 3963.00 3895.81 63.00
7985 50.0040 3841.00 3889.14 62.00
7986 50.0100 3822.00 3883.50 62.00
7987 50.0160 3856.00 3879.02 62.00
7988 50.0220 3841.00 3875.52 62.00
7989 50.0280 3887.00 3873.15 62.00
7990 50.0340 3834.00 3871.53 62.00
7991 50.0400 3924.00 3869.85 63.00
7992 50.0460 3848.00 3870.15 62.00
7993 50.0520 3788.00 3871.45 62.00
7994 50.0580 3810.00 3871.72 62.00
7995 50.0640 3810.00 3872.19 62.00
7996 50.0700 3748.00 3873.65 61.00
7997 50.0760 3915.00 3875.18 63.00
7998 50.0820 3878.00 3878.78 62.00
7999 50.0880 3754.00 3883.39 61.00
8000 50.0940 3842.00 3888.89 62.00
8001 50.1000 3769.00 3895.29 61.00
8002 50.1060 3826.00 3902.44 62.00
8003 50.1120 3838.00 3910.10 62.00
8004 50.1180 3890.00 3918.21 62.00
8005 50.1240 3901.00 3925.14 62.00
8006 50.1300 3845.00 3932.79 62.00
8007 50.1360 3928.00 3940.33 63.00
8008 50.1420 3792.00 3947.23 62.00
8009 50.1480 3818.00 3953.14 62.00
8010 50.1540 3974.00 3958.40 63.00
8011 50.1600 3895.00 3962.87 62.00
8012 50.1660 3819.00 3964.98 62.00
8013 50.1720 3777.00 3967.07 61.00
8014 50.1780 3928.00 3967.60 63.00
8015 50.1840 3877.00 3966.85 62.00
8016 50.1900 3933.00 3964.33 63.00
8017 50.1960 3900.00 3960.16 62.00
8018 50.2020 3924.00 3954.30 63.00
8019 50.2080 3876.00 3946.94 62.00
8020 50.2140 3884.00 3936.75 62.00
8021 50.2200 3836.00 3925.97 62.00
8022 50.2260 3763.00 3913.69 61.00
8023 50.2320 3781.00 3900.03 61.00
8024 50.2380 3762.00 3885.52 61.00
8025 50.2440 3822.00 3869.44 62.00
8026 50.2500 3836.00 3852.45 62.00
8027 50.2560 3833.00 3833.81 62.00
8028 50.2620 3871.00 3815.79 62.00
8029 50.2680 3862.00 3797.65 62.00
8030 50.2740 3813.00 3779.67 62.00
8031 50.2800 3846.00 3761.98 62.00
8032 50.2860 3764.00 3744.93 61.00
8033 50.2920 3783.00 3728.58 62.00
8034 50.2980 3715.00 3713.05 61.00
8035 50.3040 3731.00 3697.42 61.00
8036 50.3100 3763.00 3683.72 61.00
8037 50.3160 3727.00 3670.98 61.00
8038 50.3220 3709.00 3659.19 61.00
8039 50.3280 3601.00 3648.32 60.00
8040 50.3340 3680.00 3638.28 61.00
8041 50.3400 3693.00 3628.92 61.00
8042 50.3460 3754.00 3620.63 61.00
8043 50.3520 3745.00 3611.86 61.00
8044 50.3580 3715.00 3605.03 61.00
8045 50.3640 3658.00 3598.95 60.00
8046 50.3700 3629.00 3593.36 60.00
8047 50.3760 3659.00 3588.32 60.00
8048 50.3820 3661.00 3583.78 61.00
8049 50.3880 3718.00 3579.88 61.00
8050 50.3940 3755.00 3575.23 61.00
8051 50.4000 3699.00 3571.99 61.00
8052 50.4060 3690.00 3569.13 61.00
8053 50.4120 3614.00 3566.77 60.00
8054 50.4180 3608.00 3564.66 60.00
8055 50.4240 3716.00 3562.77 61.00
8056 50.4300 3685.00 3561.52 61.00
8057 50.4360 3684.00 3560.56 61.00
8058 50.4420 3607.00 3559.02 60.00
8059 50.4480 3617.00 3558.88 60.00
8060 50.4540 3617.00 3560.25 60.00
8061 50.4600 3645.00 3565.15 60.00
8062 50.4660 3617.00 3569.59 60.00
8063 50.4720 3637.00 3575.65 60.00
8064 50.4780 3623.00 3581.36 60.00
8065 50.4840 3612.00 3587.80 60.00
8066 50.4900 3600.00 3596.03 60.00
8067 50.4960 3654.00 3604.05 60.00
8068 50.5020 3666.00 3614.10 61.00
8069 50.5080 3649.00 3624.20 60.00
8070 50.5140 3742.00 3635.43 61.00
8071 50.5200 3773.00 3648.49 61.00
8072 50.5260 3679.00 3662.39 61.00
8073 50.5320 3758.00 3678.77 61.00
8074 50.5380 3849.00 3695.81 62.00
8075 50.5440 3886.00 3715.25 62.00
8076 50.5500 3783.00 3736.08 62.00
8077 50.5560 3789.00 3759.01 62.00
8078 50.5620 3839.00 3785.15 62.00
8079 50.5680 3878.00 3812.16 62.00
8080 50.5740 3875.00 3842.90 62.00
8081 50.5800 3959.00 3874.85 63.00
8082 50.5860 4013.00 3908.87 63.00
8083 50.5920 3933.00 3945.72 63.00
8084 50.5980 3903.00 3983.02 62.00
8085 50.6040 3960.00 4022.29 63.00
8086 50.6100 4079.00 4060.86 64.00
8087 50.6160 4110.00 4100.23 64.00
8088 50.6220 4130.00 4137.27 64.00
8089 50.6280 4118.00 4172.73 64.00
8090 50.6340 4175.00 4207.18 65.00
8091 50.6400 4218.00 4236.50 65.00
8092 50.6460 4291.00 4263.05 66.00
8093 50.6520 4194.00 4282.92 65.00
8094 50.6580 4191.00 4296.69 65.00
8095 50.6640 4231.00 4304.91 65.00
8096 50.6700 4183.00 4305.10 65.00
8097 50.6760 4151.00 4299.27 64.00
8098 50.6820 4106.00 4285.28 64.00
8099 50.6880 4109.00 4265.53 64.00
8100 50.6940 4145.00 4238.42 64.00
8101 50.7000 4073.00 4206.45 64.00
8102 50.7060 4033.00 4171.39 64.00
8103 50.7120 4017.00 4132.32 63.00
8104 50.7180 3899.00 4092.42 62.00
8105 50.7240 3858.00 4050.48 62.00
8106 50.7300 3900.00 4008.64 62.00
8107 50.7360 3858.00 3968.39 62.00
8108 50.7420 3793.00 3928.68 62.00
8109 50.7480 3835.00 3891.84 62.00
8110 50.7540 3813.00 3856.22 62.00
8111 50.7600 3814.00 3824.13 62.00
8112 50.7660 3725.00 3793.69 61.00
8113 50.7720 3680.00 3765.42 61.00
8114 50.7780 3686.00 3741.54 61.00
8115 50.7840 3773.00 3719.40 61.00
8116 50.7900 3810.00 3700.95 62.00
8117 50.7960 3777.00 3684.07 61.00
8118 50.8020 3755.00 3669.64 61.00
8119 50.8080 3641.00 3657.81 60.00
8120 50.8140 3633.00 3647.82 60.00
8121 50.8200 3672.00 3640.84 61.00
8122 50.8260 3696.00 3634.71 61.00
8123 50.8320 3648.00 3631.33 60.00
8124 50.8380 3635.00 3628.57 60.00
8125 50.8440 3677.00 3627.34 61.00
8126 50.8500 3731.00 3628.57 61.00
8127 50.8560 3696.00 3630.20 61.00
8128 50.8620 3577.00 3635.19 60.00
8129 50.8680 3613.00 3640.84 60.00
8130 50.8740 3712.00 3649.23 61.00
8131 50.8800 3761.00 3658.32 61.00
8132 50.8860 3729.00 3667.95 61.00
8133 50.8920 3714.00 3679.39 61.00
8134 50.8980 3783.00 3691.59 62.00
8135 50.9040 3820.00 3705.45 62.00
8136 50.9100 3811.00 3719.33 62.00
8137 50.9160 3864.00 3734.82 62.00
8138 50.9220 3852.00 3752.42 62.00
8139 50.9280 3827.00 3770.19 62.00
8140 50.9340 3856.00 3788.57 62.00
8141 50.9400 3948.00 3807.24 63.00
8142 50.9460 4011.00 3825.22 63.00
8143 50.9520 3936.00 3844.30 63.00
8144 50.9580 3934.00 3863.42 63.00
8145 50.9640 3999.00 3881.28 63.00
8146 50.9700 4031.00 3898.98 63.00
8147 50.9760 3953.00 3916.04 63.00
8148 50.9820 3913.00 3932.34 63.00
8149 50.9880 3981.00 3946.21 63.00
8150 50.9940 4012.00 3959.73 63.00
8151 51.0000 3981.00 3971.92 63.00
8152 51.0060 3957.00 3982.52 63.00
8153 51.0120 3978.00 3991.57 63.00
8154 51.0180 4015.00 3999.11 63.00
8155 51.0240 3958.00 4005.42 63.00
8156 51.0300 3900.00 4009.04 62.00
8157 51.0360 3852.00 4012.49 62.00
8158 51.0420 3904.00 4014.58 62.00
8159 51.0480 3931.00 4015.68 63.00
8160 51.0540 3957.00 4015.99 63.00
8161 51.0600 3964.00 4015.77 63.00
8162 51.0660 3853.00 4015.31 62.00
8163 51.0720 3896.00 4014.03 62.00
8164 51.0780 3994.00 4013.98 63.00
8165 51.0840 3941.00 4014.42 63.00
8166 51.0900 3924.00 4015.18 63.00
8167 51.0960 4013.00 4016.72 63.00
8168 51.1020 4019.00 4018.69 63.00
8169 51.1080 3864.00 4020.28 62.00
8170 51.1140 3860.00 4023.44 62.00
8171 51.1200 3952.00 4027.03 63.00
8172 51.1260 3937.00 4031.04 63.00
8173 51.1320 3869.00 4035.36 62.00
8174 51.1380 3831.00 4039.94 62.00
8175 51.1440 3841.00 4044.74 62.00
8176 51.1500 3880.00 4048.73 62.00
8177 51.1560 3940.00 4053.88 63.00
8178 51.1620 3973.00 4059.26 63.00
8179 51.1680 3952.00 4064.84 63.00
8180 51.1740 3896.00 4070.61 62.00
8181 51.1800 3955.00 4076.61 63.00
8182 51.1860 4071.00 4082.86 64.00
8183 51.1920 3995.00 4088.41 63.00
8184 51.1980 3983.00 4095.35 63.00
8185 51.2040 3947.00 4102.79 63.00
8186 51.2100 3986.00 4110.85 63.00
8187 51.2160 3969.00 4119.68 63.00
8188 51.2220 3948.00 4129.48 63.00
8189 51.2280 3984.00 4140.42 63.00
8190 51.2340 3993.00 4151.67 63.00
8191 51.2400 3925.00 4165.36 63.00
8192 51.2460 3957.00 4180.58 63.00
8193 51.2520 3919.00 4197.36 63.00
8194 51.2580 4034.00 4215.72 64.00
8195 51.2640 4058.00 4235.33 64.00
8196 51.2700 4068.00 4255.07 64.00
8197 51.2760 4085.00 4276.46 64.00
8198 51.2820 4040.00 4298.57 64.00
8199 51.2880 4085.00 4320.80 64.00
8200 51.2940 4123.00 4342.74 64.00
8201 51.3000 4127.00 4363.94 64.00
8202 51.3060 4023.00 4383.87 63.00
8203 51.3120 4046.00 4401.06 64.00
8204 51.3180 4061.00 4417.06 64.00
8205 51.3240 4101.00 4430.13 64.00
8206 51.3300 4068.00 4440.46 64.00
8207 51.3360 4111.00 4447.63 64.00
8208 51.3420 4158.00 4451.43 64.00
8209 51.3480 4308.00 4451.81 66.00
8210 51.3540 4325.00 4447.87 66.00
8211 51.3600 4287.00 4441.72 65.00
8212 51.3660 4302.00 4432.50 66.00
8213 51.3720 4239.00 4420.11 65.00
8214 51.3780 4251.00 4405.17 65.00
8215 51.3840 4266.00 4387.60 65.00
8216 51.3900 4175.00 4367.66 65.00
8217 51.3960 4138.00 4344.66 64.00
8218 51.4020 4138.00 4321.00 64.00
8219 51.4080 4019.00 4296.22 63.00
8220 51.4140 3913.00 4270.89 63.00
8221 51.4200 4007.00 4245.67 63.00
8222 51.4260 3942.00 4221.22 63.00
8223 51.4320 3931.00 4197.05 63.00
8224 51.4380 3932.00 4175.72 63.00
8225 51.4440 3920.00 4156.66 63.00
8226 51.4500 3871.00 4136.19 62.00
8227 51.4560 3955.00 4115.52 63.00
8228 51.4620 3978.00 4096.77 63.00
8229 51.4680 3927.00 4081.04 63.00
8230 51.4740 3979.00 4068.13 63.00
8231 51.4800 3986.00 4058.95 63.00
8232 51.4860 3990.00 4051.27 63.00
8233 51.4920 3984.00 4045.79 63.00
8234 51.4980 3971.00 4043.14 63.00
8235 51.5040 3954.00 4040.94 63.00
8236 51.5100 3921.00 4039.58 63.00
8237 51.5160 3950.00 4039.63 63.00
8238 51.5220 3964.00 4038.59 63.00
8239 51.5280 3986.00 4037.02 63.00
8240 51.5340 3964.00 4034.49 63.00
8241 51.5400 3991.00 4031.70 63.00
8242 51.5460 3957.00 4026.37 63.00
8243 51.5520 3895.00 4019.35 62.00
8244 51.5580 3942.00 4011.53 63.00
8245 51.5640 3892.00 4000.89 62.00
8246 51.5700 3788.00 3988.45 62.00
8247 51.5760 3799.00 3974.31 62.00
8248 51.5820 3701.00 3959.64 61.00
8249 51.5880 3795.00 3942.65 62.00
8250 51.5940 3915.00 3924.91 63.00
8251 51.6000 3978.00 3907.14 63.00
8252 51.6060 3863.00 3887.98 62.00
8253 51.6120 3872.00 3868.81 62.00
8254 51.6180 3934.00 3850.39 63.00
8255 51.6240 3843.00 3833.32 62.00
8256 51.6300 3822.00 3816.32 62.00
8257 51.6360 3795.00 3800.71 62.00
8258 51.6420 3697.00 3787.79 61.00
8259 51.6480 3793.00 3778.97 62.00
8260 51.6540 3842.00 3775.52 62.00
8261 51.6600 3886.00 3775.09 62.00
8262 51.6660 3784.00 3776.20 62.00
8263 51.6720 3708.00 3781.22 61.00
8264 51.6780 3704.00 3787.92 61.00
8265 51.6840 3691.00 3797.70 61.00
8266 51.6900 3685.00 3811.43 61.00
8267 51.6960 3752.00 3827.30 61.00
8268 51.7020 3728.00 3846.33 61.00
8269 51.7080 3825.00 3869.52 62.00
8270 51.7140 3692.00 3894.95 61.00
8271 51.7200 3834.00 3924.29 62.00
8272 51.7260 3775.00 3955.46 61.00
8273 51.7320 3824.00 3989.20 62.00
8274 51.7380 3854.00 4026.22 62.00
8275 51.7440 3954.00 4064.05 63.00
8276 51.7500 4063.00 4104.32 64.00
8277 51.7560 4141.00 4143.94 64.00
8278 51.7620 4089.00 4183.32 64.00
8279 51.7680 4258.00 4222.31 65.00
8280 51.7740 4310.00 4258.25 66.00
8281 51.7800 4310.00 4291.87 66.00
8282 51.7860 4354.00 4319.88 66.00
8283 51.7920 4299.00 4342.56 66.00
8284 51.7980 4446.00 4359.84 67.00
8285 51.8040 4407.00 4369.40 66.00
8286 51.8100 4400.00 4371.22 66.00
8287 51.8160 4306.00 4365.84 66.00
8288 51.8220 4205.00 4353.34 65.00
8289 51.8280 4222.00 4335.67 65.00
8290 51.8340 4098.00 4311.46 64.00
8291 51.8400 4031.00 4283.22 63.00
8292 51.8460 4128.00 4252.79 64.00
8293 51.8520 4075.00 4219.34 64.00
8294 51.8580 3907.00 4185.88 63.00
8295 51.8640 3876.00 4151.44 62.00
8296 51.8700 3898.00 4117.75 62.00
8297 51.8760 3970.00 4086.87 63.00
8298 51.8820 3922.00 4057.03 63.00
8299 51.8880 3992.00 4031.07 63.00
8300 51.8940 3971.00 4007.53 63.00
8301 51.9000 3920.00 3987.88 63.00
8302 51.9060 3972.00 3973.55 63.00
8303 51.9120 3974.00 3962.87 63.00
8304 51.9180 3863.00 3957.17 62.00
8305 51.9240 3973.00 3957.69 63.00
8306 51.9300 3921.00 3962.66 63.00
8307 51.9360 4135.00 3974.26 64.00
8308 51.9420 4035.00 3990.60 64.00
8309 51.9480 4090.00 4012.79 64.00
8310 51.9540 4095.00 4041.86 64.00
8311 51.9600 4060.00 4075.83 64.00
8312 51.9660 4393.00 4116.62 66.00
8313 51.9720 4493.00 4162.11 67.00
8314 51.9780 4297.00 4213.07 66.00
8315 51.9840 4353.00 4270.19 66.00
8316 51.9900 4520.00 4331.05 67.00
8317 51.9960 4627.00 4396.19 68.00
8318 52.0020 4709.00 4465.68 69.00
8319 52.0080 4621.00 4536.70 68.00
8320 52.0140 4768.00 4610.24 69.00
8321 52.0200 4848.00 4683.00 70.00
8322 52.0260 4923.00 4754.65 70.00
8323 52.0320 4925.00 4824.79 70.00
8324 52.0380 5071.00 4890.03 71.00
8325 52.0440 5101.00 4951.40 71.00
8326 52.0500 5139.00 5005.47 72.00
8327 52.0560 5326.00 5053.01 73.00
8328 52.0620 5126.00 5093.97 72.00
8329 52.0680 5252.00 5126.39 72.00
8330 52.0740 5157.00 5152.23 72.00
8331 52.0800 5079.00 5169.54 71.00
8332 52.0860 5090.00 5179.71 71.00
8333 52.0920 5169.00 5183.42 72.00
8334 52.0980 5133.00 5179.21 72.00
8335 52.1040 5195.00 5168.59 72.00
8336 52.1100 5264.00 5152.90 73.00
8337 52.1160 5132.00 5130.92 72.00
8338 52.1220 4958.00 5105.36 70.00
8339 52.1280 5090.00 5075.08 71.00
8340 52.1340 5042.00 5041.85 71.00
8341 52.1400 4900.00 5007.70 70.00
8342 52.1460 4944.00 4970.85 70.00
8343 52.1520 4870.00 4934.55 70.00
8344 52.1580 4900.00 4897.26 70.00
8345 52.1640 4907.00 4860.40 70.00
8346 52.1700 4784.00 4825.63 69.00
8347 52.1760 4766.00 4791.13 69.00
8348 52.1820 4781.00 4759.13 69.00
8349 52.1880 4861.00 4727.75 70.00
8350 52.1940 4688.00 4698.01 68.00
8351 52.2000 4581.00 4670.57 68.00
8352 52.2060 4755.00 4643.85 69.00
8353 52.2120 4653.00 4618.39 68.00
8354 52.2180 4733.00 4594.96 69.00
8355 52.2240 4704.00 4571.27 69.00
8356 52.2300 4686.00 4548.98 68.00
8357 52.2360 4516.00 4525.72 67.00
8358 52.2420 4652.00 4502.04 68.00
8359 52.2480 4504.00 4478.51 67.00
8360 52.2540 4512.00 4452.56 67.00
8361 52.2600 4515.00 4426.07 67.00
8362 52.2660 4538.00 4396.62 67.00
8363 52.2720 4384.00 4365.09 66.00
8364 52.2780 4324.00 4332.61 66.00
8365 52.2840 4380.00 4297.25 66.00
8366 52.2900 4339.00 4260.18 66.00
8367 52.2960 4284.00 4223.31 65.00
8368 52.3020 4179.00 4184.89 65.00
8369 52.3080 4206.00 4147.46 65.00
8370 52.3140 4172.00 4109.69 65.00
8371 52.3200 4248.00 4072.89 65.00
8372 52.3260 4147.00 4038.39 64.00
8373 52.3320 4136.00 4004.65 64.00
8374 52.3380 3955.00 3973.76 63.00
8375 52.3440 3951.00 3944.46 63.00
8376 52.3500 3960.00 3917.39 63.00
8377 52.3560 3877.00 3893.90 62.00
8378 52.3620 3798.00 3871.78 62.00
8379 52.3680 3891.00 3853.27 62.00
8380 52.3740 3985.00 3835.89 63.00
8381 52.3800 3701.00 3821.05 61.00
8382 52.3860 3857.00 3809.45 62.00
8383 52.3920 3824.00 3798.95 62.00
8384 52.3980 3706.00 3790.45 61.00
8385 52.4040 3765.00 3784.64 61.00
8386 52.4100 3756.00 3779.72 61.00
8387 52.4160 3742.00 3777.11 61.00
8388 52.4220 3737.00 3774.32 61.00
8389 52.4280 3814.00 3772.48 62.00
8390 52.4340 3900.00 3772.24 62.00
8391 52.4400 3828.00 3771.67 62.00
8392 52.4460 3697.00 3772.49 61.00
8393 52.4520 3696.00 3772.58 61.00
8394 52.4580 3616.00 3772.77 60.00
8395 52.4640 3724.00 3774.17 61.00
8396 52.4700 3826.00 3774.66 62.00
8397 52.4760 3815.00 3776.19 62.00
8398 52.4820 3774.00 3776.49 61.00
8399 52.4880 3803.00 3776.96 62.00
8400 52.4940 3763.00 3778.10 61.00
8401 52.5000 3709.00 3778.06 61.00
8402 52.5060 3693.00 3777.95 61.00
8403 52.5120 3678.00 3778.48 61.00
8404 52.5180 3705.00 3777.63 61.00
8405 52.5240 3714.00 3777.20 61.00
8406 52.5300 3642.00 3775.60 60.00
8407 52.5360 3672.00 3773.65 61.00
8408 52.5420 3677.00 3772.48 61.00
8409 52.5480 3735.00 3770.23 61.00
8410 52.5540 3709.00 3768.98 61.00
8411 52.5600 3700.00 3766.51 61.00
8412 52.5660 3660.00 3764.78 60.00
8413 52.5720 3631.00 3764.52 60.00
8414 52.5780 3557.00 3763.66 60.00
8415 52.5840 3529.00 3763.35 59.00
8416 52.5900 3599.00 3763.62 60.00
8417 52.5960 3708.00 3764.47 61.00
8418 52.6020 3749.00 3764.91 61.00
8419 52.6080 3729.00 3766.91 61.00
8420 52.6140 3754.00 3768.53 61.00
8421 52.6200 3700.00 3771.60 61.00
8422 52.6260 3616.00 3775.20 60.00
8423 52.6320 3625.00 3778.28 60.00
8424 52.6380 3665.00 3782.87 61.00
8425 52.6440 3736.00 3788.39 61.00
8426 52.6500 3790.00 3793.10 62.00
8427 52.6560 3812.00 3799.44 62.00
8428 52.6620 3741.00 3805.49 61.00
8429 52.6680 3650.00 3813.36 60.00
8430 52.6740 3608.00 3822.16 60.00
8431 52.6800 3618.00 3831.03 60.00
8432 52.6860 3687.00 3842.10 61.00
8433 52.6920 3686.00 3854.39 61.00
8434 52.6980 3709.00 3867.37 61.00
8435 52.7040 3766.00 3883.05 61.00
8436 52.7100 3816.00 3899.60 62.00
8437 52.7160 3770.00 3918.98 61.00
8438 52.7220 3812.00 3940.68 62.00
8439 52.7280 3827.00 3963.56 62.00
8440 52.7340 3834.00 3989.67 62.00
8441 52.7400 3905.00 4017.95 62.00
8442 52.7460 3808.00 4047.10 62.00
8443 52.7520 4045.00 4079.39 64.00
8444 52.7580 4045.00 4111.88 64.00
8445 52.7640 4098.00 4146.55 64.00
8446 52.7700 4095.00 4181.79 64.00
8447 52.7760 4046.00 4216.13 64.00
8448 52.7820 4232.00 4250.87 65.00
8449 52.7880 4354.00 4283.16 66.00
8450 52.7940 4344.00 4314.59 66.00
8451 52.8000 4325.00 4343.58 66.00
8452 52.8060 4342.00 4368.66 66.00
8453 52.8120 4430.00 4391.43 67.00
8454 52.8180 4391.00 4410.73 66.00
8455 52.8240 4345.00 4425.16 66.00
8456 52.8300 4364.00 4436.66 66.00
8457 52.8360 4382.00 4443.19 66.00
8458 52.8420 4277.00 4446.47 65.00
8459 52.8480 4253.00 4446.08 65.00
8460 52.8540 4268.00 4440.53 65.00
8461 52.8600 4397.00 4432.73 66.00
8462 52.8660 4267.00 4421.57 65.00
8463 52.8720 4203.00 4406.69 65.00
8464 52.8780 4256.00 4390.74 65.00
8465 52.8840 4292.00 4372.31 66.00
8466 52.8900 4315.00 4354.12 66.00
8467 52.8960 4187.00 4335.92 65.00
8468 52.9020 4180.00 4316.52 65.00
8469 52.9080 4135.00 4298.74 64.00
8470 52.9140 4038.00 4282.30 64.00
8471 52.9200 4124.00 4265.81 64.00
8472 52.9260 4196.00 4251.93 65.00
8473 52.9320 4150.00 4238.77 64.00
8474 52.9380 4080.00 4228.03 64.00
8475 52.9440 4203.00 4218.99 65.00
8476 52.9500 4150.00 4210.58 64.00
8477 52.9560 4081.00 4204.59 64.00
8478 52.9620 4052.00 4199.15 64.00
8479 52.9680 4172.00 4195.94 65.00
8480 52.9740 4145.00 4193.50 64.00
8481 52.9800 4238.00 4190.99 65.00
8482 52.9860 4154.00 4189.82 64.00
8483 52.9920 4089.00 4188.08 64.00
8484 52.9980 4276.00 4185.44 65.00
8485 53.0040 4230.00 4183.12 65.00
8486 53.0100 4309.00 4178.58 66.00
8487 53.0160 4224.00 4173.67 65.00
8488 53.0220 4083.00 4167.22 64.00
8489 53.0280 4053.00 4158.11 64.00
8490 53.0340 3952.00 4148.32 63.00
8491 53.0400 4015.00 4137.10 63.00
8492 53.0460 4038.00 4123.10 64.00
8493 53.0520 4178.00 4108.70 65.00
8494 53.0580 4007.00 4092.08 63.00
8495 53.0640 4056.00 4075.46 64.00
8496 53.0700 3986.00 4058.12 63.00
8497 53.0760 3941.00 4039.31 63.00
8498 53.0820 4036.00 4021.52 64.00
8499 53.0880 4050.00 4003.76 64.00
8500 53.0940 3897.00 3985.54 62.00
8501 53.1000 3938.00 3969.24 63.00
8502 53.1060 3863.00 3953.20 62.00
8503 53.1120 3957.00 3940.15 63.00
8504 53.1180 3943.00 3928.69 63.00
8505 53.1240 3875.00 3918.42 62.00
8506 53.1300 4022.00 3911.60 63.00
8507 53.1360 4146.00 3907.36 64.00
8508 53.1420 3987.00 3904.84 63.00
8509 53.1480 3983.00 3906.08 63.00
8510 53.1540 4021.00 3909.08 63.00
8511 53.1600 4075.00 3915.80 64.00
8512 53.1660 4075.00 3925.11 64.00
8513 53.1720 4129.00 3935.87 64.00
8514 53.1780 4094.00 3949.85 64.00
8515 53.1840 4185.00 3964.80 65.00
8516 53.1900 4140.00 3982.44 64.00
8517 53.1960 4208.00 4001.47 65.00
8518 53.2020 4179.00 4020.56 65.00
8519 53.2080 4150.00 4041.41 64.00
8520 53.2140 4117.00 4062.72 64.00
8521 53.2200 4106.00 4082.65 64.00
8522 53.2260 4255.00 4103.01 65.00
8523 53.2320 4262.00 4122.16 65.00
8524 53.2380 4332.00 4140.93 66.00
8525 53.2440 4347.00 4158.19 66.00
8526 53.2500 4190.00 4172.33 65.00
8527 53.2560 4188.00 4184.94 65.00
8528 53.2620 4137.00 4194.80 64.00
8529 53.2680 4213.00 4200.03 65.00
8530 53.2740 4141.00 4203.40 64.00
8531 53.2800 4133.00 4201.83 64.00
8532 53.2860 4189.00 4198.60 65.00
8533 53.2920 4112.00 4192.17 64.00
8534 53.2980 4082.00 4181.64 64.00
8535 53.3040 4166.00 4168.92 65.00
8536 53.3100 4106.00 4153.90 64.00
8537 53.3160 4107.00 4135.54 64.00
8538 53.3220 4090.00 4115.93 64.00
8539 53.3280 4086.00 4093.88 64.00
8540 53.3340 4006.00 4071.51 63.00
8541 53.3400 4086.00 4048.19 64.00
8542 53.3460 4047.00 4023.04 64.00
8543 53.3520 3998.00 3998.98 63.00
8544 53.3580 3981.00 3974.28 63.00
8545 53.3640 4110.00 3950.95 64.00
8546 53.3700 3921.00 3928.76 63.00
8547 53.3760 4102.00 3906.83 64.00
8548 53.3820 3961.00 3887.55 63.00
8549 53.3880 3952.00 3869.96 63.00
8550 53.3940 3938.00 3853.88 63.00
8551 53.4000 3966.00 3841.01 63.00
8552 53.4060 3921.00 3829.86 63.00
8553 53.4120 3895.00 3822.18 62.00
8554 53.4180 4028.00 3817.17 63.00
8555 53.4240 3947.00 3813.91 63.00
8556 53.4300 3939.00 3814.37 63.00
8557 53.4360 3927.00 3817.38 63.00
8558 53.4420 3991.00 3822.07 63.00
8559 53.4480 4137.00 3830.49 64.00
8560 53.4540 4123.00 3840.16 64.00
8561 53.4600 4009.00 3853.39 63.00
8562 53.4660 4009.00 3868.61 63.00
8563 53.4720 4034.00 3885.01 64.00
8564 53.4780 3998.00 3904.21 63.00
8565 53.4840 4079.00 3924.95 64.00
8566 53.4900 4203.00 3945.98 65.00
8567 53.4960 4106.00 3969.04 64.00
8568 53.5020 4263.00 3991.89 65.00
8569 53.5080 4155.00 4016.23 64.00
8570 53.5140 4138.00 4040.74 64.00
8571 53.5200 4298.00 4064.10 66.00
8572 53.5260 4240.00 4087.98 65.00
8573 53.5320 4212.00 4111.05 65.00
8574 53.5380 4256.00 4132.06 65.00
8575 53.5440 4204.00 4152.58 65.00
8576 53.5500 4277.00 4170.39 65.00
8577 53.5560 4287.00 4187.28 65.00
8578 53.5620 4230.00 4202.02 65.00
8579 53.5680 4285.00 4213.46 65.00
8580 53.5740 4223.00 4223.56 65.00
8581 53.5800 4312.00 4230.06 66.00
8582 53.5860 4395.00 4234.96 66.00
8583 53.5920 4431.00 4237.15 67.00
8584 53.5980 4420.00 4235.53 66.00
8585 53.6040 4409.00 4231.97 66.00
8586 53.6100 4548.00 4225.39 67.00
8587 53.6160 4509.00 4214.54 67.00
8588 53.6220 4394.00 4201.42 66.00
8589 53.6280 4303.00 4184.11 66.00
8590 53.6340 4271.00 4164.69 65.00
8591 53.6400 4173.00 4142.70 65.00
8592 53.6460 4104.00 4117.54 64.00
8593 53.6520 4085.00 4091.77 64.00
8594 53.6580 4025.00 4065.05 63.00
8595 53.6640 3821.00 4037.00 62.00
8596 53.6700 4039.00 4010.25 64.00
8597 53.6760 3929.00 3983.33 63.00
8598 53.6820 3975.00 3958.71 63.00
8599 53.6880 4008.00 3935.79 63.00
8600 53.6940 3885.00 3913.86 62.00
8601 53.7000 3917.00 3895.20 63.00
8602 53.7060 3852.00 3878.98 62.00
8603 53.7120 3949.00 3864.29 63.00
8604 53.7180 3987.00 3853.12 63.00
8605 53.7240 3923.00 3843.55 63.00
8606 53.7300 3799.00 3837.58 62.00
8607 53.7360 3752.00 3834.08 61.00
8608 53.7420 3634.00 3831.90 60.00
8609 53.7480 3649.00 3832.91 60.00
8610 53.7540 3850.00 3835.07 62.00
8611 53.7600 3817.00 3839.87 62.00
8612 53.7660 3865.00 3846.40 62.00
8613 53.7720 3854.00 3853.15 62.00
8614 53.7780 3777.00 3862.04 61.00
8615 53.7840 3818.00 3871.86 62.00
8616 53.7900 3835.00 3881.50 62.00
8617 53.7960 3937.00 3892.66 63.00
8618 53.8020 3863.00 3903.12 62.00
8619 53.8080 3917.00 3914.77 63.00
8620 53.8140 4013.00 3926.38 63.00
8621 53.8200 3934.00 3936.85 63.00
8622 53.8260 3794.00 3947.91 62.00
8623 53.8320 3858.00 3958.35 62.00
8624 53.8380 3783.00 3966.94 62.00
8625 53.8440 3787.00 3975.49 62.00
8626 53.8500 3827.00 3982.09 62.00
8627 53.8560 3809.00 3988.02 62.00
8628 53.8620 3872.00 3992.76 62.00
8629 53.8680 3837.00 3995.22 62.00
8630 53.8740 3842.00 3997.87 62.00
8631 53.8800 3915.00 3999.61 63.00
8632 53.8860 3931.00 4000.04 63.00
8633 53.8920 3937.00 4001.53 63.00
8634 53.8980 3896.00 4003.68 62.00
8635 53.9040 3836.00 4006.85 62.00
8636 53.9100 3903.00 4011.46 62.00
8637 53.9160 3827.00 4017.87 62.00
8638 53.9220 3848.00 4026.39 62.00
8639 53.9280 3991.00 4037.28 63.00
8640 53.9340 4047.00 4051.74 64.00
8641 53.9400 4051.00 4068.20 64.00
8642 53.9460 4070.00 4087.16 64.00
8643 53.9520 4042.00 4108.93 64.00
8644 53.9580 4108.00 4133.59 64.00
8645 53.9640 4079.00 4160.72 64.00
8646 53.9700 4133.00 4190.49 64.00
8647 53.9760 4098.00 4222.37 64.00
8648 53.9820 4154.00 4256.28 64.00
8649 53.9880 4165.00 4291.79 65.00
8650 53.9940 4215.00 4329.20 65.00
8651 54.0000 4314.00 4368.01 66.00
8652 54.0060 4338.00 4408.01 66.00
8653 54.0120 4362.00 4448.60 66.00
8654 54.0180 4444.00 4490.25 67.00
8655 54.0240 4425.00 4532.31 67.00
8656 54.0300 4447.00 4574.47 67.00
8657 54.0360 4526.00 4616.27 67.00
8658 54.0420 4592.00 4657.22 68.00
8659 54.0480 4644.00 4696.59 68.00
8660 54.0540 4676.00 4733.76 68.00
8661 54.0600 4675.00 4769.66 68.00
8662 54.0660 4711.00 4801.23 69.00
8663 54.0720 4812.00 4829.28 69.00
8664 54.0780 4739.00 4853.32 69.00
8665 54.0840 4713.00 4872.97 69.00
8666 54.0900 4781.00 4888.33 69.00
8667 54.0960 4825.00 4899.29 69.00
8668 54.1020 4858.00 4905.89 70.00
8669 54.1080 4871.00 4908.25 70.00
8670 54.1140 4790.00 4906.33 69.00
8671 54.1200 4808.00 4900.52 69.00
8672 54.1260 4862.00 4890.76 70.00
8673 54.1320 4794.00 4877.21 69.00
8674 54.1380 4758.00 4859.98 69.00
8675 54.1440 4725.00 4839.31 69.00
8676 54.1500 4692.00 4815.23 68.00
8677 54.1560 4708.00 4788.56 69.00
8678 54.1620 4694.00 4759.40 69.00
8679 54.1680 4630.00 4728.27 68.00
8680 54.1740 4658.00 4695.63 68.00
8681 54.1800 4630.00 4661.93 68.00
8682 54.1860 4594.00 4628.62 68.00
8683 54.1920 4594.00 4594.08 68.00
8684 54.1980 4582.00 4559.69 68.00
8685 54.2040 4572.00 4525.50 68.00
8686 54.2100 4557.00 4492.31 68.00
8687 54.2160 4496.00 4460.23 67.00
8688 54.2220 4470.00 4429.48 67.00
8689 54.2280 4514.00 4400.28 67.00
8690 54.2340 4512.00 4372.69 67.00
8691 54.2400 4504.00 4347.00 67.00
8692 54.2460 4526.00 4322.96 67.00
8693 54.2520 4493.00 4300.91 67.00
8694 54.2580 4464.00 4280.63 67.00
8695 54.2640 4415.00 4261.78 66.00
8696 54.2700 4370.00 4244.27 66.00
8697 54.2760 4340.00 4227.88 66.00
8698 54.2820 4311.00 4212.57 66.00
8699 54.2880 4308.00 4197.70 66.00
8700 54.2940 4229.00 4183.65 65.00
8701 54.3000 4158.00 4170.06 64.00
8702 54.3060 4144.00 4156.78 64.00
8703 54.3120 4156.00 4144.65 64.00
8704 54.3180 4209.00 4131.60 65.00
8705 54.3240 4207.00 4118.27 65.00
8706 54.3300 4092.00 4104.63 64.00
8707 54.3360 4014.00 4090.58 63.00
8708 54.3420 4051.00 4076.07 64.00
8709 54.3480 4074.00 4061.13 64.00
8710 54.3540 4005.00 4045.86 63.00
8711 54.3600 4008.00 4030.46 63.00
8712 54.3660 4001.00 4015.17 63.00
8713 54.3720 3894.00 4000.40 62.00
8714 54.3780 3895.00 3986.18 62.00
8715 54.3840 4021.00 3972.90 63.00
8716 54.3900 4017.00 3960.79 63.00
8717 54.3960 3980.00 3950.01 63.00
8718 54.4020 3994.00 3940.65 63.00
8719 54.4080 3928.00 3932.59 63.00
8720 54.4140 3939.00 3926.07 63.00
8721 54.4200 3935.00 3920.88 63.00
8722 54.4260 3923.00 3916.81 63.00
8723 54.4320 3945.00 3913.65 63.00
8724 54.4380 3935.00 3912.14 63.00
8725 54.4440 3861.00 3910.15 62.00
8726 54.4500 3887.00 3908.11 62.00
8727 54.4560 3895.00 3905.92 62.00
8728 54.4620 3929.00 3903.19 63.00
8729 54.4680 3967.00 3899.82 63.00
8730 54.4740 3936.00 3896.16 63.00
8731 54.4800 3921.00 3891.90 63.00
8732 54.4860 3947.00 3887.07 63.00
8733 54.4920 3911.00 3881.78 63.00
8734 54.4980 3977.00 3876.19 63.00
8735 54.5040 4008.00 3870.20 63.00
8736 54.5100 3921.00 3864.70 63.00
8737 54.5160 3904.00 3859.42 62.00
8738 54.5220 3884.00 3854.81 62.00
8739 54.5280 3854.00 3850.65 62.00
8740 54.5340 3872.00 3847.69 62.00
8741 54.5400 3831.00 3845.70 62.00
8742 54.5460 3801.00 3844.87 62.00
8743 54.5520 3867.00 3845.19 62.00
8744 54.5580 3911.00 3846.47 63.00
8745 54.5640 3889.00 3849.98 62.00
8746 54.5700 3925.00 3853.38 63.00
8747 54.5760 3883.00 3857.48 62.00
8748 54.5820 3867.00 3862.05 62.00
8749 54.5880 3849.00 3866.82 62.00
8750 54.5940 3858.00 3871.51 62.00
8751 54.6000 3858.00 3875.86 62.00
8752 54.6060 3798.00 3879.65 62.00
8753 54.6120 3828.00 3882.56 62.00
8754 54.6180 3842.00 3884.43 62.00
8755 54.6240 3889.00 3885.10 62.00
8756 54.6300 3804.00 3884.44 62.00
8757 54.6360 3767.00 3882.42 61.00
8758 54.6420 3704.00 3879.01 61.00
8759 54.6480 3784.00 3874.19 62.00
8760 54.6540 3788.00 3868.22 62.00
8761 54.6600 3728.00 3861.06 61.00
8762 54.6660 3826.00 3853.17 62.00
8763 54.6720 3723.00 3844.51 61.00
8764 54.6780 3697.00 3835.50 61.00
8765 54.6840 3810.00 3826.24 62.00
8766 54.6900 3845.00 3817.99 62.00
8767 54.6960 3786.00 3808.82 62.00
8768 54.7020 3771.00 3799.89 61.00
8769 54.7080 3734.00 3791.18 61.00
8770 54.7140 3714.00 3782.88 61.00
8771 54.7200 3677.00 3774.93 61.00
8772 54.7260 3641.00 3767.35 60.00
8773 54.7320 3680.00 3760.21 61.00
8774 54.7380 3689.00 3753.52 61.00
8775 54.7440 3657.00 3747.26 60.00
8776 54.7500 3587.00 3741.65 60.00
8777 54.7560 3581.00 3736.55 60.00
8778 54.7620 3564.00 3731.68 60.00
8779 54.7680 3593.00 3727.24 60.00
8780 54.7740 3592.00 3723.00 60.00
8781 54.7800 3715.00 3719.22 61.00
8782 54.7860 3679.00 3715.53 61.00
8783 54.7920 3708.00 3712.16 61.00
8784 54.7980 3656.00 3708.89 60.00
8785 54.8040 3608.00 3705.56 60.00
8786 54.8100 3619.00 3702.38 60.00
8787 54.8160 3599.00 3700.36 60.00
8788 54.8220 3596.00 3697.14 60.00
8789 54.8280 3557.00 3693.88 60.00
8790 54.8340 3532.00 3690.52 59.00
8791 54.8400 3524.00 3687.23 59.00
8792 54.8460 3611.00 3683.65 60.00
8793 54.8520 3618.00 3680.21 60.00
8794 54.8580 3602.00 3677.23 60.00
8795 54.8640 3544.00 3674.51 60.00
8796 54.8700 3468.00 3672.16 59.00
8797 54.8760 3525.00 3670.29 59.00
8798 54.8820 3565.00 3669.04 60.00
8799 54.8880 3589.00 3668.54 60.00
8800 54.8940 3562.00 3668.92 60.00
8801 54.9000 3588.00 3670.28 60.00
8802 54.9060 3516.00 3673.04 59.00
8803 54.9120 3567.00 3676.68 60.00
8804 54.9180 3604.00 3681.56 60.00
8805 54.9240 3622.00 3687.74 60.00
8806 54.9300 3656.00 3695.38 60.00
8807 54.9360 3632.00 3704.21 60.00
8808 54.9420 3521.00 3715.36 59.00
8809 54.9480 3603.00 3726.78 60.00
8810 54.9540 3623.00 3739.37 60.00
8811 54.9600 3735.00 3753.26 61.00
8812 54.9660 3694.00 3767.92 61.00
8813 54.9720 3689.00 3783.35 61.00
8814 54.9780 3677.00 3799.41 61.00
8815 54.9840 3698.00 3815.86 61.00
8816 54.9900 3762.00 3832.44 61.00
8817 54.9960 3873.00 3848.92 62.00
8818 55.0020 3853.00 3865.07 62.00
8819 55.0080 3807.00 3880.74 62.00
8820 55.0140 3883.00 3895.70 62.00
8821 55.0200 3833.00 3909.98 62.00
8822 55.0260 3747.00 3923.49 61.00
8823 55.0320 3805.00 3936.23 62.00
8824 55.0380 3917.00 3948.56 63.00
8825 55.0440 3818.00 3959.98 62.00
8826 55.0500 3820.00 3971.19 62.00
8827 55.0560 3921.00 3981.70 63.00
8828 55.0620 3936.00 3991.81 63.00
8829 55.0680 3870.00 4002.68 62.00
8830 55.0740 3889.00 4012.37 62.00
8831 55.0800 4047.00 4021.67 64.00
8832 55.0860 4000.00 4030.51 63.00
8833 55.0920 3946.00 4038.36 63.00
8834 55.0980 3983.00 4045.84 63.00
8835 55.1040 3922.00 4052.37 63.00
8836 55.1100 3899.00 4058.02 62.00
8837 55.1160 3922.00 4062.29 63.00
8838 55.1220 3894.00 4065.35 62.00
8839 55.1280 4050.00 4067.23 64.00
8840 55.1340 4042.00 4068.00 64.00
8841 55.1400 3919.00 4067.78 63.00
8842 55.1460 3915.00 4066.63 63.00
8843 55.1520 3890.00 4064.73 62.00
8844 55.1580 4014.00 4062.13 63.00
8845 55.1640 3970.00 4058.79 63.00
8846 55.1700 4045.00 4054.64 64.00
8847 55.1760 3949.00 4049.80 63.00
8848 55.1820 3975.00 4043.66 63.00
8849 55.1880 3882.00 4036.11 62.00
8850 55.1940 3855.00 4028.01 62.00
8851 55.2000 3866.00 4017.16 62.00
8852 55.2060 3862.00 4004.48 62.00
8853 55.2120 3846.00 3989.88 62.00
8854 55.2180 3811.00 3973.54 62.00
8855 55.2240 3764.00 3955.37 61.00
8856 55.2300 3796.00 3935.55 62.00
8857 55.2360 3715.00 3914.44 61.00
8858 55.2420 3711.00 3892.57 61.00
8859 55.2480 3764.00 3870.11 61.00
8860 55.2540 3667.00 3847.56 61.00
8861 55.2600 3587.00 3824.87 60.00
8862 55.2660 3578.00 3802.64 60.00
8863 55.2720 3637.00 3780.69 60.00
8864 55.2780 3620.00 3759.63 60.00
8865 55.2840 3518.00 3739.44 59.00
8866 55.2900 3504.00 3720.25 59.00
8867 55.2960 3531.00 3702.13 59.00
8868 55.3020 3579.00 3685.45 60.00
8869 55.3080 3645.00 3669.67 60.00
8870 55.3140 3575.00 3655.62 60.00
8871 55.3200 3533.00 3643.46 59.00
8872 55.3260 3549.00 3631.76 60.00
8873 55.3320 3590.00 3621.41 60.00
8874 55.3380 3494.00 3612.30 59.00
8875 55.3440 3497.00 3604.30 59.00
8876 55.3500 3476.00 3597.30 59.00
8877 55.3560 3475.00 3591.07 59.00
8878 55.3620 3526.00 3586.22 59.00
8879 55.3680 3629.00 3582.33 60.00
8880 55.3740 3540.00 3579.34 59.00
8881 55.3800 3524.00 3576.87 59.00
8882 55.3860 3413.00 3575.57 58.00
8883 55.3920 3471.00 3573.93 59.00
8884 55.3980 3497.00 3572.94 59.00
8885 55.4040 3448.00 3572.95 59.00
8886 55.4100 3571.00 3572.70 60.00
8887 55.4160 3537.00 3574.16 59.00
8888 55.4220 3453.00 3576.34 59.00
8889 55.4280 3392.00 3578.23 58.00
8890 55.4340 3462.00 3581.81 59.00
8891 55.4400 3438.00 3585.68 59.00
8892 55.4460 3548.00 3589.63 60.00
8893 55.4520 3554.00 3595.21 60.00
8894 55.4580 3528.00 3601.42 59.00
8895 55.4640 3451.00 3607.21 59.00
8896 55.4700 3462.00 3614.51 59.00
8897 55.4760 3507.00 3622.17 59.00
8898 55.4820 3411.00 3629.30 58.00
8899 55.4880 3576.00 3637.72 60.00
8900 55.4940 3581.00 3646.29 60.00
8901 55.5000 3609.00 3653.90 60.00
8902 55.5060 3497.00 3662.40 59.00
8903 55.5120 3554.00 3670.35 60.00
8904 55.5180 3527.00 3677.21 59.00
8905 55.5240 3564.00 3684.54 60.00
8906 55.5300 3609.00 3691.23 60.00
8907 55.5360 3600.00 3696.20 60.00
8908 55.5420 3603.00 3701.36 60.00
8909 55.5480 3482.00 3705.70 59.00
8910 55.5540 3573.00 3708.04 60.00
8911 55.5600 3652.00 3710.71 60.00
8912 55.5660 3722.00 3712.60 61.00
8913 55.5720 3665.00 3712.76 61.00
8914 55.5780 3609.00 3713.26 60.00
8915 55.5840 3696.00 3711.82 61.00
8916 55.5900 3719.00 3711.38 61.00
8917 55.5960 3571.00 3710.42 60.00
8918 55.6020 3684.00 3708.16 61.00
8919 55.6080 3654.00 3706.70 60.00
8920 55.6140 3683.00 3705.14 61.00
8921 55.6200 3633.00 3702.55 60.00
8922 55.6260 3555.00 3701.00 60.00
8923 55.6320 3568.00 3699.56 60.00
8924 55.6380 3612.00 3697.28 60.00
8925 55.6440 3634.00 3696.22 60.00
8926 55.6500 3615.00 3695.45 60.00
8927 55.6560 3614.00 3694.02 60.00
8928 55.6620 3584.00 3694.06 60.00
8929 55.6680 3595.00 3694.52 60.00
8930 55.6740 3703.00 3694.49 61.00
8931 55.6800 3581.00 3696.00 60.00
8932 55.6860 3639.00 3698.01 60.00
8933 55.6920 3635.00 3699.55 60.00
8934 55.6980 3643.00 3702.45 60.00
8935 55.7040 3697.00 3705.65 61.00
8936 55.7100 3726.00 3708.38 61.00
8937 55.7160 3749.00 3712.42 61.00
8938 55.7220 3669.00 3716.75 61.00
8939 55.7280 3558.00 3720.27 60.00
8940 55.7340 3761.00 3724.95 61.00
8941 55.7400 3729.00 3729.69 61.00
8942 55.7460 3672.00 3733.67 61.00
8943 55.7520 3661.00 3738.70 61.00
8944 55.7580 3621.00 3743.66 60.00
8945 55.7640 3697.00 3747.43 61.00
8946 55.7700 3675.00 3751.87 61.00
8947 55.7760 3696.00 3755.83 61.00
8948 55.7820 3805.00 3758.18 62.00
8949 55.7880 3812.00 3760.83 62.00
8950 55.7940 3768.00 3762.73 61.00
8951 55.8000 3801.00 3762.91 62.00
8952 55.8060 3717.00 3763.40 61.00
8953 55.8120 3804.00 3763.36 62.00
8954 55.8180 3792.00 3763.10 62.00
8955 55.8240 3802.00 3761.55 62.00
8956 55.8300 3810.00 3761.08 62.00
8957 55.8360 3761.00 3761.14 61.00
8958 55.8420 3806.00 3760.35 62.00
8959 55.8480 3769.00 3761.40 61.00
8960 55.8540 3687.00 3763.24 61.00
8961 55.8600 3822.00 3765.43 62.00
8962 55.8660 3912.00 3769.45 63.00
8963 55.8720 3796.00 3774.50 62.00
8964 55.8780 3761.00 3779.49 61.00
8965 55.8840 3856.00 3786.30 62.00
8966 55.8900 3799.00 3794.16 62.00
8967 55.8960 3765.00 3801.62 61.00
8968 55.9020 3817.00 3810.83 62.00
8969 55.9080 3678.00 3820.45 61.00
8970 55.9140 3743.00 3829.32 61.00
8971 55.9200 3857.00 3839.30 62.00
8972 55.9260 3696.00 3849.16 61.00
8973 55.9320 3739.00 3858.22 61.00
8974 55.9380 3818.00 3867.76 62.00
8975 55.9440 3658.00 3877.01 60.00
8976 55.9500 3927.00 3886.29 63.00
8977 55.9560 3791.00 3894.04 62.00
8978 55.9620 3735.00 3902.62 61.00
8979 55.9680 3858.00 3911.02 62.00
8980 55.9740 3764.00 3918.36 61.00
8981 55.9800 3792.00 3926.51 62.00
8982 55.9860 3629.00 3934.36 60.00
8983 55.9920 3856.00 3940.72 62.00
8984 55.9980 3772.00 3947.32 61.00
8985 56.0040 3666.00 3952.88 61.00
8986 56.0100 3838.00 3956.04 62.00
8987 56.0160 3739.00 3958.66 61.00
8988 56.0220 3759.00 3959.16 61.00
8989 56.0280 3627.00 3956.52 60.00
8990 56.0340 3761.00 3952.62 61.00
8991 56.0400 3776.00 3946.70 61.00
8992 56.0460 3735.00 3937.89 61.00
8993 56.0520 3565.00 3928.51 60.00
8994 56.0580 3680.00 3917.90 61.00
8995 56.0640 3553.00 3905.46 60.00
8996 56.0700 3697.00 3893.47 61.00
8997 56.0760 3629.00 3881.56 60.00
8998 56.0820 3589.00 3869.69 60.00
8999 56.0880 3712.00 3857.23 61.00
9000 56.0940 3663.00 3846.40 61.00
9001 56.1000 3619.00 3836.40 60.00
9002 56.1060 3602.00 3826.39 60.00
9003 56.1120 3637.00 3818.48 60.00
9004 56.1180 3666.00 3811.97 61.00
9005 56.1240 3710.00 3805.90 61.00
9006 56.1300 3541.00 3802.37 60.00
9007 56.1360 3573.00 3801.42 60.00
9008 56.1420 3740.00 3803.39 61.00
9009 56.1480 3860.00 3805.52 62.00
9010 56.1540 3704.00 3810.04 61.00
9011 56.1600 3747.00 3815.73 61.00
9012 56.1660 3832.00 3821.38 62.00
9013 56.1720 3760.00 3828.72 61.00
9014 56.1780 3789.00 3836.72 62.00
9015 56.1840 3784.00 3843.58 62.00
9016 56.1900 3910.00 3851.33 63.00
9017 56.1960 3874.00 3858.78 62.00
9018 56.2020 3788.00 3865.80 62.00
9019 56.2080 3733.00 3871.34 61.00
9020 56.2140 3827.00 3877.66 62.00
9021 56.2200 3882.00 3883.30 62.00
9022 56.2260 3790.00 3887.60 62.00
9023 56.2320 3885.00 3892.82 62.00
9024 56.2380 3753.00 3897.83 61.00
9025 56.2440 3840.00 3901.90 62.00
9026 56.2500 3857.00 3907.17 62.00
9027 56.2560 3823.00 3912.76 62.00
9028 56.2620 3791.00 3917.78 62.00
9029 56.2680 3775.00 3924.33 61.00
9030 56.2740 3969.00 3931.31 63.00
9031 56.2800 3912.00 3937.97 63.00
9032 56.2860 3815.00 3946.09 62.00
9033 56.2920 3840.00 3954.52 62.00
9034 56.2980 3874.00 3961.93 62.00
9035 56.3040 3890.00 3970.14 62.00
9036 56.3100 3945.00 3977.88 63.00
9037 56.3160 3870.00 3984.75 62.00
9038 56.3220 3925.00 3989.45 63.00
9039 56.3280 3951.00 3993.73 63.00
9040 56.3340 4045.00 3996.45 64.00
9041 56.3400 4046.00 3996.56 64.00
9042 56.3460 3971.00 3996.13 63.00
9043 56.3520 4013.00 3994.31 63.00
9044 56.3580 4028.00 3990.34 63.00
9045 56.3640 4022.00 3986.19 63.00
9046 56.3700 3859.00 3981.73 62.00
9047 56.3760 3907.00 3975.89 63.00
9048 56.3820 3938.00 3971.03 63.00
9049 56.3880 4100.00 3966.13 64.00
9050 56.3940 4077.00 3960.81 64.00
9051 56.4000 3992.00 3957.05 63.00
9052 56.4060 4050.00 3954.10 64.00
9053 56.4120 4048.00 3950.90 64.00
9054 56.4180 4039.00 3949.75 64.00
9055 56.4240 3980.00 3949.49 63.00
9056 56.4300 4117.00 3950.20 64.00
9057 56.4360 3987.00 3950.82 63.00
9058 56.4420 3983.00 3953.19 63.00
9059 56.4480 4151.00 3956.12 64.00
9060 56.4540 4042.00 3958.07 64.00
9061 56.4600 3898.00 3961.34 62.00
9062 56.4660 4055.00 3964.44 64.00
9063 56.4720 3936.00 3965.95 63.00
9064 56.4780 4026.00 3967.57 63.00
9065 56.4840 4061.00 3968.43 64.00
9066 56.4900 3948.00 3967.11 63.00
9067 56.4960 4014.00 3965.74 63.00
9068 56.5020 4056.00 3963.15 64.00
9069 56.5080 4041.00 3958.29 64.00
9070 56.5140 4101.00 3953.20 64.00
9071 56.5200 4027.00 3946.78 63.00
9072 56.5260 3992.00 3938.23 63.00
9073 56.5320 3951.00 3929.21 63.00
9074 56.5380 4086.00 3918.98 64.00
9075 56.5440 3986.00 3906.35 63.00
9076 56.5500 3981.00 3893.50 63.00
9077 56.5560 3882.00 3879.42 62.00
9078 56.5620 3844.00 3864.24 62.00
9079 56.5680 3876.00 3847.11 62.00
9080 56.5740 3923.00 3830.21 63.00
9081 56.5800 3910.00 3812.71 63.00
9082 56.5860 3880.00 3794.00 62.00
9083 56.5920 3764.00 3776.01 61.00
9084 56.5980 3820.00 3757.80 62.00
9085 56.6040 3777.00 3738.65 61.00
9086 56.6100 3707.00 3720.71 61.00
9087 56.6160 3779.00 3703.06 61.00
9088 56.6220 3734.00 3684.75 61.00
9089 56.6280 3746.00 3667.93 61.00
9090 56.6340 3698.00 3651.67 61.00
9091 56.6400 3677.00 3635.04 61.00
9092 56.6460 3779.00 3620.14 61.00
9093 56.6520 3746.00 3606.01 61.00
9094 56.6580 3619.00 3591.70 60.00
9095 56.6640 3622.00 3579.26 60.00
9096 56.6700 3632.00 3567.71 60.00
9097 56.6760 3623.00 3557.04 60.00
9098 56.6820 3523.00 3546.25 59.00
9099 56.6880 3645.00 3537.35 60.00
9100 56.6940 3562.00 3529.31 60.00
9101 56.7000 3533.00 3521.20 59.00
9102 56.7060 3458.00 3514.79 59.00
9103 56.7120 3531.00 3509.17 59.00
9104 56.7180 3559.00 3503.30 60.00
9105 56.7240 3497.00 3499.20 59.00
9106 56.7300 3574.00 3494.82 60.00
9107 56.7360 3548.00 3491.04 60.00
9108 56.7420 3578.00 3488.90 60.00
9109 56.7480 3542.00 3486.37 60.00
9110 56.7540 3503.00 3484.45 59.00
9111 56.7600 3410.00 3483.10 58.00
9112 56.7660 3462.00 3483.32 59.00
9113 56.7720 3546.00 3483.06 60.00
9114 56.7780 3550.00 3483.33 60.00
9115 56.7840 3526.00 3485.11 59.00
9116 56.7900 3576.00 3486.32 60.00
9117 56.7960 3403.00 3488.18 58.00
9118 56.8020 3440.00 3490.36 59.00
9119 56.8080 3392.00 3493.97 58.00
9120 56.8140 3443.00 3497.13 59.00
9121 56.8200 3452.00 3500.38 59.00
9122 56.8260 3477.00 3504.11 59.00
9123 56.8320 3526.00 3509.09 59.00
9124 56.8380 3509.00 3513.31 59.00
9125 56.8440 3501.00 3517.77 59.00
9126 56.8500 3474.00 3523.26 59.00
9127 56.8560 3506.00 3527.66 59.00
9128 56.8620 3519.00 3532.11 59.00
9129 56.8680 3508.00 3536.40 59.00
9130 56.8740 3553.00 3541.46 60.00
9131 56.8800 3543.00 3545.20 60.00
9132 56.8860 3516.00 3548.53 59.00
9133 56.8920 3441.00 3552.43 59.00
9134 56.8980 3437.00 3554.95 59.00
9135 56.9040 3525.00 3556.94 59.00
9136 56.9100 3558.00 3558.54 60.00
9137 56.9160 3556.00 3560.67 60.00
9138 56.9220 3514.00 3561.66 59.00
9139 56.9280 3568.00 3562.48 60.00
9140 56.9340 3488.00 3563.22 59.00
9141 56.9400 3498.00 3564.96 59.00
9142 56.9460 3525.00 3565.79 59.00
9143 56.9520 3494.00 3566.81 59.00
9144 56.9580 3488.00 3569.09 59.00
9145 56.9640 3499.00 3570.79 59.00
9146 56.9700 3534.00 3572.84 59.00
9147 56.9760 3558.00 3575.57 60.00
9148 56.9820 3528.00 3579.75 59.00
9149 56.9880 3501.00 3583.49 59.00
9150 56.9940 3507.00 3588.19 59.00
9151 57.0000 3467.00 3593.79 59.00
9152 57.0060 3488.00 3601.38 59.00
9153 57.0120 3477.00 3609.06 59.00
9154 57.0180 3557.00 3618.09 60.00
9155 57.0240 3511.00 3629.26 59.00
9156 57.0300 3577.00 3639.75 60.00
9157 57.0360 3573.00 3652.72 60.00
9158 57.0420 3554.00 3667.21 60.00
9159 57.0480 3661.00 3682.32 61.00
9160 57.0540 3652.00 3700.11 60.00
9161 57.0600 3688.00 3718.62 61.00
9162 57.0660 3689.00 3739.90 61.00
9163 57.0720 3749.00 3762.01 61.00
9164 57.0780 3777.00 3786.88 61.00
9165 57.0840 3790.00 3812.11 62.00
9166 57.0900 3846.00 3839.93 62.00
9167 57.0960 3832.00 3868.03 62.00
9168 57.1020 3783.00 3898.22 62.00
9169 57.1080 3879.00 3928.21 62.00
9170 57.1140 3895.00 3959.98 62.00
9171 57.1200 3953.00 3990.76 63.00
9172 57.1260 3988.00 4022.38 63.00
9173 57.1320 3981.00 4052.39 63.00
9174 57.1380 4044.00 4082.51 64.00
9175 57.1440 4091.00 4110.38 64.00
9176 57.1500 4072.00 4137.69 64.00
9177 57.1560 4074.00 4163.11 64.00
9178 57.1620 4168.00 4185.47 65.00
9179 57.1680 4097.00 4206.64 64.00
9180 57.1740 4031.00 4224.53 63.00
9181 57.1800 4022.00 4241.41 63.00
9182 57.1860 4105.00 4254.71 64.00
9183 57.1920 4237.00 4266.72 65.00
9184 57.1980 4280.00 4275.76 65.00
9185 57.2040 4165.00 4283.64 65.00
9186 57.2100 4116.00 4288.83 64.00
9187 57.2160 4225.00 4292.44 65.00
9188 57.2220 4215.00 4292.60 65.00
9189 57.2280 4194.00 4291.60 65.00
9190 57.2340 4203.00 4286.67 65.00
9191 57.2400 4162.00 4279.83 65.00
9192 57.2460 4141.00 4268.96 64.00
9193 57.2520 4140.00 4256.06 64.00
9194 57.2580 4169.00 4239.23 65.00
9195 57.2640 4130.00 4220.79 64.00
9196 57.2700 4111.00 4199.92 64.00
9197 57.2760 4060.00 4176.12 64.00
9198 57.2820 4019.00 4151.89 63.00
9199 57.2880 4008.00 4125.74 63.00
9200 57.2940 3990.00 4100.13 63.00
9201 57.3000 4054.00 4073.49 64.00
9202 57.3060 4048.00 4048.33 64.00
9203 57.3120 3993.00 4022.30 63.00
9204 57.3180 3900.00 3999.00 62.00
9205 57.3240 3944.00 3976.05 63.00
9206 57.3300 3897.00 3955.64 62.00
9207 57.3360 3840.00 3935.97 62.00
9208 57.3420 3827.00 3919.20 62.00
9209 57.3480 3874.00 3903.63 62.00
9210 57.3540 3779.00 3891.06 61.00
9211 57.3600 3715.00 3879.74 61.00
9212 57.3660 3736.00 3871.68 61.00
9213 57.3720 3757.00 3864.95 61.00
9214 57.3780 3791.00 3861.41 62.00
9215 57.3840 3867.00 3859.86 62.00
9216 57.3900 3844.00 3859.62 62.00
9217 57.3960 3854.00 3862.40 62.00
9218 57.4020 3887.00 3866.16 62.00
9219 57.4080 3885.00 3872.63 62.00
9220 57.4140 3841.00 3879.74 62.00
9221 57.4200 3876.00 3889.27 62.00
9222 57.4260 3929.00 3898.99 63.00
9223 57.4320 3895.00 3910.66 62.00
9224 57.4380 3940.00 3921.94 63.00
9225 57.4440 3966.00 3934.50 63.00
9226 57.4500 4004.00 3945.97 63.00
9227 57.4560 4031.00 3958.02 63.00
9228 57.4620 4002.00 3968.28 63.00
9229 57.4680 3996.00 3978.47 63.00
9230 57.4740 4051.00 3986.33 64.00
9231 57.4800 4114.00 3993.32 64.00
9232 57.4860 4091.00 3997.90 64.00
9233 57.4920 3973.00 4001.66 63.00
9234 57.4980 3959.00 4003.37 63.00
9235 57.5040 4027.00 4001.88 63.00
9236 57.5100 4043.00 3999.41 64.00
9237 57.5160 4043.00 3993.86 64.00
9238 57.5220 3978.00 3987.10 63.00
9239 57.5280 3938.00 3977.22 63.00
9240 57.5340 3952.00 3966.10 63.00
9241 57.5400 3883.00 3952.27 62.00
9242 57.5460 3754.00 3937.55 61.00
9243 57.5520 3720.00 3920.21 61.00
9244 57.5580 3741.00 3902.53 61.00
9245 57.5640 3749.00 3882.57 61.00
9246 57.5700 3864.00 3862.72 62.00
9247 57.5760 3989.00 3841.32 63.00
9248 57.5820 3942.00 3820.52 63.00
9249 57.5880 3891.00 3798.65 62.00
9250 57.5940 3843.00 3778.04 62.00
9251 57.6000 3751.00 3756.95 61.00
9252 57.6060 3745.00 3737.59 61.00
9253 57.6120 3735.00 3718.94 61.00
9254 57.6180 3733.00 3700.75 61.00
9255 57.6240 3817.00 3684.95 62.00
9256 57.6300 3750.00 3669.30 61.00
9257 57.6360 3662.00 3656.58 61.00
9258 57.6420 3694.00 3644.52 61.00
9259 57.6480 3732.00 3635.15 61.00
9260 57.6540 3763.00 3626.44 61.00
9261 57.6600 3731.00 3620.55 61.00
9262 57.6660 3656.00 3615.26 60.00
9263 57.6720 3660.00 3612.59 60.00
9264 57.6780 3677.00 3610.45 61.00
9265 57.6840 3766.00 3610.73 61.00
9266 57.6900 3798.00 3611.13 62.00
9267 57.6960 3720.00 3613.92 61.00
9268 57.7020 3697.00 3616.74 61.00
9269 57.7080 3724.00 3621.46 61.00
9270 57.7140 3747.00 3625.91 61.00
9271 57.7200 3655.00 3632.02 60.00
9272 57.7260 3596.00 3638.55 60.00
9273 57.7320 3708.00 3644.46 61.00
9274 57.7380 3720.00 3651.67 61.00
9275 57.7440 3614.00 3658.13 60.00
9276 57.7500 3621.00 3665.84 60.00
9277 57.7560 3742.00 3672.78 61.00
9278 57.7620 3712.00 3680.75 61.00
9279 57.7680 3641.00 3688.16 60.00
9280 57.7740 3662.00 3696.93 61.00
9281 57.7800 3716.00 3704.98 61.00
9282 57.7860 3698.00 3714.30 61.00
9283 57.7920 3737.00 3722.69 61.00
9284 57.7980 3739.00 3732.43 61.00
9285 57.8040 3696.00 3741.19 61.00
9286 57.8100 3732.00 3751.09 61.00
9287 57.8160 3732.00 3759.90 61.00
9288 57.8220 3789.00 3769.53 62.00
9289 57.8280 3721.00 3777.84 61.00
9290 57.8340 3719.00 3786.73 61.00
9291 57.8400 3751.00 3794.85 61.00
9292 57.8460 3753.00 3801.16 61.00
9293 57.8520 3728.00 3807.50 61.00
9294 57.8580 3812.00 3811.96 62.00
9295 57.8640 3814.00 3816.29 62.00
9296 57.8700 3818.00 3818.41 62.00
9297 57.8760 3765.00 3820.31 61.00
9298 57.8820 3833.00 3819.96 62.00
9299 57.8880 3819.00 3819.33 62.00
9300 57.8940 3861.00 3816.41 62.00
9301 57.9000 3881.00 3813.21 62.00
9302 57.9060 3877.00 3807.68 62.00
9303 57.9120 3822.00 3801.96 62.00
9304 57.9180 3840.00 3794.07 62.00
9305 57.9240 3866.00 3786.11 62.00
9306 57.9300 3778.00 3776.21 61.00
9307 57.9360 3802.00 3766.63 62.00
9308 57.9420 3794.00 3755.57 62.00
9309 57.9480 3803.00 3745.28 62.00
9310 57.9540 3766.00 3734.00 61.00
9311 57.9600 3659.00 3723.97 60.00
9312 57.9660 3673.00 3714.44 61.00
9313 57.9720 3687.00 3704.60 61.00
9314 57.9780 3658.00 3696.73 60.00
9315 57.9840 3686.00 3688.74 61.00
9316 57.9900 3745.00 3682.84 61.00
9317 57.9960 3754.00 3677.17 61.00
9318 58.0020 3713.00 3673.54 61.00
9319 58.0080 3660.00 3670.02 60.00
9320 58.0140 3681.00 3668.58 61.00
9321 58.0200 3759.00 3667.11 61.00
9322 58.0260 3762.00 3667.53 61.00
9323 58.0320 3742.00 3667.74 61.00
9324 58.0380 3639.00 3669.69 60.00
9325 58.0440 3628.00 3671.15 60.00
9326 58.0500 3666.00 3674.08 61.00
9327 58.0560 3722.00 3676.42 61.00
9328 58.0620 3683.00 3680.08 61.00
9329 58.0680 3692.00 3683.01 61.00
9330 58.0740 3676.00 3687.16 61.00
9331 58.0800 3630.00 3691.48 60.00
9332 58.0860 3730.00 3694.91 61.00
9333 58.0920 3733.00 3699.36 61.00
9334 58.0980 3627.00 3702.75 60.00
9335 58.1040 3670.00 3706.96 61.00
9336 58.1100 3645.00 3709.86 60.00
9337 58.1160 3716.00 3713.29 61.00
9338 58.1220 3667.00 3715.11 61.00
9339 58.1280 3635.00 3717.18 60.00
9340 58.1340 3623.00 3717.40 60.00
9341 58.1400 3678.00 3717.70 61.00
9342 58.1460 3608.00 3716.04 60.00
9343 58.1520 3602.00 3714.47 60.00
9344 58.1580 3621.00 3711.04 60.00
9345 58.1640 3712.00 3707.91 61.00
9346 58.1700 3739.00 3703.23 61.00
9347 58.1760 3725.00 3699.17 61.00
9348 58.1820 3680.00 3693.94 61.00
9349 58.1880 3608.00 3689.76 60.00
9350 58.1940 3651.00 3685.82 60.00
9351 58.2000 3584.00 3681.19 60.00
9352 58.2060 3695.00 3678.32 61.00
9353 58.2120 3817.00 3675.22 62.00
9354 58.2180 3753.00 3674.04 61.00
9355 58.2240 3713.00 3672.99 61.00
9356 58.2300 3672.00 3673.98 61.00
9357 58.2360 3777.00 3675.27 61.00
9358 58.2420 3773.00 3678.75 61.00
9359 58.2480 3659.00 3682.67 60.00
9360 58.2540 3642.00 3688.83 60.00
9361 58.2600 3793.00 3695.36 62.00
9362 58.2660 3782.00 3704.25 61.00
9363 58.2720 3732.00 3713.38 61.00
9364 58.2780 3739.00 3724.79 61.00
9365 58.2840 3762.00 3736.35 61.00
9366 58.2900 3765.00 3749.89 61.00
9367 58.2960 3782.00 3763.26 61.00
9368 58.3020 3787.00 3778.35 62.00
9369 58.3080 3794.00 3794.04 62.00
9370 58.3140 3864.00 3809.16 62.00
9371 58.3200 3910.00 3825.63 63.00
9372 58.3260 3981.00 3841.38 63.00
9373 58.3320 3955.00 3858.20 63.00
9374 58.3380 3970.00 3874.13 63.00
9375 58.3440 3901.00 3891.10 62.00
9376 58.3500 3950.00 3907.00 63.00
9377 58.3560 4027.00 3923.80 63.00
9378 58.3620 4118.00 3939.46 64.00
9379 58.3680 3964.00 3955.89 63.00
9380 58.3740 4113.00 3971.09 64.00
9381 58.3800 4021.00 3986.87 63.00
9382 58.3860 3952.00 4001.19 63.00
9383 58.3920 3981.00 4015.97 63.00
9384 58.3980 4079.00 4029.14 64.00
9385 58.4040 4050.00 4042.66 64.00
9386 58.4100 3970.00 4054.32 63.00
9387 58.4160 4131.00 4066.12 64.00
9388 58.4220 4117.00 4077.12 64.00
9389 58.4280 4064.00 4086.31 64.00
9390 58.4340 4118.00 4095.78 64.00
9391 58.4400 4161.00 4103.49 65.00
9392 58.4460 4105.00 4111.87 64.00
9393 58.4520 4129.00 4118.77 64.00
9394 58.4580 4137.00 4126.15 64.00
9395 58.4640 4095.00 4132.58 64.00
9396 58.4700 4077.00 4139.95 64.00
9397 58.4760 4317.00 4146.37 66.00
9398 58.4820 4268.00 4153.51 65.00
9399 58.4880 4165.00 4160.04 65.00
9400 58.4940 4119.00 4167.47 64.00
9401 58.5000 4140.00 4173.77 64.00
9402 58.5060 4150.00 4180.77 64.00
9403 58.5120 4035.00 4186.07 64.00
9404 58.5180 4167.00 4191.28 65.00
9405 58.5240 4025.00 4194.00 63.00
9406 58.5300 4166.00 4195.88 65.00
9407 58.5360 4220.00 4195.32 65.00
9408 58.5420 4035.00 4191.10 64.00
9409 58.5480 4161.00 4184.73 65.00
9410 58.5540 4048.00 4173.81 64.00
9411 58.5600 4101.00 4161.01 64.00
9412 58.5660 4135.00 4143.88 64.00
9413 58.5720 4058.00 4124.61 64.00
9414 58.5780 3971.00 4101.29 63.00
9415 58.5840 4040.00 4076.86 64.00
9416 58.5900 4097.00 4049.66 64.00
9417 58.5960 3999.00 4021.77 63.00
9418 58.6020 3979.00 3992.01 63.00
9419 58.6080 3873.00 3962.86 62.00
9420 58.6140 3981.00 3932.62 63.00
9421 58.6200 3884.00 3903.76 62.00
9422 58.6260 3835.00 3874.63 62.00
9423 58.6320 3777.00 3847.50 61.00
9424 58.6380 3789.00 3820.57 62.00
9425 58.6440 3727.00 3795.92 61.00
9426 58.6500 3834.00 3772.91 62.00
9427 58.6560 3830.00 3750.49 62.00
9428 58.6620 3779.00 3730.63 61.00
9429 58.6680 3830.00 3711.27 62.00
9430 58.6740 3768.00 3694.35 61.00
9431 58.6800 3825.00 3677.77 62.00
9432 58.6860 3706.00 3663.38 61.00
9433 58.6920 3662.00 3649.07 61.00
9434 58.6980 3780.00 3636.68 61.00
9435 58.7040 3622.00 3624.12 60.00
9436 58.7100 3662.00 3613.13 61.00
9437 58.7160 3782.00 3601.86 61.00
9438 58.7220 3596.00 3592.15 60.00
9439 58.7280 3607.00 3581.93 60.00
9440 58.7340 3708.00 3573.18 61.00
9441 58.7400 3578.00 3563.87 60.00
9442 58.7460 3602.00 3556.03 60.00
9443 58.7520 3564.00 3547.66 60.00
9444 58.7580 3708.00 3540.78 61.00
9445 58.7640 3627.00 3534.47 60.00
9446 58.7700 3597.00 3527.71 60.00
9447 58.7760 3525.00 3522.58 59.00
9448 58.7820 3478.00 3516.78 59.00
9449 58.7880 3483.00 3512.99 59.00
9450 58.7940 3596.00 3508.90 60.00
9451 58.8000 3493.00 3506.51 59.00
9452 58.8060 3523.00 3503.81 59.00
9453 58.8120 3531.00 3502.93 59.00
9454 58.8180 3552.00 3501.35 60.00
9455 58.8240 3557.00 3501.33 60.00
9456 58.8300 3623.00 3500.71 60.00
9457 58.8360 3578.00 3501.38 60.00
9458 58.8420 3553.00 3501.23 60.00
9459 58.8480 3558.00 3502.15 60.00
9460 58.8540 3415.00 3502.18 58.00
9461 58.8600 3444.00 3502.66 59.00
9462 58.8660 3514.00 3502.18 59.00
9463 58.8720 3573.00 3502.29 60.00
9464 58.8780 3453.00 3501.09 59.00
9465 58.8840 3548.00 3500.44 60.00
9466 58.8900 3481.00 3499.26 59.00
9467 58.8960 3562.00 3496.50 60.00
9468 58.9020 3471.00 3494.25 59.00
9469 58.9080 3484.00 3490.12 59.00
9470 58.9140 3395.00 3486.49 58.00
9471 58.9200 3516.00 3481.24 59.00
9472 58.9260 3337.00 3476.50 58.00
9473 58.9320 3391.00 3470.15 58.00
9474 58.9380 3401.00 3464.37 58.00
9475 58.9440 3418.00 3457.46 58.00
9476 58.9500 3390.00 3451.18 58.00
9477 58.9560 3323.00 3443.71 58.00
9478 58.9620 3391.00 3437.21 58.00
9479 58.9680 3382.00 3429.80 58.00
9480 58.9740 3466.00 3423.62 59.00
9481 58.9800 3471.00 3416.75 59.00
9482 58.9860 3457.00 3410.97 59.00
9483 58.9920 3227.00 3405.48 57.00
9484 58.9980 3426.00 3401.37 59.00
9485 59.0040 3561.00 3396.50 60.00
9486 59.0100 3480.00 3392.94 59.00
9487 59.0160 3282.00 3388.72 57.00
9488 59.0220 3427.00 3385.80 59.00
9489 59.0280 3276.00 3382.20 57.00
9490 59.0340 3458.00 3379.76 59.00
9491 59.0400 3309.00 3376.57 58.00
9492 59.0460 3408.00 3374.59 58.00
9493 59.0520 3441.00 3371.83 59.00
9494 59.0580 3406.00 3370.27 58.00
9495 59.0640 3473.00 3367.91 59.00
9496 59.0700 3411.00 3366.64 58.00
9497 59.0760 3330.00 3364.64 58.00
9498 59.0820 3352.00 3363.81 58.00
9499 59.0880 3361.00 3362.13 58.00
9500 59.0940 3354.00 3361.63 58.00
9501 59.1000 3361.00 3360.32 58.00
9502 59.1060 3312.00 3360.19 58.00
9503 59.1120 3260.00 3359.32 57.00
9504 59.1180 3307.00 3359.66 58.00
9505 59.1240 3297.00 3359.15 57.00
9506 59.1300 3260.00 3360.11 57.00
9507 59.1360 3484.00 3360.19 59.00
9508 59.1420 3367.00 3361.53 58.00
9509 59.1480 3360.00 3362.08 58.00
9510 59.1540 3316.00 3363.90 58.00
9511 59.1600 3393.00 3364.94 58.00
9512 59.1660 3361.00 3367.16 58.00
9513 59.1720 3416.00 3368.65 58.00
9514 59.1780 3421.00 3371.32 58.00
9515 59.1840 3324.00 3372.77 58.00
9516 59.1900 3320.00 3375.49 58.00
9517 59.1960 3353.00 3377.53 58.00
9518 59.2020 3386.00 3380.41 58.00
9519 59.2080 3401.00 3382.37 58.00
9520 59.2140 3358.00 3385.40 58.00
9521 59.2200 3408.00 3387.58 58.00
9522 59.2260 3398.00 3390.91 58.00
9523 59.2320 3439.00 3393.47 59.00
9524 59.2380 3344.00 3397.17 58.00
9525 59.2440 3368.00 3400.08 58.00
9526 59.2500 3372.00 3404.20 58.00
9527 59.2560 3307.00 3407.38 58.00
9528 59.2620 3356.00 3412.08 58.00
9529 59.2680 3338.00 3415.82 58.00
9530 59.2740 3302.00 3420.67 57.00
9531 59.2800 3346.00 3424.70 58.00
9532 59.2860 3405.00 3429.90 58.00
9533 59.2920 3368.00 3434.25 58.00
9534 59.2980 3383.00 3439.59 58.00
9535 59.3040 3435.00 3443.91 59.00
9536 59.3100 3279.00 3449.15 57.00
9537 59.3160 3287.00 3453.20 57.00
9538 59.3220 3336.00 3457.99 58.00
9539 59.3280 3350.00 3461.40 58.00
9540 59.3340 3309.00 3465.33 58.00
9541 59.3400 3300.00 3467.68 57.00
9542 59.3460 3367.00 3470.38 58.00
9543 59.3520 3307.00 3471.35 58.00
9544 59.3580 3328.00 3472.56 58.00
9545 59.3640 3380.00 3472.08 58.00
9546 59.3700 3334.00 3471.71 58.00
9547 59.3760 3348.00 3469.81 58.00
9548 59.3820 3392.00 3468.20 58.00
9549 59.3880 3312.00 3465.03 58.00
9550 59.3940 3241.00 3462.34 57.00
9551 59.4000 3305.00 3458.20 57.00
9552 59.4060 3259.00 3454.86 57.00
9553 59.4120 3307.00 3450.29 58.00
9554 59.4180 3347.00 3446.59 58.00
9555 59.4240 3280.00 3441.89 57.00
9556 59.4300 3299.00 3438.25 57.00
9557 59.4360 3340.00 3433.79 58.00
9558 59.4420 3343.00 3430.59 58.00
9559 59.4480 3286.00 3426.76 57.00
9560 59.4540 3308.00 3424.39 58.00
9561 59.4600 3312.00 3421.45 58.00
9562 59.4660 3360.00 3420.14 58.00
9563 59.4720 3342.00 3418.34 58.00
9564 59.4780 3374.00 3418.33 58.00
9565 59.4840 3387.00 3417.86 58.00
9566 59.4900 3316.00 3419.29 58.00
9567 59.4960 3349.00 3420.46 58.00
9568 59.5020 3402.00 3423.36 58.00
9569 59.5080 3399.00 3426.04 58.00
9570 59.5140 3430.00 3430.55 59.00
9571 59.5200 3446.00 3434.62 59.00
9572 59.5260 3397.00 3439.49 58.00
9573 59.5320 3380.00 3446.06 58.00
9574 59.5380 3386.00 3452.13 58.00
9575 59.5440 3442.00 3459.67 59.00
9576 59.5500 3483.00 3466.67 59.00
9577 59.5560 3428.00 3474.93 59.00
9578 59.5620 3412.00 3482.38 58.00
9579 59.5680 3398.00 3490.86 58.00
9580 59.5740 3445.00 3498.19 59.00
9581 59.5800 3476.00 3506.39 59.00
9582 59.5860 3423.00 3513.15 59.00
9583 59.5920 3505.00 3520.36 59.00
9584 59.5980 3557.00 3525.90 60.00
9585 59.6040 3496.00 3531.75 59.00
9586 59.6100 3514.00 3535.78 59.00
9587 59.6160 3492.00 3539.88 59.00
9588 59.6220 3439.00 3542.21 59.00
9589 59.6280 3451.00 3544.66 59.00
9590 59.6340 3420.00 3545.37 58.00
9591 59.6400 3494.00 3546.42 59.00
9592 59.6460 3558.00 3545.85 60.00
9593 59.6520 3485.00 3545.92 59.00
9594 59.6580 3470.00 3544.59 59.00
9595 59.6640 3524.00 3544.04 59.00
9596 59.6700 3498.00 3542.45 59.00
9597 59.6760 3481.00 3541.82 59.00
9598 59.6820 3467.00 3540.23 59.00
9599 59.6880 3442.00 3539.73 59.00
9600 59.6940 3461.00 3538.38 59.00
9601 59.7000 3485.00 3538.05 59.00
9602 59.7060 3454.00 3537.05 59.00
9603 59.7120 3396.00 3537.35 58.00
9604 59.7180 3384.00 3536.90 58.00
9605 59.7240 3436.00 3537.73 59.00
9606 59.7300 3551.00 3537.85 60.00
9607 59.7360 3563.00 3539.26 60.00
9608 59.7420 3442.00 3539.95 59.00
9609 59.7480 3443.00 3541.82 59.00
9610 59.7540 3482.00 3543.03 59.00
9611 59.7600 3470.00 3545.24 59.00
9612 59.7660 3493.00 3546.75 59.00
9613 59.7720 3522.00 3549.60 59.00
9614 59.7780 3511.00 3551.63 59.00
9615 59.7840 3491.00 3554.85 59.00
9616 59.7900 3492.00 3557.24 59.00
9617 59.7960 3442.00 3560.83 59.00
9618 59.8020 3417.00 3563.37 58.00
9619 59.8080 3433.00 3567.39 59.00
9620 59.8140 3476.00 3570.55 59.00
9621 59.8200 3477.00 3575.21 59.00
9622 59.8260 3427.00 3579.09 59.00
9623 59.8320 3362.00 3584.31 58.00
9624 59.8380 3437.00 3588.93 59.00
9625 59.8440 3536.00 3594.94 59.00
9626 59.8500 3663.00 3600.39 61.00
9627 59.8560 3601.00 3607.30 60.00
9628 59.8620 3436.00 3613.64 59.00
9629 59.8680 3523.00 3621.42 59.00
9630 59.8740 3501.00 3628.57 59.00
9631 59.8800 3451.00 3636.74 59.00
9632 59.8860 3494.00 3644.51 59.00
9633 59.8920 3537.00 3653.27 59.00
9634 59.8980 3481.00 3661.06 59.00
9635 59.9040 3453.00 3669.73 59.00
9636 59.9100 3402.00 3676.48 58.00
9637 59.9160 3519.00 3684.21 59.00
9638 59.9220 3590.00 3690.10 60.00
9639 59.9280 3543.00 3696.24 60.00
9640 59.9340 3518.00 3700.47 59.00
9641 59.9400 3506.00 3704.60 59.00
9642 59.9460 3595.00 3706.55 60.00
9643 59.9520 3646.00 3708.26 60.00
9644 59.9580 3693.00 3707.67 61.00
9645 59.9640 3746.00 3706.73 61.00
9646 59.9700 3689.00 3703.58 61.00
9647 59.9760 3595.00 3700.21 60.00
9648 59.9820 3565.00 3694.69 60.00
9649 59.9880 3420.00 3689.16 58.00
9650 59.9940 3391.00 3681.67 58.00
9651 60.0000 3515.00 3674.41 59.00
9652 60.0060 3443.00 3665.57 59.00
9653 60.0120 3560.00 3657.33 60.00
9654 60.0180 3570.00 3647.93 60.00
9655 60.0240 3500.00 3639.57 59.00
9656 60.0300 3442.00 3630.62 59.00
9657 60.0360 3469.00 3622.98 59.00
9658 60.0420 3510.00 3614.00 59.00
9659 60.0480 3542.00 3606.87 60.00
9660 60.0540 3554.00 3599.60 60.00
9661 60.0600 3526.00 3594.63 59.00
9662 60.0660 3558.00 3589.92 60.00
9663 60.0720 3549.00 3587.60 60.00
9664 60.0780 3431.00 3585.69 59.00
9665 60.0840 3389.00 3586.33 58.00
9666 60.0900 3355.00 3587.55 58.00
9667 60.0960 3448.00 3591.34 59.00
9668 60.1020 3457.00 3595.72 59.00
9669 60.1080 3454.00 3602.58 59.00
9670 60.1140 3528.00 3610.06 59.00
9671 60.1200 3542.00 3620.03 60.00
9672 60.1260 3506.00 3630.39 59.00
9673 60.1320 3545.00 3643.05 60.00
9674 60.1380 3553.00 3656.88 60.00
9675 60.1440 3556.00 3670.74 60.00
9676 60.1500 3539.00 3686.63 59.00
9677 60.1560 3609.00 3702.00 60.00
9678 60.1620 3598.00 3718.82 60.00
9679 60.1680 3548.00 3734.84 60.00
9680 60.1740 3609.00 3751.86 60.00
9681 60.1800 3655.00 3767.59 60.00
9682 60.1860 3561.00 3783.83 60.00
9683 60.1920 3608.00 3798.36 60.00
9684 60.1980 3765.00 3813.02 61.00
9685 60.2040 3673.00 3825.61 61.00
9686 60.2100 3630.00 3838.39 60.00
9687 60.2160 3717.00 3849.10 61.00
9688 60.2220 3663.00 3859.69 61.00
9689 60.2280 3608.00 3868.35 60.00
9690 60.2340 3643.00 3877.33 60.00
9691 60.2400 3696.00 3885.72 61.00
9692 60.2460 3810.00 3892.67 62.00
9693 60.2520 3720.00 3900.31 61.00
9694 60.2580 3734.00 3906.86 61.00
9695 60.2640 3770.00 3914.48 61.00
9696 60.2700 3832.00 3921.11 62.00
9697 60.2760 3773.00 3928.81 61.00
9698 60.2820 3637.00 3935.75 60.00
9699 60.2880 3683.00 3943.86 61.00
9700 60.2940 3787.00 3951.02 62.00
9701 60.3000 3782.00 3959.40 61.00
9702 60.3060 3797.00 3966.62 62.00
9703 60.3120 3847.00 3974.61 62.00
9704 60.3180 3917.00 3981.25 63.00
9705 60.3240 3923.00 3988.34 63.00
9706 60.3300 3935.00 3993.73 63.00
9707 60.3360 3885.00 3999.26 62.00
9708 60.3420 3892.00 4002.76 62.00
9709 60.3480 4006.00 4006.20 63.00
9710 60.3540 4016.00 4008.33 63.00
9711 60.3600 3980.00 4008.17 63.00
9712 60.3660 3981.00 4007.71 63.00
9713 60.3720 3844.00 4004.91 62.00
9714 60.3780 4026.00 4001.83 63.00
9715 60.3840 3979.00 3996.46 63.00
9716 60.3900 4034.00 3991.02 64.00
9717 60.3960 3924.00 3983.53 63.00
9718 60.4020 3974.00 3976.15 63.00
9719 60.4080 3896.00 3967.01 62.00
9720 60.4140 3883.00 3958.26 62.00
9721 60.4200 3762.00 3948.10 61.00
9722 60.4260 3876.00 3938.72 62.00
9723 60.4320 3802.00 3928.36 62.00
9724 60.4380 3764.00 3919.19 61.00
9725 60.4440 3812.00 3909.42 62.00
9726 60.4500 3759.00 3901.40 61.00
9727 60.4560 3935.00 3894.26 63.00
9728 60.4620 3779.00 3887.21 61.00
9729 60.4680 3834.00 3882.42 62.00
9730 60.4740 3859.00 3878.05 62.00
9731 60.4800 3957.00 3876.26 63.00
9732 60.4860 3963.00 3874.97 63.00
9733 60.4920 3886.00 3876.27 62.00
9734 60.4980 3981.00 3878.21 63.00
9735 60.5040 3896.00 3882.54 62.00
9736 60.5100 3935.00 3887.24 63.00
9737 60.5160 3826.00 3894.16 62.00
9738 60.5220 3952.00 3901.25 63.00
9739 60.5280 3929.00 3910.08 63.00
9740 60.5340 4068.00 3918.52 64.00
9741 60.5400 4100.00 3928.35 64.00
9742 60.5460 4114.00 3937.35 64.00
9743 60.5520 4055.00 3947.13 64.00
9744 60.5580 3856.00 3955.45 62.00
9745 60.5640 3928.00 3963.93 63.00
9746 60.5700 4051.00 3971.48 64.00
9747 60.5760 4034.00 3976.61 64.00
9748 60.5820 4099.00 3981.20 64.00
9749 60.5880 4095.00 3983.00 64.00
9750 60.5940 4157.00 3983.93 64.00
9751 60.6000 3982.00 3981.90 63.00
9752 60.6060 3901.00 3978.93 62.00
9753 60.6120 3922.00 3973.04 63.00
9754 60.6180 4006.00 3966.28 63.00
9755 60.6240 3858.00 3956.76 62.00
9756 60.6300 3950.00 3946.59 63.00
9757 60.6360 3938.00 3933.79 63.00
9758 60.6420 3811.00 3920.60 62.00
9759 60.6480 3846.00 3905.09 62.00
9760 60.6540 3845.00 3889.34 62.00
9761 60.6600 3960.00 3871.55 63.00
9762 60.6660 3778.00 3853.91 61.00
9763 60.6720 3740.00 3835.48 61.00
9764 60.6780 3735.00 3815.56 61.00
9765 60.6840 3782.00 3796.32 61.00
9766 60.6900 3745.00 3775.96 61.00
9767 60.6960 3772.00 3756.71 61.00
9768 60.7020 3723.00 3736.74 61.00
9769 60.7080 3714.00 3718.24 61.00
9770 60.7140 3698.00 3699.28 61.00
9771 60.7200 3708.00 3682.10 61.00
9772 60.7260 3783.00 3664.76 62.00
9773 60.7320 3635.00 3649.18 60.00
9774 60.7380 3626.00 3633.61 60.00
9775 60.7440 3547.00 3619.88 60.00
9776 60.7500 3579.00 3606.05 60.00
9777 60.7560 3705.00 3594.05 61.00
9778 60.7620 3608.00 3581.84 60.00
9779 60.7680 3632.00 3571.53 60.00
9780 60.7740 3530.00 3560.78 59.00
9781 60.7800 3497.00 3551.63 59.00
9782 60.7860 3512.00 3543.23 59.00
9783 60.7920 3588.00 3534.67 60.00
9784 60.7980 3447.00 3527.64 59.00
9785 60.8040 3625.00 3520.35 60.00
9786 60.8100 3547.00 3514.84 60.00
9787 60.8160 3519.00 3509.14 59.00
9788 60.8220 3437.00 3505.32 59.00
9789 60.8280 3519.00 3501.40 59.00
9790 60.8340 3490.00 3499.39 59.00
9791 60.8400 3445.00 3497.34 59.00
9792 60.8460 3493.00 3497.22 59.00
9793 60.8520 3433.00 3497.12 59.00
9794 60.8580 3472.00 3498.85 59.00
9795 60.8640 3559.00 3500.46 60.00
9796 60.8700 3474.00 3503.92 59.00
9797 60.8760 3532.00 3507.14 59.00
9798 60.8820 3553.00 3512.05 60.00
9799 60.8880 3523.00 3517.62 59.00
9800 60.8940 3601.00 3522.62 60.00
9801 60.9000 3527.00 3529.00 59.00
9802 60.9060 3517.00 3534.59 59.00
9803 60.9120 3520.00 3541.27 59.00
9804 60.9180 3637.00 3546.89 60.00
9805 60.9240 3454.00 3553.39 59.00
9806 60.9300 3570.00 3558.42 60.00
9807 60.9360 3582.00 3563.97 60.00
9808 60.9420 3459.00 3567.91 59.00
9809 60.9480 3500.00 3572.17 59.00
9810 60.9540 3588.00 3574.74 60.00
9811 60.9600 3536.00 3577.46 59.00
9812 60.9660 3589.00 3578.37 60.00
9813 60.9720 3647.00 3579.20 60.00
9814 60.9780 3525.00 3578.21 59.00
9815 60.9840 3530.00 3577.36 59.00
9816 60.9900 3507.00 3575.44 59.00
9817 60.9960 3521.00 3571.63 59.00
9818 61.0020 3468.00 3567.67 59.00
9819 61.0080 3573.00 3561.82 60.00
9820 61.0140 3567.00 3556.04 60.00
9821 61.0200 3384.00 3548.39 58.00
9822 61.0260 3451.00 3540.71 59.00
9823 61.0320 3554.00 3531.20 60.00
9824 61.0380 3526.00 3521.97 59.00
9825 61.0440 3482.00 3511.21 59.00
9826 61.0500 3562.00 3501.01 60.00
9827 61.0560 3378.00 3489.55 58.00
9828 61.0620 3360.00 3478.97 58.00
9829 61.0680 3373.00 3467.49 58.00
9830 61.0740 3395.00 3457.13 58.00
9831 61.0800 3428.00 3446.14 59.00
9832 61.0860 3348.00 3436.67 58.00
9833 61.0920 3414.00 3426.57 58.00
9834 61.0980 3374.00 3418.17 58.00
9835 61.1040 3400.00 3410.35 58.00
9836 61.1100 3406.00 3402.24 58.00
9837 61.1160 3426.00 3395.90 59.00
9838 61.1220 3366.00 3389.47 58.00
9839 61.1280 3239.00 3383.71 57.00
9840 61.1340 3317.00 3378.78 58.00
9841 61.1400 3366.00 3374.61 58.00
9842 61.1460 3376.00 3371.31 58.00
9843 61.1520 3352.00 3368.79 58.00
9844 61.1580 3301.00 3367.09 57.00
9845 61.1640 3435.00 3366.09 59.00
9846 61.1700 3389.00 3365.84 58.00
9847 61.1760 3374.00 3367.22 58.00
9848 61.1820 3398.00 3368.22 58.00
9849 61.1880 3318.00 3369.90 58.00
9850 61.1940 3407.00 3371.97 58.00
9851 61.2000 3326.00 3374.49 58.00
9852 61.2060 3397.00 3377.38 58.00
9853 61.2120 3442.00 3380.50 59.00
9854 61.2180 3526.00 3383.97 59.00
9855 61.2240 3399.00 3387.55 58.00
9856 61.2300 3451.00 3391.21 59.00
9857 61.2360 3414.00 3394.91 58.00
9858 61.2420 3509.00 3398.56 59.00
9859 61.2480 3500.00 3402.19 59.00
9860 61.2540 3387.00 3405.74 58.00
9861 61.2600 3419.00 3409.19 58.00
9862 61.2660 3482.00 3412.54 59.00
9863 61.2720 3452.00 3415.78 59.00
9864 61.2780 3389.00 3418.87 58.00
9865 61.2840 3479.00 3421.83 59.00
9866 61.2900 3463.00 3424.61 59.00
9867 61.2960 3432.00 3427.20 59.00
9868 61.3020 3422.00 3429.49 58.00
9869 61.3080 3471.00 3431.69 59.00
9870 61.3140 3422.00 3433.52 58.00
9871 61.3200 3487.00 3435.17 59.00
9872 61.3260 3381.00 3436.58 58.00
9873 61.3320 3428.00 3437.64 59.00
9874 61.3380 3397.00 3438.64 58.00
9875 61.3440 3426.00 3440.55 59.00
9876 61.3500 3550.00 3441.34 60.00
9877 61.3560 3457.00 3442.10 59.00
9878 61.3620 3436.00 3442.76 59.00
9879 61.3680 3502.00 3443.65 59.00
9880 61.3740 3469.00 3444.69 59.00
9881 61.3800 3574.00 3445.92 60.00
9882 61.3860 3492.00 3447.24 59.00
9883 61.3920 3544.00 3448.87 60.00
9884 61.3980 3523.00 3450.70 59.00
9885 61.4040 3618.00 3452.65 60.00
9886 61.4100 3615.00 3454.81 60.00
9887 61.4160 3629.00 3457.02 60.00
9888 61.4220 3605.00 3459.26 60.00
9889 61.4280 3561.00 3461.46 60.00
9890 61.4340 3654.00 3463.56 60.00
9891 61.4400 3585.00 3465.51 60.00
9892 61.4460 3621.00 3467.26 60.00
9893 61.4520 3599.00 3468.77 60.00
9894 61.4580 3506.00 3470.06 59.00
9895 61.4640 3687.00 3471.13 61.00
9896 61.4700 3549.00 3472.03 60.00
9897 61.4760 3505.00 3472.81 59.00
9898 61.4820 3545.00 3473.51 60.00
9899 61.4880 3561.00 3474.30 60.00
9900 61.4940 3491.00 3475.23 59.00
9901 61.5000 3454.00 3476.25 59.00
9902 61.5060 3513.00 3478.51 59.00
9903 61.5120 3570.00 3480.09 60.00
9904 61.5180 3530.00 3482.01 59.00
9905 61.5240 3558.00 3484.30 60.00
9906 61.5300 3593.00 3486.99 60.00
9907 61.5360 3571.00 3490.08 60.00
9908 61.5420 3513.00 3493.52 59.00
9909 61.5480 3543.00 3497.28 60.00
9910 61.5540 3450.00 3501.29 59.00
9911 61.5600 3468.00 3505.49 59.00
9912 61.5660 3495.00 3509.76 59.00
9913 61.5720 3441.00 3514.02 59.00
9914 61.5780 3552.00 3518.18 60.00
9915 61.5840 3510.00 3522.13 59.00
9916 61.5900 3534.00 3525.78 59.00
9917 61.5960 3599.00 3528.87 60.00
9918 61.6020 3619.00 3531.53 60.00
9919 61.6080 3644.00 3533.88 60.00
9920 61.6140 3631.00 3535.63 60.00
9921 61.6200 3589.00 3536.74 60.00
9922 61.6260 3547.00 3537.13 60.00
9923 61.6320 3609.00 3536.74 60.00
9924 61.6380 3570.00 3535.52 60.00
9925 61.6440 3581.00 3533.39 60.00
9926 61.6500 3612.00 3530.56 60.00
9927 61.6560 3634.00 3526.98 60.00
9928 61.6620 3627.00 3522.67 60.00
9929 61.6680 3521.00 3517.78 59.00
9930 61.6740 3594.00 3513.39 60.00
9931 61.6800 3592.00 3507.57 60.00
9932 61.6860 3587.00 3501.43 60.00
9933 61.6920 3475.00 3494.93 59.00
9934 61.6980 3518.00 3488.39 59.00
9935 61.7040 3550.00 3481.74 60.00
9936 61.7100 3502.00 3475.02 59.00
9937 61.7160 3545.00 3468.30 60.00
9938 61.7220 3504.00 3461.50 59.00
9939 61.7280 3502.00 3454.86 59.00
9940 61.7340 3549.00 3448.32 60.00
9941 61.7400 3526.00 3441.69 59.00
9942 61.7460 3564.00 3435.36 60.00
9943 61.7520 3555.00 3429.31 60.00
9944 61.7580 3494.00 3423.50 59.00
9945 61.7640 3568.00 3417.94 60.00
9946 61.7700 3530.00 3412.60 59.00
9947 61.7760 3411.00 3407.50 58.00
9948 61.7820 3357.00 3402.93 58.00
9949 61.7880 3339.00 3398.76 58.00
9950 61.7940 3344.00 3394.94 58.00
9951 61.8000 3390.00 3391.67 58.00
9952 61.8060 3512.00 3388.90 59.00
9953 61.8120 3604.00 3386.70 60.00
9954 61.8180 3447.00 3384.99 59.00
9955 61.8240 3487.00 3383.85 59.00
9956 61.8300 3512.00 3383.44 59.00
9957 61.8360 3492.00 3383.72 59.00
9958 61.8420 3440.00 3385.62 59.00
9959 61.8480 3385.00 3387.08 58.00
9960 61.8540 3443.00 3389.11 59.00
9961 61.8600 3437.00 3391.54 59.00
9962 61.8660 3361.00 3394.53 58.00
9963 61.8720 3385.00 3397.82 58.00
9964 61.8780 3485.00 3401.37 59.00
9965 61.8840 3492.00 3405.13 59.00
9966 61.8900 3495.00 3408.88 59.00
9967 61.8960 3503.00 3412.74 59.00
9968 61.9020 3555.00 3416.30 60.00
9969 61.9080 3420.00 3419.55 58.00
9970 61.9140 3330.00 3422.36 58.00
9971 61.9200 3382.00 3424.69 58.00
9972 61.9260 3435.00 3426.48 59.00
9973 61.9320 3458.00 3427.55 59.00
9974 61.9380 3500.00 3427.96 59.00
9975 61.9440 3416.00 3427.64 58.00
9976 61.9500 3421.00 3426.52 58.00
9977 61.9560 3486.00 3424.66 59.00
9978 61.9620 3479.00 3422.00 59.00
9979 61.9680 3407.00 3418.68 58.00
9980 61.9740 3405.00 3414.80 58.00
9981 61.9800 3359.00 3410.03 58.00
9982 61.9860 3400.00 3404.76 58.00
9983 61.9920 3416.00 3399.25 58.00
9984 61.9980 3441.00 3393.48 59.00
9985 62.0040 3312.00 3387.19 58.00
9986 62.0100 3341.00 3382.16 58.00
9987 62.0160 3364.00 3376.26 58.00
9988 62.0220 3314.00 3370.48 58.00
9989 62.0280 3362.00 3365.00 58.00
9990 62.0340 3326.00 3359.94 58.00
9991 62.0400 3342.00 3355.32 58.00
9992 62.0460 3449.00 3351.36 59.00
9993 62.0520 3468.00 3347.89 59.00
9994 62.0580 3426.00 3345.33 59.00
9995 62.0640 3461.00 3343.54 59.00
9996 62.0700 3416.00 3342.55 58.00
9997 62.0760 3402.00 3342.20 58.00
9998 62.0820 3394.00 3342.81 58.00
9999 62.0880 3369.00 3344.20 58.00
10000 62.0940 3351.00 3346.33 58.00
10001 62.1000 3417.00 3349.09 58.00
10002 62.1060 3420.00 3352.59 58.00
10003 62.1120 3418.00 3356.69 58.00
10004 62.1180 3371.00 3361.33 58.00
10005 62.1240 3289.00 3366.45 57.00
10006 62.1300 3326.00 3371.96 58.00
10007 62.1360 3369.00 3377.83 58.00
10008 62.1420 3345.00 3383.91 58.00
10009 62.1480 3358.00 3390.14 58.00
10010 62.1540 3385.00 3396.42 58.00
10011 62.1600 3434.00 3402.65 59.00
10012 62.1660 3392.00 3408.74 58.00
10013 62.1720 3357.00 3414.58 58.00
10014 62.1780 3362.00 3421.07 58.00
10015 62.1840 3405.00 3426.05 58.00
10016 62.1900 3418.00 3430.57 58.00
10017 62.1960 3417.00 3434.50 58.00
10018 62.2020 3399.00 3437.75 58.00
10019 62.2080 3407.00 3440.28 58.00
10020 62.2140 3428.00 3442.03 59.00
10021 62.2200 3409.00 3443.03 58.00
10022 62.2260 3365.00 3443.32 58.00
10023 62.2320 3341.00 3442.94 58.00
10024 62.2380 3364.00 3441.91 58.00
10025 62.2440 3375.00 3440.47 58.00
10026 62.2500 3343.00 3438.61 58.00
10027 62.2560 3335.00 3436.56 58.00
10028 62.2620 3375.00 3434.47 58.00
10029 62.2680 3347.00 3432.55 58.00
10030 62.2740 3386.00 3432.85 58.00
10031 62.2800 3428.00 3434.52 59.00
10032 62.2860 3432.00 3435.70 59.00
10033 62.2920 3405.00 3437.48 58.00
10034 62.2980 3338.00 3439.99 58.00
10035 62.3040 3358.00 3444.22 58.00
10036 62.3100 3367.00 3448.17 58.00
10037 62.3160 3399.00 3452.91 58.00
10038 62.3220 3498.00 3458.46 59.00
10039 62.3280 3493.00 3465.82 59.00
10040 62.3340 3464.00 3472.98 59.00
10041 62.3400 3463.00 3480.83 59.00
10042 62.3460 3461.00 3489.49 59.00
10043 62.3520 3488.00 3499.77 59.00
10044 62.3580 3475.00 3509.60 59.00
10045 62.3640 3470.00 3520.02 59.00
10046 62.3700 3553.00 3530.82 60.00
10047 62.3760 3638.00 3542.89 60.00
10048 62.3820 3610.00 3554.14 60.00
10049 62.3880 3586.00 3565.42 60.00
10050 62.3940 3608.00 3576.62 60.00
10051 62.4000 3640.00 3588.60 60.00
10052 62.4060 3649.00 3599.24 60.00
10053 62.4120 3614.00 3609.39 60.00
10054 62.4180 3709.00 3619.05 61.00
10055 62.4240 3668.00 3629.19 61.00
10056 62.4300 3613.00 3637.62 60.00
10057 62.4360 3622.00 3645.31 60.00
10058 62.4420 3589.00 3652.30 60.00
10059 62.4480 3662.00 3659.69 61.00
10060 62.4540 3725.00 3665.31 61.00
10061 62.4600 3754.00 3670.37 61.00
10062 62.4660 3736.00 3674.83 61.00
10063 62.4720 3704.00 3679.72 61.00
10064 62.4780 3744.00 3683.14 61.00
10065 62.4840 3710.00 3686.09 61.00
10066 62.4900 3657.00 3688.56 60.00
10067 62.4960 3691.00 3691.69 61.00
10068 62.5020 3660.00 3693.34 60.00
10069 62.5080 3621.00 3694.63 60.00
10070 62.5140 3648.00 3695.38 60.00
10071 62.5200 3716.00 3696.66 61.00
10072 62.5260 3731.00 3696.26 61.00
10073 62.5320 3678.00 3695.19 61.00
10074 62.5380 3624.00 3693.36 60.00
10075 62.5440 3637.00 3691.69 60.00
10076 62.5500 3651.00 3688.18 60.00
10077 62.5560 3597.00 3683.80 60.00
10078 62.5620 3633.00 3678.52 60.00
10079 62.5680 3669.00 3673.40 61.00
10080 62.5740 3643.00 3666.50 60.00
10081 62.5800 3692.00 3658.86 61.00
10082 62.5860 3737.00 3650.56 61.00
10083 62.5920 3741.00 3642.66 61.00
10084 62.5980 3678.00 3633.18 61.00
10085 62.6040 3625.00 3623.19 60.00
10086 62.6100 3606.00 3612.69 60.00
10087 62.6160 3561.00 3602.81 60.00
10088 62.6220 3570.00 3591.42 60.00
10089 62.6280 3602.00 3579.64 60.00
10090 62.6340 3560.00 3567.44 60.00
10091 62.6400 3488.00 3555.88 59.00
10092 62.6460 3485.00 3543.00 59.00
10093 62.6520 3491.00 3529.89 59.00
10094 62.6580 3503.00 3517.66 59.00
10095 62.6640 3487.00 3504.25 59.00
10096 62.6700 3505.00 3491.04 59.00
10097 62.6760 3522.00 3477.98 59.00
10098 62.6820 3418.00 3466.24 58.00
10099 62.6880 3375.00 3453.83 58.00
10100 62.6940 3419.00 3441.90 58.00
10101 62.7000 3467.00 3430.50 59.00
10102 62.7060 3501.00 3420.75 59.00
10103 62.7120 3415.00 3410.62 58.00
10104 62.7180 3337.00 3401.18 58.00
10105 62.7240 3382.00 3392.45 58.00
10106 62.7300 3336.00 3385.33 58.00
10107 62.7360 3331.00 3377.98 58.00
10108 62.7420 3378.00 3371.27 58.00
10109 62.7480 3413.00 3365.19 58.00
10110 62.7540 3424.00 3360.62 59.00
10111 62.7600 3401.00 3355.65 58.00
10112 62.7660 3369.00 3351.14 58.00
10113 62.7720 3390.00 3346.99 58.00
10114 62.7780 3397.00 3344.28 58.00
10115 62.7840 3367.00 3340.91 58.00
10116 62.7900 3293.00 3337.85 57.00
10117 62.7960 3269.00 3335.06 57.00
10118 62.8020 3290.00 3333.54 57.00
10119 62.8080 3336.00 3331.26 58.00
10120 62.8140 3360.00 3329.22 58.00
10121 62.8200 3278.00 3327.41 57.00
10122 62.8260 3280.00 3326.90 57.00
10123 62.8320 3285.00 3325.58 57.00
10124 62.8380 3228.00 3324.57 57.00
10125 62.8440 3263.00 3323.73 57.00
10126 62.8500 3312.00 3324.13 58.00
10127 62.8560 3300.00 3323.77 57.00
10128 62.8620 3272.00 3323.75 57.00
10129 62.8680 3322.00 3323.90 58.00
10130 62.8740 3343.00 3325.17 58.00
10131 62.8800 3287.00 3325.62 57.00
10132 62.8860 3295.00 3326.02 57.00
10133 62.8920 3308.00 3326.75 58.00
10134 62.8980 3267.00 3328.63 57.00
10135 62.9040 3338.00 3329.60 58.00
10136 62.9100 3284.00 3330.51 57.00
10137 62.9160 3213.00 3331.39 57.00
10138 62.9220 3172.00 3333.20 56.00
10139 62.9280 3244.00 3333.86 57.00
10140 62.9340 3229.00 3334.36 57.00
10141 62.9400 3208.00 3334.55 57.00
10142 62.9460 3152.00 3335.52 56.00
10143 62.9520 3205.00 3335.13 57.00
10144 62.9580 3254.00 3334.36 57.00
10145 62.9640 3241.00 3333.22 57.00
10146 62.9700 3230.00 3332.72 57.00
10147 62.9760 3250.00 3330.86 57.00
10148 62.9820 3222.00 3328.70 57.00
10149 62.9880 3217.00 3326.27 57.00
10150 62.9940 3188.00 3324.67 56.00
10151 63.0000 3168.00 3321.90 56.00
10152 63.0060 3124.00 3319.02 56.00
10153 63.0120 3110.00 3315.93 56.00
10154 63.0180 3161.00 3314.09 56.00
10155 63.0240 3162.00 3311.27 56.00
10156 63.0300 3176.00 3308.65 56.00
10157 63.0360 3204.00 3306.16 57.00
10158 63.0420 3120.00 3302.75 56.00
10159 63.0480 3137.00 3299.54 56.00
10160 63.0540 3163.00 3296.55 56.00
10161 63.0600 3228.00 3293.91 57.00
10162 63.0660 3165.00 3291.41 56.00
10163 63.0720 3120.00 3289.01 56.00
10164 63.0780 3172.00 3285.93 56.00
10165 63.0840 3171.00 3284.26 56.00
10166 63.0900 3170.00 3282.87 56.00
10167 63.0960 3122.00 3281.79 56.00
10168 63.1020 3129.00 3281.01 56.00
10169 63.1080 3226.00 3280.54 57.00
10170 63.1140 3190.00 3280.40 56.00
10171 63.1200 3171.00 3280.65 56.00
10172 63.1260 3240.00 3280.16 57.00
10173 63.1320 3241.00 3281.02 57.00
10174 63.1380 3144.00 3282.35 56.00
10175 63.1440 3171.00 3283.94 56.00
10176 63.1500 3219.00 3285.91 57.00
10177 63.1560 3203.00 3288.29 57.00
10178 63.1620 3144.00 3291.08 56.00
10179 63.1680 3221.00 3294.27 57.00
10180 63.1740 3213.00 3297.96 57.00
10181 63.1800 3183.00 3301.17 56.00
10182 63.1860 3204.00 3305.83 57.00
10183 63.1920 3264.00 3311.02 57.00
10184 63.1980 3309.00 3316.72 58.00
10185 63.2040 3191.00 3323.02 56.00
10186 63.2100 3271.00 3329.88 57.00
10187 63.2160 3311.00 3337.32 58.00
10188 63.2220 3219.00 3345.23 57.00
10189 63.2280 3216.00 3352.80 57.00
10190 63.2340 3235.00 3361.99 57.00
10191 63.2400 3358.00 3371.69 58.00
10192 63.2460 3301.00 3381.97 57.00
10193 63.2520 3320.00 3392.78 58.00
10194 63.2580 3331.00 3404.09 58.00
10195 63.2640 3381.00 3415.82 58.00
10196 63.2700 3323.00 3427.96 58.00
10197 63.2760 3447.00 3439.41 59.00
10198 63.2820 3462.00 3452.14 59.00
10199 63.2880 3342.00 3465.02 58.00
10200 63.2940 3430.00 3478.01 59.00
10201 63.3000 3452.00 3491.04 59.00
10202 63.3060 3499.00 3504.00 59.00
10203 63.3120 3440.00 3516.82 59.00
10204 63.3180 3448.00 3529.44 59.00
10205 63.3240 3512.00 3541.79 59.00
10206 63.3300 3576.00 3552.73 60.00
10207 63.3360 3534.00 3564.25 59.00
10208 63.3420 3430.00 3575.24 59.00
10209 63.3480 3403.00 3585.59 58.00
10210 63.3540 3504.00 3595.23 59.00
10211 63.3600 3578.00 3603.98 60.00
10212 63.3660 3619.00 3611.93 60.00
10213 63.3720 3508.00 3618.96 59.00
10214 63.3780 3537.00 3623.93 59.00
10215 63.3840 3587.00 3628.90 60.00
10216 63.3900 3673.00 3632.84 61.00
10217 63.3960 3548.00 3635.72 60.00
10218 63.4020 3620.00 3637.42 60.00
10219 63.4080 3655.00 3638.22 60.00
10220 63.4140 3612.00 3637.87 60.00
10221 63.4200 3634.00 3636.45 60.00
10222 63.4260 3574.00 3633.94 60.00
10223 63.4320 3625.00 3629.25 60.00
10224 63.4380 3678.00 3624.51 61.00
10225 63.4440 3632.00 3618.69 60.00
10226 63.4500 3593.00 3611.81 60.00
10227 63.4560 3604.00 3603.85 60.00
10228 63.4620 3621.00 3595.07 60.00
10229 63.4680 3496.00 3585.39 59.00
10230 63.4740 3439.00 3574.98 59.00
10231 63.4800 3419.00 3563.03 58.00
10232 63.4860 3502.00 3551.55 59.00
10233 63.4920 3460.00 3539.78 59.00
10234 63.4980 3449.00 3527.84 59.00
10235 63.5040 3392.00 3515.87 58.00
10236 63.5100 3271.00 3504.03 57.00
10237 63.5160 3407.00 3492.43 58.00
10238 63.5220 3424.00 3481.21 59.00
10239 63.5280 3332.00 3470.47 58.00
10240 63.5340 3484.00 3459.30 59.00
10241 63.5400 3372.00 3449.81 58.00
10242 63.5460 3385.00 3441.05 58.00
10243 63.5520 3450.00 3433.10 59.00
10244 63.5580 3486.00 3425.94 59.00
10245 63.5640 3414.00 3419.69 58.00
10246 63.5700 3384.00 3414.34 58.00
10247 63.5760 3350.00 3409.90 58.00
10248 63.5820 3386.00 3405.37 58.00
10249 63.5880 3361.00 3402.76 58.00
10250 63.5940 3460.00 3401.02 59.00
10251 63.6000 3346.00 3400.13 58.00
10252 63.6060 3313.00 3400.09 58.00
10253 63.6120 3293.00 3400.78 57.00
10254 63.6180 3324.00 3402.24 58.00
10255 63.6240 3330.00 3404.42 58.00
10256 63.6300 3372.00 3407.24 58.00
10257 63.6360 3326.00 3409.60 58.00
10258 63.6420 3410.00 3413.50 58.00
10259 63.6480 3445.00 3417.83 59.00
10260 63.6540 3372.00 3422.50 58.00
10261 63.6600 3392.00 3427.45 58.00
10262 63.6660 3404.00 3432.39 58.00
10263 63.6720 3404.00 3437.55 58.00
10264 63.6780 3325.00 3442.70 58.00
10265 63.6840 3373.00 3446.81 58.00
10266 63.6900 3370.00 3451.44 58.00
10267 63.6960 3399.00 3455.94 58.00
10268 63.7020 3445.00 3460.11 59.00
10269 63.7080 3445.00 3463.78 59.00
10270 63.7140 3441.00 3466.99 59.00
10271 63.7200 3357.00 3469.68 58.00
10272 63.7260 3420.00 3471.70 58.00
10273 63.7320 3448.00 3473.09 59.00
10274 63.7380 3300.00 3472.88 57.00
10275 63.7440 3404.00 3473.06 58.00
10276 63.7500 3320.00 3472.65 58.00
10277 63.7560 3293.00 3471.70 57.00
10278 63.7620 3395.00 3470.21 58.00
10279 63.7680 3311.00 3468.25 58.00
10280 63.7740 3345.00 3465.87 58.00
10281 63.7800 3371.00 3463.20 58.00
10282 63.7860 3316.00 3459.14 58.00
10283 63.7920 3337.00 3455.78 58.00
10284 63.7980 3278.00 3452.31 57.00
10285 63.8040 3166.00 3448.74 56.00
10286 63.8100 3200.00 3445.16 57.00
10287 63.8160 3281.00 3441.69 57.00
10288 63.8220 3324.00 3438.31 58.00
10289 63.8280 3421.00 3435.15 58.00
10290 63.8340 3187.00 3432.20 56.00
10291 63.8400 3331.00 3428.63 58.00
10292 63.8460 3357.00 3426.45 58.00
10293 63.8520 3387.00 3424.68 58.00
10294 63.8580 3225.00 3423.42 57.00
10295 63.8640 3130.00 3422.49 56.00
10296 63.8700 3293.00 3422.10 57.00
10297 63.8760 3363.00 3422.21 58.00
10298 63.8820 3323.00 3423.01 58.00
10299 63.8880 3340.00 3423.23 58.00
10300 63.8940 3246.00 3424.88 57.00
10301 63.9000 3332.00 3427.16 58.00
10302 63.9060 3390.00 3429.75 58.00
10303 63.9120 3211.00 3432.94 57.00
10304 63.9180 3436.00 3436.47 59.00
10305 63.9240 3243.00 3440.36 57.00
10306 63.9300 3316.00 3444.48 58.00
10307 63.9360 3253.00 3448.77 57.00
10308 63.9420 3281.00 3452.36 57.00
10309 63.9480 3362.00 3457.05 58.00
10310 63.9540 3364.00 3461.73 58.00
10311 63.9600 3529.00 3466.33 59.00
10312 63.9660 3314.00 3470.73 58.00
10313 63.9720 3394.00 3474.86 58.00
10314 63.9780 3418.00 3478.64 58.00
10315 63.9840 3412.00 3481.92 58.00
10316 63.9900 3440.00 3483.71 59.00
10317 63.9960 3363.00 3485.90 58.00
10318 64.0020 3341.00 3487.33 58.00
10319 64.0080 3367.00 3488.39 58.00
10320 64.0140 3341.00 3488.89 58.00
10321 64.0200 3389.00 3488.74 58.00
10322 64.0260 3369.00 3488.19 58.00
10323 64.0320 3336.00 3487.22 58.00
10324 64.0380 3267.00 3485.76 57.00
10325 64.0440 3350.00 3483.17 58.00
10326 64.0500 3283.00 3481.29 57.00
10327 64.0560 3330.00 3479.23 58.00
10328 64.0620 3381.00 3477.05 58.00
10329 64.0680 3345.00 3474.78 58.00
10330 64.0740 3388.00 3472.44 58.00
10331 64.0800 3376.00 3470.02 58.00
10332 64.0860 3470.00 3466.60 59.00
10333 64.0920 3363.00 3464.01 58.00
10334 64.0980 3383.00 3460.50 58.00
10335 64.1040 3412.00 3457.87 58.00
10336 64.1100 3245.00 3453.98 57.00
10337 64.1160 3301.00 3451.08 57.00
10338 64.1220 3444.00 3447.00 59.00
10339 64.1280 3382.00 3442.81 58.00
10340 64.1340 3426.00 3439.40 59.00
10341 64.1400 3260.00 3434.79 57.00
10342 64.1460 3360.00 3431.13 58.00
10343 64.1520 3329.00 3426.42 58.00
10344 64.1580 3262.00 3422.71 57.00
10345 64.1640 3264.00 3418.05 57.00
10346 64.1700 3333.00 3414.52 58.00
10347 64.1760 3427.00 3410.18 59.00
10348 64.1820 3302.00 3407.09 57.00
10349 64.1880 3251.00 3403.30 57.00
10350 64.1940 3236.00 3399.89 57.00
10351 64.2000 3239.00 3397.91 57.00
10352 64.2060 3274.00 3395.40 57.00
10353 64.2120 3262.00 3394.43 57.00
10354 64.2180 3384.00 3393.04 58.00
10355 64.2240 3280.00 3393.29 57.00
10356 64.2300 3319.00 3393.21 58.00
10357 64.2360 3330.00 3394.77 58.00
10358 64.2420 3188.00 3396.12 56.00
10359 64.2480 3289.00 3399.24 57.00
10360 64.2540 3298.00 3402.09 57.00
10361 64.2600 3304.00 3406.70 57.00
10362 64.2660 3302.00 3411.03 57.00
10363 64.2720 3355.00 3416.07 58.00
10364 64.2780 3407.00 3422.69 58.00
10365 64.2840 3427.00 3428.96 59.00
10366 64.2900 3361.00 3436.77 58.00
10367 64.2960 3293.00 3443.99 57.00
10368 64.3020 3377.00 3452.60 58.00
10369 64.3080 3368.00 3460.36 58.00
10370 64.3140 3408.00 3469.22 58.00
10371 64.3200 3391.00 3477.05 58.00
10372 64.3260 3433.00 3485.65 59.00
10373 64.3320 3389.00 3492.96 58.00
10374 64.3380 3431.00 3499.74 59.00
10375 64.3440 3393.00 3506.93 58.00
10376 64.3500 3442.00 3512.48 59.00
10377 64.3560 3466.00 3518.29 59.00
10378 64.3620 3396.00 3522.12 58.00
10379 64.3680 3417.00 3526.07 58.00
10380 64.3740 3388.00 3528.14 58.00
10381 64.3800 3460.00 3530.34 59.00
10382 64.3860 3442.00 3530.79 59.00
10383 64.3920 3473.00 3531.47 59.00
10384 64.3980 3408.00 3530.44 58.00
10385 64.4040 3411.00 3529.87 58.00
10386 64.4100 3384.00 3527.83 58.00
10387 64.4160 3438.00 3525.53 59.00
10388 64.4220 3402.00 3523.96 58.00
10389 64.4280 3406.00 3521.24 58.00
10390 64.4340 3480.00 3519.52 59.00
10391 64.4400 3429.00 3516.99 59.00
10392 64.4460 3383.00 3515.70 58.00
10393 64.4520 3355.00 3513.75 58.00
10394 64.4580 3418.00 3513.20 58.00
10395 64.4640 3409.00 3512.07 58.00
10396 64.4700 3329.00 3512.41 58.00
10397 64.4760 3375.00 3512.26 58.00
10398 64.4820 3413.00 3513.62 58.00
10399 64.4880 3426.00 3514.48 59.00
10400 64.4940 3476.00 3515.77 59.00
10401 64.5000 3429.00 3518.49 59.00
10402 64.5060 3438.00 3520.50 59.00
10403 64.5120 3372.00 3523.75 58.00
10404 64.5180 3360.00 3526.14 58.00
10405 64.5240 3459.00 3529.58 59.00
10406 64.5300 3454.00 3531.97 59.00
10407 64.5360 3447.00 3535.28 59.00
10408 64.5420 3426.00 3537.32 59.00
10409 64.5480 3526.00 3540.10 59.00
10410 64.5540 3475.00 3541.57 59.00
10411 64.5600 3416.00 3542.71 58.00
10412 64.5660 3396.00 3544.50 58.00
10413 64.5720 3429.00 3544.97 59.00
10414 64.5780 3477.00 3546.14 59.00
10415 64.5840 3404.00 3546.09 58.00
10416 64.5900 3401.00 3546.73 58.00
10417 64.5960 3439.00 3546.26 59.00
10418 64.6020 3445.00 3546.45 59.00
10419 64.6080 3424.00 3545.52 59.00
10420 64.6140 3476.00 3545.23 59.00
10421 64.6200 3490.00 3543.70 59.00
10422 64.6260 3412.00 3542.77 58.00
10423 64.6320 3373.00 3540.43 58.00
10424 64.6380 3355.00 3537.63 58.00
10425 64.6440 3358.00 3535.32 58.00
10426 64.6500 3421.00 3531.50 58.00
10427 64.6560 3372.00 3528.03 58.00
10428 64.6620 3351.00 3522.96 58.00
10429 64.6680 3414.00 3518.29 58.00
10430 64.6740 3436.00 3512.10 59.00
10431 64.6800 3392.00 3506.36 58.00
10432 64.6860 3396.00 3499.05 58.00
10433 64.6920 3409.00 3492.28 58.00
10434 64.6980 3464.00 3484.07 59.00
10435 64.7040 3448.00 3475.48 59.00
10436 64.7100 3296.00 3467.56 57.00
10437 64.7160 3337.00 3458.34 58.00
10438 64.7220 3392.00 3449.90 58.00
10439 64.7280 3352.00 3440.27 58.00
10440 64.7340 3346.00 3431.55 58.00
10441 64.7400 3373.00 3421.74 58.00
10442 64.7460 3411.00 3412.96 58.00
10443 64.7520 3480.00 3403.27 59.00
10444 64.7580 3424.00 3394.71 59.00
10445 64.7640 3354.00 3385.37 58.00
10446 64.7700 3293.00 3377.32 57.00
10447 64.7760 3291.00 3368.65 57.00
10448 64.7820 3298.00 3360.43 57.00
10449 64.7880 3252.00 3353.69 57.00
10450 64.7940 3212.00 3346.43 57.00
10451 64.8000 3229.00 3340.78 57.00
10452 64.8060 3251.00 3334.76 57.00
10453 64.8120 3251.00 3330.46 57.00
10454 64.8180 3268.00 3325.69 57.00
10455 64.8240 3238.00 3322.58 57.00
10456 64.8300 3280.00 3319.04 57.00
10457 64.8360 3400.00 3317.15 58.00
10458 64.8420 3301.00 3314.86 57.00
10459 64.8480 3207.00 3313.10 57.00
10460 64.8540 3297.00 3312.68 57.00
10461 64.8600 3335.00 3311.97 58.00
10462 64.8660 3267.00 3312.49 57.00
10463 64.8720 3241.00 3312.36 57.00
10464 64.8780 3217.00 3313.56 57.00
10465 64.8840 3217.00 3313.80 57.00
10466 64.8900 3195.00 3315.11 57.00
10467 64.8960 3182.00 3315.39 56.00
10468 64.9020 3271.00 3316.50 57.00
10469 64.9080 3312.00 3316.51 58.00
10470 64.9140 3263.00 3317.27 57.00
10471 64.9200 3216.00 3316.86 57.00
10472 64.9260 3251.00 3316.14 57.00
10473 64.9320 3234.00 3316.00 57.00
10474 64.9380 3220.00 3314.38 57.00
10475 64.9440 3225.00 3313.50 57.00
10476 64.9500 3277.00 3311.36 57.00
10477 64.9560 3243.00 3309.92 57.00
10478 64.9620 3233.00 3307.19 57.00
10479 64.9680 3175.00 3305.16 56.00
10480 64.9740 3238.00 3301.94 57.00
10481 64.9800 3349.00 3299.50 58.00
10482 64.9860 3272.00 3295.82 57.00
10483 64.9920 3242.00 3293.14 57.00
10484 64.9980 3223.00 3289.25 57.00
10485 65.0040 3224.00 3285.27 57.00
10486 65.0100 3222.00 3282.39 57.00
10487 65.0160 3273.00 3278.39 57.00
10488 65.0220 3252.00 3275.45 57.00
10489 65.0280 3217.00 3271.63 57.00
10490 65.0340 3155.00 3268.98 56.00
10491 65.0400 3117.00 3265.55 56.00
10492 65.0460 3197.00 3263.39 57.00
10493 65.0520 3181.00 3260.52 56.00
10494 65.0580 3154.00 3259.04 56.00
10495 65.0640 3157.00 3256.96 56.00
10496 65.0700 3195.00 3255.30 57.00
10497 65.0760 3293.00 3255.11 57.00
10498 65.0820 3249.00 3254.40 57.00
10499 65.0880 3242.00 3255.19 57.00
10500 65.0940 3218.00 3255.51 57.00
10501 65.1000 3139.00 3257.40 56.00
10502 65.1060 3172.00 3258.82 56.00
10503 65.1120 3204.00 3261.77 57.00
10504 65.1180 3186.00 3264.36 56.00
10505 65.1240 3173.00 3268.51 56.00
10506 65.1300 3138.00 3272.25 56.00
10507 65.1360 3192.00 3277.59 56.00
10508 65.1420 3213.00 3282.50 57.00
10509 65.1480 3226.00 3288.00 57.00
10510 65.1540 3258.00 3295.04 57.00
10511 65.1600 3287.00 3301.66 57.00
10512 65.1660 3263.00 3309.71 57.00
10513 65.1720 3230.00 3317.20 57.00
10514 65.1780 3307.00 3325.98 58.00
10515 65.1840 3354.00 3334.12 58.00
10516 65.1900 3293.00 3343.48 57.00
10517 65.1960 3277.00 3351.94 57.00
10518 65.2020 3345.00 3361.43 58.00
10519 65.2080 3322.00 3369.77 58.00
10520 65.2140 3306.00 3377.94 57.00
10521 65.2200 3334.00 3386.83 58.00
10522 65.2260 3293.00 3394.24 57.00
10523 65.2320 3280.00 3402.26 57.00
10524 65.2380 3249.00 3408.73 57.00
10525 65.2440 3254.00 3415.63 57.00
10526 65.2500 3322.00 3420.88 58.00
10527 65.2560 3285.00 3426.54 57.00
10528 65.2620 3355.00 3430.58 58.00
10529 65.2680 3377.00 3435.01 58.00
10530 65.2740 3334.00 3437.90 58.00
10531 65.2800 3345.00 3441.25 58.00
10532 65.2860 3344.00 3443.03 58.00
10533 65.2920 3369.00 3444.36 58.00
10534 65.2980 3338.00 3446.35 58.00
10535 65.3040 3404.00 3446.98 58.00
10536 65.3100 3448.00 3448.30 59.00
10537 65.3160 3419.00 3448.34 58.00
10538 65.3220 3425.00 3449.14 59.00
10539 65.3280 3417.00 3448.72 58.00
10540 65.3340 3406.00 3449.12 58.00
10541 65.3400 3384.00 3448.32 58.00
10542 65.3460 3362.00 3448.34 58.00
10543 65.3520 3327.00 3447.16 58.00
10544 65.3580 3411.00 3445.72 58.00
10545 65.3640 3413.00 3445.09 58.00
10546 65.3700 3415.00 3443.18 58.00
10547 65.3760 3371.00 3441.97 58.00
10548 65.3820 3415.00 3439.43 58.00
10549 65.3880 3416.00 3437.51 58.00
10550 65.3940 3360.00 3434.16 58.00
10551 65.4000 3332.00 3431.35 58.00
10552 65.4060 3375.00 3427.07 58.00
10553 65.4120 3425.00 3423.23 59.00
10554 65.4180 3389.00 3417.80 58.00
10555 65.4240 3335.00 3412.85 58.00
10556 65.4300 3343.00 3406.36 58.00
10557 65.4360 3376.00 3399.36 58.00
10558 65.4420 3327.00 3392.90 58.00
10559 65.4480 3337.00 3385.01 58.00
10560 65.4540 3305.00 3377.78 57.00
10561 65.4600 3352.00 3369.31 58.00
10562 65.4660 3350.00 3361.66 58.00
10563 65.4720 3314.00 3352.90 58.00
10564 65.4780 3259.00 3345.18 57.00
10565 65.4840 3301.00 3336.49 57.00
10566 65.4900 3305.00 3329.00 57.00
10567 65.4960 3246.00 3320.62 57.00
10568 65.5020 3260.00 3313.57 57.00
10569 65.5080 3207.00 3305.71 57.00
10570 65.5140 3200.00 3298.22 57.00
10571 65.5200 3223.00 3291.98 57.00
10572 65.5260 3310.00 3285.08 58.00
10573 65.5320 3254.00 3279.50 57.00
10574 65.5380 3216.00 3273.20 57.00
10575 65.5440 3167.00 3268.26 56.00
10576 65.5500 3186.00 3262.52 56.00
10577 65.5560 3207.00 3258.05 57.00
10578 65.5620 3177.00 3252.84 56.00
10579 65.5680 3238.00 3248.92 57.00
10580 65.5740 3211.00 3244.18 57.00
10581 65.5800 3217.00 3239.66 57.00
10582 65.5860 3213.00 3236.33 57.00
10583 65.5920 3121.00 3232.17 56.00
10584 65.5980 3138.00 3229.18 56.00
10585 65.6040 3206.00 3225.34 57.00
10586 65.6100 3186.00 3222.73 56.00
10587 65.6160 3141.00 3219.18 56.00
10588 65.6220 3198.00 3216.66 57.00
10589 65.6280 3219.00 3213.31 57.00
10590 65.6340 3201.00 3211.06 57.00
10591 65.6400 3165.00 3207.89 56.00
10592 65.6460 3165.00 3205.77 56.00
10593 65.6520 3182.00 3202.74 56.00
10594 65.6580 3238.00 3199.90 57.00
10595 65.6640 3174.00 3198.01 56.00
10596 65.6700 3217.00 3195.22 57.00
10597 65.6760 3111.00 3193.50 56.00
10598 65.6820 3143.00 3190.95 56.00
10599 65.6880 3102.00 3189.52 56.00
10600 65.6940 3102.00 3187.26 56.00
10601 65.7000 3132.00 3186.40 56.00
10602 65.7060 3108.00 3184.74 56.00
10603 65.7120 3130.00 3184.45 56.00
10604 65.7180 3139.00 3183.53 56.00
10605 65.7240 3140.00 3183.12 56.00
10606 65.7300 3132.00 3184.21 56.00
10607 65.7360 3178.00 3184.84 56.00
10608 65.7420 3155.00 3187.06 56.00
10609 65.7480 3192.00 3188.96 56.00
10610 65.7540 3167.00 3191.50 56.00
10611 65.7600 3230.00 3195.72 57.00
10612 65.7660 3168.00 3199.59 56.00
10613 65.7720 3182.00 3205.16 56.00
10614 65.7780 3166.00 3210.43 56.00
10615 65.7840 3153.00 3216.41 56.00
10616 65.7900 3236.00 3224.07 57.00
10617 65.7960 3181.00 3231.38 56.00
10618 65.8020 3196.00 3239.31 57.00
10619 65.8080 3146.00 3248.81 56.00
10620 65.8140 3231.00 3257.83 57.00
10621 65.8200 3330.00 3268.28 58.00
10622 65.8260 3218.00 3278.08 57.00
10623 65.8320 3283.00 3288.16 57.00
10624 65.8380 3212.00 3299.39 57.00
10625 65.8440 3260.00 3309.62 57.00
10626 65.8500 3297.00 3320.82 57.00
10627 65.8560 3359.00 3330.88 58.00
10628 65.8620 3163.00 3340.43 56.00
10629 65.8680 3299.00 3350.66 57.00
10630 65.8740 3241.00 3359.31 57.00
10631 65.8800 3390.00 3368.28 58.00
10632 65.8860 3357.00 3375.27 58.00
10633 65.8920 3350.00 3381.60 58.00
10634 65.8980 3328.00 3387.95 58.00
10635 65.9040 3288.00 3392.28 57.00
10636 65.9100 3336.00 3396.61 58.00
10637 65.9160 3275.00 3398.90 57.00
10638 65.9220 3246.00 3400.13 57.00
10639 65.9280 3261.00 3401.38 57.00
10640 65.9340 3310.00 3400.78 58.00
10641 65.9400 3270.00 3399.41 57.00
10642 65.9460 3328.00 3398.22 58.00
10643 65.9520 3187.00 3395.35 56.00
10644 65.9580 3401.00 3392.94 58.00
10645 65.9640 3280.00 3389.01 57.00
10646 65.9700 3227.00 3384.72 57.00
10647 65.9760 3365.00 3381.06 58.00
10648 65.9820 3322.00 3376.25 58.00
10649 65.9880 3355.00 3372.39 58.00
10650 65.9940 3312.00 3367.47 58.00
10651 66.0000 3202.00 3362.64 57.00
10652 66.0060 3345.00 3359.03 58.00
10653 66.0120 3224.00 3354.63 57.00
10654 66.0180 3223.00 3351.51 57.00
10655 66.0240 3207.00 3347.72 57.00
10656 66.0300 3305.00 3344.41 57.00
10657 66.0360 3251.00 3342.57 57.00
10658 66.0420 3222.00 3340.25 57.00
10659 66.0480 3279.00 3339.42 57.00
10660 66.0540 3180.00 3338.26 56.00
10661 66.0600 3377.00 3337.53 58.00
10662 66.0660 3171.00 3338.43 56.00
10663 66.0720 3292.00 3338.93 57.00
10664 66.0780 3249.00 3340.98 57.00
10665 66.0840 3264.00 3342.54 57.00
10666 66.0900 3167.00 3344.46 56.00
10667 66.0960 3159.00 3347.92 56.00
10668 66.1020 3214.00 3350.75 57.00
10669 66.1080 3245.00 3353.83 57.00
10670 66.1140 3262.00 3358.12 57.00
10671 66.1200 3179.00 3361.47 56.00
10672 66.1260 3323.00 3365.80 58.00
10673 66.1320 3266.00 3368.98 57.00
10674 66.1380 3278.00 3371.91 57.00
10675 66.1440 3157.00 3375.48 56.00
10676 66.1500 3358.00 3377.59 58.00
10677 66.1560 3165.00 3380.07 56.00
10678 66.1620 3336.00 3381.02 58.00
10679 66.1680 3283.00 3381.27 57.00
10680 66.1740 3261.00 3381.78 57.00
10681 66.1800 3302.00 3380.75 57.00
10682 66.1860 3283.00 3380.10 57.00
10683 66.1920 3210.00 3377.88 57.00
10684 66.1980 3281.00 3375.14 57.00
10685 66.2040 3252.00 3372.92 57.00
10686 66.2100 3214.00 3369.37 57.00
10687 66.2160 3261.00 3366.54 57.00
10688 66.2220 3272.00 3362.48 57.00
10689 66.2280 3184.00 3358.34 56.00
10690 66.2340 3244.00 3355.16 57.00
10691 66.2400 3337.00 3351.06 58.00
10692 66.2460 3301.00 3348.02 57.00
10693 66.2520 3296.00 3344.20 57.00
10694 66.2580 3177.00 3340.63 56.00
10695 66.2640 3227.00 3338.47 57.00
10696 66.2700 3285.00 3335.68 57.00
10697 66.2760 3295.00 3333.32 57.00
10698 66.2820 3271.00 3332.48 57.00
10699 66.2880 3264.00 3331.13 57.00
10700 66.2940 3326.00 3331.30 58.00
10701 66.3000 3278.00 3331.00 57.00
10702 66.3060 3259.00 3331.20 57.00
10703 66.3120 3354.00 3332.90 58.00
10704 66.3180 3306.00 3334.10 57.00
10705 66.3240 3350.00 3336.71 58.00
10706 66.3300 3302.00 3338.79 57.00
10707 66.3360 3295.00 3341.22 57.00
10708 66.3420 3347.00 3344.99 58.00
10709 66.3480 3368.00 3348.05 58.00
10710 66.3540 3336.00 3352.38 58.00
10711 66.3600 3340.00 3355.84 58.00
10712 66.3660 3310.00 3359.41 58.00
10713 66.3720 3350.00 3364.01 58.00
10714 66.3780 3277.00 3367.57 57.00
10715 66.3840 3327.00 3372.01 58.00
10716 66.3900 3374.00 3375.27 58.00
10717 66.3960 3375.00 3378.26 58.00
10718 66.4020 3347.00 3381.91 58.00
10719 66.4080 3300.00 3384.17 57.00
10720 66.4140 3427.00 3386.97 59.00
10721 66.4200 3338.00 3388.25 58.00
10722 66.4260 3429.00 3389.00 59.00
10723 66.4320 3342.00 3390.17 58.00
10724 66.4380 3321.00 3389.68 58.00
10725 66.4440 3364.00 3388.62 58.00
10726 66.4500 3345.00 3387.95 58.00
10727 66.4560 3403.00 3385.74 58.00
10728 66.4620 3439.00 3383.80 59.00
10729 66.4680 3377.00 3380.31 58.00
10730 66.4740 3466.00 3376.25 59.00
10731 66.4800 3427.00 3372.62 59.00
10732 66.4860 3371.00 3367.58 58.00
10733 66.4920 3375.00 3362.95 58.00
10734 66.4980 3360.00 3356.85 58.00
10735 66.5040 3269.00 3350.36 57.00
10736 66.5100 3382.00 3344.50 58.00
10737 66.5160 3370.00 3337.31 58.00
10738 66.5220 3333.00 3330.89 58.00
10739 66.5280 3264.00 3323.29 57.00
10740 66.5340 3309.00 3315.51 58.00
10741 66.5400 3322.00 3308.54 58.00
10742 66.5460 3341.00 3300.49 58.00
10743 66.5520 3221.00 3293.32 57.00
10744 66.5580 3234.00 3285.04 57.00
10745 66.5640 3246.00 3276.66 57.00
10746 66.5700 3306.00 3269.16 57.00
10747 66.5760 3272.00 3260.55 57.00
10748 66.5820 3217.00 3252.86 57.00
10749 66.5880 3285.00 3244.13 57.00
10750 66.5940 3298.00 3235.39 57.00
10751 66.6000 3223.00 3227.70 57.00
10752 66.6060 3266.00 3219.11 57.00
10753 66.6120 3261.00 3210.72 57.00
10754 66.6180 3299.00 3203.47 57.00
10755 66.6240 3231.00 3195.47 57.00
10756 66.6300 3154.00 3188.76 56.00
10757 66.6360 3190.00 3181.35 56.00
10758 66.6420 3114.00 3174.26 56.00
10759 66.6480 3061.00 3168.49 55.00
10760 66.6540 3146.00 3162.01 56.00
10761 66.6600 3187.00 3156.85 56.00
10762 66.6660 3166.00 3151.01 56.00
10763 66.6720 3137.00 3145.51 56.00
10764 66.6780 3167.00 3141.16 56.00
10765 66.6840 3123.00 3136.05 56.00
10766 66.6900 3075.00 3132.21 55.00
10767 66.6960 3229.00 3127.49 57.00
10768 66.7020 3236.00 3122.94 57.00
10769 66.7080 3274.00 3119.66 57.00
10770 66.7140 3095.00 3115.46 56.00
10771 66.7200 3102.00 3112.41 56.00
10772 66.7260 3144.00 3108.51 56.00
10773 66.7320 3078.00 3104.75 55.00
10774 66.7380 3121.00 3102.15 56.00
10775 66.7440 3108.00 3098.67 56.00
10776 66.7500 3116.00 3095.36 56.00
10777 66.7560 3067.00 3093.02 55.00
10778 66.7620 3036.00 3089.86 55.00
10779 66.7680 3031.00 3087.69 55.00
10780 66.7740 3039.00 3084.75 55.00
10781 66.7800 3088.00 3081.80 56.00
10782 66.7860 3150.00 3079.79 56.00
10783 66.7920 3120.00 3076.83 56.00
10784 66.7980 3019.00 3074.89 55.00
10785 66.8040 3079.00 3071.94 55.00
10786 66.8100 3104.00 3068.97 56.00
10787 66.8160 3150.00 3066.97 56.00
10788 66.8220 3104.00 3063.92 56.00
10789 66.8280 3018.00 3061.84 55.00
10790 66.8340 3016.00 3058.70 55.00
10791 66.8400 3100.00 3055.51 56.00
10792 66.8460 3112.00 3053.32 56.00
10793 66.8520 3042.00 3049.96 55.00
10794 66.8580 3065.00 3047.65 55.00
10795 66.8640 3035.00 3044.33 55.00
10796 66.8700 3053.00 3041.04 55.00
10797 66.8760 3094.00 3038.75 56.00
10798 66.8820 3048.00 3035.50 55.00
10799 66.8880 3032.00 3033.35 55.00
10800 66.8940 3070.00 3030.21 55.00
10801 66.9000 3046.00 3027.32 55.00
10802 66.9060 2967.00 3025.44 54.00
10803 66.9120 3068.00 3022.78 55.00
10804 66.9180 3056.00 3020.29 55.00
10805 66.9240 3030.00 3019.00 55.00
10806 66.9300 3074.00 3017.91 55.00
10807 66.9360 3084.00 3017.98 56.00
10808 66.9420 3110.00 3017.32 56.00
10809 66.9480 3047.00 3016.88 55.00
10810 66.9540 3051.00 3016.66 55.00
10811 66.9600 3027.00 3016.60 55.00
10812 66.9660 3102.00 3017.73 56.00
10813 66.9720 3115.00 3018.15 56.00
10814 66.9780 3011.00 3018.83 55.00
10815 66.9840 3031.00 3019.61 55.00
10816 66.9900 3047.00 3020.65 55.00
10817 66.9960 3006.00 3021.86 55.00
10818 67.0020 3039.00 3024.30 55.00
10819 67.0080 3029.00 3025.95 55.00
10820 67.0140 3071.00 3027.81 55.00
10821 67.0200 3024.00 3029.89 55.00
10822 67.0260 3068.00 3032.21 55.00
10823 67.0320 3062.00 3034.77 55.00
10824 67.0380 3049.00 3038.60 55.00
10825 67.0440 3030.00 3041.70 55.00
10826 67.0500 3053.00 3045.11 55.00
10827 67.0560 3156.00 3048.83 56.00
10828 67.0620 3171.00 3052.87 56.00
10829 67.0680 3091.00 3057.22 56.00
10830 67.0740 3103.00 3062.93 56.00
10831 67.0800 3147.00 3068.02 56.00
10832 67.0860 3134.00 3073.44 56.00
10833 67.0920 3119.00 3079.20 56.00
10834 67.0980 3055.00 3085.26 55.00
10835 67.1040 3098.00 3092.61 56.00
10836 67.1100 3151.00 3099.28 56.00
10837 67.1160 3159.00 3106.18 56.00
10838 67.1220 3152.00 3113.30 56.00
10839 67.1280 3134.00 3120.59 56.00
10840 67.1340 3169.00 3128.02 56.00
10841 67.1400 3223.00 3136.56 57.00
10842 67.1460 3206.00 3144.23 57.00
10843 67.1520 3131.00 3151.89 56.00
10844 67.1580 3193.00 3159.60 57.00
10845 67.1640 3275.00 3167.26 57.00
10846 67.1700 3173.00 3174.85 56.00
10847 67.1760 3213.00 3183.35 57.00
10848 67.1820 3290.00 3190.71 57.00
10849 67.1880 3281.00 3197.89 57.00
10850 67.1940 3256.00 3204.81 57.00
10851 67.2000 3195.00 3211.49 57.00
10852 67.2060 3238.00 3218.87 57.00
10853 67.2120 3293.00 3224.85 57.00
10854 67.2180 3301.00 3230.43 57.00
10855 67.2240 3227.00 3235.45 57.00
10856 67.2300 3180.00 3240.02 56.00
10857 67.2360 3193.00 3244.03 57.00
10858 67.2420 3324.00 3248.43 58.00
10859 67.2480 3375.00 3251.19 58.00
10860 67.2540 3278.00 3253.29 57.00
10861 67.2600 3242.00 3254.71 57.00
10862 67.2660 3288.00 3255.41 57.00
10863 67.2720 3265.00 3255.41 57.00
10864 67.2780 3283.00 3255.72 57.00
10865 67.2840 3329.00 3254.35 58.00
10866 67.2900 3289.00 3252.31 57.00
10867 67.2960 3274.00 3249.65 57.00
10868 67.3020 3380.00 3246.40 58.00
10869 67.3080 3340.00 3243.61 58.00
10870 67.3140 3238.00 3239.32 57.00
10871 67.3200 3246.00 3234.60 57.00
10872 67.3260 3246.00 3229.49 57.00
10873 67.3320 3232.00 3224.06 57.00
10874 67.3380 3199.00 3218.37 57.00
10875 67.3440 3243.00 3213.47 57.00
10876 67.3500 3285.00 3207.46 57.00
10877 67.3560 3249.00 3201.37 57.00
10878 67.3620 3173.00 3195.32 56.00
10879 67.3680 3136.00 3189.34 56.00
10880 67.3740 3151.00 3183.52 56.00
10881 67.3800 3198.00 3178.95 57.00
10882 67.3860 3195.00 3173.67 57.00
10883 67.3920 3189.00 3168.78 56.00
10884 67.3980 3186.00 3164.29 56.00
10885 67.4040 3226.00 3160.24 57.00
10886 67.4100 3253.00 3157.75 57.00
10887 67.4160 3162.00 3154.81 56.00
10888 67.4220 3103.00 3152.44 56.00
10889 67.4280 3177.00 3150.62 56.00
10890 67.4340 3207.00 3149.37 57.00
10891 67.4400 3128.00 3148.64 56.00
10892 67.4460 3099.00 3149.50 56.00
10893 67.4520 3149.00 3149.87 56.00
10894 67.4580 3207.00 3150.69 57.00
10895 67.4640 3178.00 3152.02 56.00
10896 67.4700 3164.00 3153.73 56.00
10897 67.4760 3215.00 3156.00 57.00
10898 67.4820 3223.00 3159.58 57.00
10899 67.4880 3239.00 3162.48 57.00
10900 67.4940 3249.00 3165.66 57.00
10901 67.5000 3246.00 3169.03 57.00
10902 67.5060 3198.00 3172.60 57.00
10903 67.5120 3152.00 3177.36 56.00
10904 67.5180 3208.00 3181.20 57.00
10905 67.5240 3217.00 3185.11 57.00
10906 67.5300 3280.00 3188.86 57.00
10907 67.5360 3263.00 3192.59 57.00
10908 67.5420 3216.00 3196.14 57.00
10909 67.5480 3217.00 3200.45 57.00
10910 67.5540 3154.00 3203.48 56.00
10911 67.5600 3130.00 3206.17 56.00
10912 67.5660 3191.00 3208.48 56.00
10913 67.5720 3251.00 3210.34 57.00
10914 67.5780 3265.00 3211.79 57.00
10915 67.5840 3363.00 3213.72 58.00
10916 67.5900 3329.00 3214.17 58.00
10917 67.5960 3208.00 3214.16 57.00
10918 67.6020 3224.00 3213.62 57.00
10919 67.6080 3272.00 3212.63 57.00
10920 67.6140 3233.00 3212.20 57.00
10921 67.6200 3127.00 3210.34 56.00
10922 67.6260 3145.00 3208.11 56.00
10923 67.6320 3172.00 3205.54 56.00
10924 67.6380 3174.00 3202.66 56.00
10925 67.6440 3219.00 3199.54 57.00
10926 67.6500 3187.00 3197.13 56.00
10927 67.6560 3138.00 3193.46 56.00
10928 67.6620 3222.00 3189.65 57.00
10929 67.6680 3204.00 3185.68 57.00
10930 67.6740 3143.00 3181.56 56.00
10931 67.6800 3171.00 3177.39 56.00
10932 67.6860 3171.00 3174.10 56.00
10933 67.6920 3169.00 3169.73 56.00
10934 67.6980 3076.00 3165.32 55.00
10935 67.7040 3113.00 3160.89 56.00
10936 67.7100 3160.00 3156.41 56.00
10937 67.7160 3128.00 3153.06 56.00
10938 67.7220 3087.00 3148.58 56.00
10939 67.7280 3126.00 3144.28 56.00
10940 67.7340 3081.00 3140.01 56.00
10941 67.7400 3077.00 3135.88 55.00
10942 67.7460 3131.00 3131.79 56.00
10943 67.7520 3116.00 3128.90 56.00
10944 67.7580 3136.00 3125.14 56.00
10945 67.7640 3092.00 3121.59 56.00
10946 67.7700 3109.00 3118.12 56.00
10947 67.7760 3173.00 3114.76 56.00
10948 67.7820 3076.00 3111.57 55.00
10949 67.7880 3062.00 3109.53 55.00
10950 67.7940 3095.00 3106.62 56.00
10951 67.8000 3031.00 3103.84 55.00
10952 67.8060 3001.00 3101.14 55.00
10953 67.8120 3039.00 3098.59 55.00
10954 67.8180 3037.00 3097.22 55.00
10955 67.8240 3034.00 3094.99 55.00
10956 67.8300 3080.00 3092.90 55.00
10957 67.8360 3060.00 3090.98 55.00
10958 67.8420 3025.00 3089.23 55.00
10959 67.8480 3025.00 3087.66 55.00
10960 67.8540 3100.00 3087.30 56.00
10961 67.8600 3088.00 3086.15 56.00
10962 67.8660 3050.00 3085.19 55.00
10963 67.8720 3036.00 3084.51 55.00
10964 67.8780 3075.00 3084.06 55.00
10965 67.8840 3067.00 3083.86 55.00
10966 67.8900 3085.00 3083.97 56.00
10967 67.8960 3047.00 3084.35 55.00
10968 67.9020 3018.00 3085.01 55.00
10969 67.9080 3034.00 3084.90 55.00
10970 67.9140 3053.00 3086.13 55.00
10971 67.9200 2968.00 3087.58 54.00
10972 67.9260 2937.00 3089.27 54.00
10973 67.9320 3008.00 3090.24 55.00
10974 67.9380 3055.00 3092.37 55.00
10975 67.9440 3073.00 3094.66 55.00
10976 67.9500 3023.00 3097.17 55.00
10977 67.9560 3046.00 3099.91 55.00
10978 67.9620 3029.00 3101.78 55.00
10979 67.9680 2995.00 3104.85 55.00
10980 67.9740 3005.00 3108.08 55.00
10981 67.9800 3055.00 3111.38 55.00
10982 67.9860 3016.00 3114.82 55.00
10983 67.9920 3100.00 3117.37 56.00
10984 67.9980 3090.00 3120.92 56.00
10985 68.0040 3041.00 3124.59 55.00
10986 68.0100 3077.00 3128.30 55.00
10987 68.0160 3089.00 3130.91 56.00
10988 68.0220 3095.00 3134.57 56.00
10989 68.0280 3101.00 3138.17 56.00
10990 68.0340 3033.00 3141.63 55.00
10991 68.0400 3055.00 3144.94 55.00
10992 68.0460 3083.00 3147.05 56.00
10993 68.0520 3122.00 3149.91 56.00
10994 68.0580 3083.00 3152.50 56.00
10995 68.0640 3109.00 3154.76 56.00
10996 68.0700 3111.00 3156.56 56.00
10997 68.0760 3171.00 3157.16 56.00
10998 68.0820 3177.00 3158.43 56.00
10999 68.0880 3068.00 3159.39 55.00
11000 68.0940 3085.00 3160.01 56.00
11001 68.1000 3143.00 3159.34 56.00
11002 68.1060 3140.00 3159.46 56.00
11003 68.1120 3092.00 3159.42 56.00
11004 68.1180 3105.00 3159.31 56.00
11005 68.1240 3179.00 3159.21 56.00
11006 68.1300 3145.00 3158.17 56.00
11007 68.1360 3170.00 3158.33 56.00
11008 68.1420 3138.00 3158.60 56.00
11009 68.1480 3067.00 3159.27 55.00
11010 68.1540 3102.00 3159.19 56.00
11011 68.1600 3100.00 3160.71 56.00
11012 68.1660 3116.00 3162.73 56.00
11013 68.1720 3137.00 3165.26 56.00
11014 68.1780 3149.00 3168.39 56.00
11015 68.1840 3109.00 3171.11 56.00
11016 68.1900 3071.00 3175.47 55.00
11017 68.1960 3135.00 3180.52 56.00
11018 68.2020 3186.00 3186.22 56.00
11019 68.2080 3122.00 3192.57 56.00
11020 68.2140 3206.00 3198.59 57.00
11021 68.2200 3150.00 3206.27 56.00
11022 68.2260 3200.00 3214.57 57.00
11023 68.2320 3235.00 3223.47 57.00
11024 68.2380 3215.00 3231.93 57.00
11025 68.2440 3307.00 3241.90 58.00
11026 68.2500 3257.00 3252.31 57.00
11027 68.2560 3233.00 3263.07 57.00
11028 68.2620 3241.00 3274.19 57.00
11029 68.2680 3256.00 3284.51 57.00
11030 68.2740 3236.00 3295.92 57.00
11031 68.2800 3281.00 3307.37 57.00
11032 68.2860 3261.00 3318.75 57.00
11033 68.2920 3272.00 3329.92 57.00
11034 68.2980 3351.00 3339.81 58.00
11035 68.3040 3319.00 3350.33 58.00
11036 68.3100 3296.00 3360.37 57.00
11037 68.3160 3371.00 3369.90 58.00
11038 68.3220 3354.00 3377.77 58.00
11039 68.3280 3313.00 3386.05 58.00
11040 68.3340 3242.00 3393.62 57.00
11041 68.3400 3216.00 3400.45 57.00
11042 68.3460 3277.00 3406.52 57.00
11043 68.3520 3356.00 3410.77 58.00
11044 68.3580 3298.00 3415.19 57.00
11045 68.3640 3364.00 3418.72 58.00
11046 68.3700 3335.00 3421.34 58.00
11047 68.3760 3416.00 3422.97 58.00
11048 68.3820 3357.00 3422.67 58.00
11049 68.3880 3263.00 3422.39 57.00
11050 68.3940 3349.00 3421.13 58.00
11051 68.4000 3284.00 3418.89 57.00
11052 68.4060 3313.00 3414.75 58.00
11053 68.4120 3364.00 3410.65 58.00
11054 68.4180 3342.00 3405.73 58.00
11055 68.4240 3247.00 3400.04 57.00
11056 68.4300 3159.00 3393.66 56.00
11057 68.4360 3212.00 3385.63 57.00
11058 68.4420 3342.00 3378.08 58.00
11059 68.4480 3316.00 3370.07 58.00
11060 68.4540 3298.00 3361.66 57.00
11061 68.4600 3330.00 3351.94 58.00
11062 68.4660 3237.00 3343.01 57.00
11063 68.4720 3311.00 3333.93 58.00
11064 68.4780 3214.00 3324.68 57.00
11065 68.4840 3230.00 3315.37 57.00
11066 68.4900 3206.00 3305.08 57.00
11067 68.4960 3256.00 3295.79 57.00
11068 68.5020 3292.00 3286.60 57.00
11069 68.5080 3146.00 3277.52 56.00
11070 68.5140 3122.00 3268.56 56.00
11071 68.5200 3177.00 3258.79 56.00
11072 68.5260 3142.00 3250.14 56.00
11073 68.5320 3132.00 3241.70 56.00
11074 68.5380 3110.00 3233.44 56.00
11075 68.5440 3124.00 3224.41 56.00
11076 68.5500 3096.00 3216.61 56.00
11077 68.5560 3191.00 3209.02 56.00
11078 68.5620 3142.00 3201.64 56.00
11079 68.5680 3148.00 3194.47 56.00
11080 68.5740 3120.00 3186.52 56.00
11081 68.5800 3038.00 3179.82 55.00
11082 68.5860 3061.00 3173.26 55.00
11083 68.5920 3078.00 3166.87 55.00
11084 68.5980 3167.00 3160.68 56.00
11085 68.6040 3147.00 3153.63 56.00
11086 68.6100 3150.00 3147.75 56.00
11087 68.6160 3109.00 3141.98 56.00
11088 68.6220 3115.00 3136.39 56.00
11089 68.6280 3078.00 3130.03 55.00
11090 68.6340 3137.00 3124.78 56.00
11091 68.6400 3099.00 3119.74 56.00
11092 68.6460 3040.00 3114.91 55.00
11093 68.6520 2974.00 3110.31 55.00
11094 68.6580 3027.00 3104.97 55.00
11095 68.6640 3132.00 3100.89 56.00
11096 68.6700 3050.00 3097.10 55.00
11097 68.6760 3095.00 3093.69 56.00
11098 68.6820 3075.00 3090.49 55.00
11099 68.6880 3055.00 3086.64 55.00
11100 68.6940 3078.00 3084.02 55.00
11101 68.7000 3069.00 3081.69 55.00
11102 68.7060 3084.00 3079.67 56.00
11103 68.7120 3019.00 3076.85 55.00
11104 68.7180 3070.00 3075.26 55.00
11105 68.7240 3037.00 3073.83 55.00
11106 68.7300 3012.00 3072.70 55.00
11107 68.7360 3062.00 3071.66 55.00
11108 68.7420 3140.00 3069.75 56.00
11109 68.7480 3092.00 3068.89 56.00
11110 68.7540 3080.00 3068.14 55.00
11111 68.7600 3053.00 3067.45 55.00
11112 68.7660 3049.00 3066.76 55.00
11113 68.7720 2946.00 3065.05 54.00
11114 68.7780 3029.00 3064.32 55.00
11115 68.7840 3040.00 3063.54 55.00
11116 68.7900 3060.00 3062.68 55.00
11117 68.7960 3055.00 3060.66 55.00
11118 68.8020 3003.00 3059.66 55.00
11119 68.8080 3025.00 3058.55 55.00
11120 68.8140 3033.00 3057.39 55.00
11121 68.8200 3099.00 3056.05 56.00
11122 68.8260 3082.00 3053.66 56.00
11123 68.8320 3047.00 3052.20 55.00
11124 68.8380 3076.00 3050.63 55.00
11125 68.8440 3022.00 3048.98 55.00
11126 68.8500 3108.00 3046.12 56.00
11127 68.8560 3143.00 3044.31 56.00
11128 68.8620 3050.00 3042.41 55.00
11129 68.8680 2960.00 3040.49 54.00
11130 68.8740 2997.00 3038.49 55.00
11131 68.8800 2941.00 3035.52 54.00
11132 68.8860 2976.00 3033.55 55.00
11133 68.8920 2969.00 3031.50 54.00
11134 68.8980 2992.00 3029.62 55.00
11135 68.9040 2945.00 3027.82 54.00
11136 68.9100 3041.00 3025.15 55.00
11137 68.9160 2967.00 3023.56 54.00
11138 68.9220 2948.00 3022.17 54.00
11139 68.9280 3063.00 3020.96 55.00
11140 68.9340 2878.00 3018.97 54.00
11141 68.9400 2980.00 3019.16 55.00
11142 68.9460 2911.00 3019.68 54.00
11143 68.9520 2988.00 3019.39 55.00
11144 68.9580 2947.00 3020.38 54.00
11145 68.9640 3065.00 3021.71 55.00
11146 68.9700 2951.00 3022.35 54.00
11147 68.9760 3007.00 3024.24 55.00
11148 68.9820 3018.00 3026.42 55.00
11149 68.9880 3016.00 3027.95 55.00
11150 68.9940 3011.00 3030.70 55.00
11151 69.0000 2971.00 3033.70 55.00
11152 69.0060 2944.00 3036.00 54.00
11153 69.0120 3022.00 3039.52 55.00
11154 69.0180 3025.00 3043.27 55.00
11155 69.0240 2935.00 3046.24 54.00
11156 69.0300 2998.00 3050.40 55.00
11157 69.0360 3003.00 3054.74 55.00
11158 69.0420 3007.00 3059.23 55.00
11159 69.0480 3010.00 3062.87 55.00
11160 69.0540 3021.00 3067.61 55.00
11161 69.0600 3026.00 3072.38 55.00
11162 69.0660 2953.00 3076.22 54.00
11163 69.0720 3095.00 3081.11 56.00
11164 69.0780 2969.00 3086.01 54.00
11165 69.0840 3089.00 3089.92 56.00
11166 69.0900 3066.00 3094.77 55.00
11167 69.0960 2933.00 3099.64 54.00
11168 69.1020 3036.00 3103.45 55.00
11169 69.1080 3077.00 3108.25 55.00
11170 69.1140 2995.00 3112.98 55.00
11171 69.1200 3082.00 3116.67 56.00
11172 69.1260 3088.00 3121.30 56.00
11173 69.1320 3167.00 3125.89 56.00
11174 69.1380 3061.00 3129.41 55.00
11175 69.1440 3020.00 3133.82 55.00
11176 69.1500 3014.00 3138.22 55.00
11177 69.1560 3121.00 3141.56 56.00
11178 69.1620 3139.00 3145.85 56.00
11179 69.1680 3071.00 3149.98 55.00
11180 69.1740 3078.00 3153.06 55.00
11181 69.1800 3077.00 3156.99 55.00
11182 69.1860 3161.00 3160.84 56.00
11183 69.1920 3152.00 3163.49 56.00
11184 69.1980 3055.00 3167.02 55.00
11185 69.2040 3129.00 3170.37 56.00
11186 69.2100 3115.00 3172.50 56.00
11187 69.2160 3091.00 3175.36 56.00
11188 69.2220 3063.00 3178.01 55.00
11189 69.2280 3213.00 3179.45 57.00
11190 69.2340 3126.00 3181.71 56.00
11191 69.2400 3131.00 3183.70 56.00
11192 69.2460 3050.00 3185.47 55.00
11193 69.2520 3124.00 3186.05 56.00
11194 69.2580 3207.00 3187.47 57.00
11195 69.2640 3115.00 3188.69 56.00
11196 69.2700 3104.00 3188.86 56.00
11197 69.2760 3157.00 3189.92 56.00
11198 69.2820 3144.00 3190.89 56.00
11199 69.2880 3164.00 3190.84 56.00
11200 69.2940 3148.00 3191.75 56.00
11201 69.3000 3192.00 3192.64 56.00
11202 69.3060 3146.00 3192.55 56.00
11203 69.3120 3107.00 3193.42 56.00
11204 69.3180 3146.00 3194.25 56.00
11205 69.3240 3193.00 3194.08 57.00
11206 69.3300 3042.00 3194.85 55.00
11207 69.3360 3130.00 3195.59 56.00
11208 69.3420 3131.00 3195.26 56.00
11209 69.3480 3011.00 3195.82 55.00
11210 69.3540 3122.00 3196.25 56.00
11211 69.3600 3118.00 3195.51 56.00
11212 69.3660 3079.00 3195.56 55.00
11213 69.3720 3049.00 3195.36 55.00
11214 69.3780 2994.00 3193.91 55.00
11215 69.3840 3024.00 3193.13 55.00
11216 69.3900 3094.00 3192.06 56.00
11217 69.3960 3055.00 3189.65 55.00
11218 69.4020 3139.00 3187.92 56.00
11219 69.4080 3050.00 3185.88 55.00
11220 69.4140 3137.00 3182.49 56.00
11221 69.4200 3076.00 3179.87 55.00
11222 69.4260 3126.00 3176.93 56.00
11223 69.4320 3193.00 3172.81 57.00
11224 69.4380 3201.00 3169.55 57.00
11225 69.4440 3034.00 3166.20 55.00
11226 69.4500 3032.00 3162.76 55.00
11227 69.4560 3059.00 3158.33 55.00
11228 69.4620 3026.00 3154.95 55.00
11229 69.4680 3024.00 3149.72 55.00
11230 69.4740 3087.00 3144.69 56.00
11231 69.4800 3105.00 3139.90 56.00
11232 69.4860 3058.00 3135.40 55.00
11233 69.4920 3006.00 3131.22 55.00
11234 69.4980 3065.00 3127.41 55.00
11235 69.5040 3026.00 3123.98 55.00
11236 69.5100 2965.00 3120.95 54.00
11237 69.5160 2993.00 3118.35 55.00
11238 69.5220 3068.00 3116.18 55.00
11239 69.5280 3073.00 3114.43 55.00
11240 69.5340 3035.00 3113.09 55.00
11241 69.5400 2995.00 3112.21 55.00
11242 69.5460 3051.00 3111.69 55.00
11243 69.5520 3015.00 3111.53 55.00
11244 69.5580 2986.00 3111.68 55.00
11245 69.5640 3047.00 3112.18 55.00
11246 69.5700 2968.00 3112.97 54.00
11247 69.5760 3046.00 3114.01 55.00
11248 69.5820 3073.00 3115.27 55.00
11249 69.5880 3038.00 3117.75 55.00
11250 69.5940 3015.00 3119.41 55.00
11251 69.6000 2935.00 3121.24 54.00
11252 69.6060 3115.00 3123.16 56.00
11253 69.6120 3037.00 3125.16 55.00
11254 69.6180 2993.00 3127.22 55.00
11255 69.6240 2958.00 3129.34 54.00
11256 69.6300 2990.00 3131.48 55.00
11257 69.6360 3025.00 3133.62 55.00
11258 69.6420 3022.00 3135.74 55.00
11259 69.6480 2995.00 3137.82 55.00
11260 69.6540 3030.00 3139.82 55.00
11261 69.6600 3145.00 3141.83 56.00
11262 69.6660 3059.00 3143.72 55.00
11263 69.6720 3033.00 3145.54 55.00
11264 69.6780 3119.00 3147.28 56.00
11265 69.6840 3136.00 3148.93 56.00
11266 69.6900 3062.00 3150.39 55.00
11267 69.6960 3001.00 3151.83 55.00
11268 69.7020 3083.00 3153.14 56.00
11269 69.7080 3043.00 3154.33 55.00
11270 69.7140 3097.00 3155.36 56.00
11271 69.7200 2981.00 3156.13 55.00
11272 69.7260 3021.00 3156.78 55.00
11273 69.7320 3156.00 3157.21 56.00
11274 69.7380 3064.00 3157.40 55.00
11275 69.7440 3044.00 3157.32 55.00
11276 69.7500 3035.00 3156.97 55.00
11277 69.7560 2998.00 3156.33 55.00
11278 69.7620 3039.00 3155.40 55.00
11279 69.7680 3095.00 3154.18 56.00
11280 69.7740 2977.00 3152.66 55.00
11281 69.7800 3105.00 3150.87 56.00
11282 69.7860 3024.00 3148.80 55.00
11283 69.7920 3123.00 3146.46 56.00
11284 69.7980 3024.00 3143.86 55.00
11285 69.8040 2979.00 3141.00 55.00
11286 69.8100 3038.00 3137.87 55.00
11287 69.8160 3057.00 3134.51 55.00
11288 69.8220 3077.00 3130.92 55.00
11289 69.8280 3073.00 3127.09 55.00
11290 69.8340 3122.00 3123.05 56.00
11291 69.8400 3079.00 3118.83 55.00
11292 69.8460 2997.00 3114.39 55.00
11293 69.8520 2961.00 3109.81 54.00
11294 69.8580 2941.00 3105.02 54.00
11295 69.8640 2983.00 3100.17 55.00
11296 69.8700 3134.00 3095.24 56.00
11297 69.8760 3054.00 3090.26 55.00
11298 69.8820 2975.00 3085.28 55.00
11299 69.8880 3019.00 3080.30 55.00
11300 69.8940 3004.00 3075.39 55.00
11301 69.9000 2999.00 3070.52 55.00
11302 69.9060 3031.00 3065.77 55.00
11303 69.9120 3093.00 3061.14 56.00
11304 69.9180 3083.00 3056.62 56.00
11305 69.9240 3065.00 3052.20 55.00
11306 69.9300 3063.00 3049.05 55.00
11307 69.9360 3005.00 3045.12 55.00
11308 69.9420 3023.00 3041.29 55.00
11309 69.9480 3008.00 3037.78 55.00
11310 69.9540 2962.00 3034.51 54.00
11311 69.9600 2988.00 3031.43 55.00
11312 69.9660 2959.00 3028.70 54.00
11313 69.9720 3099.00 3026.28 56.00
11314 69.9780 3196.00 3024.13 57.00
11315 69.9840 3101.00 3023.30 56.00
11316 69.9900 3029.00 3022.76 55.00
11317 69.9960 3087.00 3022.58 56.00
loop_
_pd_proc_info_excluded_regions
'from 70 to 80.000'
