#------------------------------------------------------------------------------
#$Date: 2019-11-08 00:14:56 +0200 (Fri, 08 Nov 2019) $
#$Revision: 224210 $
#$URL: file:///home/coder/svn-repositories/cod/cif/7/70/00/7700069.cif $
#------------------------------------------------------------------------------
#
# This file is available in the Crystallography Open Database (COD),
# http://www.crystallography.net/
#
# All data on this site have been placed in the public domain by the
# contributors.
#
data_7700069
loop_
_publ_author_name
'Sun, Xiao-Peng'
'Liu, Tao'
'Yao, Zi-Shuo'
'Tao, Jun'
_publ_section_title
;
 Spin crossover and photomagnetic behaviors in one-dimensional looped
 coordination polymers.
;
_journal_issue                   25
_journal_name_full
'Dalton transactions (Cambridge, England : 2003)'
_journal_page_first              9243
_journal_page_last               9249
_journal_paper_doi               10.1039/c9dt01520e
_journal_volume                  48
_journal_year                    2019
_chemical_formula_moiety         'C11 H8 Fe0.5 N3 S2 Se'
_chemical_formula_sum            'C11 H8 Fe0.5 N3 S2 Se'
_chemical_formula_weight         353.21
_space_group_crystal_system      triclinic
_space_group_IT_number           2
_space_group_name_Hall           '-P 1'
_space_group_name_H-M_alt        'P -1'
_symmetry_space_group_name_Hall  '-P 1'
_symmetry_space_group_name_H-M   'P -1'
_atom_sites_solution_hydrogens   geom
_audit_creation_date             2018-11-27
_audit_creation_method
;
Olex2 1.2
(compiled 2018.05.29 svn.r3508 for OlexSys, GUI svn.r5506)
;
_audit_update_record
;
2019-01-12 deposited with the CCDC.    2019-05-23 downloaded from the CCDC.
;
_cell_angle_alpha                62.116(4)
_cell_angle_beta                 65.922(4)
_cell_angle_gamma                78.656(3)
_cell_formula_units_Z            2
_cell_length_a                   9.6098(4)
_cell_length_b                   10.6898(4)
_cell_length_c                   11.3119(4)
_cell_measurement_reflns_used    7248
_cell_measurement_temperature    240.03(10)
_cell_measurement_theta_max      29.6080
_cell_measurement_theta_min      3.7150
_cell_volume                     937.73(8)
_computing_cell_refinement       'CrysAlisPro 1.171.39.29d (Rigaku OD, 2017)'
_computing_data_collection       'CrysAlisPro 1.171.39.29d (Rigaku OD, 2017)'
_computing_data_reduction        'CrysAlisPro 1.171.39.29d (Rigaku OD, 2017)'
_computing_molecular_graphics    'Olex2 (Dolomanov et al., 2009)'
_computing_publication_material  'Olex2 (Dolomanov et al., 2009)'
_computing_structure_refinement  'ShelXL (Sheldrick, 2015)'
_computing_structure_solution    'SHELXT 2014/5 (Sheldrick, 2014)'
_diffrn_ambient_environment      N~2~
_diffrn_ambient_temperature      240.03(10)
_diffrn_detector                 'CCD plate'
_diffrn_measured_fraction_theta_full 0.997
_diffrn_measured_fraction_theta_max 0.902
_diffrn_measurement_details
;
List of Runs (angles in degrees, time in seconds):

  # Type    Start    End  Width  t~exp~   \w     \q     \k     \f   Frames
#--------------------------------------------------------------------------
  1  \w    -37.00 -12.00   0.50   15.00    --    0.00 -30.00 -81.00   50
  2  \w    -16.00  85.00   0.50   15.00    --    0.00  30.00  78.00  202
  3  \w    -17.00  89.00   0.50   15.00    --    0.00  38.00-150.00  212
  4  \w     -9.00  17.00   0.50   15.00    --    0.00  38.00 -90.00   52
  5  \w     40.00  66.00   0.50   15.00    --    0.00  38.00 -90.00   52
  6  \w    -76.00  27.00   0.50   15.00    --    0.00 -77.00 -60.00  206
  7  \w    -52.00 -26.00   0.50   15.00    --    0.00 -77.00 -30.00   52
  8  \w    -47.00 -22.00   0.50   15.00    --    0.00 -19.00   0.00   50
  9  \w    -52.00  13.00   0.50   15.00    --    0.00 -82.00-120.00  130
;
_diffrn_measurement_device       'four-circle diffractometer'
_diffrn_measurement_device_type  'XtaLAB AFC12 (RINC): Kappa single'
_diffrn_measurement_method       '\w scans'
_diffrn_orient_matrix_type
'CrysAlisPro convention (1999,Acta A55,543-557)'
_diffrn_orient_matrix_UB_11      -0.0621341000
_diffrn_orient_matrix_UB_12      0.0293728000
_diffrn_orient_matrix_UB_13      -0.0234571000
_diffrn_orient_matrix_UB_21      0.0445325000
_diffrn_orient_matrix_UB_22      -0.0008311000
_diffrn_orient_matrix_UB_23      -0.0673993000
_diffrn_orient_matrix_UB_31      -0.0263124000
_diffrn_orient_matrix_UB_32      -0.0690814000
_diffrn_orient_matrix_UB_33      0.0266705000
_diffrn_radiation_monochromator  graphite
_diffrn_radiation_probe          x-ray
_diffrn_radiation_type           MoK\a
_diffrn_radiation_wavelength     0.71073
_diffrn_reflns_av_R_equivalents  0.0288
_diffrn_reflns_av_unetI/netI     0.0264
_diffrn_reflns_Laue_measured_fraction_full 0.997
_diffrn_reflns_Laue_measured_fraction_max 0.902
_diffrn_reflns_limit_h_max       13
_diffrn_reflns_limit_h_min       -13
_diffrn_reflns_limit_k_max       14
_diffrn_reflns_limit_k_min       -13
_diffrn_reflns_limit_l_max       15
_diffrn_reflns_limit_l_min       -15
_diffrn_reflns_number            19364
_diffrn_reflns_point_group_measured_fraction_full 0.997
_diffrn_reflns_point_group_measured_fraction_max 0.902
_diffrn_reflns_theta_full        25.242
_diffrn_reflns_theta_max         29.645
_diffrn_reflns_theta_min         3.678
_diffrn_source                   'fine-focus sealed X-ray tube'
_diffrn_source_type              'Enhance (Mo) X-ray Source'
_exptl_absorpt_coefficient_mu    2.583
_exptl_absorpt_correction_T_max  1.00000
_exptl_absorpt_correction_T_min  0.76438
_exptl_absorpt_correction_type   multi-scan
_exptl_absorpt_process_details
;
CrysAlisPro 1.171.39.29d (Rigaku Oxford Diffraction, 2017)
Empirical absorption correction using spherical harmonics,
 implemented in SCALE3 ABSPACK scaling algorithm.
;
_exptl_crystal_colour            yellow
_exptl_crystal_colour_primary    yellow
_exptl_crystal_density_diffrn    1.251
_exptl_crystal_description       block
_exptl_crystal_F_000             348
_exptl_crystal_size_max          0.2
_exptl_crystal_size_mid          0.2
_exptl_crystal_size_min          0.1
_refine_diff_density_max         0.566
_refine_diff_density_min         -0.824
_refine_diff_density_rms         0.058
_refine_ls_extinction_method     none
_refine_ls_goodness_of_fit_ref   1.081
_refine_ls_hydrogen_treatment    constr
_refine_ls_matrix_type           full
_refine_ls_number_parameters     178
_refine_ls_number_reflns         4769
_refine_ls_number_restraints     0
_refine_ls_restrained_S_all      1.081
_refine_ls_R_factor_all          0.0418
_refine_ls_R_factor_gt           0.0333
_refine_ls_shift/su_max          0.002
_refine_ls_shift/su_mean         0.000
_refine_ls_structure_factor_coef Fsqd
_refine_ls_weighting_details
'w=1/[\s^2^(Fo^2^)+(0.0502P)^2^+0.2522P] where P=(Fo^2^+2Fc^2^)/3'
_refine_ls_weighting_scheme      calc
_refine_ls_wR_factor_gt          0.0904
_refine_ls_wR_factor_ref         0.0937
_reflns_Friedel_coverage         0.000
_reflns_number_gt                3922
_reflns_number_total             4769
_reflns_threshold_expression     'I > 2\s(I)'
_cod_data_source_file            c9dt01520e2.cif
_cod_data_source_block           3_240K
_cod_depositor_comments
'Adding full bibliography for 7700066--7700071.cif.'
_cod_original_cell_volume        937.73(7)
_cod_original_formula_sum        'C11 H8 Fe0.50 N3 S2 Se'
_cod_database_code               7700069
_shelx_shelxl_version_number     2016/6
_shelx_space_group_comment
;
The symmetry employed for this shelxl refinement is uniquely defined
by the following loop, which should always be used as a source of
symmetry information in preference to the above space-group names.
They are only intended as comments.
;
_reflns_odcompleteness_completeness 99.74
_reflns_odcompleteness_iscentric 1
_reflns_odcompleteness_theta     26.32
_olex2_refinement_description
;
1. Fixed Uiso
 At 1.2 times of:
  All C(H) groups
2. Others
 Fixed Sof: Se1(0.8) Se1A(0.1) Se1B(0.1)
3.a Aromatic/amide H refined with riding coordinates:
 C8(H8), C5(H5), C11(H11), C6(H6), C10(H10), C3(H3), C7(H7), C2(H2)
;
_shelx_res_file
;
TITL 20181011y1-s2-se--240k_a.res in P-1
    20181011y1-s2-se--240k_sq.res
    created by SHELXL-2016/6 at 17:29:11 on 27-Nov-2018
REM Old TITL 20181011y1-S2-Se--240K in P-1
REM SHELXT solution in P-1
REM R1 0.279, Rweak 0.032, Alpha 0.094, Orientation as input
REM Formula found by SHELXT: C22 N6 Fe S6
CELL 0.71073 9.6098 10.6898 11.3119 62.116 65.922 78.656
ZERR 2 0.0004 0.0004 0.0004 0.004 0.004 0.003
LATT 1
SFAC C H Fe N S Se
UNIT 22 16 1 6 4 2

L.S. 5 0 48
PLAN  20
BOND $H
list 4
ABIN
fmap 2 53
acta
REM <olex2.extras>
REM <HklSrc "%.\\20181011y1-S2-Se--240K.hkl">
REM </olex2.extras>

WGHT    0.050200    0.252200
FVAR       0.59329
FE1   3    0.500000    0.000000    1.000000    10.50000    0.02171    0.02660 =
         0.02530   -0.01228   -0.00740   -0.00093
SE1   6    1.073225    0.004430    0.795512    10.80000    0.02325    0.17412 =
         0.06614   -0.06149   -0.00688    0.00498
S2    5    0.589718    0.789855    0.488728    11.00000    0.04563    0.02967 =
         0.02741   -0.01432   -0.01066   -0.00268
S1    5    0.397686    0.683877    0.557293    11.00000    0.04460    0.02823 =
         0.03683   -0.01493   -0.02219    0.00374
N2    4    0.470308    0.224277    0.848668    11.00000    0.03236    0.02882 =
         0.03247   -0.01256   -0.01349   -0.00116
N3    4    0.528169    0.932844    0.830312    11.00000    0.03077    0.03116 =
         0.02922   -0.01551   -0.01005   -0.00063
N1    4    0.738849    0.026824    0.915873    11.00000    0.02656    0.03947 =
         0.03276   -0.01621   -0.00878   -0.00276
C4    1    0.432794    0.506980    0.670020    11.00000    0.03729    0.02816 =
         0.02855   -0.01595   -0.01419    0.00336
C9    1    0.558687    0.841439    0.626060    11.00000    0.03824    0.02355 =
         0.02692   -0.01129   -0.01325    0.00275
C8    1    0.430726    0.809213    0.749749    11.00000    0.03619    0.03892 =
         0.03853   -0.02152   -0.00948   -0.00676
AFIX  43
H8    2    0.352849    0.755890    0.767327    11.00000   -1.20000
AFIX   0
C5    1    0.324350    0.406920    0.723254    11.00000    0.03164    0.03668 =
         0.03970   -0.01556   -0.01740    0.00168
AFIX  43
H5    2    0.237294    0.432584    0.700113    11.00000   -1.20000
AFIX   0
C11   1    0.652417    0.963388    0.708902    11.00000    0.03480    0.03917 =
         0.03211   -0.01580   -0.00834   -0.00905
AFIX  43
H11   2    0.729245    1.016042    0.694156    11.00000   -1.20000
AFIX   0
C6    1    0.347617    0.268304    0.811333    11.00000    0.03328    0.03408 =
         0.03663   -0.01375   -0.01388   -0.00378
AFIX  43
H6    2    0.274015    0.201951    0.846615    11.00000   -1.20000
AFIX   0
C10   1    0.671924    0.920881    0.605334    11.00000    0.03509    0.04237 =
         0.02840   -0.01654   -0.00383   -0.00746
AFIX  43
H10   2    0.759519    0.945005    0.522872    11.00000   -1.20000
AFIX   0
C3    1    0.561028    0.463138    0.706379    11.00000    0.03917    0.03114 =
         0.04976   -0.01275   -0.02283   -0.00568
AFIX  43
H3    2    0.636389    0.527400    0.672245    11.00000   -1.20000
AFIX   0
C7    1    0.420059    0.857394    0.847124    11.00000    0.03106    0.04357 =
         0.03404   -0.02226   -0.00453   -0.00515
AFIX  43
H7    2    0.332418    0.836118    0.929389    11.00000   -1.20000
AFIX   0
C1    1    0.868598    0.019971    0.867716    11.00000    0.02870    0.06465 =
         0.03096   -0.02107   -0.00879   -0.00250
C2    1    0.574972    0.322292    0.794226    11.00000    0.03867    0.03432 =
         0.04862   -0.01261   -0.02444   -0.00159
AFIX  43
H2    2    0.662228    0.293665    0.817019    11.00000   -1.20000
AFIX   0
SE1A  6    1.054629    0.097303    0.753478    10.10000    0.01269    0.11457 =
         0.06469   -0.04160   -0.00028   -0.00218
SE1B  6    1.044810   -0.058323    0.796857    10.10000    0.01537    0.12376 =
         0.08691   -0.05552   -0.01615    0.01679
HKLF 4




REM  20181011y1-s2-se--240k_a.res in P-1
REM R1 =  0.0333 for    3922 Fo > 4sig(Fo)  and  0.0418 for all    4769 data
REM    178 parameters refined using      0 restraints

END

WGHT      0.0503      0.2510

REM Highest difference peak  0.566,  deepest hole -0.824,  1-sigma level  0.058
Q1    1   1.0200  0.1734  0.7126  11.00000  0.05    0.57
Q2    1   1.0256  0.0274  0.7443  11.00000  0.05    0.46
Q3    1   1.0434 -0.0321  0.8746  11.00000  0.05    0.42
Q4    1   1.1198 -0.0119  0.8009  11.00000  0.05    0.40
Q5    1   0.5142  0.7671  0.5030  11.00000  0.05    0.29
Q6    1   0.5006  0.8118  0.6917  11.00000  0.05    0.28
Q7    1   0.4824  0.4832  0.7072  11.00000  0.05    0.28
Q8    1   0.4183  0.5782  0.6384  11.00000  0.05    0.26
Q9    1   0.9607  0.0039  0.8405  11.00000  0.05    0.25
Q10   1   0.9988 -0.1201  0.7940  11.00000  0.05    0.25
Q11   1   0.7979  0.0205  0.9374  11.00000  0.05    0.25
Q12   1   1.0612 -0.0392  0.8030  11.00000  0.05    0.25
Q13   1   0.5600  0.8052  0.5682  11.00000  0.05    0.24
Q14   1   0.6264  0.9442  0.6602  11.00000  0.05    0.23
Q15   1   0.4629  0.9217  0.8140  11.00000  0.05    0.23
Q16   1   0.3259  0.6806  0.6141  11.00000  0.05    0.23
Q17   1   0.6793 -0.0228  0.9743  11.00000  0.05    0.23
Q18   1   0.5787  0.9581  0.7643  11.00000  0.05    0.22
Q19   1   0.4353  0.2427  0.8037  11.00000  0.05    0.22
Q20   1   0.6062  0.8842  0.6214  11.00000  0.05    0.22
;
_shelx_res_checksum              14989
_shelx_fab_file
;
-11 -1 1 -0.0835 -0.2524
-11 -1 2 0.7266 0.1872
-11 0 1 0.2265 -0.2248
-11 0 2 -0.4674 0.1673
-11 1 1 -0.5209 -0.1616
-11 2 1 0.1552 -0.1684
-11 3 1 0.3879 -0.0998
-11 3 2 0.7321 0.1198
-11 4 1 -0.1623 -0.1255
-10 -5 1 0.5908 -0.0622
-10 -4 1 -1.0790 -0.1094
-10 -3 1 -0.4550 -0.1778
-10 -3 2 0.1386 0.1341
-10 -2 1 0.9334 -0.1972
-10 -2 2 0.1820 0.2162
-10 -2 3 0.0851 -0.1125
-10 -1 1 -0.5024 -0.1475
-10 -1 2 0.3994 0.1835
-10 -1 3 0.2454 -0.1430
-10 -1 4 0.2631 0.1730
-10 0 1 -0.3910 -0.1113
-10 0 2 -1.1457 0.1503
-10 0 3 -0.8099 -0.1475
-10 0 4 -1.1479 0.0666
-10 1 1 0.5467 -0.0855
-10 1 2 0.8353 0.1044
-10 1 3 0.9460 -0.1296
-10 1 4 1.5988 0.0433
-10 2 1 -0.0089 -0.0465
-10 2 2 -0.0923 0.0598
-10 2 3 -0.5029 -0.1127
-10 3 1 -0.4574 -0.0398
-10 3 2 0.4817 0.0946
-10 3 3 0.4243 -0.0727
-10 4 1 -0.1006 -0.0652
-10 4 2 -0.9679 0.1312
-10 4 3 -1.2795 -0.0663
-10 4 4 -0.5528 0.0442
-10 5 1 0.5624 -0.0917
-10 5 2 0.1919 0.1120
-10 5 3 2.1585 -0.0805
-10 6 1 0.9984 -0.0781
-9 -7 1 0.9943 0.0493
-9 -6 1 -0.1041 -0.0938
-9 -5 1 0.6052 -0.0655
-9 -5 2 -1.2900 0.0087
-9 -4 1 -0.3197 -0.0732
-9 -4 2 1.7579 0.0845
-9 -4 3 -0.9385 -0.0802
-9 -3 1 -0.3430 -0.0873
-9 -3 2 -0.2341 0.1336
-9 -3 3 -0.5735 -0.1188
-9 -2 1 -0.0753 -0.0203
-9 -2 2 -0.4313 0.1054
-9 -2 3 -0.2596 -0.1209
-9 -2 4 0.3947 -0.0050
-9 -1 1 0.6735 0.0549
-9 -1 2 1.3960 0.0604
-9 -1 3 0.6022 -0.0924
-9 -1 4 0.1961 0.1131
-9 -1 5 0.1273 -0.0537
-9 0 1 -1.2115 0.1415
-9 0 2 -1.9525 -0.0025
-9 0 3 -0.4901 -0.1019
-9 0 4 -0.3121 0.1290
-9 0 5 0.3363 -0.0567
-9 1 1 1.5393 0.1629
-9 1 2 1.1466 -0.0503
-9 1 3 1.0462 -0.0616
-9 1 4 0.1707 0.0804
-9 1 5 -0.3481 -0.0871
-9 2 1 -0.2807 0.1874
-9 2 2 -0.3841 -0.0803
-9 2 3 -1.2599 -0.0328
-9 2 4 -0.7752 0.0898
-9 2 5 -0.0986 -0.0568
-9 3 1 -1.4069 0.1175
-9 3 2 0.4115 -0.0415
-9 3 3 0.8116 -0.0182
-9 3 4 1.0665 0.0844
-9 3 5 0.3732 -0.0595
-9 4 1 0.4120 0.0469
-9 4 2 -0.2377 0.0264
-9 4 3 -0.8724 -0.0255
-9 4 4 -0.3998 0.0379
-9 4 5 -0.1230 -0.1049
-9 5 1 0.6415 -0.0658
-9 5 2 0.1814 0.0424
-9 5 3 1.1608 -0.0602
-9 5 4 -0.5065 0.0413
-9 5 5 0.5640 -0.0781
-9 6 1 0.6904 -0.1036
-9 6 2 -0.3458 -0.0032
-9 6 3 0.0814 -0.0699
-9 6 4 -0.1195 0.0080
-9 6 5 -0.4565 0.1228
-9 7 1 -0.5305 -0.1235
-9 7 2 -0.9759 0.1654
-9 8 1 0.2731 0.0886
-9 8 2 0.8373 0.0266
-8 -8 1 -0.3246 0.0315
-8 -8 2 -0.7720 -0.0579
-8 -7 1 0.5371 0.0199
-8 -7 2 0.1984 0.0111
-8 -6 1 -0.1492 0.0169
-8 -6 2 -0.1325 0.0253
-8 -5 1 0.1525 -0.0271
-8 -5 2 -1.0980 0.0187
-8 -5 3 0.8661 0.0271
-8 -4 1 0.9820 0.0227
-8 -4 2 1.4415 0.0289
-8 -4 3 -1.0432 -0.0546
-8 -4 4 0.5212 0.0767
-8 -3 1 -1.0958 0.0982
-8 -3 2 -1.0469 -0.0100
-8 -3 3 -0.4364 -0.0907
-8 -3 4 0.0996 0.0841
-8 -3 5 -0.8747 -0.0424
-8 -2 1 0.2257 0.2171
-8 -2 2 0.0481 -0.0647
-8 -2 3 0.2166 -0.0427
-8 -2 4 0.4294 0.0617
-8 -2 5 -0.1679 -0.0394
-8 -1 1 0.9559 0.3548
-8 -1 2 1.4301 -0.1486
-8 -1 3 -0.2025 0.0117
-8 -1 4 -0.1586 0.0581
-8 -1 5 0.3830 0.0112
-8 -1 6 0.6061 0.0550
-8 0 1 -1.5085 0.4888
-8 0 2 -1.5671 -0.2586
-8 0 3 0.8370 0.0612
-8 0 4 0.5250 0.0719
-8 0 5 -0.0990 -0.0925
-8 0 6 -0.3553 0.0693
-8 1 1 1.9690 0.5228
-8 1 2 -0.0414 -0.3206
-8 1 3 -0.4968 0.0979
-8 1 4 -1.6212 0.0571
-8 1 5 -0.5460 -0.1271
-8 1 6 -0.3994 0.0373
-8 2 1 -1.1347 0.4554
-8 2 2 0.1130 -0.3014
-8 2 3 0.1411 0.1095
-8 2 4 1.0033 0.0275
-8 2 5 1.2170 -0.0943
-8 2 6 0.5820 0.0759
-8 3 1 -0.2481 0.3311
-8 3 2 0.7930 -0.2463
-8 3 3 0.1592 0.1020
-8 3 4 0.2390 0.0105
-8 3 5 -0.9655 -0.0851
-8 3 6 -0.2990 0.0770
-8 4 1 -0.2426 0.1637
-8 4 2 -0.5616 -0.1501
-8 4 3 -0.5254 0.0702
-8 4 4 -0.2917 0.0056
-8 4 5 0.3040 -0.0711
-8 4 6 0.2031 0.0786
-8 4 7 0.3132 -0.0127
-8 5 1 0.6522 0.0518
-8 5 2 0.5681 -0.0537
-8 5 3 0.3916 0.0419
-8 5 4 -0.2667 -0.0113
-8 5 5 0.5276 -0.0033
-8 5 6 -0.6919 0.1096
-8 5 7 -0.0292 -0.0466
-8 6 1 -0.2644 -0.0250
-8 6 2 -0.6984 0.0472
-8 6 3 -0.1853 -0.0046
-8 6 4 -0.4097 0.0236
-8 6 5 -0.6917 0.0263
-8 6 6 0.0207 -0.0398
-8 7 1 0.3758 -0.0295
-8 7 2 0.0798 0.0530
-8 7 3 0.5035 -0.0332
-8 7 4 1.0043 0.0625
-8 7 5 1.1588 -0.0357
-8 7 6 0.4411 -0.0035
-8 8 1 -0.2075 0.0165
-8 8 2 0.0703 0.0501
-8 8 3 -0.4408 -0.0081
-8 9 1 0.9632 -0.1191
-8 9 2 -0.2739 -0.0748
-7 -9 1 0.0861 -0.0157
-7 -8 1 -0.6658 0.0129
-7 -8 2 -1.0739 -0.0512
-7 -7 1 0.7711 0.0582
-7 -7 2 0.5787 -0.0242
-7 -7 3 0.2702 -0.0219
-7 -6 1 -0.2502 0.0758
-7 -6 2 0.1863 -0.0258
-7 -6 3 0.4009 0.0079
-7 -6 4 -0.8098 0.0061
-7 -5 1 -0.8969 0.0739
-7 -5 2 -0.9615 -0.0243
-7 -5 3 0.2762 -0.0058
-7 -5 4 -0.1883 -0.0019
-7 -5 5 0.1164 -0.0213
-7 -4 1 1.8954 0.1259
-7 -4 2 1.1102 -0.0856
-7 -4 3 -0.3098 0.0099
-7 -4 4 0.4507 0.0271
-7 -4 5 0.2095 -0.0774
-7 -4 6 0.3846 0.1006
-7 -3 1 -1.7005 0.2864
-7 -3 2 -1.0856 -0.1593
-7 -3 3 -0.1919 0.0417
-7 -3 4 0.1049 0.0286
-7 -3 5 -0.6502 -0.0700
-7 -3 6 0.0537 0.1110
-7 -2 1 1.0959 0.4865
-7 -2 2 -0.0754 -0.2822
-7 -2 3 0.4811 0.1041
-7 -2 4 0.2630 0.0603
-7 -2 5 -0.1018 -0.0618
-7 -2 6 -0.1733 -0.0000
-7 -1 1 0.4096 0.6788
-7 -1 2 0.9174 -0.4187
-7 -1 3 -0.8521 0.1601
-7 -1 4 -0.4633 -0.0078
-7 -1 5 0.1656 -0.0528
-7 -1 6 0.3148 0.0102
-7 -1 7 -0.9649 0.0983
-7 0 1 -0.9496 0.8063
-7 0 2 -0.0821 -0.5342
-7 0 3 1.2263 0.2590
-7 0 4 0.6445 -0.0521
-7 0 5 0.0750 -0.0513
-7 0 6 -0.1276 0.0745
-7 0 7 0.5221 -0.1138
-7 1 1 0.3494 0.8298
-7 1 2 -2.1966 -0.6144
-7 1 3 -0.9261 0.3134
-7 1 4 -1.5076 -0.0474
-7 1 5 -0.2368 -0.0930
-7 1 6 0.1640 0.1065
-7 1 7 0.0557 -0.0534
-7 2 1 0.8137 0.7005
-7 2 2 2.5572 -0.5575
-7 2 3 1.6970 0.2985
-7 2 4 1.1436 -0.0772
-7 2 5 1.1221 -0.0950
-7 2 6 -0.2154 0.1220
-7 2 7 -0.2804 -0.0541
-7 3 1 -1.0917 0.5185
-7 3 2 -1.4220 -0.4439
-7 3 3 -2.0116 0.2654
-7 3 4 -0.5954 -0.0738
-7 3 5 -1.4098 -0.0565
-7 3 6 -0.2523 0.1273
-7 3 7 -0.0203 -0.0901
-7 3 8 -0.1916 0.0084
-7 4 1 -0.1707 0.3232
-7 4 2 0.4451 -0.3025
-7 4 3 1.2531 0.2083
-7 4 4 0.5045 -0.0651
-7 4 5 0.8691 -0.0226
-7 4 6 0.6928 0.0966
-7 4 7 0.4368 -0.0831
-7 4 8 -0.2419 0.0132
-7 5 1 0.8045 0.1799
-7 5 2 0.5386 -0.1609
-7 5 3 -0.6528 0.1349
-7 5 4 -0.5317 -0.0801
-7 5 5 -0.0631 0.0028
-7 5 6 -0.7949 0.0274
-7 5 7 -0.3194 -0.0778
-7 5 8 0.3765 0.0588
-7 6 1 -0.5912 0.1009
-7 6 2 -0.4625 -0.0272
-7 6 3 0.0338 0.0702
-7 6 4 0.5686 -0.0380
-7 6 5 -0.1084 0.0225
-7 6 6 0.2501 0.0040
-7 6 7 0.3917 -0.1037
-7 7 1 0.0318 0.0629
-7 7 2 -0.0466 -0.0471
-7 7 3 0.0636 0.0238
-7 7 4 -0.6301 -0.0403
-7 7 5 -0.0300 0.0261
-7 7 6 -0.7790 -0.0215
-7 7 7 -0.3472 0.0639
-7 8 1 0.3632 -0.0615
-7 8 2 0.8088 -0.0113
-7 8 3 0.0252 -0.0427
-7 8 4 1.0058 -0.0383
-7 8 5 0.2147 0.0029
-7 8 6 2.0292 -0.0409
-7 8 7 0.1247 0.0844
-7 9 1 -0.0182 -0.0733
-7 9 2 -1.4726 -0.0093
-7 9 3 -0.6542 -0.0244
-7 9 4 -0.3854 -0.0078
-7 9 5 -1.2596 0.0624
-7 9 6 -1.1842 0.0512
-7 10 1 0.5021 0.1100
-7 10 2 0.8163 0.1346
-7 10 3 1.2895 0.0733
-6 -10 1 0.1202 -0.0011
-6 -9 1 0.1794 0.0268
-6 -9 2 0.4613 -0.0063
-6 -8 1 -0.5845 0.0394
-6 -8 2 -0.7908 -0.0369
-6 -8 3 -0.2868 0.0437
-6 -7 1 0.5038 0.0717
-6 -7 2 0.2551 -0.0488
-6 -7 3 0.1205 0.0560
-6 -7 4 -0.6727 0.0251
-6 -6 1 0.2993 0.0782
-6 -6 2 0.9225 -0.0740
-6 -6 3 0.2768 0.0329
-6 -6 4 0.0756 -0.0149
-6 -6 5 1.2966 0.0004
-6 -5 1 -1.9933 0.1505
-6 -5 2 -1.4509 -0.1091
-6 -5 3 -0.6176 0.0313
-6 -5 4 -0.5372 0.0039
-6 -5 5 -0.3399 -0.0152
-6 -5 6 -1.6022 -0.0386
-6 -4 1 2.4319 0.2570
-6 -4 2 1.7933 -0.1593
-6 -4 3 0.4733 0.0929
-6 -4 4 0.6495 -0.0176
-6 -4 5 0.2402 -0.0159
-6 -4 6 1.0538 0.0412
-6 -4 7 0.4234 -0.1480
-6 -3 1 -2.2944 0.4128
-6 -3 2 -0.8227 -0.2813
-6 -3 3 -0.0777 0.1589
-6 -3 4 0.0749 -0.0565
-6 -3 5 -0.3052 -0.0464
-6 -3 6 0.1073 0.0844
-6 -3 7 -0.3470 -0.0348
-6 -2 1 1.2207 0.6486
-6 -2 2 -0.8251 -0.4747
-6 -2 3 0.2042 0.2459
-6 -2 4 -0.6161 -0.0659
-6 -2 5 -0.3690 -0.0412
-6 -2 6 -0.5643 0.0881
-6 -2 7 0.2920 -0.0743
-6 -1 1 0.0334 0.9024
-6 -1 2 0.4620 -0.6457
-6 -1 3 -0.4898 0.3575
-6 -1 4 0.2796 -0.0743
-6 -1 5 0.6299 -0.0640
-6 -1 6 0.5961 0.0610
-6 -1 7 -0.0755 -0.0096
-6 -1 8 0.7466 0.0324
-6 0 1 0.4656 0.9800
-6 0 2 1.7415 -0.7489
-6 0 3 0.8226 0.4207
-6 0 4 0.3261 -0.1577
-6 0 5 -0.2831 -0.0280
-6 0 6 -0.6530 0.0856
-6 0 7 -0.2172 -0.0393
-6 0 8 -0.0878 0.0219
-6 0 9 0.6847 -0.0474
-6 1 1 -2.6276 0.9660
-6 1 2 -3.7959 -0.7961
-6 1 3 -0.9530 0.4706
-6 1 4 -1.0655 -0.1831
-6 1 5 0.3066 -0.0195
-6 1 6 0.5822 0.1181
-6 1 7 0.1897 -0.1177
-6 1 8 -0.1675 0.0595
-6 2 1 3.4709 0.8502
-6 2 2 3.9634 -0.7293
-6 2 3 2.0226 0.4869
-6 2 4 0.3501 -0.1701
-6 2 5 0.4479 -0.0381
-6 2 6 -0.6269 0.1349
-6 2 7 -0.2027 -0.1201
-6 2 8 0.2971 0.0707
-6 3 1 -2.3981 0.6214
-6 3 2 -2.8192 -0.5720
-6 3 3 -2.4848 0.4032
-6 3 4 -0.0373 -0.1656
-6 3 5 -0.5467 -0.0203
-6 3 6 0.1182 0.1255
-6 3 7 0.1617 -0.1315
-6 3 8 -0.0687 0.0472
-6 3 9 -0.0266 -0.0226
-6 4 1 0.5956 0.4417
-6 4 2 1.4697 -0.4058
-6 4 3 2.0082 0.3024
-6 4 4 0.3852 -0.1666
-6 4 5 0.2683 0.0103
-6 4 6 0.3473 0.0829
-6 4 7 0.1196 -0.1228
-6 4 8 -0.1745 0.0717
-6 4 9 0.4423 -0.0043
-6 5 1 0.4880 0.3097
-6 5 2 -0.1126 -0.2452
-6 5 3 -1.2860 0.2091
-6 5 4 -0.7255 -0.1236
-6 5 5 -0.0899 0.0125
-6 5 6 -0.3623 0.0260
-6 5 7 -0.2949 -0.0697
-6 5 8 0.2554 0.0913
-6 5 9 -0.1664 -0.0507
-6 6 1 -0.4027 0.1770
-6 6 2 -0.3812 -0.1794
-6 6 3 0.1032 0.1277
-6 6 4 1.0224 -0.1102
-6 6 5 -0.2124 0.0580
-6 6 6 0.0196 0.0079
-6 6 7 0.3528 -0.0374
-6 6 8 -0.3215 0.0750
-6 6 9 -0.4502 -0.0654
-6 7 1 -0.0258 0.0848
-6 7 2 0.4375 -0.0980
-6 7 3 0.1579 0.0781
-6 7 4 -0.5936 -0.0832
-6 7 5 0.1678 0.0798
-6 7 6 -0.2762 -0.0360
-6 7 7 0.0833 0.0131
-6 7 8 -0.0628 0.0678
-6 8 1 -0.3252 0.0174
-6 8 2 0.1819 -0.0360
-6 8 3 -0.4683 0.0406
-6 8 4 0.5733 -0.0127
-6 8 5 -0.0512 0.0438
-6 8 6 1.1608 -0.0145
-6 8 7 -0.5673 0.0449
-6 8 8 0.7859 -0.0412
-6 9 1 0.6601 0.0379
-6 9 2 -0.3886 0.0115
-6 9 3 0.1732 0.0267
-6 9 4 0.2545 -0.0278
-6 9 5 -0.7894 0.0411
-6 9 6 -0.5184 -0.0158
-6 9 7 -0.2873 -0.0279
-6 10 1 -0.2462 0.0577
-6 10 2 -0.0037 0.0355
-6 10 3 0.4972 -0.0071
-6 10 4 -0.6100 0.0183
-6 10 5 0.1996 0.0188
-6 10 6 0.3727 -0.1052
-6 10 7 0.3665 -0.0240
-6 11 2 -0.1479 -0.0739
-6 11 3 -0.5517 -0.0694
-5 -11 1 0.0980 0.0687
-5 -10 1 -0.2684 -0.0393
-5 -9 1 0.4515 0.0508
-5 -9 2 0.5185 -0.0316
-5 -8 1 -0.2892 0.0534
-5 -8 2 -0.4820 -0.0438
-5 -8 3 -0.3248 -0.0075
-5 -8 4 0.2641 -0.0383
-5 -7 1 -0.4643 0.0166
-5 -7 2 -0.7749 -0.0727
-5 -7 3 -0.6537 0.0415
-5 -7 4 -0.6690 -0.0616
-5 -7 5 -0.5172 0.0499
-5 -6 1 1.5590 0.0678
-5 -6 2 1.9126 -0.0646
-5 -6 3 1.1321 0.0995
-5 -6 4 1.0824 -0.0005
-5 -6 5 0.8460 0.0145
-5 -6 6 0.5104 0.1192
-5 -5 1 -2.5403 0.1723
-5 -5 2 -1.9509 -0.1331
-5 -5 3 -0.9195 0.1005
-5 -5 4 -0.9026 -0.0372
-5 -5 5 -0.0905 -0.0174
-5 -5 6 -1.2575 0.0027
-5 -4 1 2.1197 0.2924
-5 -4 2 1.7674 -0.2320
-5 -4 3 -0.4611 0.1135
-5 -4 4 0.4558 -0.0804
-5 -4 5 -0.2575 0.0127
-5 -4 6 0.4249 0.0046
-5 -4 7 -0.0602 -0.0783
-5 -4 8 -0.2505 0.0228
-5 -3 1 -1.0692 0.4766
-5 -3 2 0.7367 -0.3463
-5 -3 3 1.0409 0.2385
-5 -3 4 0.6104 -0.0965
-5 -3 5 -0.1226 0.0117
-5 -3 6 0.1469 0.0234
-5 -3 7 0.0466 -0.0603
-5 -3 8 0.1278 0.1045
-5 -2 1 -1.7077 0.6777
-5 -2 2 -2.6668 -0.5242
-5 -2 3 -1.0444 0.3420
-5 -2 4 -1.5927 -0.1742
-5 -2 5 0.4033 0.0167
-5 -2 6 0.0889 0.0912
-5 -2 7 0.0470 -0.0780
-5 -2 8 -0.5118 0.0080
-5 -1 1 2.0367 0.8515
-5 -1 2 2.0886 -0.7307
-5 -1 3 0.9598 0.4506
-5 -1 4 1.3699 -0.1947
-5 -1 5 0.3492 -0.0014
-5 -1 6 -0.2752 0.0986
-5 -1 7 0.2480 -0.1115
-5 -1 8 0.2988 0.0269
-5 -1 9 -0.3956 0.0223
-5 0 1 0.0995 0.9675
-5 0 2 0.4789 -0.8115
-5 0 3 -0.7925 0.5272
-5 0 4 -0.8787 -0.1983
-5 0 5 -1.0382 -0.0143
-5 0 6 -0.3883 0.0998
-5 0 7 -0.1423 -0.0749
-5 0 8 0.0345 0.0457
-5 0 9 -0.0550 0.0079
-5 1 1 -3.9677 0.9295
-5 1 2 -1.8757 -0.7910
-5 1 3 0.3374 0.5250
-5 1 4 0.5697 -0.2455
-5 1 5 1.2690 0.0108
-5 1 6 0.4377 0.1169
-5 1 7 0.0677 -0.1139
-5 1 8 -0.1572 0.0864
-5 1 9 0.1108 -0.0403
-5 1 10 -0.2506 0.0084
-5 2 1 4.1841 0.7764
-5 2 2 2.2110 -0.7332
-5 2 3 0.2094 0.5280
-5 2 4 -1.0343 -0.2280
-5 2 5 -0.0999 0.0093
-5 2 6 -0.5939 0.1137
-5 2 7 -0.0183 -0.1572
-5 2 8 0.2387 0.0875
-5 2 9 -0.4303 -0.0326
-5 2 10 -0.0409 0.0147
-5 3 1 -1.5641 0.6339
-5 3 2 -1.1785 -0.5812
-5 3 3 -0.5072 0.4510
-5 3 4 1.1017 -0.2149
-5 3 5 0.0764 0.0148
-5 3 6 0.1515 0.1023
-5 3 7 0.2999 -0.1346
-5 3 8 -0.2323 0.0949
-5 3 9 0.1391 -0.0413
-5 3 10 0.5103 0.0086
-5 4 1 -0.4600 0.4897
-5 4 2 0.2118 -0.4276
-5 4 3 0.3573 0.3206
-5 4 4 -0.8285 -0.2153
-5 4 5 -0.7600 0.0245
-5 4 6 -0.1464 0.0740
-5 4 7 -0.3657 -0.1161
-5 4 8 0.2396 0.0963
-5 4 9 0.2258 -0.0498
-5 4 10 -0.2146 0.0166
-5 5 1 1.0740 0.3223
-5 5 2 0.3424 -0.3279
-5 5 3 -0.1817 0.2356
-5 5 4 0.3684 -0.1534
-5 5 5 1.1350 0.0440
-5 5 6 0.5419 0.0428
-5 5 7 0.3499 -0.0824
-5 5 8 -0.0197 0.0867
-5 5 9 -0.0320 -0.0545
-5 5 10 -0.3053 0.0178
-5 6 1 -0.3432 0.2277
-5 6 2 -0.8203 -0.2327
-5 6 3 -0.5002 0.1850
-5 6 4 0.1816 -0.1124
-5 6 5 -1.3018 0.0709
-5 6 6 -0.6879 0.0051
-5 6 7 -0.2007 -0.0120
-5 6 8 -0.2051 0.0550
-5 6 9 -0.0800 -0.0435
-5 6 10 0.2624 0.0317
-5 7 1 -0.2466 0.1362
-5 7 2 0.7230 -0.1139
-5 7 3 0.6924 0.1048
-5 7 4 0.4867 -0.0801
-5 7 5 0.7280 0.0776
-5 7 6 0.7307 -0.0245
-5 7 7 0.1182 -0.0111
-5 7 8 -0.4144 0.0354
-5 7 9 -0.2056 -0.0881
-5 8 1 -0.2156 0.1093
-5 8 2 0.0285 -0.0653
-5 8 3 -0.6891 0.0974
-5 8 4 -0.5992 -0.0574
-5 8 5 -0.6663 0.0558
-5 8 6 -0.2381 -0.0478
-5 8 7 -0.5286 -0.0186
-5 8 8 1.1193 0.0076
-5 8 9 0.0732 -0.0384
-5 9 1 0.5731 0.0787
-5 9 2 0.0081 -0.0400
-5 9 3 0.1507 0.0455
-5 9 4 0.7341 -0.0411
-5 9 5 0.1368 0.0190
-5 9 6 0.4233 -0.0397
-5 9 7 0.0965 0.0091
-5 9 8 -0.1188 -0.0429
-5 10 1 -0.1174 -0.0301
-5 10 2 0.0438 -0.0617
-5 10 3 0.2859 -0.0293
-5 10 4 -0.3942 -0.0492
-5 10 5 -0.1445 0.0096
-5 10 6 0.2970 -0.0461
-5 10 7 -0.1719 0.0237
-5 10 8 -0.1717 0.0649
-5 11 7 0.0490 0.1173
-5 11 8 -0.2023 0.0223
-4 -11 1 0.2102 0.0098
-4 -10 1 -0.3636 0.0267
-4 -10 2 -0.0225 0.0428
-4 -9 1 -0.1509 -0.0135
-4 -9 2 0.3839 -0.0549
-4 -9 3 0.6963 0.0620
-4 -8 1 0.7378 0.0427
-4 -8 2 0.0688 -0.0204
-4 -8 3 -0.1805 0.0249
-4 -8 4 -0.2282 0.0095
-4 -8 5 -0.6361 -0.0648
-4 -7 1 -1.1008 0.0172
-4 -7 2 -1.1350 -0.0185
-4 -7 3 -0.8965 0.0288
-4 -7 4 -0.1243 -0.0534
-4 -7 5 -0.0560 0.0580
-4 -7 6 0.4166 -0.1222
-4 -6 1 1.4366 -0.0099
-4 -6 2 1.3127 -0.0806
-4 -6 3 1.0173 0.0593
-4 -6 4 0.9105 -0.0659
-4 -6 5 0.1182 0.0178
-4 -6 6 0.5813 0.0543
-4 -6 7 0.0683 -0.0716
-4 -5 1 -1.6119 0.0938
-4 -5 2 -1.0272 -0.0925
-4 -5 3 0.3105 0.1254
-4 -5 4 -0.6092 -0.0517
-4 -5 5 0.1315 0.0311
-4 -5 6 -1.0224 0.0239
-4 -5 7 -0.3453 -0.0250
-4 -4 1 0.8299 0.2610
-4 -4 2 0.1743 -0.1797
-4 -4 3 -2.2439 0.1585
-4 -4 4 0.0187 -0.0977
-4 -4 5 -0.5260 0.0252
-4 -4 6 0.3888 0.0053
-4 -4 7 0.6066 0.0106
-4 -4 8 0.2850 0.0546
-4 -3 1 2.5629 0.3958
-4 -3 2 2.8973 -0.3663
-4 -3 3 2.3269 0.2155
-4 -3 4 1.1830 -0.1435
-4 -3 5 -0.1953 0.0533
-4 -3 6 0.0478 0.0040
-4 -3 7 0.0955 -0.0494
-4 -3 8 -0.4956 0.0432
-4 -3 9 -0.0701 -0.1225
-4 -2 1 -7.0782 0.5635
-4 -2 2 -4.7671 -0.4655
-4 -2 3 -2.0295 0.3408
-4 -2 4 -1.8242 -0.1790
-4 -2 5 1.0059 0.0521
-4 -2 6 -0.0599 0.0206
-4 -2 7 -0.6443 -0.0764
-4 -2 8 -0.2778 0.0610
-4 -2 9 0.4882 -0.0221
-4 -1 1 6.2781 0.6540
-4 -1 2 4.1576 -0.5702
-4 -1 3 1.2128 0.4139
-4 -1 4 1.6906 -0.2321
-4 -1 5 0.1592 0.0671
-4 -1 6 -0.3320 0.0720
-4 -1 7 0.9637 -0.1139
-4 -1 8 0.3701 0.0688
-4 -1 9 0.2191 0.0017
-4 0 1 -2.9217 0.7068
-4 0 2 -1.0248 -0.6962
-4 0 3 -1.0252 0.4650
-4 0 4 -1.4678 -0.2198
-4 0 5 -1.2638 0.0153
-4 0 6 -0.0768 0.1095
-4 0 7 -0.1374 -0.1276
-4 0 8 -0.1947 0.0864
-4 0 9 -0.4386 -0.0211
-4 0 10 0.7293 -0.0062
-4 1 1 -2.0658 0.7021
-4 1 2 0.5213 -0.6135
-4 1 3 1.2627 0.4811
-4 1 4 1.3647 -0.2018
-4 1 5 0.8566 -0.0166
-4 1 6 0.0895 0.1164
-4 1 7 -0.1480 -0.1247
-4 1 8 -0.4715 0.0890
-4 1 9 0.1981 -0.0280
-4 1 10 -0.4421 0.0184
-4 1 11 0.1691 0.0549
-4 2 1 1.8835 0.5915
-4 2 2 -0.7429 -0.5400
-4 2 3 -2.1994 0.4023
-4 2 4 -1.1199 -0.1950
-4 2 5 0.6225 -0.0012
-4 2 6 -0.4552 0.1131
-4 2 7 0.1646 -0.1363
-4 2 8 0.5704 0.0941
-4 2 9 -0.0770 -0.0259
-4 2 10 0.0972 -0.0062
-4 2 11 0.3583 -0.0298
-4 3 1 1.6794 0.4972
-4 3 2 1.6707 -0.4999
-4 3 3 1.4526 0.3306
-4 3 4 1.1985 -0.1870
-4 3 5 -0.6413 0.0084
-4 3 6 0.0879 0.0928
-4 3 7 0.5685 -0.1265
-4 3 8 -0.5234 0.0979
-4 3 9 -0.0620 -0.0476
-4 3 10 0.1485 0.0094
-4 3 11 -0.8662 0.0008
-4 4 1 -3.0713 0.4091
-4 4 2 -1.3717 -0.3596
-4 4 3 -0.6333 0.2901
-4 4 4 -0.9772 -0.1495
-4 4 5 -0.4033 0.0153
-4 4 6 -0.1764 0.0776
-4 4 7 -0.7547 -0.0988
-4 4 8 0.2654 0.0812
-4 4 9 0.0740 -0.0514
-4 4 10 0.2368 0.0165
-4 4 11 0.4355 -0.0054
-4 5 1 2.1074 0.3209
-4 5 2 0.5629 -0.2885
-4 5 3 0.0060 0.2249
-4 5 4 0.5598 -0.1345
-4 5 5 1.3451 0.0522
-4 5 6 0.5764 0.0498
-4 5 7 1.0230 -0.0733
-4 5 8 0.2764 0.0678
-4 5 9 0.1023 -0.0487
-4 5 10 -0.5456 0.0004
-4 6 1 -0.8718 0.2278
-4 6 2 -0.9677 -0.2316
-4 6 3 -0.2167 0.1544
-4 6 4 0.1164 -0.0886
-4 6 5 -1.5082 0.0397
-4 6 6 -0.7830 0.0133
-4 6 7 -1.0027 -0.0493
-4 6 8 -0.8824 0.0404
-4 6 9 0.0263 -0.0464
-4 6 10 0.1558 0.0363
-4 7 1 0.5146 0.1930
-4 7 2 1.2091 -0.1336
-4 7 3 0.8760 0.1217
-4 7 4 0.1371 -0.0667
-4 7 5 0.2114 0.0240
-4 7 6 0.9751 -0.0115
-4 7 7 0.2583 -0.0322
-4 7 8 0.3035 0.0325
-4 7 9 -0.1013 -0.0302
-4 7 10 -0.0738 0.0720
-4 8 1 -0.5404 0.1168
-4 8 2 -0.5406 -0.1011
-4 8 3 -0.7119 0.0834
-4 8 4 -0.3299 -0.0771
-4 8 5 0.2101 0.0358
-4 8 6 -0.1758 -0.0344
-4 8 7 -0.2359 -0.0118
-4 8 8 0.7157 0.0480
-4 8 9 -0.0139 -0.0232
-4 8 10 0.5775 0.0571
-4 9 1 0.7223 0.0217
-4 9 2 0.2976 -0.0882
-4 9 3 -0.0583 0.0560
-4 9 4 0.3958 -0.0377
-4 9 5 -0.2610 0.0184
-4 9 6 -0.0609 -0.0143
-4 9 7 0.1445 0.0225
-4 9 8 0.1235 0.0211
-4 9 9 -0.3558 -0.0149
-4 10 1 -0.3806 -0.0153
-4 10 2 -0.2296 -0.0152
-4 10 3 -0.0692 0.0500
-4 10 4 -0.2511 -0.0349
-4 10 5 -0.0200 0.0560
-4 10 6 0.2441 0.0183
-4 10 7 -0.4611 0.0201
-4 10 8 -0.7640 -0.0006
-4 10 9 -0.0274 -0.0122
-4 11 1 -1.7707 0.0262
-4 11 2 -0.1419 0.0129
-4 11 3 0.3580 0.0123
-4 11 4 0.0087 -0.0175
-4 11 5 0.4313 0.0325
-4 11 6 -0.2324 -0.0161
-4 11 7 0.5768 0.0283
-4 11 8 0.7857 -0.0083
-4 11 9 0.3369 -0.1062
-3 -11 1 0.6037 -0.0174
-3 -10 1 -0.8199 0.0166
-3 -10 2 -0.4064 -0.0281
-3 -10 3 -0.1866 0.0061
-3 -9 1 -0.1259 0.0292
-3 -9 2 0.1801 0.0142
-3 -9 3 -0.0093 0.0197
-3 -9 4 0.0758 -0.0386
-3 -8 1 0.8740 -0.0255
-3 -8 2 0.5489 -0.0269
-3 -8 3 0.6617 0.0289
-3 -8 4 0.3025 -0.0053
-3 -8 5 -0.1440 -0.0203
-3 -8 6 0.3725 0.0319
-3 -7 1 -0.7100 -0.0135
-3 -7 2 -0.6452 0.0038
-3 -7 3 -0.8511 0.0147
-3 -7 4 -0.4164 -0.0169
-3 -7 5 -0.3552 0.0154
-3 -7 6 0.1439 -0.0302
-3 -6 1 0.7037 -0.0091
-3 -6 2 0.0212 -0.0052
-3 -6 3 -0.0409 0.0274
-3 -6 4 0.3509 -0.0582
-3 -6 5 -0.3885 0.0276
-3 -6 6 0.1865 -0.0330
-3 -6 7 -0.4518 -0.0259
-3 -5 1 -0.7592 -0.0268
-3 -5 2 0.2421 -0.0480
-3 -5 3 1.8327 0.0521
-3 -5 4 -0.0616 -0.0659
-3 -5 5 0.6465 0.0477
-3 -5 6 0.0526 0.0126
-3 -5 7 0.2928 -0.0255
-3 -5 8 1.1957 0.0812
-3 -4 1 -1.0098 0.0937
-3 -4 2 -1.7978 -0.0897
-3 -4 3 -3.1003 0.1346
-3 -4 4 -0.1516 -0.0821
-3 -4 5 -0.5583 0.0543
-3 -4 6 0.0908 0.0098
-3 -4 7 0.0396 -0.0037
-3 -4 8 -0.9030 0.0190
-3 -4 9 -1.0260 0.0174
-3 -3 1 7.1035 0.2499
-3 -3 2 4.4987 -0.2010
-3 -3 3 2.6730 0.1698
-3 -3 4 0.7792 -0.1370
-3 -3 5 -0.5483 0.0599
-3 -3 6 0.1839 -0.0059
-3 -3 7 0.4031 -0.0363
-3 -3 8 0.1416 0.0353
-3 -3 9 0.9100 -0.0150
-3 -3 10 -0.0872 0.0662
-3 -2 1 -12.0228 0.3073
-3 -2 2 -5.7879 -0.3514
-3 -2 3 -1.1892 0.2198
-3 -2 4 -0.7355 -0.1313
-3 -2 5 1.0685 0.0514
-3 -2 6 -0.6746 -0.0043
-3 -2 7 -1.0178 -0.0436
-3 -2 8 -0.5743 0.0456
-3 -2 9 -0.3127 -0.0755
-3 -2 10 -0.0297 0.0274
-3 -1 1 11.8105 0.3915
-3 -1 2 3.1788 -0.3326
-3 -1 3 -0.7346 0.2696
-3 -1 4 0.7776 -0.1302
-3 -1 5 -0.0462 0.0485
-3 -1 6 0.0709 0.0251
-3 -1 7 1.4857 -0.0743
-3 -1 8 0.6721 0.0811
-3 -1 9 0.5018 -0.0353
-3 -1 10 -0.3113 -0.0246
-3 0 1 -7.9661 0.4018
-3 0 2 1.8078 -0.3352
-3 0 3 0.6324 0.2698
-3 0 4 -0.4316 -0.1528
-3 0 5 -0.1682 0.0172
-3 0 6 0.1728 0.0836
-3 0 7 -0.2656 -0.1256
-3 0 8 -0.4694 0.0997
-3 0 9 -0.1699 -0.0418
-3 0 10 0.3208 -0.0088
-3 1 1 1.6428 0.3251
-3 1 2 -1.5427 -0.3663
-3 1 3 0.2094 0.2572
-3 1 4 -0.4269 -0.1164
-3 1 5 -1.2784 -0.0523
-3 1 6 -0.3306 0.1240
-3 1 7 -0.3287 -0.1307
-3 1 8 -0.5595 0.0886
-3 1 9 0.1425 -0.0213
-3 1 10 -0.2244 -0.0352
-3 1 11 0.2929 0.0196
-3 2 1 -0.6458 0.3319
-3 2 2 -0.6652 -0.3070
-3 2 3 -1.7016 0.2008
-3 2 4 1.1509 -0.0618
-3 2 5 2.5036 -0.0595
-3 2 6 -0.0635 0.1349
-3 2 7 0.1192 -0.1139
-3 2 8 0.3691 0.0764
-3 2 9 -0.2126 -0.0196
-3 2 10 -0.0453 -0.0069
-3 2 11 0.2247 0.0472
-3 3 1 3.9628 0.3260
-3 3 2 2.3632 -0.2503
-3 3 3 0.7071 0.1610
-3 3 4 0.4491 -0.0488
-3 3 5 -2.1041 -0.0558
-3 3 6 0.1473 0.1184
-3 3 7 0.9813 -0.1123
-3 3 8 0.1749 0.0748
-3 3 9 0.6705 -0.0104
-3 3 10 0.4239 -0.0078
-3 3 11 -0.0526 0.0179
-3 3 12 0.0363 -0.0181
-3 4 1 -4.5127 0.2694
-3 4 2 -1.5189 -0.2397
-3 4 3 -0.3547 0.1585
-3 4 4 -1.1749 -0.0439
-3 4 5 0.0551 -0.0411
-3 4 6 -0.2286 0.0955
-3 4 7 -0.9149 -0.0941
-3 4 8 -0.9063 0.0438
-3 4 9 -0.8171 -0.0261
-3 4 10 -0.6903 -0.0236
-3 4 11 -0.9990 0.0069
-3 4 12 -0.1782 0.0295
-3 5 1 1.5630 0.2645
-3 5 2 0.0725 -0.2000
-3 5 3 0.0066 0.1443
-3 5 4 1.3558 -0.0384
-3 5 5 1.5044 -0.0127
-3 5 6 0.1225 0.0601
-3 5 7 0.9035 -0.0778
-3 5 8 0.8152 0.0321
-3 5 9 0.5725 -0.0147
-3 5 10 0.6331 -0.0013
-3 5 11 1.3406 -0.0051
-3 6 1 0.9463 0.2374
-3 6 2 0.1926 -0.1787
-3 6 3 0.3898 0.0881
-3 6 4 -0.4809 -0.0472
-3 6 5 -1.5084 -0.0142
-3 6 6 -0.1680 0.0385
-3 6 7 -0.5325 -0.0636
-3 6 8 -0.8692 0.0506
-3 6 9 0.1267 -0.0177
-3 6 10 -0.5540 0.0271
-3 6 11 -0.0207 -0.0167
-3 7 1 -1.3123 0.1355
-3 7 2 0.0478 -0.1834
-3 7 3 -0.0995 0.0896
-3 7 4 -0.6015 -0.0553
-3 7 5 -0.1526 -0.0199
-3 7 6 0.4114 0.0261
-3 7 7 -0.3470 -0.0347
-3 7 8 0.4956 0.0565
-3 7 9 0.2358 -0.0088
-3 7 10 0.1582 0.0093
-3 7 11 -0.9679 -0.0339
-3 8 1 0.4535 0.0739
-3 8 2 0.1845 -0.0842
-3 8 3 0.0430 0.0925
-3 8 4 0.4970 -0.0277
-3 8 5 0.8772 -0.0061
-3 8 6 0.2179 0.0269
-3 8 7 0.0757 -0.0171
-3 8 8 0.3874 0.0349
-3 8 9 -0.8792 -0.0296
-3 8 10 -0.0343 0.0206
-3 9 1 0.4940 0.0487
-3 9 2 -0.4043 -0.0206
-3 9 3 -0.4078 0.0765
-3 9 4 0.0488 -0.0194
-3 9 5 -0.5715 0.0241
-3 9 6 -0.3286 0.0173
-3 9 7 0.1026 -0.0137
-3 9 8 -0.0185 0.0312
-3 9 9 0.2197 -0.0513
-3 9 10 0.2324 -0.0222
-3 10 1 -0.7302 -0.0024
-3 10 2 0.0674 -0.0208
-3 10 3 0.2225 0.0262
-3 10 4 0.0162 -0.0368
-3 10 5 0.2788 0.0376
-3 10 6 0.2716 0.0162
-3 10 7 0.1418 -0.0279
-3 10 8 -0.4619 -0.0190
-3 10 9 0.3099 -0.0362
-3 10 10 0.1267 0.0153
-3 11 1 -0.9670 -0.0227
-3 11 2 0.2599 -0.0212
-3 11 3 0.1609 -0.0093
-3 11 4 -0.1250 -0.0481
-3 11 5 0.1850 -0.0071
-3 11 6 -0.3010 -0.0259
-3 11 7 -0.2867 -0.0338
-3 11 8 0.4830 0.0130
-3 11 9 -0.3034 -0.0163
-3 11 10 -0.1448 0.1322
-3 12 1 0.9758 -0.0432
-3 12 2 1.1799 -0.0149
-3 12 3 -0.4021 -0.0127
-3 12 4 0.3087 -0.0453
-3 12 5 -0.6705 -0.0074
-3 12 6 0.1875 -0.0405
-3 12 7 -0.2373 0.0117
-3 12 8 -0.0521 0.0850
-3 12 9 -0.3265 0.0797
-2 -12 1 0.2111 -0.0237
-2 -11 1 0.4625 -0.0008
-2 -11 2 0.3632 -0.0047
-2 -10 1 -0.8336 -0.0084
-2 -10 2 -0.8716 -0.0298
-2 -10 3 -0.0217 0.0511
-2 -10 4 -0.5550 0.0122
-2 -9 1 0.4536 0.0049
-2 -9 2 0.4410 -0.0018
-2 -9 3 0.1810 -0.0188
-2 -9 4 0.7287 -0.0003
-2 -9 5 0.2691 0.0089
-2 -8 1 0.0355 -0.0161
-2 -8 2 0.3253 0.0151
-2 -8 3 0.2217 0.0143
-2 -8 4 -0.2439 -0.0248
-2 -8 5 -0.0356 0.0114
-2 -8 6 0.2705 -0.0181
-2 -7 1 0.0040 -0.0549
-2 -7 2 -0.1931 -0.0018
-2 -7 3 -0.2153 0.0096
-2 -7 4 -0.0254 0.0089
-2 -7 5 0.0838 0.0045
-2 -7 6 -0.0060 0.0321
-2 -7 7 -0.8754 -0.0417
-2 -6 1 0.5496 -0.0254
-2 -6 2 -0.1793 0.0490
-2 -6 3 -0.5945 0.0024
-2 -6 4 -0.0081 -0.0062
-2 -6 5 -0.9633 0.0089
-2 -6 6 -0.1028 -0.0323
-2 -6 7 0.1239 0.0062
-2 -5 1 -0.5330 -0.0297
-2 -5 2 0.4453 0.0320
-2 -5 3 1.7468 -0.0115
-2 -5 4 -0.4134 -0.0499
-2 -5 5 0.9589 0.0213
-2 -5 6 0.5971 -0.0210
-2 -5 7 -0.0777 -0.0071
-2 -5 8 0.4011 0.0147
-2 -5 9 -1.0865 -0.0978
-2 -4 1 -2.2621 -0.0873
-2 -4 2 -2.4537 -0.0259
-2 -4 3 -2.3185 0.0102
-2 -4 4 0.8470 -0.0527
-2 -4 5 -0.0330 0.0578
-2 -4 6 -0.1438 -0.0114
-2 -4 7 -0.1973 -0.0116
-2 -4 8 -0.8077 0.0596
-2 -4 9 0.0664 0.0152
-2 -3 1 6.8497 -0.0090
-2 -3 2 3.4487 -0.0022
-2 -3 3 1.4950 0.0757
-2 -3 4 -0.7884 -0.0501
-2 -3 5 -1.1617 0.0600
-2 -3 6 0.2779 0.0036
-2 -3 7 0.2710 -0.0224
-2 -3 8 0.5234 0.0257
-2 -3 9 0.6537 -0.0150
-2 -3 10 -0.4849 -0.0336
-2 -2 1 -7.1872 0.0909
-2 -2 2 -0.7701 -0.0671
-2 -2 3 2.5366 0.0850
-2 -2 4 0.7072 -0.0493
-2 -2 5 1.0092 0.0160
-2 -2 6 -0.5116 0.0045
-2 -2 7 -0.4978 -0.0322
-2 -2 8 -0.4766 0.0308
-2 -2 9 -0.0574 -0.0360
-2 -2 10 0.4034 0.0368
-2 -1 1 6.5514 0.0923
-2 -1 2 -8.0752 -0.1354
-2 -1 3 -5.7694 0.0522
-2 -1 4 -0.9911 -0.0071
-2 -1 5 -0.5577 -0.0462
-2 -1 6 -0.1870 0.0280
-2 -1 7 0.9159 -0.0483
-2 -1 8 0.0520 0.0539
-2 -1 9 -0.3429 -0.0557
-2 -1 10 -0.5062 0.0423
-2 -1 11 -0.4805 0.0124
-2 0 1 -2.5148 0.1174
-2 0 2 14.1441 -0.0011
-2 0 3 5.5287 0.0056
-2 0 4 2.3441 0.0183
-2 0 5 1.4891 -0.0531
-2 0 6 0.6943 0.0720
-2 0 7 0.2927 -0.0747
-2 0 8 0.1121 0.0716
-2 0 9 0.5859 -0.0383
-2 0 10 0.1318 -0.0202
-2 0 11 0.1722 0.0161
-2 1 1 -0.7322 0.0629
-2 1 2 -10.4213 -0.0499
-2 1 3 -4.2582 -0.0085
-2 1 4 -3.5029 0.0586
-2 1 5 -3.2337 -0.0790
-2 1 6 -0.9647 0.1244
-2 1 7 -0.9724 -0.1076
-2 1 8 -0.8855 0.0637
-2 1 9 0.0883 -0.0132
-2 1 10 -0.1712 -0.0320
-2 1 11 -0.1423 0.0478
-2 1 12 -0.5382 -0.0491
-2 2 1 -1.0158 0.0737
-2 2 2 2.5879 -0.1101
-2 2 3 2.4415 -0.0263
-2 2 4 2.7946 0.0721
-2 2 5 3.8438 -0.1425
-2 2 6 0.5863 0.1490
-2 2 7 0.6525 -0.0990
-2 2 8 0.7633 0.0496
-2 2 9 -0.1795 0.0028
-2 2 10 0.1176 -0.0310
-2 2 11 0.2449 0.0489
-2 2 12 0.5098 -0.0408
-2 3 1 5.5673 0.1791
-2 3 2 1.6707 -0.0098
-2 3 3 -2.0243 -0.0193
-2 3 4 0.8377 0.0984
-2 3 5 -3.1897 -0.1477
-2 3 6 -0.0406 0.1494
-2 3 7 0.0509 -0.1069
-2 3 8 -0.3812 0.0228
-2 3 9 0.1174 0.0241
-2 3 10 -0.0793 -0.0422
-2 3 11 0.1328 0.0660
-2 3 12 -0.6547 0.0006
-2 4 1 -5.1110 0.2058
-2 4 2 -0.9113 -0.0512
-2 4 3 0.6334 0.0255
-2 4 4 -1.7392 0.1011
-2 4 5 0.2523 -0.1220
-2 4 6 0.4299 0.1200
-2 4 7 0.3610 -0.0972
-2 4 8 -0.3932 0.0292
-2 4 9 0.3379 0.0383
-2 4 10 -0.2458 -0.0486
-2 4 11 -0.6045 0.0328
-2 4 12 0.4628 -0.0268
-2 5 1 0.8265 0.1375
-2 5 2 -0.1162 -0.1612
-2 5 3 0.2375 0.0011
-2 5 4 2.1893 0.0642
-2 5 5 1.5319 -0.1143
-2 5 6 -0.7181 0.1143
-2 5 7 -0.3661 -0.0755
-2 5 8 -0.0740 0.0242
-2 5 9 -0.2356 0.0298
-2 5 10 0.2489 -0.0467
-2 5 11 0.3950 0.0062
-2 5 12 0.1021 -0.0126
-2 6 1 1.7932 0.1451
-2 6 2 -0.2129 -0.1538
-2 6 3 -0.3834 0.0303
-2 6 4 -1.9415 0.0196
-2 6 5 -1.7889 -0.0742
-2 6 6 0.0356 0.0828
-2 6 7 0.3596 -0.0607
-2 6 8 -0.1909 0.0275
-2 6 9 0.4400 0.0050
-2 6 10 -0.2911 -0.0321
-2 6 11 0.6561 0.0060
-2 7 1 -2.3226 0.1233
-2 7 2 0.5158 -0.0941
-2 7 3 0.0251 0.0781
-2 7 4 0.1824 -0.0026
-2 7 5 0.5716 -0.0515
-2 7 6 0.6916 0.0671
-2 7 7 -0.3125 -0.0513
-2 7 8 0.6823 0.0422
-2 7 9 0.4699 -0.0126
-2 7 10 0.0207 -0.0097
-2 7 11 -0.9522 0.0158
-2 8 1 1.1878 0.0503
-2 8 2 0.4536 -0.0562
-2 8 3 0.2475 0.0741
-2 8 4 0.6083 -0.0106
-2 8 5 0.8731 -0.0514
-2 8 6 -0.3024 0.0683
-2 8 7 -0.1929 -0.0482
-2 8 8 -0.2585 0.0336
-2 8 9 -1.4077 -0.0238
-2 8 10 -0.2469 -0.0158
-2 8 11 0.4813 0.0232
-2 9 1 -0.2431 0.0282
-2 9 2 -1.0169 -0.0184
-2 9 3 -0.2778 0.0313
-2 9 4 -0.0499 -0.0161
-2 9 5 -0.7429 -0.0017
-2 9 6 -0.0370 0.0289
-2 9 7 0.1137 -0.0679
-2 9 8 0.1465 0.0242
-2 9 9 0.6862 -0.0242
-2 9 10 0.4833 0.0224
-2 9 11 0.1248 0.0360
-2 10 1 0.0438 -0.0028
-2 10 2 0.6740 -0.0211
-2 10 3 0.3220 -0.0007
-2 10 4 -0.0356 -0.0172
-2 10 5 0.1226 0.0011
-2 10 6 0.0468 0.0255
-2 10 7 0.1952 -0.0381
-2 10 8 -0.6285 0.0337
-2 10 9 0.0246 -0.0143
-2 10 10 -0.2915 0.0419
-2 10 11 -0.4413 0.0195
-2 11 1 -0.5333 -0.0271
-2 11 2 -0.1234 0.0040
-2 11 3 -0.2954 -0.0013
-2 11 4 -0.2955 -0.0148
-2 11 5 0.0354 0.0311
-2 11 6 -0.4322 0.0338
-2 11 7 -0.1223 -0.0051
-2 11 8 0.9220 0.0575
-2 11 9 0.4516 -0.0046
-2 11 10 0.3679 0.0131
-2 11 11 0.3279 -0.1240
-2 12 1 0.5617 0.0582
-2 12 2 0.4053 0.0416
-2 12 3 0.1599 0.0326
-2 12 4 0.2020 0.0171
-2 12 5 -0.1145 0.0216
-2 12 6 0.4719 -0.0232
-2 12 7 -0.1123 -0.0021
-2 12 8 -0.6632 0.0490
-2 12 9 -1.2764 -0.0608
-2 12 10 -0.2079 -0.0975
-2 13 1 -0.6450 -0.0282
-2 13 2 0.0926 -0.0531
-2 13 3 -1.2323 -0.0807
-2 13 4 0.5976 -0.0802
-2 13 5 -0.6483 -0.0592
-2 13 8 1.1669 -0.1091
-2 13 9 0.7370 -0.0567
-1 -12 1 -0.1486 0.0355
-1 -11 1 0.2679 -0.0474
-1 -11 2 0.0234 -0.0134
-1 -10 1 -0.0577 -0.0303
-1 -10 2 -0.2003 -0.0108
-1 -10 3 0.8295 -0.0168
-1 -9 1 -0.1245 -0.0119
-1 -9 2 -0.4708 0.0116
-1 -9 3 -0.5640 0.0257
-1 -9 4 -0.2595 0.0176
-1 -9 5 -0.8257 0.0042
-1 -8 1 0.2811 -0.0222
-1 -8 2 0.9814 0.0259
-1 -8 3 0.6222 -0.0100
-1 -8 4 0.3406 0.0054
-1 -8 5 0.8574 0.0239
-1 -8 6 0.2585 -0.0053
-1 -7 1 -0.1263 -0.0415
-1 -7 2 -0.6931 0.0174
-1 -7 3 -0.4341 -0.0092
-1 -7 4 -0.2256 -0.0135
-1 -7 5 -0.0675 -0.0223
-1 -7 6 -0.2282 0.0014
-1 -7 7 -0.3022 -0.0200
-1 -6 1 0.3221 -0.0664
-1 -6 2 -0.0701 0.0290
-1 -6 3 -0.4450 -0.0273
-1 -6 4 0.2471 0.0189
-1 -6 5 -0.6270 0.0003
-1 -6 6 0.2365 0.0163
-1 -6 7 0.4865 -0.0285
-1 -6 8 0.0369 -0.0390
-1 -5 1 0.3958 -0.0287
-1 -5 2 1.1726 0.0785
-1 -5 3 1.7113 -0.0181
-1 -5 4 -0.7235 0.0146
-1 -5 5 0.5935 0.0040
-1 -5 6 -0.1947 -0.0086
-1 -5 7 -0.9130 0.0214
-1 -5 8 0.1154 -0.0088
-1 -5 9 -0.9107 0.0088
-1 -4 1 -1.9381 -0.0831
-1 -4 2 -2.6681 0.0763
-1 -4 3 -2.3182 -0.0664
-1 -4 4 1.1123 0.0037
-1 -4 5 0.0892 0.0131
-1 -4 6 0.0470 -0.0322
-1 -4 7 0.5298 0.0003
-1 -4 8 -0.3451 0.0337
-1 -4 9 0.1940 -0.0214
-1 -3 1 0.0056 -0.2059
-1 -3 2 0.4794 0.0661
-1 -3 3 0.6788 -0.0816
-1 -3 4 -0.8462 0.0223
-1 -3 5 -0.6031 0.0107
-1 -3 6 0.5989 -0.0038
-1 -3 7 -0.2843 -0.0155
-1 -3 8 0.5274 0.0201
-1 -3 9 0.5860 -0.0201
-1 -3 10 -0.0151 -0.0009
-1 -2 1 6.6841 -0.1409
-1 -2 2 8.2814 0.1776
-1 -2 3 4.8482 -0.0726
-1 -2 4 -0.6669 0.0573
-1 -2 5 -0.0838 -0.0281
-1 -2 6 -0.6251 0.0331
-1 -2 7 -0.1898 -0.0312
-1 -2 8 -0.2982 0.0352
-1 -2 9 0.0010 -0.0159
-1 -2 10 -0.1625 -0.0015
-1 -2 11 -0.0841 -0.0577
-1 -1 1 -10.0056 -0.0973
-1 -1 2 -23.0975 0.1661
-1 -1 3 -7.9373 -0.1201
-1 -1 4 0.2347 0.1104
-1 -1 5 0.7845 -0.1022
-1 -1 6 0.4111 0.0766
-1 -1 7 0.4487 -0.0394
-1 -1 8 -0.4371 0.0268
-1 -1 9 -0.4497 -0.0256
-1 -1 10 0.2342 0.0370
-1 -1 11 0.4227 -0.0118
-1 0 1 16.2637 -0.1302
-1 0 2 28.4528 0.1464
-1 0 3 9.9713 -0.1792
-1 0 4 2.6549 0.1896
-1 0 5 0.4339 -0.1635
-1 0 6 -0.1676 0.0887
-1 0 7 0.5058 -0.0475
-1 0 8 0.5728 0.0243
-1 0 9 0.4925 -0.0117
-1 0 10 -0.3173 -0.0152
-1 0 11 -0.3870 0.0310
-1 0 12 -0.3903 -0.0252
-1 1 1 -15.9983 -0.0769
-1 1 2 -23.6175 0.1232
-1 1 3 -12.0803 -0.2319
-1 1 4 -5.3634 0.2152
-1 1 5 -3.3425 -0.1643
-1 1 6 -0.3242 0.1267
-1 1 7 -0.9242 -0.0641
-1 1 8 -0.9023 0.0103
-1 1 9 0.1814 0.0048
-1 1 10 -0.1944 -0.0359
-1 1 11 0.1643 0.0193
-1 1 12 0.0914 -0.0586
-1 2 1 10.1545 0.0696
-1 2 2 12.1654 0.0889
-1 2 3 12.2483 -0.2153
-1 2 4 4.7121 0.2039
-1 2 5 5.3400 -0.1874
-1 2 6 0.2608 0.1476
-1 2 7 0.4925 -0.0882
-1 2 8 0.8824 0.0005
-1 2 9 -0.1918 0.0467
-1 2 10 0.2337 -0.0471
-1 2 11 0.0316 0.0677
-1 2 12 0.0839 -0.0184
-1 3 1 1.1309 0.1359
-1 3 2 -3.7743 0.1037
-1 3 3 -8.4064 -0.1284
-1 3 4 -0.3643 0.2013
-1 3 5 -4.9401 -0.2133
-1 3 6 0.3508 0.1516
-1 3 7 -0.2071 -0.0763
-1 3 8 -0.6983 0.0007
-1 3 9 -0.2926 0.0719
-1 3 10 -0.0755 -0.0706
-1 3 11 0.2299 0.0601
-1 3 12 -0.2141 -0.0404
-1 4 1 -5.6107 0.0621
-1 4 2 0.5973 0.0113
-1 4 3 2.8000 -0.0990
-1 4 4 -1.3446 0.1942
-1 4 5 0.8204 -0.1912
-1 4 6 0.7960 0.1579
-1 4 7 0.5857 -0.0745
-1 4 8 0.3105 0.0095
-1 4 9 1.2644 0.0668
-1 4 10 -0.0008 -0.0945
-1 4 11 -0.2510 0.0507
-1 4 12 0.0272 -0.0346
-1 4 13 -0.0347 -0.0068
-1 5 1 1.9259 0.0681
-1 5 2 0.4907 -0.0781
-1 5 3 0.0745 -0.0452
-1 5 4 1.7507 0.1433
-1 5 5 0.8123 -0.1736
-1 5 6 -1.6108 0.1389
-1 5 7 -1.2959 -0.0898
-1 5 8 -1.2492 0.0034
-1 5 9 -1.0778 0.0571
-1 5 10 -0.7382 -0.0849
-1 5 11 -0.1533 0.0584
-1 5 12 0.3258 -0.0045
-1 5 13 0.1833 -0.0191
-1 6 1 0.9216 0.0674
-1 6 2 -1.6305 -0.1076
-1 6 3 -0.8592 0.0008
-1 6 4 -1.3741 0.0721
-1 6 5 -0.4525 -0.1272
-1 6 6 1.4233 0.1361
-1 6 7 2.0623 -0.0707
-1 6 8 1.3455 0.0010
-1 6 9 1.3504 0.0336
-1 6 10 0.7694 -0.0780
-1 6 11 0.7067 0.0515
-1 6 12 -0.3576 0.0140
-1 7 1 -1.3262 0.0767
-1 7 2 2.2320 -0.0358
-1 7 3 0.5532 0.0126
-1 7 4 0.2341 0.0227
-1 7 5 -0.0685 -0.0930
-1 7 6 -0.3693 0.1102
-1 7 7 -1.6021 -0.0643
-1 7 8 -0.7950 0.0180
-1 7 9 -0.8433 0.0154
-1 7 10 -0.7133 -0.0275
-1 7 11 -0.6088 0.0451
-1 7 12 -0.0808 -0.0110
-1 8 1 0.4237 0.0620
-1 8 2 -0.4026 -0.0165
-1 8 3 -0.3904 0.0437
-1 8 4 0.3816 0.0027
-1 8 5 0.9983 -0.0668
-1 8 6 -0.5450 0.0574
-1 8 7 0.6291 -0.0771
-1 8 8 0.5457 0.0424
-1 8 9 0.1777 0.0054
-1 8 10 0.3876 -0.0142
-1 8 11 0.4371 0.0506
-1 8 12 0.2366 -0.0349
-1 9 1 -0.3023 -0.0166
-1 9 2 -0.5494 -0.0330
-1 9 3 0.1733 0.0128
-1 9 4 0.0700 0.0067
-1 9 5 -0.8756 -0.0186
-1 9 6 0.0862 0.0590
-1 9 7 -0.5826 -0.0650
-1 9 8 -0.6476 0.0466
-1 9 9 -0.6635 -0.0017
-1 9 10 -0.2474 -0.0128
-1 9 11 -0.0251 0.0058
-1 9 12 0.1594 -0.0844
-1 10 1 0.4490 0.0377
-1 10 2 0.3413 0.0038
-1 10 3 -0.0451 -0.0032
-1 10 4 -0.3875 0.0161
-1 10 5 0.0038 0.0117
-1 10 6 0.4079 0.0542
-1 10 7 0.7662 -0.0423
-1 10 8 0.5250 0.0409
-1 10 9 1.0545 -0.0283
-1 10 10 0.4022 -0.0055
-1 10 11 -0.3528 -0.0089
-1 10 12 -0.5998 -0.0078
-1 11 1 0.0064 0.0646
-1 11 2 -0.1113 0.0358
-1 11 3 0.0127 0.0015
-1 11 4 0.0487 0.0098
-1 11 5 0.2105 -0.0032
-1 11 6 -0.6166 0.0047
-1 11 7 -0.2058 -0.0314
-1 11 8 -0.1410 0.0341
-1 11 9 -0.1801 -0.0389
-1 11 10 -0.4899 -0.0064
-1 11 11 0.4961 0.0212
-1 12 1 -0.2924 -0.0633
-1 12 2 -0.3357 -0.0557
-1 12 3 0.1419 -0.0447
-1 12 4 -0.0055 -0.0189
-1 12 5 0.2174 -0.0257
-1 12 6 0.5722 -0.0172
-1 12 7 0.1623 -0.0181
-1 12 8 -0.2174 0.0180
-1 12 9 -0.3227 -0.0368
-1 12 10 0.5498 0.0032
-1 12 11 -0.5636 0.0926
-1 13 1 0.1094 0.0307
-1 13 2 0.2979 -0.0139
-1 13 3 -0.3514 0.0107
-1 13 4 0.3230 -0.0261
-1 13 5 -0.5192 -0.0219
-1 13 6 0.2722 -0.0363
-1 13 7 -0.7933 -0.0157
-1 13 8 0.9863 0.0344
-1 13 9 -0.7818 0.0387
0 -12 1 0.1393 -0.0650
0 -12 2 0.3909 -0.0157
0 -11 1 -0.2267 -0.0207
0 -11 2 -0.2391 -0.0030
0 -11 3 -0.0814 -0.0045
0 -10 1 0.6128 -0.0093
0 -10 2 0.2266 0.0341
0 -10 3 0.3709 -0.0124
0 -10 4 0.0891 0.0229
0 -9 1 -0.7334 -0.0239
0 -9 2 -0.6845 0.0283
0 -9 3 -0.4209 0.0114
0 -9 4 -0.5698 -0.0098
0 -9 5 -0.8706 0.0013
0 -8 1 0.3954 -0.0532
0 -8 2 0.7008 0.0100
0 -8 3 0.3612 -0.0216
0 -8 4 0.0472 0.0059
0 -8 5 0.7767 -0.0168
0 -8 6 0.2093 0.0050
0 -7 1 -0.0363 -0.0538
0 -7 2 -0.3809 0.0186
0 -7 3 0.0025 -0.0291
0 -7 4 0.6135 0.0008
0 -7 5 0.4003 -0.0043
0 -7 6 -0.2387 0.0029
0 -7 7 0.0315 0.0115
0 -6 1 -0.0107 -0.0409
0 -6 2 -0.3053 0.0410
0 -6 3 -0.5303 -0.0168
0 -6 4 -0.2144 0.0209
0 -6 5 -0.8759 -0.0013
0 -6 6 0.0871 0.0215
0 -6 7 0.5282 -0.0314
0 -6 8 -0.3529 0.0094
0 -5 1 1.0259 -0.0664
0 -5 2 1.4002 0.0730
0 -5 3 1.4333 -0.0320
0 -5 4 -0.7752 0.0441
0 -5 5 0.6306 -0.0155
0 -5 6 -0.2080 0.0165
0 -5 7 -0.6231 0.0059
0 -5 8 0.3116 -0.0117
0 -5 9 -0.4914 0.0140
0 -4 1 -2.1587 -0.0563
0 -4 2 -2.5750 0.1115
0 -4 3 -1.7106 -0.0706
0 -4 4 1.3820 0.0496
0 -4 5 -0.1542 -0.0323
0 -4 6 -0.3129 -0.0132
0 -4 7 0.4612 0.0037
0 -4 8 -0.5227 -0.0118
0 -4 9 -0.0899 0.0193
0 -4 10 -0.3522 0.0421
0 -3 1 -0.1225 -0.1374
0 -3 2 0.8808 0.0960
0 -3 3 0.4222 -0.1442
0 -3 4 -0.5186 0.0704
0 -3 5 -0.3553 -0.0542
0 -3 6 0.8321 0.0042
0 -3 7 -0.4250 0.0001
0 -3 8 0.3037 0.0138
0 -3 9 0.1665 -0.0288
0 -3 10 -0.5364 -0.0092
0 -3 11 -0.1215 -0.0370
0 -2 1 4.7282 -0.3060
0 -2 2 6.7252 0.1920
0 -2 3 0.7933 -0.2276
0 -2 4 -2.9058 0.1446
0 -2 5 0.1564 -0.0703
0 -2 6 -0.3902 0.0568
0 -2 7 0.1260 -0.0340
0 -2 8 0.5362 0.0254
0 -2 9 0.9443 -0.0118
0 -2 10 0.6429 0.0045
0 -2 11 0.5029 0.0173
0 -1 1 -7.3366 -0.2212
0 -1 2 -17.6293 0.4359
0 -1 3 1.8092 -0.2261
0 -1 4 4.5011 0.1969
0 -1 5 1.4902 -0.1307
0 -1 6 0.2128 0.0886
0 -1 7 -0.4740 -0.0374
0 -1 8 -1.1090 0.0145
0 -1 9 -1.1717 0.0114
0 -1 10 -0.8759 -0.0122
0 -1 11 -0.1573 0.0092
0 -1 12 -0.0712 0.0346
0 0 2 18.0535 0.2495
0 0 3 0.0339 -0.2329
0 0 4 -4.0528 0.2527
0 0 5 -1.6822 -0.2005
0 0 6 -0.3645 0.1252
0 0 7 1.0671 -0.0388
0 0 8 0.7824 -0.0153
0 0 9 0.5749 0.0202
0 0 10 0.8230 -0.0173
0 0 11 0.0426 0.0289
0 0 12 0.1492 -0.0259
0 1 2 -15.6986 0.1164
0 1 3 -5.4540 -0.3221
0 1 4 1.6803 0.2745
0 1 5 -1.0892 -0.2373
0 1 6 0.8141 0.1261
0 1 7 -0.8021 -0.0434
0 1 8 -0.2626 -0.0323
0 1 9 0.2851 0.0579
0 1 10 -0.5926 -0.0458
0 1 11 -0.0201 0.0290
0 1 12 -0.0097 -0.0367
0 1 13 0.0308 -0.0854
0 2 0 17.3957 0.2441
0 2 1 15.8157 0.2819
0 2 2 10.1228 0.1750
0 2 3 11.4708 -0.2881
0 2 4 0.4745 0.2968
0 2 5 4.3424 -0.2137
0 2 6 -1.2487 0.1350
0 2 7 -0.1660 -0.0498
0 2 8 -0.0004 -0.0376
0 2 9 -0.8570 0.0849
0 2 10 -0.0076 -0.0887
0 2 11 0.0932 0.0364
0 2 12 -0.4097 -0.0240
0 2 13 -0.2256 0.0146
0 3 0 3.4047 -0.0627
0 3 1 -8.1765 0.0527
0 3 2 -8.2870 0.0319
0 3 3 -10.8547 -0.1862
0 3 4 -0.5306 0.2519
0 3 5 -5.6079 -0.2122
0 3 6 1.2765 0.1480
0 3 7 0.3937 -0.0345
0 3 8 0.1226 -0.0375
0 3 9 0.7153 0.0877
0 3 10 0.6141 -0.0943
0 3 11 -0.0535 0.0603
0 3 12 0.4687 0.0080
0 3 13 0.1938 0.0483
0 4 0 -4.9897 -0.1698
0 4 1 0.1674 0.0036
0 4 2 5.6588 0.0324
0 4 3 6.0089 -0.1030
0 4 4 -0.0712 0.1851
0 4 5 2.1678 -0.2405
0 4 6 0.8605 0.1255
0 4 7 -0.4168 -0.0535
0 4 8 -0.1546 -0.0286
0 4 9 0.1722 0.0970
0 4 10 -0.6850 -0.1009
0 4 11 0.0120 0.0752
0 4 12 -0.1485 -0.0267
0 4 13 0.2216 -0.0327
0 4 14 0.1218 -0.1075
0 5 0 -0.7098 0.0172
0 5 1 0.5639 0.0277
0 5 2 -1.6346 -0.0183
0 5 3 -2.1256 -0.0251
0 5 4 0.4177 0.1504
0 5 5 -0.1257 -0.1528
0 5 6 -1.6203 0.1413
0 5 7 -0.3876 -0.0621
0 5 8 -0.3063 -0.0281
0 5 9 -0.0837 0.0656
0 5 10 -0.3051 -0.1080
0 5 11 0.0231 0.0802
0 5 12 0.0345 -0.0205
0 5 13 -0.3374 -0.0445
0 6 0 2.2006 -0.0888
0 6 1 0.4005 0.0410
0 6 2 -1.2351 -0.0595
0 6 3 0.9843 -0.0237
0 6 4 0.9590 0.0789
0 6 5 0.8418 -0.1209
0 6 6 1.9000 0.1568
0 6 7 1.4538 -0.0745
0 6 8 0.4139 0.0022
0 6 9 0.5390 0.0738
0 6 10 0.3692 -0.0791
0 6 11 0.1644 0.0785
0 6 12 0.1832 -0.0157
0 6 13 -0.4335 -0.0441
0 7 0 -0.3926 -0.0806
0 7 1 -0.1829 0.0389
0 7 2 2.1978 -0.0265
0 7 3 -1.1640 -0.0172
0 7 4 -2.4027 0.0240
0 7 5 -1.9736 -0.1085
0 7 6 -1.5583 0.1157
0 7 7 -1.7161 -0.0786
0 7 8 -0.7438 0.0079
0 7 9 -0.8003 0.0549
0 7 10 -0.4608 -0.0609
0 7 11 -0.4006 0.0656
0 7 12 -0.1653 -0.0369
0 8 0 -0.6212 0.0258
0 8 1 -0.2805 0.0232
0 8 2 -0.5246 0.0056
0 8 3 0.4721 0.0142
0 8 4 2.1132 0.0231
0 8 5 2.2744 -0.0580
0 8 6 0.0607 0.0616
0 8 7 1.2041 -0.0649
0 8 8 0.6939 0.0287
0 8 9 0.8034 0.0061
0 8 10 0.4675 -0.0645
0 8 11 0.7378 0.0261
0 8 12 -0.0199 -0.0628
0 9 0 0.4471 -0.0925
0 9 1 -0.2129 0.0608
0 9 2 -0.2924 0.0031
0 9 3 -0.4644 0.0204
0 9 4 -0.5988 0.0229
0 9 5 -1.4689 -0.0305
0 9 6 -0.0124 0.0433
0 9 7 -0.4331 -0.0703
0 9 8 -0.3517 0.0326
0 9 9 -0.6013 -0.0008
0 9 10 -0.0278 -0.0352
0 9 11 -0.3312 0.0371
0 9 12 0.1267 -0.0287
0 9 13 -0.9413 0.0237
0 10 0 0.1707 -0.0792
0 10 1 0.5031 0.0629
0 10 2 0.1408 -0.0243
0 10 3 0.4535 -0.0251
0 10 4 -0.1506 0.0115
0 10 5 0.5785 -0.0053
0 10 6 0.6343 0.0316
0 10 7 0.3970 -0.0411
0 10 8 0.2447 0.0346
0 10 9 0.2063 -0.0119
0 10 10 -0.2776 -0.0085
0 10 11 -0.3872 0.0494
0 10 12 -0.0377 0.0146
0 11 0 -0.3394 0.0582
0 11 1 0.1589 -0.0054
0 11 2 -0.0015 -0.0447
0 11 3 -0.0846 -0.0289
0 11 4 -0.0738 0.0100
0 11 5 -0.1293 -0.0147
0 11 6 -0.7581 0.0244
0 11 7 -0.2190 -0.0086
0 11 8 -0.3835 0.0310
0 11 9 0.1519 -0.0129
0 11 10 -0.1097 0.0205
0 11 11 0.6144 0.0573
0 11 12 -0.5607 -0.0390
0 12 0 0.1525 0.0244
0 12 1 -0.9588 0.0042
0 12 2 -0.5805 0.0081
0 12 3 0.0334 0.0217
0 12 4 0.2495 0.0142
0 12 5 0.2129 -0.0180
0 12 6 0.3844 0.0016
0 12 7 0.2375 -0.0088
0 12 8 -0.0799 0.0359
0 12 9 0.1608 0.0122
0 12 10 0.3202 -0.0032
0 12 11 -0.5557 0.0021
0 12 12 1.0852 -0.1319
0 13 1 1.3968 0.0000
0 13 2 0.0727 -0.0312
0 13 3 0.6692 0.0250
0 13 4 -0.5006 0.0195
0 13 5 0.0959 0.0121
0 13 6 0.1143 0.0314
0 13 7 -0.1909 0.0040
0 13 8 0.6239 0.0215
0 13 9 -0.8364 -0.0729
0 13 10 0.1107 -0.0717
0 13 11 0.1644 -0.0818
0 14 4 0.3630 -0.0366
0 14 5 -0.9495 -0.0804
0 14 6 0.1960 -0.0466
0 14 8 -0.1092 -0.0377
0 14 9 0.4966 -0.0657
1 -13 0 -0.6757 0.1456
1 -12 0 0.8010 -0.0397
1 -12 1 -0.0617 0.0144
1 -12 2 -0.1103 0.0121
1 -11 0 -0.3786 -0.0976
1 -11 1 -0.0519 -0.0158
1 -11 2 0.3246 -0.0271
1 -11 3 0.5390 -0.0072
1 -10 0 -0.0191 0.0945
1 -10 1 0.3393 0.0146
1 -10 2 -0.1859 0.0237
1 -10 3 -0.4658 0.0008
1 -10 4 0.3104 0.0086
1 -9 0 0.0601 0.1200
1 -9 1 -1.0401 -0.0366
1 -9 2 -0.2409 0.0395
1 -9 3 -0.1172 -0.0103
1 -9 4 -0.3796 0.0151
1 -9 5 -0.4800 -0.0008
1 -8 0 0.4107 -0.0490
1 -8 1 1.1199 -0.0666
1 -8 2 0.6926 0.0160
1 -8 3 0.4143 -0.0130
1 -8 4 -0.4220 -0.0178
1 -8 5 0.3005 -0.0226
1 -8 6 -0.0877 0.0218
1 -7 0 -1.3688 0.0650
1 -7 1 -0.6965 -0.0649
1 -7 2 -0.8674 0.0134
1 -7 3 -0.3259 -0.0278
1 -7 4 0.8229 0.0144
1 -7 5 0.3446 -0.0077
1 -7 6 -0.3054 -0.0054
1 -7 7 0.3569 -0.0199
1 -6 0 2.5786 0.1335
1 -6 1 -0.1482 -0.0550
1 -6 2 0.1961 0.0416
1 -6 3 0.2263 -0.0246
1 -6 4 0.2309 0.0157
1 -6 5 -0.4834 0.0003
1 -6 6 0.4621 0.0264
1 -6 7 0.5588 0.0099
1 -6 8 -0.5072 0.0042
1 -5 0 -0.0028 0.0283
1 -5 1 1.2509 -0.0582
1 -5 2 1.1675 0.0951
1 -5 3 0.4952 -0.0345
1 -5 4 -1.7142 0.0430
1 -5 5 0.1900 -0.0202
1 -5 6 -0.3021 0.0100
1 -5 7 -0.3440 -0.0150
1 -5 8 0.2640 0.0160
1 -5 9 -0.0623 0.0282
1 -4 0 -8.1907 0.1472
1 -4 1 -1.8461 -0.0879
1 -4 2 -2.4032 0.0842
1 -4 3 -0.4067 -0.0414
1 -4 4 2.1784 0.0493
1 -4 5 0.3083 -0.0383
1 -4 6 -0.2861 0.0303
1 -4 7 0.2342 -0.0102
1 -4 8 -0.6563 -0.0307
1 -4 9 -0.1701 0.0084
1 -4 10 -0.2941 -0.0251
1 -3 0 11.7293 0.0686
1 -3 1 3.7195 -0.0786
1 -3 2 2.0864 0.0675
1 -3 3 -0.3810 -0.1183
1 -3 4 -0.6869 0.0957
1 -3 5 -1.3067 -0.0858
1 -3 6 0.2383 0.0293
1 -3 7 -0.3550 -0.0117
1 -3 8 0.1420 0.0043
1 -3 9 0.1188 0.0028
1 -3 10 -0.4968 0.0027
1 -3 11 0.3317 -0.0444
1 -2 0 5.5134 -0.0318
1 -2 1 -9.1471 -0.1501
1 -2 2 0.4100 0.1755
1 -2 3 -2.9589 -0.2413
1 -2 4 -2.6775 0.1542
1 -2 5 1.8589 -0.1210
1 -2 6 0.5686 0.0529
1 -2 7 0.6391 -0.0232
1 -2 8 0.9488 0.0098
1 -2 9 0.7085 0.0014
1 -2 10 0.0812 -0.0098
1 -2 11 0.0569 0.0344
1 -2 12 -0.3740 0.0458
1 -1 1 12.9553 -0.5040
1 -1 2 -2.2359 0.3543
1 -1 3 10.5134 -0.2841
1 -1 4 4.9460 0.2111
1 -1 5 -0.4151 -0.1199
1 -1 6 -1.3962 0.0876
1 -1 7 -1.8458 -0.0280
1 -1 8 -1.3563 -0.0073
1 -1 9 -0.8265 0.0235
1 -1 10 -0.5324 -0.0302
1 -1 11 0.7966 0.0457
1 -1 12 0.2971 -0.0322
1 0 2 -2.6476 0.4159
1 0 3 -11.2726 -0.2203
1 0 4 -7.4907 0.2170
1 0 5 0.1571 -0.1545
1 0 6 1.4456 0.1055
1 0 7 2.5677 -0.0285
1 0 8 1.1382 -0.0269
1 0 9 0.4721 0.0667
1 0 10 0.8724 -0.0432
1 0 11 -0.8627 0.0132
1 0 12 -0.2748 -0.0388
1 0 13 -0.4972 0.0742
1 1 3 8.0542 -0.2292
1 1 4 8.5667 0.2638
1 1 5 -1.0764 -0.1914
1 1 6 0.5640 0.1077
1 1 7 -1.8923 -0.0173
1 1 8 -0.2096 -0.0506
1 1 9 0.0087 0.0813
1 1 10 -0.2883 -0.0848
1 1 11 0.4453 0.0483
1 1 12 0.2560 -0.0249
1 1 13 0.0957 -0.0347
1 2 0 9.4306 -0.0607
1 2 1 1.4799 0.1180
1 2 2 -7.9117 -0.0481
1 2 3 -2.3836 -0.2785
1 2 4 -8.4755 0.2540
1 2 5 0.4498 -0.2114
1 2 6 -3.0781 0.1058
1 2 7 -0.3606 -0.0143
1 2 8 -0.4120 -0.0738
1 2 9 -1.1360 0.1009
1 2 10 -0.3395 -0.0953
1 2 11 -0.3183 0.0527
1 2 12 -0.8518 0.0192
1 2 13 0.2763 -0.0262
1 3 0 4.9576 0.0380
1 3 1 -2.8044 0.1635
1 3 2 1.5394 0.0150
1 3 3 0.4228 -0.1716
1 3 4 7.3084 0.2084
1 3 5 0.0075 -0.2194
1 3 6 4.3913 0.0929
1 3 7 1.4503 -0.0115
1 3 8 0.7369 -0.0713
1 3 9 1.3617 0.1102
1 3 10 0.8370 -0.1067
1 3 11 0.0797 0.0459
1 3 12 1.0253 0.0060
1 3 13 -0.2674 -0.0133
1 4 0 -3.8493 -0.1300
1 4 1 0.5774 -0.0093
1 4 2 2.5807 0.0002
1 4 3 0.2343 -0.0164
1 4 4 -5.6426 0.1583
1 4 5 -1.2137 -0.1568
1 4 6 -1.5576 0.1067
1 4 7 -1.6595 0.0004
1 4 8 -0.3905 -0.0737
1 4 9 -0.4349 0.1050
1 4 10 -0.8649 -0.1007
1 4 11 0.1428 0.0724
1 4 12 -0.2038 0.0007
1 4 13 0.3578 -0.0549
1 4 14 -0.0149 -0.0446
1 5 0 -1.2062 -0.0810
1 5 1 -0.2290 -0.0175
1 5 2 -0.8254 -0.0116
1 5 3 -0.1030 0.0103
1 5 4 3.3557 0.0838
1 5 5 1.4761 -0.1147
1 5 6 -0.3231 0.1060
1 5 7 0.5458 -0.0106
1 5 8 0.4390 -0.0394
1 5 9 0.1123 0.1054
1 5 10 0.2535 -0.0875
1 5 11 -0.1075 0.0717
1 5 12 -0.2343 -0.0225
1 5 13 -0.6904 -0.0669
1 5 14 0.2205 0.0820
1 6 0 2.0276 -0.0184
1 6 1 0.5818 0.0712
1 6 2 -1.0206 -0.0097
1 6 3 1.1064 -0.0150
1 6 4 -0.0601 0.0491
1 6 5 -0.5484 -0.0672
1 6 6 0.5114 0.0982
1 6 7 -0.1816 -0.0564
1 6 8 -0.9481 -0.0264
1 6 9 -0.1251 0.0768
1 6 10 -0.3620 -0.0897
1 6 11 0.1182 0.0572
1 6 12 0.4334 -0.0253
1 6 13 -0.0093 -0.0240
1 6 14 0.2593 0.1096
1 7 0 -0.4100 -0.0816
1 7 1 -0.4786 0.0264
1 7 2 0.6682 -0.0251
1 7 3 -2.5948 -0.0065
1 7 4 -2.7191 0.0058
1 7 5 -0.6866 -0.0587
1 7 6 0.1223 0.0811
1 7 7 0.2041 -0.0672
1 7 8 0.7478 -0.0087
1 7 9 0.2330 0.0426
1 7 10 0.1415 -0.0970
1 7 11 -0.4445 0.0632
1 7 12 0.0817 -0.0261
1 7 13 -0.2856 0.0057
1 8 0 -0.5382 -0.0379
1 8 1 0.4584 0.0237
1 8 2 0.6758 -0.0010
1 8 3 1.9918 -0.0149
1 8 4 2.6703 -0.0014
1 8 5 1.1404 -0.0612
1 8 6 -1.1806 0.0425
1 8 7 -0.0686 -0.0579
1 8 8 -0.2751 0.0163
1 8 9 0.1057 0.0392
1 8 10 0.2245 -0.0631
1 8 11 0.7819 0.0594
1 8 12 -0.2769 -0.0346
1 9 0 0.5388 -0.0070
1 9 1 -0.3305 0.0829
1 9 2 -0.9133 -0.0272
1 9 3 -1.2563 0.0006
1 9 4 -0.5143 0.0250
1 9 5 -0.6228 -0.0231
1 9 6 1.0565 0.0276
1 9 7 0.7392 -0.0339
1 9 8 0.2655 0.0255
1 9 9 0.0709 0.0188
1 9 10 0.1471 -0.0386
1 9 11 -0.4962 0.0687
1 9 12 0.0300 -0.0193
1 9 13 -0.5909 -0.0056
1 10 0 -0.3216 -0.0530
1 10 1 -0.1396 0.0367
1 10 2 0.3218 -0.0399
1 10 3 0.8028 0.0033
1 10 4 -0.4370 0.0330
1 10 5 0.2571 -0.0049
1 10 6 -0.4645 0.0254
1 10 7 -0.7262 -0.0110
1 10 8 -0.5383 0.0220
1 10 9 -0.6661 0.0117
1 10 10 -0.6070 -0.0180
1 10 11 -0.0073 0.0435
1 10 12 0.3475 -0.0508
1 10 13 0.5100 0.0134
1 11 0 0.4371 -0.0009
1 11 1 0.4825 -0.0030
1 11 2 0.3092 -0.0267
1 11 3 -0.2961 0.0094
1 11 4 0.0011 0.0159
1 11 5 -0.0415 -0.0017
1 11 6 -0.1767 0.0244
1 11 7 0.2794 0.0007
1 11 8 0.1385 0.0105
1 11 9 0.3594 0.0008
1 11 10 0.1777 -0.0221
1 11 11 -0.1262 0.0227
1 11 12 -0.9732 -0.0718
1 11 13 -0.5043 0.0206
1 12 1 -0.9139 0.0226
1 12 2 -0.5062 -0.0306
1 12 3 0.0051 0.0206
1 12 4 0.4956 -0.0048
1 12 5 -0.1830 -0.0141
1 12 6 0.1580 0.0043
1 12 7 0.0042 -0.0133
1 12 8 -0.2891 -0.0028
1 12 9 0.3154 -0.0375
1 12 10 0.3541 -0.0322
1 12 11 0.3128 0.0173
1 12 12 1.5731 -0.0246
1 12 13 0.1608 0.0991
1 13 2 -0.4339 0.0067
1 13 3 1.1041 0.0153
1 13 4 -1.1420 -0.0204
1 13 5 0.9946 -0.0589
1 13 6 0.1567 -0.0191
1 13 7 0.8032 -0.0437
1 13 8 0.4895 -0.0109
1 13 9 0.4717 -0.0167
1 13 10 -0.1764 0.0045
1 13 11 -0.1049 0.0432
1 14 5 -1.1205 0.0518
1 14 6 -0.2574 0.0803
1 14 7 -1.8263 0.0519
1 14 8 -0.0502 0.0787
1 14 9 -1.2506 0.0468
2 -12 0 0.8048 -0.0759
2 -12 1 0.0891 0.0001
2 -11 0 -0.4175 0.0225
2 -11 1 -0.4436 0.0429
2 -11 2 0.0278 0.0113
2 -11 3 -0.2013 0.0193
2 -10 0 0.1524 0.0314
2 -10 1 0.3848 -0.0270
2 -10 2 0.3296 -0.0198
2 -10 3 0.1393 0.0039
2 -10 4 0.7907 -0.0091
2 -9 0 -0.0781 0.0380
2 -9 1 -0.7491 -0.0319
2 -9 2 -0.1427 0.0283
2 -9 3 -0.5386 -0.0136
2 -9 4 -0.1701 0.0213
2 -9 5 0.1991 0.0021
2 -9 6 0.7259 0.0059
2 -8 0 0.6118 0.0402
2 -8 1 0.3269 -0.0346
2 -8 2 -0.0837 0.0485
2 -8 3 -0.0327 0.0029
2 -8 4 -0.9320 -0.0179
2 -8 5 -0.5813 -0.0058
2 -8 6 -1.1533 0.0018
2 -8 7 -0.8544 -0.0159
2 -7 0 -1.5461 0.0519
2 -7 1 0.3247 -0.0907
2 -7 2 0.3820 0.0030
2 -7 3 0.7848 -0.0215
2 -7 4 1.3601 -0.0066
2 -7 5 0.6706 -0.0095
2 -7 6 0.5963 0.0043
2 -7 7 1.1134 -0.0300
2 -7 8 0.3322 0.0269
2 -6 0 2.2810 0.1432
2 -6 1 -1.2818 -0.0851
2 -6 2 -0.7041 0.0412
2 -6 3 -0.7879 -0.0431
2 -6 4 -0.4268 0.0163
2 -6 5 -0.7321 -0.0107
2 -6 6 0.1964 0.0208
2 -6 7 -0.5230 0.0122
2 -6 8 -1.0407 -0.0021
2 -6 9 0.2673 0.0079
2 -5 0 -0.3655 0.1583
2 -5 1 1.6657 -0.0824
2 -5 2 1.2822 0.1129
2 -5 3 0.6530 -0.0224
2 -5 4 -1.2761 0.0321
2 -5 5 0.7181 0.0097
2 -5 6 0.0706 0.0017
2 -5 7 0.2443 -0.0061
2 -5 8 0.8527 0.0064
2 -5 9 0.6377 0.0144
2 -5 10 0.5089 -0.0288
2 -4 0 -4.8064 0.1638
2 -4 1 1.0126 -0.1193
2 -4 2 -1.2408 0.0837
2 -4 3 0.7912 -0.0096
2 -4 4 2.1174 0.0198
2 -4 5 -0.0247 -0.0272
2 -4 6 -0.5282 0.0319
2 -4 7 0.0982 -0.0295
2 -4 8 -0.7191 0.0007
2 -4 9 -0.1909 -0.0047
2 -4 10 -0.6527 -0.0244
2 -4 11 -0.2819 0.0070
2 -3 0 9.3136 0.2147
2 -3 1 -2.2834 -0.1006
2 -3 2 -1.7248 0.0429
2 -3 3 -3.0662 -0.0882
2 -3 4 -1.1946 0.0675
2 -3 5 -1.6171 -0.0837
2 -3 6 0.2727 0.0495
2 -3 7 0.0137 -0.0278
2 -3 8 -0.2937 0.0055
2 -3 9 -0.0585 0.0129
2 -3 10 -0.0655 -0.0084
2 -3 11 0.2231 0.0246
2 -2 0 -2.0417 0.1501
2 -2 1 -7.4976 -0.2247
2 -2 2 5.2704 0.1254
2 -2 3 1.5488 -0.1645
2 -2 4 0.1267 0.1152
2 -2 5 2.6808 -0.0999
2 -2 6 0.3672 0.0557
2 -2 7 -0.0521 -0.0145
2 -2 8 0.6922 -0.0086
2 -2 9 0.2409 0.0251
2 -2 10 -0.4220 -0.0203
2 -2 11 0.2719 0.0257
2 -2 12 -0.2231 -0.0041
2 -1 0 -17.3413 0.1435
2 -1 1 24.0625 -0.3550
2 -1 2 -3.2658 0.2769
2 -1 3 3.6142 -0.1955
2 -1 4 -0.4993 0.1371
2 -1 5 -2.6938 -0.0869
2 -1 6 -1.5179 0.0505
2 -1 7 -0.8599 -0.0167
2 -1 8 -0.0163 -0.0178
2 -1 9 0.1441 0.0383
2 -1 10 0.0656 -0.0498
2 -1 11 0.9607 0.0292
2 -1 12 0.0619 -0.0582
2 0 0 25.3384 0.2374
2 0 1 -31.5183 -0.1867
2 0 2 -5.9154 0.3398
2 0 3 -4.7981 -0.2054
2 0 4 -0.1987 0.1545
2 0 5 4.6850 -0.0594
2 0 6 1.8512 0.0459
2 0 7 1.6431 -0.0002
2 0 8 -0.4080 -0.0427
2 0 9 -0.5656 0.0668
2 0 10 0.1435 -0.0809
2 0 11 -1.1157 0.0460
2 0 12 -0.1863 -0.0138
2 0 13 -0.0265 0.0670
2 1 0 -11.4669 0.0477
2 1 1 28.5536 -0.0246
2 1 2 12.8725 0.1949
2 1 3 4.1104 -0.1347
2 1 4 1.2475 0.1526
2 1 5 -6.2308 -0.0984
2 1 6 0.1028 0.0349
2 1 7 -1.5264 0.0143
2 1 8 1.0880 -0.0579
2 1 9 0.7384 0.0959
2 1 10 0.3957 -0.0718
2 1 11 0.4934 0.0684
2 1 12 0.1691 -0.0110
2 1 13 0.0816 -0.0062
2 2 0 -10.3813 -0.0760
2 2 1 -15.2170 0.0140
2 2 2 -15.9638 -0.0699
2 2 3 -2.8247 -0.1503
2 2 4 -3.7757 0.1303
2 2 5 3.3523 -0.1365
2 2 6 -2.1652 0.0468
2 2 7 -0.3935 0.0279
2 2 8 -1.0018 -0.0825
2 2 9 -1.5697 0.1020
2 2 10 -0.3140 -0.0949
2 2 11 -0.5447 0.0488
2 2 12 -0.5242 0.0080
2 2 13 0.1579 -0.0500
2 3 0 13.5941 0.0270
2 3 1 6.7144 0.0431
2 3 2 7.7268 -0.0931
2 3 3 4.3286 -0.1313
2 3 4 6.8715 0.1335
2 3 5 -0.0411 -0.1286
2 3 6 3.9323 0.0494
2 3 7 1.0669 0.0313
2 3 8 0.7728 -0.0965
2 3 9 1.1657 0.1121
2 3 10 0.3349 -0.1018
2 3 11 0.2196 0.0464
2 3 12 0.6468 0.0007
2 3 13 -0.0297 -0.0743
2 3 14 0.6624 0.0535
2 4 0 -5.7776 0.0022
2 4 1 -1.8884 0.0272
2 4 2 -1.4530 0.0213
2 4 3 -3.8493 0.0510
2 4 4 -7.5919 0.0899
2 4 5 -2.0031 -0.0805
2 4 6 -1.8129 0.0485
2 4 7 -1.3948 0.0364
2 4 8 0.0300 -0.0897
2 4 9 0.0465 0.1133
2 4 10 -0.3498 -0.0874
2 4 11 0.2902 0.0353
2 4 12 0.0741 0.0136
2 4 13 0.0376 -0.0547
2 4 14 -0.3699 0.0860
2 5 0 -0.9776 -0.0967
2 5 1 0.2225 0.0099
2 5 2 1.5558 0.0190
2 5 3 2.3966 0.0647
2 5 4 4.9559 0.0324
2 5 5 1.6910 -0.0534
2 5 6 -0.0542 0.0522
2 5 7 0.4311 0.0168
2 5 8 0.2227 -0.0709
2 5 9 -0.7257 0.1000
2 5 10 0.1160 -0.0906
2 5 11 -0.4756 0.0430
2 5 12 -0.1886 0.0183
2 5 13 -0.5816 -0.0573
2 5 14 0.3910 0.0823
2 5 15 -0.8402 -0.1396
2 6 0 1.8108 -0.0606
2 6 1 0.2460 0.0402
2 6 2 -2.0575 -0.0153
2 6 3 -0.3321 -0.0114
2 6 4 -1.5755 -0.0207
2 6 5 -1.0199 -0.0279
2 6 6 -0.1292 0.0176
2 6 7 -0.3787 -0.0078
2 6 8 -0.7538 -0.0611
2 6 9 0.5861 0.0831
2 6 10 0.0561 -0.0726
2 6 11 0.4203 0.0478
2 6 12 0.0482 0.0023
2 6 13 -0.0228 -0.0388
2 6 14 0.2158 0.0830
2 7 0 -0.3464 -0.0206
2 7 1 -0.5417 0.0704
2 7 2 0.4958 -0.0234
2 7 3 -1.4769 -0.0308
2 7 4 -0.6759 -0.0255
2 7 5 1.1228 0.0032
2 7 6 1.3355 0.0174
2 7 7 0.5880 -0.0168
2 7 8 0.6452 -0.0195
2 7 9 -0.2690 0.0516
2 7 10 -0.4932 -0.0674
2 7 11 -0.6591 0.0483
2 7 12 0.6614 -0.0037
2 7 13 -0.5033 -0.0176
2 7 14 0.5717 0.0517
2 8 0 -0.5638 -0.0642
2 8 1 0.7638 0.0275
2 8 2 0.6348 -0.0488
2 8 3 1.2315 0.0012
2 8 4 0.6339 0.0043
2 8 5 -0.8953 0.0016
2 8 6 -1.8435 0.0215
2 8 7 -0.1321 -0.0193
2 8 8 0.1216 0.0113
2 8 9 0.3742 0.0496
2 8 10 0.6410 -0.0622
2 8 11 0.6544 0.0568
2 8 12 -0.4260 -0.0224
2 8 13 0.4181 -0.0342
2 9 0 0.6311 0.0006
2 9 1 -0.2673 0.0215
2 9 2 -0.9830 -0.0339
2 9 3 -0.1685 0.0219
2 9 4 0.7520 0.0207
2 9 5 0.4959 -0.0159
2 9 6 1.1150 0.0122
2 9 7 0.1932 0.0004
2 9 8 -0.5340 0.0071
2 9 9 -0.1855 0.0275
2 9 10 -0.1100 -0.0547
2 9 11 -0.3206 0.0515
2 9 12 0.0099 -0.0367
2 9 13 -0.1773 -0.0059
2 10 0 -0.6553 0.0062
2 10 1 -0.3781 0.0410
2 10 2 0.6096 -0.0138
2 10 3 -0.0111 0.0301
2 10 4 -1.1557 0.0237
2 10 5 -0.2796 -0.0144
2 10 6 -0.6958 0.0076
2 10 7 -0.2545 -0.0033
2 10 8 -0.0177 -0.0125
2 10 9 -0.3393 0.0137
2 10 10 -0.3760 -0.0464
2 10 11 0.0168 0.0366
2 10 12 -0.0363 -0.0488
2 10 13 0.1928 0.0221
2 11 0 0.6114 -0.0650
2 11 1 0.3981 0.0092
2 11 2 0.2917 -0.0312
2 11 3 -0.2049 0.0109
2 11 4 0.4151 -0.0108
2 11 5 0.2963 -0.0168
2 11 6 0.1192 -0.0122
2 11 7 0.3726 -0.0105
2 11 8 0.1577 -0.0282
2 11 9 0.2153 -0.0045
2 11 10 0.4757 -0.0251
2 11 11 -0.1431 0.0510
2 11 12 0.1859 -0.0221
2 11 13 -0.0662 0.0416
2 12 1 -0.1459 0.0547
2 12 2 -0.2455 -0.0330
2 12 3 0.1451 0.0145
2 12 4 0.4802 -0.0214
2 12 5 -0.2913 -0.0066
2 12 6 0.1885 0.0132
2 12 7 -0.2318 0.0061
2 12 8 -0.5075 -0.0011
2 12 9 -0.0314 0.0104
2 12 10 -0.2120 0.0161
2 12 11 0.0085 0.0311
2 12 12 0.1422 -0.0397
2 12 13 -0.5220 0.0324
2 13 1 0.3284 -0.0136
2 13 2 -0.7015 -0.0127
2 13 3 0.6228 0.0421
2 13 4 -1.4081 0.0152
2 13 5 0.8831 0.0260
2 13 6 -0.3090 0.0515
2 13 7 0.7974 0.0327
2 13 8 0.3510 0.0416
2 13 9 1.5022 0.0419
2 13 10 -0.2370 -0.0118
2 14 6 -0.1114 -0.0602
2 14 7 -0.9842 -0.0825
2 14 8 0.2023 -0.0582
2 14 9 -1.9402 -0.0589
2 14 10 -0.0515 -0.0272
2 14 11 0.0071 -0.0475
3 -12 0 0.1718 0.0497
3 -11 0 -0.0245 0.0102
3 -11 1 0.2828 -0.0083
3 -11 2 1.1344 0.0296
3 -11 3 0.3337 0.0039
3 -10 0 0.2351 -0.0041
3 -10 1 -0.4249 -0.0059
3 -10 2 -0.4419 0.0058
3 -10 3 -0.6559 0.0120
3 -10 4 0.0378 0.0084
3 -10 5 -0.4608 -0.0117
3 -9 0 0.5944 0.0164
3 -9 1 0.0604 -0.0123
3 -9 2 0.3252 -0.0010
3 -9 3 0.2617 -0.0206
3 -9 4 0.4552 -0.0108
3 -9 5 0.3504 0.0282
3 -9 6 0.3692 -0.0058
3 -8 0 -0.8661 0.0579
3 -8 1 -1.2028 -0.0588
3 -8 2 -0.6464 0.0450
3 -8 3 -0.7673 0.0048
3 -8 4 -0.9128 0.0025
3 -8 5 -0.4643 0.0049
3 -8 6 -0.5195 -0.0178
3 -8 7 0.5030 0.0063
3 -7 0 0.1383 0.1145
3 -7 1 2.5285 -0.0707
3 -7 2 1.7036 0.0357
3 -7 3 1.2397 -0.0079
3 -7 4 1.0076 -0.0193
3 -7 5 0.1846 0.0095
3 -7 6 0.1434 0.0201
3 -7 7 -0.1037 -0.0224
3 -7 8 -0.6844 0.0072
3 -6 0 0.7616 0.1474
3 -6 1 -3.0049 -0.1193
3 -6 2 -2.0667 0.0465
3 -6 3 -1.2343 -0.0471
3 -6 4 -0.6151 0.0069
3 -6 5 -0.3527 -0.0201
3 -6 6 0.3947 -0.0165
3 -6 7 -0.6155 -0.0069
3 -6 8 -0.0745 0.0198
3 -6 9 0.6501 0.0226
3 -5 0 0.6526 0.2590
3 -5 1 2.7313 -0.1525
3 -5 2 1.5654 0.1006
3 -5 3 0.9233 -0.0255
3 -5 4 -0.3126 -0.0069
3 -5 5 1.0141 0.0320
3 -5 6 0.4315 -0.0008
3 -5 7 0.4916 -0.0004
3 -5 8 0.9383 -0.0100
3 -5 9 0.0444 -0.0006
3 -5 10 -0.2677 -0.0027
3 -4 0 -3.4126 0.3270
3 -4 1 0.0949 -0.1648
3 -4 2 -1.4044 0.1043
3 -4 3 0.5118 0.0027
3 -4 4 0.7121 0.0068
3 -4 5 -1.1557 0.0083
3 -4 6 -1.2446 0.0215
3 -4 7 -0.3016 -0.0096
3 -4 8 -0.9676 0.0359
3 -4 9 0.1704 -0.0046
3 -4 10 -0.3298 -0.0046
3 -4 11 1.2065 -0.0318
3 -3 0 3.8643 0.3056
3 -3 1 -4.6596 -0.2772
3 -3 2 -0.8569 0.0987
3 -3 3 -2.0037 -0.0504
3 -3 4 0.5007 0.0207
3 -3 5 0.2119 -0.0357
3 -3 6 1.5883 0.0370
3 -3 7 0.9531 -0.0368
3 -3 8 -0.1319 0.0062
3 -3 9 0.2370 -0.0055
3 -3 10 0.1228 -0.0117
3 -3 11 -0.8394 0.0443
3 -2 0 2.2230 0.3003
3 -2 1 1.2525 -0.3212
3 -2 2 6.4939 0.1796
3 -2 3 1.9559 -0.1109
3 -2 4 -1.4088 0.0389
3 -2 5 0.5174 -0.0461
3 -2 6 -1.3417 0.0263
3 -2 7 -1.5977 -0.0255
3 -2 8 0.0194 -0.0147
3 -2 9 -0.4489 0.0242
3 -2 10 -0.6896 -0.0367
3 -2 11 0.6405 0.0047
3 -2 12 -0.0997 -0.0545
3 -1 0 -14.1329 0.2503
3 -1 1 14.7257 -0.1846
3 -1 2 -10.3761 0.1977
3 -1 3 -1.5451 -0.1057
3 -1 4 -0.0318 0.0529
3 -1 5 -1.4336 -0.0087
3 -1 6 0.1056 -0.0024
3 -1 7 1.2505 0.0126
3 -1 8 1.2565 -0.0230
3 -1 9 0.5893 0.0465
3 -1 10 0.5792 -0.0593
3 -1 11 0.7081 0.0531
3 -1 12 0.1426 -0.0041
3 -1 13 0.1478 0.0781
3 0 0 15.3607 0.3225
3 0 1 -26.2402 -0.2541
3 0 2 5.6962 0.1994
3 0 3 4.2323 -0.1066
3 0 4 1.7734 0.0478
3 0 5 3.8264 0.0062
3 0 6 -0.0233 -0.0334
3 0 7 -0.4787 0.0369
3 0 8 -1.8726 -0.0379
3 0 9 -1.0430 0.0640
3 0 10 -0.4045 -0.0595
3 0 11 -0.7855 0.0707
3 0 12 -0.3865 -0.0398
3 0 13 -0.0030 -0.0267
3 1 0 0.6351 0.4462
3 1 1 22.4514 -0.2894
3 1 2 1.6756 0.2139
3 1 3 -7.0919 -0.1278
3 1 4 -2.6096 0.0124
3 1 5 -4.8600 0.0182
3 1 6 2.5935 -0.0274
3 1 7 0.1813 0.0499
3 1 8 2.2595 -0.0630
3 1 9 1.3663 0.0733
3 1 10 0.4755 -0.0746
3 1 11 0.3362 0.0380
3 1 12 0.3257 0.0054
3 1 13 0.4529 -0.0019
3 1 14 -0.0730 0.0730
3 2 0 -13.3325 0.2776
3 2 1 -11.1803 -0.1525
3 2 2 -3.7417 0.0949
3 2 3 6.3080 -0.0553
3 2 4 1.0801 0.0531
3 2 5 2.4121 0.0002
3 2 6 -4.1724 -0.0319
3 2 7 -1.5193 0.0678
3 2 8 -1.5202 -0.0854
3 2 9 -1.7117 0.0895
3 2 10 0.0444 -0.0667
3 2 11 -0.6484 0.0436
3 2 12 -0.1919 -0.0068
3 2 13 -0.5124 -0.0478
3 2 14 -1.0188 0.0316
3 3 0 10.6920 0.1263
3 3 1 2.7927 -0.1655
3 3 2 -0.1280 -0.0112
3 3 3 -1.4144 -0.0285
3 3 4 3.1095 0.0480
3 3 5 -0.5640 -0.0053
3 3 6 4.2082 -0.0296
3 3 7 1.1941 0.0770
3 3 8 0.7461 -0.1013
3 3 9 0.6962 0.0953
3 3 10 0.0368 -0.0744
3 3 11 0.3218 0.0221
3 3 12 0.1671 0.0070
3 3 13 0.4966 -0.0675
3 3 14 0.7681 0.0603
3 4 0 -2.9614 0.0880
3 4 1 1.2064 -0.0651
3 4 2 0.8944 0.0165
3 4 3 -2.0181 -0.0145
3 4 4 -5.0493 0.0024
3 4 5 -0.7319 -0.0308
3 4 6 -0.7765 -0.0217
3 4 7 -0.7509 0.0560
3 4 8 0.4614 -0.0956
3 4 9 0.3190 0.0856
3 4 10 -0.2298 -0.0739
3 4 11 0.0446 0.0142
3 4 12 0.2475 0.0355
3 4 13 -0.3571 -0.0552
3 4 14 -0.0526 0.1010
3 5 0 -1.5787 0.0163
3 5 1 -0.5370 0.0322
3 5 2 1.3621 0.0681
3 5 3 2.0242 0.0550
3 5 4 3.1202 -0.0126
3 5 5 -0.1024 -0.0156
3 5 6 -1.2095 -0.0177
3 5 7 -0.5989 0.0375
3 5 8 -0.3711 -0.0811
3 5 9 -0.9302 0.0941
3 5 10 0.2304 -0.0585
3 5 11 0.0487 0.0256
3 5 12 -0.0006 0.0461
3 5 13 -0.0731 -0.0587
3 5 14 -0.0346 0.0790
3 5 15 -0.7590 -0.1061
3 6 0 1.6185 -0.0570
3 6 1 -0.0472 0.0280
3 6 2 -1.8616 0.0037
3 6 3 -0.3051 0.0015
3 6 4 -0.3672 -0.0356
3 6 5 0.5348 0.0244
3 6 6 1.0262 0.0054
3 6 7 0.9416 0.0433
3 6 8 0.3427 -0.0632
3 6 9 1.0738 0.0815
3 6 10 0.1004 -0.0486
3 6 11 -0.4061 0.0231
3 6 12 -0.5721 0.0270
3 6 13 -0.5000 -0.0692
3 6 14 0.2766 0.0546
3 6 15 -0.1232 -0.0590
3 7 0 -0.5458 -0.0320
3 7 1 -0.4193 0.0382
3 7 2 0.3093 -0.0570
3 7 3 -0.8268 -0.0469
3 7 4 -0.5377 -0.0080
3 7 5 0.5399 0.0346
3 7 6 0.1468 -0.0275
3 7 7 -0.9077 0.0280
3 7 8 -0.6710 -0.0407
3 7 9 -1.0621 0.0626
3 7 10 -0.5151 -0.0471
3 7 11 0.3201 0.0042
3 7 12 1.5881 0.0052
3 7 13 0.1127 -0.0552
3 7 14 1.2055 0.0594
3 7 15 -0.3076 -0.0445
3 8 0 -0.2573 -0.0128
3 8 1 0.5844 0.0468
3 8 2 0.1917 -0.0428
3 8 3 0.3330 0.0254
3 8 4 -0.1348 0.0135
3 8 5 -0.7134 0.0363
3 8 6 -0.7193 -0.0241
3 8 7 1.0319 0.0185
3 8 8 1.0526 -0.0234
3 8 9 0.7198 0.0279
3 8 10 0.4209 -0.0577
3 8 11 -0.3073 0.0274
3 8 12 -1.2105 0.0109
3 8 13 -0.6777 -0.0366
3 8 14 -1.0522 0.0610
3 9 0 0.2057 -0.0434
3 9 1 -0.2261 -0.0113
3 9 2 -0.3062 -0.0125
3 9 3 0.9904 0.0353
3 9 4 0.7094 0.0008
3 9 5 0.1657 -0.0083
3 9 6 0.1966 -0.0150
3 9 7 -0.6869 0.0137
3 9 8 -0.8058 -0.0118
3 9 9 -0.1947 0.0280
3 9 10 -0.0095 -0.0497
3 9 11 0.1726 0.0402
3 9 12 0.4311 -0.0049
3 9 13 0.5613 -0.0037
3 10 0 -0.1354 0.0321
3 10 1 -0.0626 0.0122
3 10 2 0.2531 -0.0203
3 10 3 -0.8837 0.0093
3 10 4 -0.8859 -0.0252
3 10 5 0.0084 -0.0314
3 10 6 -0.0928 -0.0190
3 10 7 0.3020 0.0050
3 10 8 0.0631 -0.0246
3 10 9 -0.1111 0.0255
3 10 10 0.0322 -0.0256
3 10 11 0.1806 0.0588
3 10 12 0.0390 -0.0291
3 10 13 0.2904 -0.0220
3 11 0 0.4472 0.0369
3 11 1 0.4466 0.0530
3 11 2 0.3457 -0.0098
3 11 3 0.0889 0.0309
3 11 4 0.3511 0.0058
3 11 5 0.0815 0.0098
3 11 6 -0.1189 0.0173
3 11 7 0.1506 0.0195
3 11 8 -0.1274 -0.0169
3 11 9 0.0421 0.0204
3 11 10 0.0670 -0.0075
3 11 11 -0.5466 0.0168
3 11 12 0.0871 -0.0375
3 11 13 -0.6529 0.0120
3 12 1 -0.5145 -0.0690
3 12 2 -0.3764 -0.0184
3 12 3 0.2122 0.0187
3 12 4 0.4814 -0.0004
3 12 5 0.2321 0.0091
3 12 6 0.2489 0.0196
3 12 7 0.0365 0.0123
3 12 8 -0.1090 -0.0153
3 12 9 0.1056 0.0168
3 12 10 -0.3113 -0.0266
3 12 11 0.3007 0.0009
3 12 12 -0.3015 -0.0173
3 12 13 0.1882 0.0616
3 13 1 -0.1382 0.0909
3 13 2 -0.1542 -0.0242
3 13 3 -0.1725 -0.0198
3 13 4 -1.3050 -0.0650
3 13 5 -0.0036 -0.0234
3 13 6 -0.5828 -0.0305
3 13 7 0.1917 -0.0345
3 13 8 0.0529 -0.0299
3 13 9 0.9138 -0.0091
3 13 10 -0.1427 -0.0213
3 13 11 0.1066 0.0159
3 13 12 0.1873 0.0114
3 14 5 0.4204 0.0603
3 14 6 0.3460 0.0625
3 14 7 0.1044 0.0530
3 14 8 0.1469 0.0632
3 14 9 -1.0754 0.0802
3 14 10 -0.0058 0.0297
4 -11 0 -0.4483 -0.0050
4 -11 1 0.1430 -0.0270
4 -11 2 0.8915 0.0521
4 -10 0 1.1303 0.0155
4 -10 1 -0.1015 0.0067
4 -10 2 -0.0851 0.0084
4 -10 3 -0.2466 -0.0086
4 -10 4 0.3791 0.0423
4 -9 0 0.4717 0.0280
4 -9 1 -0.5506 0.0005
4 -9 2 -0.1232 0.0361
4 -9 3 0.2973 0.0037
4 -9 4 -0.3070 -0.0000
4 -9 5 -0.0606 0.0355
4 -8 0 -1.5818 0.0474
4 -8 1 -0.7038 -0.0730
4 -8 2 0.0696 0.0183
4 -8 3 -0.7605 -0.0219
4 -8 4 -0.0629 0.0064
4 -8 5 0.1588 0.0184
4 -8 6 -0.1396 -0.0253
4 -8 7 0.5098 -0.0072
4 -7 0 1.7021 0.1291
4 -7 1 2.7285 -0.0955
4 -7 2 0.6911 0.0433
4 -7 3 0.2679 -0.0257
4 -7 4 0.3273 -0.0239
4 -7 5 -0.3656 -0.0122
4 -7 6 -0.2580 -0.0035
4 -7 7 -0.1849 -0.0045
4 -7 8 -0.0536 -0.0042
4 -6 0 -0.9460 0.2348
4 -6 1 -3.8097 -0.1078
4 -6 2 -1.6140 0.0837
4 -6 3 0.4470 -0.0261
4 -6 4 -0.0878 -0.0015
4 -6 5 0.3928 0.0191
4 -6 6 0.6776 -0.0295
4 -6 7 -0.7431 0.0098
4 -6 8 -0.0638 0.0167
4 -6 9 -0.3700 0.0092
4 -5 0 0.9052 0.3177
4 -5 1 2.7920 -0.2309
4 -5 2 1.7007 0.0909
4 -5 3 -0.0137 -0.0186
4 -5 4 -0.3142 -0.0213
4 -5 5 -0.0238 0.0464
4 -5 6 -0.0387 -0.0045
4 -5 7 -0.0744 -0.0022
4 -5 8 0.9104 0.0201
4 -5 9 0.1151 -0.0002
4 -4 0 -1.7406 0.3884
4 -4 1 0.4155 -0.3116
4 -4 2 -1.2194 0.1384
4 -4 3 -0.1715 -0.0221
4 -4 4 -0.3194 -0.0221
4 -4 5 -0.7271 0.0347
4 -4 6 -0.4443 -0.0072
4 -4 7 0.6288 0.0031
4 -4 8 -0.2171 0.0129
4 -4 9 0.4863 -0.0240
4 -4 10 -0.4542 0.0074
4 -3 0 0.3850 0.4508
4 -3 1 -4.2533 -0.3555
4 -3 2 0.0756 0.2387
4 -3 3 0.0103 -0.0418
4 -3 4 2.2428 -0.0266
4 -3 5 1.2386 0.0336
4 -3 6 1.1099 -0.0120
4 -3 7 -0.0750 -0.0299
4 -3 8 -1.2007 0.0193
4 -3 9 -0.2555 -0.0065
4 -3 10 -0.4656 -0.0096
4 -3 11 -1.1187 -0.0229
4 -2 0 4.5979 0.5190
4 -2 1 3.4961 -0.3849
4 -2 2 2.9794 0.2223
4 -2 3 -0.1757 -0.0953
4 -2 4 -3.7826 -0.0093
4 -2 5 -1.3534 0.0226
4 -2 6 -1.4905 -0.0220
4 -2 7 -0.9317 -0.0053
4 -2 8 1.0913 -0.0067
4 -2 9 0.2946 0.0016
4 -2 10 0.3436 -0.0307
4 -2 11 0.9934 0.0425
4 -2 12 0.0996 -0.0121
4 -1 0 -11.4330 0.5593
4 -1 1 6.6804 -0.3794
4 -1 2 -7.6269 0.2009
4 -1 3 -0.0194 -0.0908
4 -1 4 3.0680 -0.0176
4 -1 5 0.2525 0.0493
4 -1 6 1.1472 -0.0609
4 -1 7 1.6062 0.0462
4 -1 8 0.3162 -0.0275
4 -1 9 -0.6341 0.0431
4 -1 10 0.0598 -0.0365
4 -1 11 -0.3384 0.0411
4 -1 12 -0.1958 -0.0491
4 -1 13 -0.2232 0.0122
4 0 0 10.0009 0.5991
4 0 1 -13.3686 -0.4085
4 0 2 6.5573 0.2363
4 0 3 3.4571 -0.0578
4 0 4 -1.6372 -0.0489
4 0 5 1.2920 0.0951
4 0 6 -1.3964 -0.0770
4 0 7 -1.7662 0.0746
4 0 8 -1.4456 -0.0293
4 0 9 0.0882 0.0349
4 0 10 0.0562 -0.0375
4 0 11 0.2783 0.0499
4 0 12 0.0539 -0.0083
4 0 13 0.4454 0.0216
4 1 0 0.9910 0.6682
4 1 1 8.1015 -0.4909
4 1 2 -3.0387 0.2442
4 1 3 -6.7826 -0.0849
4 1 4 1.1451 -0.0370
4 1 5 -0.9831 0.1130
4 1 6 3.6030 -0.0974
4 1 7 1.0918 0.0599
4 1 8 1.9752 -0.0538
4 1 9 0.5935 0.0462
4 1 10 -0.4512 -0.0424
4 1 11 -0.1848 0.0314
4 1 12 -0.1109 -0.0057
4 1 13 0.0607 -0.0693
4 2 0 -5.3879 0.5750
4 2 1 -1.3889 -0.4429
4 2 2 4.9393 0.2727
4 2 3 5.0158 -0.0927
4 2 4 -1.7064 -0.0267
4 2 5 -1.0536 0.0823
4 2 6 -4.7670 -0.1050
4 2 7 -1.1019 0.0890
4 2 8 -0.7360 -0.0815
4 2 9 -0.6675 0.0474
4 2 10 0.8146 -0.0484
4 2 11 -0.1609 -0.0059
4 2 12 0.2283 0.0078
4 2 13 -0.3614 -0.0225
4 2 14 -0.6783 0.0963
4 3 0 3.1240 0.3844
4 3 1 -3.4295 -0.3298
4 3 2 -5.0746 0.2207
4 3 3 -1.3670 -0.0339
4 3 4 4.0516 -0.0151
4 3 5 0.6265 0.0805
4 3 6 3.8887 -0.1068
4 3 7 0.3979 0.1020
4 3 8 -0.3489 -0.0867
4 3 9 -0.2403 0.0624
4 3 10 -0.4252 -0.0186
4 3 11 -0.2609 0.0043
4 3 12 -0.0459 0.0461
4 3 13 0.2217 -0.0459
4 3 14 0.3725 0.0291
4 4 0 0.9745 0.1980
4 4 1 3.2848 -0.2141
4 4 2 1.9569 0.0998
4 4 3 -1.7142 -0.0657
4 4 4 -3.3872 -0.0033
4 4 5 0.3177 0.0388
4 4 6 0.0443 -0.0722
4 4 7 -0.1955 0.0992
4 4 8 0.7420 -0.0751
4 4 9 0.4245 0.0652
4 4 10 0.1094 -0.0252
4 4 11 0.2908 0.0054
4 4 12 0.3580 0.0368
4 4 13 -0.3586 -0.0682
4 4 14 0.3375 0.0575
4 5 0 -2.4315 0.0953
4 5 1 -0.6878 -0.0778
4 5 2 0.8295 0.0680
4 5 3 1.0223 -0.0669
4 5 4 0.6307 -0.0338
4 5 5 -2.2849 0.0131
4 5 6 -1.9193 -0.0525
4 5 7 -0.6775 0.0698
4 5 8 0.1612 -0.0777
4 5 9 -0.3275 0.0614
4 5 10 0.1378 -0.0294
4 5 11 0.0834 -0.0258
4 5 12 -0.3527 0.0353
4 5 13 0.5158 -0.0664
4 5 14 -0.2971 0.0743
4 6 0 1.7533 0.0394
4 6 1 -0.2180 0.0248
4 6 2 -0.9391 0.0622
4 6 3 0.7144 -0.0015
4 6 4 1.7490 0.0053
4 6 5 2.1545 0.0265
4 6 6 2.0974 -0.0233
4 6 7 0.7506 0.0340
4 6 8 -0.2257 -0.0656
4 6 9 0.2895 0.0484
4 6 10 -0.0706 -0.0290
4 6 11 -0.3001 -0.0151
4 6 12 0.1240 0.0550
4 6 13 -0.6578 -0.0625
4 6 14 0.1090 0.0566
4 6 15 -1.1446 -0.0477
4 7 0 -0.5123 -0.0321
4 7 1 -0.0851 0.0058
4 7 2 0.0483 -0.0142
4 7 3 -0.9161 -0.0034
4 7 4 -1.4434 0.0331
4 7 5 -0.6136 0.0299
4 7 6 -1.1729 -0.0148
4 7 7 -1.0459 0.0423
4 7 8 -0.2203 -0.0476
4 7 9 -0.2789 0.0544
4 7 10 -0.1472 -0.0311
4 7 11 0.0428 -0.0054
4 7 12 0.3666 0.0426
4 7 13 -0.3369 -0.0593
4 7 14 1.1516 0.0577
4 7 15 -0.1356 -0.0411
4 8 0 -0.5534 -0.0080
4 8 1 0.0610 -0.0040
4 8 2 0.0338 -0.0489
4 8 3 0.1290 -0.0330
4 8 4 0.4075 0.0045
4 8 5 0.2666 0.0039
4 8 6 0.3904 -0.0402
4 8 7 1.3268 0.0322
4 8 8 0.4620 -0.0379
4 8 9 -0.2441 0.0378
4 8 10 -0.0092 -0.0246
4 8 11 -0.0271 0.0056
4 8 12 -0.0397 0.0304
4 8 13 0.0903 -0.0433
4 8 14 -0.7156 0.0572
4 8 15 -0.1507 -0.0560
4 9 0 0.0239 0.0097
4 9 1 -0.1853 0.0322
4 9 2 0.0545 -0.0007
4 9 3 0.5560 0.0223
4 9 4 -0.3851 0.0045
4 9 5 -0.6113 -0.0063
4 9 6 -0.4819 -0.0342
4 9 7 -0.8745 0.0310
4 9 8 -0.0504 -0.0189
4 9 9 0.5666 0.0264
4 9 10 0.3758 -0.0288
4 9 11 0.1250 0.0174
4 9 12 -0.1614 0.0109
4 9 13 -0.0576 -0.0448
4 9 14 0.5832 0.0485
4 10 0 0.9282 -0.0025
4 10 1 0.4224 -0.0170
4 10 2 0.0869 0.0105
4 10 3 -0.3243 0.0342
4 10 4 0.0941 0.0005
4 10 5 0.5183 0.0046
4 10 6 0.3228 0.0039
4 10 7 0.3506 0.0354
4 10 8 -0.3451 -0.0181
4 10 9 -0.4438 0.0183
4 10 10 -0.2290 -0.0140
4 10 11 -0.1649 0.0165
4 10 12 0.2225 -0.0123
4 10 13 0.2570 -0.0370
4 11 0 -0.3714 0.0540
4 11 1 0.1276 -0.0260
4 11 2 0.0020 -0.0160
4 11 3 -0.0940 -0.0137
4 11 4 -0.0463 -0.0362
4 11 5 -0.0840 -0.0227
4 11 6 -0.1953 -0.0013
4 11 7 -0.0445 -0.0070
4 11 8 -0.1544 -0.0348
4 11 9 0.4871 0.0093
4 11 10 0.2168 -0.0176
4 11 11 0.1422 0.0012
4 11 12 0.0972 0.0005
4 11 13 -0.4032 0.0088
4 12 1 -1.0733 -0.0238
4 12 2 -0.2133 0.0415
4 12 3 0.1731 0.0021
4 12 4 0.1261 -0.0058
4 12 5 0.2027 0.0025
4 12 6 -0.1277 0.0094
4 12 7 0.5094 -0.0048
4 12 8 0.2747 -0.0242
4 12 9 -0.1104 0.0154
4 12 10 -0.8059 -0.0082
4 12 11 -0.0022 0.0185
4 12 12 -0.7720 0.0208
4 12 13 0.5283 0.0280
4 13 2 0.6296 -0.0487
4 13 3 -0.1813 0.0001
4 13 4 -0.0724 0.0395
4 13 5 0.3155 0.0522
4 13 6 0.0408 0.0391
4 13 7 -0.2100 0.0330
4 13 8 -0.5862 0.0356
4 13 9 -0.0663 0.0498
4 13 10 0.4410 0.0152
4 13 11 -0.1500 -0.0128
4 13 12 0.6768 -0.0445
4 13 13 -0.3869 -0.0914
4 14 5 -0.4350 -0.0343
4 14 6 -0.2076 -0.0782
4 14 7 -0.0060 -0.0720
4 14 8 0.4003 -0.0636
4 14 9 0.3846 -0.0305
4 14 10 -0.0703 -0.0891
5 -10 0 0.5588 0.0184
5 -10 1 -0.1697 -0.0008
5 -10 2 -0.0015 0.0190
5 -9 0 0.3953 -0.0184
5 -9 1 -0.8018 -0.0296
5 -9 2 -0.1903 0.0380
5 -9 3 -0.0523 -0.0231
5 -9 4 -0.8191 0.0164
5 -9 5 0.0009 -0.0326
5 -8 0 -0.9635 0.0710
5 -8 1 0.1947 -0.0502
5 -8 2 0.0948 0.0222
5 -8 3 -0.4532 -0.0271
5 -8 4 0.3919 0.0167
5 -8 5 0.2935 0.0338
5 -8 6 -0.4540 -0.0173
5 -7 0 0.6231 0.1637
5 -7 1 0.9595 -0.0882
5 -7 2 -0.4533 0.0517
5 -7 3 0.2700 -0.0381
5 -7 4 0.3863 0.0005
5 -7 5 -0.2921 -0.0191
5 -7 6 -0.1273 -0.0139
5 -7 7 0.3825 0.0353
5 -6 0 0.2102 0.2206
5 -6 1 -1.7701 -0.1681
5 -6 2 0.5981 0.0836
5 -6 3 1.3657 -0.0179
5 -6 4 -0.6230 -0.0124
5 -6 5 0.1865 0.0366
5 -6 6 0.6449 -0.0405
5 -6 7 -0.8828 0.0088
5 -6 8 -0.0355 -0.0016
5 -5 0 -0.5126 0.3240
5 -5 1 0.9049 -0.2510
5 -5 2 0.3888 0.1374
5 -5 3 -1.9115 -0.0203
5 -5 4 -0.2758 -0.0203
5 -5 5 -0.2621 0.0475
5 -5 6 -0.2501 -0.0160
5 -5 7 -0.5381 0.0148
5 -5 8 0.7585 0.0206
5 -5 9 0.1423 -0.0186
5 -4 0 0.6050 0.4190
5 -4 1 2.0364 -0.3633
5 -4 2 -1.0357 0.2132
5 -4 3 0.6052 -0.0663
5 -4 4 0.3100 -0.0404
5 -4 5 0.4314 0.0637
5 -4 6 0.2613 -0.0515
5 -4 7 1.2039 0.0039
5 -4 8 0.3802 0.0204
5 -4 9 0.1236 -0.0123
5 -4 10 -0.6126 0.0504
5 -3 0 -2.5289 0.5581
5 -3 1 -4.4510 -0.4213
5 -3 2 -0.0547 0.2559
5 -3 3 0.9024 -0.0889
5 -3 4 1.1727 -0.0535
5 -3 5 -0.3998 0.0808
5 -3 6 -0.5380 -0.0527
5 -3 7 -0.9841 0.0033
5 -3 8 -1.5402 0.0187
5 -3 9 -0.0817 -0.0270
5 -3 10 -0.2540 -0.0188
5 -3 11 0.0086 -0.0072
5 -2 0 5.3405 0.7199
5 -2 1 3.5037 -0.4784
5 -2 2 1.7063 0.2830
5 -2 3 -1.0468 -0.0589
5 -2 4 -2.7302 -0.0365
5 -2 5 0.4821 0.0857
5 -2 6 1.0467 -0.0716
5 -2 7 0.5209 0.0370
5 -2 8 1.4601 -0.0060
5 -2 9 0.0909 0.0015
5 -2 10 0.1495 -0.0163
5 -2 11 -0.2485 0.0190
5 -2 12 -0.3698 -0.0884
5 -1 0 -7.4850 0.8504
5 -1 1 3.0124 -0.6215
5 -1 2 -3.8980 0.3325
5 -1 3 0.5552 -0.1232
5 -1 4 2.7306 -0.0432
5 -1 5 -1.0887 0.1115
5 -1 6 -0.8734 -0.0908
5 -1 7 -0.2099 0.0679
5 -1 8 -0.6873 -0.0371
5 -1 9 -0.4755 0.0016
5 -1 10 0.7672 -0.0071
5 -1 11 0.1375 0.0210
5 -1 12 0.4060 0.0015
5 -1 13 -0.0193 0.0600
5 0 0 5.3991 0.8777
5 0 1 -6.5586 -0.6866
5 0 2 2.4460 0.3646
5 0 3 1.9592 -0.1279
5 0 4 -2.2770 -0.0630
5 0 5 0.8935 0.1336
5 0 6 -0.2232 -0.1439
5 0 7 -0.4444 0.0762
5 0 8 0.0950 -0.0287
5 0 9 0.5738 0.0155
5 0 10 -0.5291 0.0050
5 0 11 -0.1015 0.0084
5 0 12 -0.2892 -0.0174
5 0 13 0.2209 -0.0292
5 1 0 -0.3607 0.8483
5 1 1 2.4533 -0.6521
5 1 2 -0.9270 0.3760
5 1 3 -3.0937 -0.0879
5 1 4 2.1803 -0.0663
5 1 5 0.4443 0.1421
5 1 6 2.1096 -0.1387
5 1 7 0.2285 0.0925
5 1 8 0.2534 -0.0291
5 1 9 -0.6060 0.0038
5 1 10 -0.5302 -0.0032
5 1 11 0.1664 0.0098
5 1 12 0.0394 0.0166
5 1 13 0.1072 -0.0047
5 2 0 0.0613 0.7508
5 2 1 1.7187 -0.6319
5 2 2 4.0954 0.4073
5 2 3 -0.0480 -0.1552
5 2 4 -2.2425 -0.0493
5 2 5 -1.6897 0.1529
5 2 6 -2.5485 -0.1384
5 2 7 0.3567 0.0890
5 2 8 0.9038 -0.0432
5 2 9 0.6588 0.0127
5 2 10 0.9817 0.0079
5 2 11 0.1975 -0.0216
5 2 12 0.0029 0.0393
5 2 13 -0.1765 -0.0832
5 2 14 -0.6149 0.0216
5 3 0 -1.0044 0.5198
5 3 1 -4.8350 -0.4929
5 3 2 -3.2159 0.3656
5 3 3 1.5100 -0.1527
5 3 4 3.5753 -0.0207
5 3 5 0.1648 0.1014
5 3 6 1.6049 -0.1332
5 3 7 -1.1915 0.1030
5 3 8 -1.9471 -0.0591
5 3 9 -0.9339 0.0035
5 3 10 -0.8195 0.0095
5 3 11 -0.9280 -0.0455
5 3 12 0.0718 0.0380
5 3 13 -0.3818 -0.0462
5 3 14 0.5237 0.0566
5 3 15 0.3775 -0.0198
5 4 0 2.6644 0.3176
5 4 1 3.0413 -0.3088
5 4 2 1.3218 0.2563
5 4 3 -2.0671 -0.1090
5 4 4 -1.6824 0.0200
5 4 5 1.4923 0.0765
5 4 6 0.6505 -0.1149
5 4 7 1.0934 0.1124
5 4 8 1.4974 -0.0655
5 4 9 0.9937 0.0228
5 4 10 0.7389 0.0226
5 4 11 1.0066 -0.0368
5 4 12 0.6602 0.0514
5 4 13 0.2359 -0.0358
5 4 14 0.2730 0.0458
5 4 15 -1.1142 -0.0318
5 5 0 -2.3596 0.1701
5 5 1 -1.0371 -0.1697
5 5 2 -0.3279 0.1218
5 5 3 -0.4863 -0.1290
5 5 4 -0.7723 0.0314
5 5 5 -3.1266 0.0386
5 5 6 -1.3362 -0.0640
5 5 7 -0.6996 0.0858
5 5 8 -0.1268 -0.0602
5 5 9 -0.8092 0.0300
5 5 10 -0.3918 0.0287
5 5 11 -0.7000 -0.0396
5 5 12 -0.9480 0.0623
5 5 13 0.1214 -0.0606
5 5 14 -0.6175 0.0289
5 6 0 1.5495 0.0663
5 6 1 0.1671 -0.0683
5 6 2 0.5554 0.0624
5 6 3 2.3602 -0.0897
5 6 4 2.3609 0.0213
5 6 5 2.0997 -0.0193
5 6 6 1.5546 -0.0411
5 6 7 -0.1483 0.0470
5 6 8 -0.2277 -0.0544
5 6 9 0.4693 0.0230
5 6 10 0.0536 -0.0044
5 6 11 0.2880 -0.0535
5 6 12 0.5542 0.0593
5 6 13 -0.2313 -0.0616
5 6 14 0.3578 0.0488
5 6 15 -0.7532 -0.0137
5 7 0 -0.1561 0.0383
5 7 1 0.0255 -0.0054
5 7 2 -0.3166 0.0566
5 7 3 -1.7270 -0.0120
5 7 4 -1.6311 0.0451
5 7 5 -0.6846 -0.0007
5 7 6 -0.7641 -0.0059
5 7 7 -0.1827 0.0099
5 7 8 0.2362 -0.0454
5 7 9 -0.0848 0.0253
5 7 10 -0.1409 -0.0064
5 7 11 -0.1226 -0.0184
5 7 12 -0.0362 0.0561
5 7 13 -0.2169 -0.0623
5 7 14 0.6597 0.0382
5 7 15 -0.7672 -0.0237
5 8 0 -0.7297 0.0143
5 8 1 -0.0900 -0.0195
5 8 2 0.1594 0.0136
5 8 3 0.4267 -0.0135
5 8 4 0.8334 0.0646
5 8 5 0.3315 -0.0069
5 8 6 0.0743 0.0089
5 8 7 0.5128 0.0332
5 8 8 -0.3614 -0.0124
5 8 9 -0.5861 0.0419
5 8 10 0.1673 -0.0095
5 8 11 0.0982 -0.0174
5 8 12 0.1892 0.0313
5 8 13 -0.0833 -0.0368
5 8 14 -0.4856 0.0356
5 8 15 0.4104 -0.0178
5 9 0 0.0412 0.0140
5 9 1 -0.0501 -0.0221
5 9 2 0.0056 -0.0363
5 9 3 -0.2143 -0.0281
5 9 4 -0.6928 0.0098
5 9 5 -0.5364 -0.0394
5 9 6 -0.0288 -0.0199
5 9 7 -0.1874 0.0271
5 9 8 0.6745 -0.0263
5 9 9 0.7323 0.0168
5 9 10 0.2374 -0.0105
5 9 11 -0.0003 -0.0102
5 9 12 -0.2164 0.0215
5 9 13 0.0528 -0.0487
5 9 14 0.3784 0.0459
5 9 15 -0.2383 -0.0227
5 10 0 0.8436 0.0174
5 10 1 -0.2555 0.0153
5 10 2 -0.1951 0.0290
5 10 3 0.0517 -0.0041
5 10 4 0.2268 -0.0118
5 10 5 0.4545 -0.0368
5 10 6 0.0478 -0.0108
5 10 7 -0.0403 0.0091
5 10 8 -0.4581 -0.0304
5 10 9 -0.3252 -0.0012
5 10 10 -0.2493 -0.0081
5 10 11 -0.3307 -0.0052
5 10 12 0.1686 0.0460
5 10 13 -0.1318 -0.0286
5 10 14 0.3514 0.0605
5 11 0 -0.0889 -0.0138
5 11 1 0.6690 -0.0378
5 11 2 0.3500 0.0551
5 11 3 0.1393 0.0028
5 11 4 0.0702 0.0190
5 11 5 -0.0845 0.0310
5 11 6 -0.1093 0.0446
5 11 7 0.0588 0.0199
5 11 8 -0.1356 -0.0116
5 11 9 0.3237 0.0228
5 11 10 -0.2577 0.0122
5 11 11 0.5104 0.0193
5 11 12 -0.1085 0.0153
5 11 13 0.0212 -0.0555
5 12 1 -1.4960 -0.0368
5 12 2 -0.0346 -0.0317
5 12 3 0.0330 -0.0398
5 12 4 -0.2764 -0.0098
5 12 5 0.2605 0.0069
5 12 6 -0.1555 0.0089
5 12 7 0.3830 -0.0072
5 12 8 0.0014 0.0028
5 12 9 -0.2428 0.0168
5 12 10 -0.0163 -0.0039
5 12 11 0.3774 -0.0574
5 12 12 -0.3181 -0.0205
5 12 13 0.6663 -0.0167
5 13 3 -0.3808 0.0197
5 13 4 0.4645 0.0295
5 13 5 0.2066 -0.0655
5 13 6 -0.2335 -0.0516
5 13 7 -0.0793 -0.0612
5 13 8 -0.5740 -0.0457
5 13 9 0.2415 -0.0150
5 13 10 0.1447 -0.0288
5 13 11 -0.9879 -0.0103
5 13 12 -0.0033 0.0418
5 13 13 -0.5506 0.0148
5 14 5 -0.5082 0.1039
5 14 6 0.2695 0.0541
5 14 7 -0.0615 0.0658
5 14 11 0.9222 0.0914
6 -10 0 -0.4457 0.0120
6 -9 0 0.2735 0.0007
6 -9 1 -0.5455 -0.0240
6 -9 2 0.1721 0.0268
6 -9 3 0.4672 -0.0055
6 -9 4 0.1428 0.0747
6 -8 0 -0.7697 0.0719
6 -8 1 0.4482 -0.0446
6 -8 2 -0.0204 0.0252
6 -8 3 -0.1422 -0.0436
6 -8 4 -0.4726 -0.0002
6 -8 5 -0.2355 0.0147
6 -8 6 -0.8775 0.0294
6 -7 0 0.6301 0.1228
6 -7 1 0.4838 -0.0762
6 -7 2 -0.6805 0.0563
6 -7 3 0.3216 -0.0142
6 -7 4 0.1780 0.0306
6 -7 5 0.1287 0.0000
6 -7 6 0.1363 -0.0442
6 -7 7 0.7302 0.0264
6 -6 0 0.2454 0.1668
6 -6 1 -0.8765 -0.1744
6 -6 2 1.0617 0.0960
6 -6 3 0.7469 -0.0290
6 -6 4 -0.6334 -0.0177
6 -6 5 0.1708 0.0212
6 -6 6 0.7583 -0.0183
6 -6 7 -0.8202 0.0018
6 -6 8 0.1753 0.0003
6 -5 0 -0.8333 0.2466
6 -5 1 -0.0083 -0.2382
6 -5 2 -0.0729 0.1527
6 -5 3 -1.8340 -0.0730
6 -5 4 0.4362 -0.0207
6 -5 5 0.1617 0.0232
6 -5 6 -0.6406 -0.0488
6 -5 7 -0.5874 0.0476
6 -5 8 0.4838 -0.0056
6 -5 9 -0.0247 0.0193
6 -4 0 1.0255 0.4208
6 -4 1 2.0658 -0.3111
6 -4 2 -1.3373 0.2255
6 -4 3 1.0819 -0.0954
6 -4 4 -0.1276 -0.0122
6 -4 5 -0.1005 0.0984
6 -4 6 0.0800 -0.0644
6 -4 7 0.9896 0.0249
6 -4 8 0.5583 0.0370
6 -4 9 -0.2279 -0.0453
6 -4 10 -0.1652 0.0425
6 -3 0 -1.8962 0.5946
6 -3 1 -2.8335 -0.4385
6 -3 2 0.8915 0.2604
6 -3 3 0.9702 -0.0728
6 -3 4 0.2923 -0.0386
6 -3 5 -0.4133 0.0968
6 -3 6 -0.1574 -0.0754
6 -3 7 -0.5108 0.0333
6 -3 8 -1.1879 0.0055
6 -3 9 -0.0202 -0.0248
6 -3 10 -0.0968 0.0191
6 -3 11 0.2774 0.0607
6 -2 0 3.0368 0.7836
6 -2 1 1.1358 -0.5930
6 -2 2 0.2070 0.3234
6 -2 3 -1.4860 -0.1026
6 -2 4 -0.7887 -0.0701
6 -2 5 1.3911 0.1284
6 -2 6 1.0564 -0.1112
6 -2 7 -0.2907 0.0471
6 -2 8 0.8920 -0.0248
6 -2 9 -0.1444 -0.0163
6 -2 10 0.1651 -0.0191
6 -2 11 -0.5190 0.0023
6 -2 12 0.1194 -0.0759
6 -1 0 -3.9349 0.9571
6 -1 1 2.9093 -0.7355
6 -1 2 -1.5800 0.4417
6 -1 3 0.8814 -0.1412
6 -1 4 0.8391 -0.0465
6 -1 5 -2.3311 0.1267
6 -1 6 -1.2610 -0.1400
6 -1 7 0.2810 0.0756
6 -1 8 0.0946 -0.0195
6 -1 9 0.3711 -0.0082
6 -1 10 0.7026 0.0219
6 -1 11 0.1116 -0.0233
6 -1 12 -0.0704 -0.0274
6 -1 13 -0.4831 -0.0119
6 0 0 3.5612 1.0159
6 0 1 -4.5858 -0.8379
6 0 2 1.3379 0.5056
6 0 3 0.9874 -0.1949
6 0 4 -1.0948 -0.0342
6 0 5 1.5670 0.1433
6 0 6 0.8998 -0.1461
6 0 7 0.0011 0.0998
6 0 8 -0.4289 -0.0253
6 0 9 -0.1874 -0.0135
6 0 10 -1.0135 0.0407
6 0 11 -0.3480 -0.0152
6 0 12 -0.0252 0.0489
6 0 13 0.5426 0.0328
6 1 0 -1.9520 0.9163
6 1 1 1.5762 -0.8028
6 1 2 -1.0544 0.5052
6 1 3 -1.4283 -0.2073
6 1 4 1.1523 -0.0463
6 1 5 0.1681 0.1554
6 1 6 -0.0929 -0.1569
6 1 7 -0.8235 0.1058
6 1 8 -0.1952 -0.0167
6 1 9 -0.3186 -0.0252
6 1 10 0.3255 0.0533
6 1 11 0.5900 -0.0410
6 1 12 0.3926 0.0164
6 1 13 -0.0366 -0.0571
6 2 0 1.5841 0.7585
6 2 1 1.8408 -0.6855
6 2 2 2.3035 0.4867
6 2 3 -0.9813 -0.1845
6 2 4 -0.7073 -0.0269
6 2 5 -0.9999 0.1639
6 2 6 0.0567 -0.1639
6 2 7 1.5230 0.0886
6 2 8 1.4873 -0.0079
6 2 9 0.3151 -0.0442
6 2 10 0.0630 0.0410
6 2 11 0.0170 -0.0422
6 2 12 -0.7878 0.0432
6 2 13 -0.1213 -0.0581
6 3 0 -1.6152 0.5403
6 3 1 -3.5120 -0.5128
6 3 2 -1.0227 0.4114
6 3 3 1.6278 -0.2177
6 3 4 1.2022 0.0078
6 3 5 -0.5835 0.1140
6 3 6 -0.4829 -0.1257
6 3 7 -1.9953 0.0842
6 3 8 -2.0010 -0.0302
6 3 9 0.0691 -0.0421
6 3 10 -0.1409 0.0499
6 3 11 -0.3517 -0.0579
6 3 12 0.6636 0.0490
6 3 13 -0.2219 -0.0349
6 3 14 0.9266 0.0451
6 4 0 1.8128 0.3063
6 4 1 1.8500 -0.3538
6 4 2 0.4781 0.3112
6 4 3 -1.5373 -0.1834
6 4 4 0.0542 0.0283
6 4 5 2.0792 0.0589
6 4 6 0.9639 -0.1310
6 4 7 1.9309 0.0861
6 4 8 1.1295 -0.0325
6 4 9 0.3046 -0.0201
6 4 10 0.0519 0.0688
6 4 11 0.3777 -0.0875
6 4 12 0.0396 0.0650
6 4 13 -0.2296 -0.0386
6 4 14 -0.5625 0.0185
6 4 15 -1.3959 0.0232
6 5 0 -1.0041 0.1783
6 5 1 -0.9480 -0.1889
6 5 2 -0.3536 0.1811
6 5 3 -0.7466 -0.1312
6 5 4 -0.6537 0.0700
6 5 5 -2.5500 0.0261
6 5 6 -0.7763 -0.0659
6 5 7 -0.7893 0.0838
6 5 8 -0.3758 -0.0380
6 5 9 -0.6542 -0.0116
6 5 10 0.0225 0.0656
6 5 11 -0.6536 -0.0569
6 5 12 -0.3398 0.0795
6 5 13 0.4285 -0.0463
6 5 14 0.3580 0.0087
6 5 15 1.3634 0.0050
6 6 0 0.4583 0.0980
6 6 1 0.1332 -0.0982
6 6 2 0.6799 0.0803
6 6 3 2.1508 -0.1160
6 6 4 0.7414 0.0786
6 6 5 0.9131 -0.0066
6 6 6 0.4418 -0.0148
6 6 7 -0.3324 0.0688
6 6 8 -0.0130 -0.0400
6 6 9 0.5446 0.0168
6 6 10 -0.0744 0.0404
6 6 11 0.5455 -0.0616
6 6 12 0.3758 0.0552
6 6 13 -0.0955 -0.0604
6 6 14 -0.3055 0.0208
6 6 15 -0.3575 0.0041
6 7 0 0.3721 0.0571
6 7 1 0.1029 -0.0617
6 7 2 -0.2711 0.0537
6 7 3 -1.8331 -0.0786
6 7 4 -0.3718 0.0517
6 7 5 0.1070 -0.0403
6 7 6 0.4691 -0.0161
6 7 7 0.0257 0.0079
6 7 8 0.2674 -0.0324
6 7 9 -0.1257 -0.0001
6 7 10 -0.0809 0.0001
6 7 11 -0.1455 -0.0677
6 7 12 -0.1833 0.0463
6 7 13 -0.1766 -0.0464
6 7 14 0.3049 0.0290
6 7 15 -0.4896 0.0162
6 8 0 -0.0063 0.0169
6 8 1 0.2198 -0.0269
6 8 2 0.4444 0.0623
6 8 3 0.7433 -0.0075
6 8 4 0.6105 0.0480
6 8 5 -0.2818 -0.0545
6 8 6 -0.6916 0.0052
6 8 7 0.0401 -0.0113
6 8 8 -0.2741 -0.0264
6 8 9 -0.2081 0.0047
6 8 10 0.2344 -0.0008
6 8 11 0.0209 -0.0232
6 8 12 0.1841 0.0580
6 8 13 -0.1480 -0.0234
6 8 14 0.0092 0.0184
6 8 15 0.0586 0.0129
6 9 0 -0.7985 0.0555
6 9 1 -0.4929 -0.0357
6 9 2 -0.5787 0.0278
6 9 3 -0.5301 -0.0192
6 9 4 -0.4361 0.0455
6 9 5 -0.0979 -0.0365
6 9 6 0.6077 0.0459
6 9 7 0.2450 0.0188
6 9 8 0.4591 0.0093
6 9 9 0.1570 0.0331
6 9 10 0.0341 0.0260
6 9 11 -0.1258 -0.0032
6 9 12 -0.1831 0.0479
6 9 13 0.0101 -0.0275
6 9 14 -0.0805 0.0081
6 9 15 0.2432 -0.0198
6 10 0 0.7536 0.0367
6 10 1 -0.3329 -0.0001
6 10 2 0.3549 -0.0165
6 10 3 0.1940 -0.0517
6 10 4 0.2675 0.0274
6 10 5 0.3746 -0.0261
6 10 6 -0.2596 0.0352
6 10 7 -0.2758 0.0062
6 10 8 -0.1324 -0.0091
6 10 9 -0.0601 0.0057
6 10 10 -0.2928 -0.0039
6 10 11 -0.2271 -0.0184
6 10 12 0.1697 0.0127
6 10 13 0.1577 -0.0789
6 10 14 0.6325 0.0188
6 11 0 0.2867 -0.0713
6 11 1 0.5511 0.0130
6 11 2 0.2306 0.0412
6 11 3 -0.2628 -0.0290
6 11 4 -0.2716 0.0097
6 11 5 -0.7651 -0.0245
6 11 6 -0.1535 -0.0032
6 11 7 0.0684 -0.0211
6 11 8 -0.3350 -0.0368
6 11 9 -0.1136 -0.0249
6 11 10 -0.2448 -0.0223
6 11 11 0.8933 -0.0402
6 11 12 -0.2353 0.0198
6 11 13 -0.2284 -0.0318
6 12 2 0.3735 0.0030
6 12 3 0.3047 0.0392
6 12 4 0.0572 0.0245
6 12 5 1.2464 0.0015
6 12 6 0.2120 0.0050
6 12 7 0.1701 -0.0190
6 12 8 0.1884 0.0081
6 12 9 0.4055 0.0318
6 12 10 0.8426 0.0415
6 12 11 -0.0744 0.0137
6 12 12 -0.2235 0.0605
6 12 13 0.5465 0.0068
6 13 4 0.3449 -0.0266
6 13 5 -0.5748 -0.0380
6 13 6 -0.9244 0.0366
6 13 7 0.2681 0.0351
6 13 8 -0.7945 0.0430
6 13 10 -1.1807 -0.0140
6 13 11 -0.8046 -0.0634
6 13 12 -0.0153 -0.0035
6 13 13 0.1135 -0.0780
6 14 6 0.7663 -0.0454
6 14 7 -0.0387 -0.0866
7 -9 0 -0.3690 0.0214
7 -9 1 -0.4221 -0.0157
7 -8 0 -0.7499 0.0321
7 -8 1 0.4261 -0.0235
7 -8 2 -0.0326 0.0414
7 -8 3 -0.1225 -0.0106
7 -8 4 -0.6317 0.0084
7 -8 5 0.4495 -0.0085
7 -8 6 -0.3570 0.0616
7 -7 0 0.7666 0.0204
7 -7 1 0.5060 -0.0697
7 -7 2 -0.5041 0.0418
7 -7 3 0.4032 -0.0131
7 -7 4 0.1648 -0.0009
7 -7 5 0.2928 0.0208
7 -7 6 -0.1612 -0.0682
7 -7 7 0.6339 0.0195
7 -6 0 -0.2038 0.0883
7 -6 1 -0.4771 -0.1048
7 -6 2 0.2854 0.0874
7 -6 3 0.4616 -0.0564
7 -6 4 -0.4388 0.0017
7 -6 5 -0.0304 0.0125
7 -6 6 0.4980 0.0123
7 -6 7 -0.7311 0.0029
7 -6 8 0.1892 -0.0059
7 -5 0 -0.4328 0.1794
7 -5 1 -0.0222 -0.1528
7 -5 2 0.2357 0.1269
7 -5 3 -0.9982 -0.0760
7 -5 4 0.3900 0.0227
7 -5 5 0.3787 0.0145
7 -5 6 -0.7289 -0.0463
7 -5 7 0.0484 0.0666
7 -5 8 0.2907 -0.0303
7 -5 9 -0.1114 0.0118
7 -4 0 0.0953 0.3120
7 -4 1 1.0268 -0.2411
7 -4 2 -1.4510 0.1644
7 -4 3 0.7356 -0.0829
7 -4 4 -0.4066 -0.0073
7 -4 5 -0.1354 0.0645
7 -4 6 0.2559 -0.0782
7 -4 7 0.3258 0.0349
7 -4 8 0.2447 0.0091
7 -4 9 -0.4447 -0.0318
7 -4 10 0.3498 0.0655
7 -3 0 0.6943 0.5159
7 -3 1 -0.9112 -0.3937
7 -3 2 1.6252 0.2449
7 -3 3 0.5625 -0.0740
7 -3 4 0.0963 -0.0261
7 -3 5 -0.4767 0.1069
7 -3 6 -0.3672 -0.0914
7 -3 7 -0.2691 0.0456
7 -3 8 -0.4438 -0.0124
7 -3 9 0.2725 -0.0343
7 -3 10 0.1971 0.0402
7 -3 11 -0.2085 0.0142
7 -2 0 -0.4216 0.7126
7 -2 1 -1.2117 -0.5784
7 -2 2 -0.7176 0.3471
7 -2 3 -0.8762 -0.1347
7 -2 4 0.1813 -0.0443
7 -2 5 1.2217 0.1237
7 -2 6 0.8102 -0.1193
7 -2 7 -0.3940 0.0575
7 -2 8 0.7150 0.0093
7 -2 9 -0.6298 -0.0202
7 -2 10 0.0439 0.0142
7 -2 11 -0.2510 0.0248
7 -2 12 0.7111 -0.0444
7 -1 0 -0.4131 0.8424
7 -1 1 3.9779 -0.7245
7 -1 2 -0.6277 0.4420
7 -1 3 0.4385 -0.1630
7 -1 4 -0.3373 -0.0615
7 -1 5 -1.7340 0.1239
7 -1 6 -0.1529 -0.1411
7 -1 7 0.8182 0.0845
7 -1 8 0.1075 -0.0138
7 -1 9 0.6329 -0.0199
7 -1 10 0.2885 0.0168
7 -1 11 0.0296 -0.0263
7 -1 12 -0.7556 -0.0206
7 0 0 0.9499 0.9134
7 0 1 -4.8193 -0.7872
7 0 2 1.3311 0.5258
7 0 3 0.1228 -0.1981
7 0 4 -0.2589 -0.0198
7 0 5 1.1191 0.1530
7 0 6 -0.3635 -0.1448
7 0 7 -0.9649 0.0877
7 0 8 -1.1124 -0.0223
7 0 9 -0.2988 -0.0394
7 0 10 -0.9510 0.0577
7 0 11 -0.3162 -0.0713
7 0 12 0.3432 0.0319
7 0 13 0.9440 -0.0507
7 1 0 -0.6380 0.8271
7 1 1 2.3230 -0.7553
7 1 2 -0.9360 0.5541
7 1 3 0.0729 -0.2536
7 1 4 1.0113 0.0036
7 1 5 0.0225 0.1534
7 1 6 0.3419 -0.1615
7 1 7 0.2187 0.1053
7 1 8 0.7228 -0.0104
7 1 9 0.4234 -0.0581
7 1 10 0.7523 0.0822
7 1 11 0.6945 -0.0612
7 1 12 0.6919 0.0699
7 1 13 -0.7347 -0.0367
7 2 0 0.2011 0.5935
7 2 1 0.7696 -0.6264
7 2 2 0.3269 0.4521
7 2 3 -1.4950 -0.2266
7 2 4 -0.9093 -0.0152
7 2 5 -0.5743 0.1329
7 2 6 0.1394 -0.1566
7 2 7 0.6754 0.0906
7 2 8 0.3513 -0.0048
7 2 9 -0.6648 -0.0673
7 2 10 -0.3633 0.0910
7 2 11 -0.0665 -0.0539
7 2 12 -1.1308 0.0304
7 2 13 0.4618 -0.0108
7 3 0 -0.5035 0.4063
7 3 1 -1.3722 -0.4343
7 3 2 0.1523 0.3567
7 3 3 1.9960 -0.1946
7 3 4 0.6113 0.0115
7 3 5 -0.4193 0.1136
7 3 6 -0.5291 -0.1499
7 3 7 -1.0489 0.0787
7 3 8 -0.6642 0.0126
7 3 9 0.9599 -0.0605
7 3 10 -0.0916 0.0810
7 3 11 -0.0316 -0.0796
7 3 12 0.1438 0.0526
7 3 13 -0.3547 -0.0337
7 3 14 0.2930 0.0029
7 4 0 0.3096 0.2359
7 4 1 0.6858 -0.2544
7 4 2 -0.1974 0.2661
7 4 3 -1.1676 -0.1810
7 4 4 0.3874 0.0366
7 4 5 1.5764 0.0698
7 4 6 0.5567 -0.0915
7 4 7 1.0784 0.0649
7 4 8 0.0294 0.0017
7 4 9 -0.4561 -0.0663
7 4 10 -0.2309 0.0977
7 4 11 -0.1006 -0.0870
7 4 12 0.3650 0.0675
7 4 13 -0.0486 -0.0518
7 4 14 0.0759 0.0065
7 4 15 -0.2129 0.0942
7 5 0 -0.4695 0.0920
7 5 1 -0.2926 -0.1478
7 5 2 0.2359 0.1655
7 5 3 -0.4326 -0.1127
7 5 4 -0.6107 0.0526
7 5 5 -1.4367 0.0131
7 5 6 -0.5100 -0.0695
7 5 7 -0.0269 0.0563
7 5 8 -0.0226 -0.0169
7 5 9 -0.0784 -0.0435
7 5 10 0.5228 0.0730
7 5 11 0.0285 -0.0951
7 5 12 0.2299 0.0517
7 5 13 0.3381 -0.0279
7 5 14 0.0968 0.0139
7 5 15 -0.3587 0.0095
7 6 0 0.3198 0.0748
7 6 1 -0.0138 -0.0894
7 6 2 -0.0846 0.0726
7 6 3 0.9715 -0.0783
7 6 4 -0.2010 0.0875
7 6 5 0.1351 -0.0058
7 6 6 -0.3453 -0.0275
7 6 7 -0.3563 0.0480
7 6 8 -0.4170 -0.0347
7 6 9 0.3985 -0.0216
7 6 10 -0.2493 0.0578
7 6 11 -0.2160 -0.0670
7 6 12 -0.4095 0.0641
7 6 13 -0.4843 -0.0175
7 6 14 -0.5297 0.0014
7 6 15 0.6460 0.0209
7 7 0 0.3840 0.0674
7 7 1 0.1431 -0.0544
7 7 2 0.2049 0.0352
7 7 3 -0.6661 -0.0806
7 7 4 0.8766 0.0657
7 7 5 0.8068 -0.0429
7 7 6 1.3588 0.0043
7 7 7 0.0583 0.0537
7 7 8 0.6242 -0.0199
7 7 9 0.0286 0.0177
7 7 10 -0.0323 0.0429
7 7 11 0.2286 -0.0550
7 7 12 0.4208 0.0686
7 7 13 0.3497 -0.0247
7 7 14 0.5237 -0.0111
7 7 15 0.0342 0.0247
7 8 0 -0.1084 0.0249
7 8 1 -0.2047 -0.0326
7 8 2 -0.0431 0.0529
7 8 3 -0.2042 -0.0486
7 8 4 -0.4528 0.0118
7 8 5 -1.1354 -0.0541
7 8 6 -1.1669 0.0083
7 8 7 -0.2428 -0.0040
7 8 8 -0.2565 -0.0209
7 8 9 -0.2815 0.0101
7 8 10 -0.0985 0.0150
7 8 11 -0.1349 -0.0511
7 8 12 -0.1723 0.0482
7 8 13 -0.4419 -0.0651
7 8 14 -0.2005 -0.0050
7 9 0 -0.3413 -0.0004
7 9 1 0.0322 -0.0306
7 9 2 -0.1137 0.0730
7 9 3 0.5587 -0.0035
7 9 4 0.3789 0.0445
7 9 5 0.4079 -0.0390
7 9 6 0.6601 0.0272
7 9 7 0.1294 -0.0404
7 9 8 0.0578 -0.0191
7 9 9 -0.0866 -0.0131
7 9 10 0.1722 -0.0121
7 9 11 -0.0834 -0.0358
7 9 12 0.0786 0.0359
7 9 13 0.1916 -0.0260
7 9 14 0.3182 0.0025
7 10 0 0.3205 0.0953
7 10 1 -0.2527 -0.0401
7 10 2 0.5591 -0.0046
7 10 3 -0.3008 -0.0329
7 10 4 -0.0181 0.0613
7 10 5 0.3187 -0.0131
7 10 6 0.0147 0.0534
7 10 7 0.2500 0.0035
7 10 8 0.4659 0.0112
7 10 9 0.2287 0.0186
7 10 10 0.0037 0.0166
7 10 11 0.1183 0.0064
7 10 12 -0.0322 0.0336
7 10 13 0.1126 -0.0099
7 10 14 -0.4078 0.0375
7 10 15 -1.1277 0.0678
7 11 1 -0.2728 0.0623
7 11 2 -0.3782 -0.0378
7 11 3 -1.0379 -0.0530
7 11 4 -0.3425 -0.0014
7 11 5 -1.0446 -0.0379
7 11 6 0.0408 0.0152
7 11 7 -0.4877 0.0028
7 11 8 -0.6725 0.0180
7 11 9 -0.6003 0.0124
7 11 10 -0.1009 0.0180
7 11 11 0.3457 -0.0160
7 11 12 -0.3093 0.0339
7 11 13 -0.2663 -0.0430
7 11 14 0.4081 0.0377
7 12 4 0.6075 -0.0107
7 12 5 1.4041 -0.0460
7 12 6 -0.5125 0.0019
7 12 7 0.0344 -0.0442
7 12 8 0.4331 -0.0393
7 12 9 0.8358 -0.0283
7 12 10 0.5021 -0.0447
7 12 11 -0.3378 -0.0274
7 12 12 0.0425 -0.0223
7 12 13 0.6146 -0.0440
7 13 6 -0.2281 0.0538
8 -9 0 0.3334 -0.0412
8 -8 0 -1.6373 -0.0330
8 -8 1 0.5563 0.0049
8 -7 0 0.9337 -0.0170
8 -7 1 0.1690 -0.0040
8 -7 2 -0.9965 0.0582
8 -7 3 -0.2958 -0.0112
8 -7 4 -0.3045 0.0149
8 -7 5 -0.0925 0.0973
8 -7 6 -0.2779 -0.0410
8 -6 0 -0.2010 0.0082
8 -6 1 0.1956 -0.0230
8 -6 2 -0.0548 0.0287
8 -6 3 1.3012 -0.0548
8 -6 4 -0.5240 0.0122
8 -6 5 0.0602 -0.0069
8 -6 6 0.0412 0.0038
8 -6 7 -0.6072 0.0168
8 -5 0 -0.8699 0.0687
8 -5 1 -0.1122 -0.0601
8 -5 2 0.1863 0.0491
8 -5 3 -0.7317 -0.0438
8 -5 4 0.3416 0.0199
8 -5 5 0.7578 -0.0042
8 -5 6 -0.2896 -0.0388
8 -5 7 0.5082 0.0211
8 -5 8 0.0087 -0.0072
8 -4 0 -0.1155 0.1720
8 -4 1 0.8411 -0.1353
8 -4 2 -0.9772 0.1091
8 -4 3 0.4147 -0.0291
8 -4 4 -0.4368 -0.0087
8 -4 5 -0.4882 0.0328
8 -4 6 -0.2477 -0.0590
8 -4 7 -0.2604 0.0535
8 -4 8 0.2079 -0.0550
8 -4 9 -0.3403 0.0215
8 -3 0 2.0599 0.3310
8 -3 1 -0.6151 -0.2950
8 -3 2 1.1203 0.1655
8 -3 3 0.0162 -0.0950
8 -3 4 -0.1227 -0.0107
8 -3 5 -0.1726 0.0916
8 -3 6 0.1400 -0.1008
8 -3 7 0.5122 0.0646
8 -3 8 0.1855 0.0060
8 -3 9 0.2984 -0.0330
8 -3 10 0.2154 0.0858
8 -2 0 -2.0457 0.4880
8 -2 1 -1.7006 -0.4332
8 -2 2 0.0085 0.2865
8 -2 3 0.1745 -0.1191
8 -2 4 0.6615 -0.0197
8 -2 5 0.8431 0.0905
8 -2 6 0.2352 -0.0816
8 -2 7 -0.9671 0.0587
8 -2 8 -0.0084 0.0168
8 -2 9 -1.0735 -0.0456
8 -2 10 0.1382 0.0294
8 -2 11 -0.1802 0.0149
8 -2 12 0.6694 -0.0695
8 -1 0 1.4579 0.6089
8 -1 1 3.4214 -0.5412
8 -1 2 -1.0614 0.3829
8 -1 3 -0.8494 -0.1323
8 -1 4 -0.5420 -0.0299
8 -1 5 -1.1038 0.1236
8 -1 6 0.4908 -0.1232
8 -1 7 0.9311 0.0553
8 -1 8 0.1151 0.0009
8 -1 9 0.6681 -0.0299
8 -1 10 0.0735 0.0189
8 -1 11 0.0739 -0.0182
8 -1 12 -0.5307 0.0140
8 0 0 -1.0641 0.6381
8 0 1 -3.2983 -0.5881
8 0 2 1.6125 0.4099
8 0 3 0.7946 -0.1701
8 0 4 -0.0490 -0.0484
8 0 5 0.6031 0.1333
8 0 6 -1.1356 -0.1474
8 0 7 -0.9368 0.0794
8 0 8 -0.4782 -0.0072
8 0 9 0.3475 -0.0620
8 0 10 -0.4607 0.0637
8 0 11 0.1370 -0.0620
8 0 12 0.3247 0.0173
8 1 0 0.8604 0.5242
8 1 1 1.2634 -0.5461
8 1 2 -0.8937 0.4087
8 1 3 -0.2131 -0.1854
8 1 4 0.4285 -0.0243
8 1 5 -0.0574 0.1549
8 1 6 1.0346 -0.1555
8 1 7 0.4863 0.0761
8 1 8 0.2244 -0.0074
8 1 9 0.0528 -0.0700
8 1 10 -0.1555 0.0922
8 1 11 0.0241 -0.0630
8 1 12 0.1687 0.0419
8 2 0 -0.7902 0.3488
8 2 1 0.6308 -0.4063
8 2 2 -0.2089 0.3333
8 2 3 -0.9834 -0.1684
8 2 4 0.1538 -0.0095
8 2 5 0.1400 0.1287
8 2 6 -0.5540 -0.1306
8 2 7 0.2005 0.0945
8 2 8 0.0791 0.0056
8 2 9 -0.4374 -0.0644
8 2 10 0.2280 0.1010
8 2 11 0.3434 -0.0851
8 2 12 -0.5027 0.0546
8 2 13 1.3920 0.0105
8 3 0 0.2751 0.1766
8 3 1 -0.3189 -0.2717
8 3 2 0.2427 0.2225
8 3 3 1.9663 -0.1273
8 3 4 -0.7778 -0.0157
8 3 5 -1.0372 0.1117
8 3 6 0.1423 -0.1496
8 3 7 -0.1554 0.0904
8 3 8 -0.0461 0.0249
8 3 9 0.7239 -0.0748
8 3 10 -0.3784 0.1155
8 3 11 0.1338 -0.0868
8 3 12 -0.3733 0.0472
8 3 13 0.0211 -0.0413
8 3 14 -0.2427 0.0047
8 4 0 -0.3543 0.0848
8 4 1 -0.0819 -0.1010
8 4 2 -0.6215 0.1299
8 4 3 -0.9089 -0.0959
8 4 4 0.7486 -0.0006
8 4 5 1.5299 0.0869
8 4 6 -0.0236 -0.1075
8 4 7 -0.2483 0.0434
8 4 8 -0.5710 0.0147
8 4 9 -0.7378 -0.0834
8 4 10 -0.1670 0.0930
8 4 11 -0.3877 -0.0703
8 4 12 0.4837 0.0365
8 4 13 -0.5573 -0.0132
8 4 14 0.0247 0.0030
8 5 0 -0.4514 0.0235
8 5 1 0.8916 -0.0356
8 5 2 0.5091 0.0927
8 5 3 -0.2175 -0.0614
8 5 4 -0.8779 0.0143
8 5 5 -0.5666 0.0347
8 5 6 -0.1853 -0.0619
8 5 7 0.9320 0.0459
8 5 8 0.6377 -0.0006
8 5 9 0.5919 -0.0661
8 5 10 0.9892 0.0715
8 5 11 0.3468 -0.0812
8 5 12 0.1839 0.0445
8 5 13 0.2686 0.0119
8 5 14 0.1482 -0.0083
8 5 15 -0.5176 -0.0050
8 6 0 0.2905 0.0166
8 6 1 -0.5182 -0.0517
8 6 2 -0.4833 0.0371
8 6 3 0.5805 -0.0231
8 6 4 0.3279 0.0321
8 6 5 0.0400 -0.0001
8 6 6 -0.4036 -0.0405
8 6 7 -0.1612 0.0471
8 6 8 -0.7792 -0.0131
8 6 9 -0.0168 -0.0378
8 6 10 -0.7688 0.0704
8 6 11 -0.8917 -0.0790
8 6 12 -0.1842 0.0403
8 6 13 -0.1523 -0.0092
8 6 14 -0.3916 -0.0426
8 7 0 -0.0970 0.0213
8 7 1 0.0417 -0.0280
8 7 2 0.0456 -0.0006
8 7 3 -0.1878 -0.0266
8 7 4 0.2433 0.0433
8 7 5 0.2481 -0.0089
8 7 6 0.5033 0.0043
8 7 7 -0.6630 0.0440
8 7 8 0.2709 -0.0429
8 7 9 -0.0301 0.0032
8 7 10 0.1741 0.0518
8 7 11 0.6572 -0.0583
8 7 12 0.4325 0.0530
8 7 13 -0.2384 -0.0215
8 7 14 0.5007 -0.0308
8 8 0 -0.1399 0.0460
8 8 1 0.2383 -0.0236
8 8 2 0.2103 0.0178
8 8 3 -0.3217 -0.0421
8 8 4 -0.2827 0.0189
8 8 5 -0.6633 -0.0249
8 8 6 -0.1582 0.0029
8 8 7 0.4269 0.0201
8 8 8 0.2212 -0.0072
8 8 9 -0.1026 0.0341
8 8 10 -0.1246 0.0268
8 8 11 -0.1420 -0.0447
8 8 12 -0.0708 0.0679
8 8 13 0.0611 -0.0293
8 8 14 -0.1716 0.0063
8 9 0 0.1945 -0.0771
8 9 1 -0.1855 0.0235
8 9 2 -0.2615 0.0378
8 9 3 0.6504 -0.0194
8 9 4 0.1860 -0.0081
8 9 5 0.2243 -0.0395
8 9 6 0.2671 -0.0011
8 9 7 -0.0946 -0.0120
8 9 8 0.0422 -0.0221
8 9 9 -0.0163 0.0123
8 9 10 0.0831 -0.0088
8 9 11 -0.1387 -0.0233
8 9 12 -0.0641 0.0451
8 9 13 -0.1086 -0.0547
8 9 14 0.4138 0.0085
8 10 1 -0.1297 -0.0760
8 10 2 0.5387 0.0725
8 10 3 -0.4539 0.0026
8 10 4 0.0143 0.0306
8 10 5 0.5110 -0.0096
8 10 6 -0.0432 0.0105
8 10 7 0.1083 -0.0191
8 10 8 -0.0091 -0.0309
8 10 9 -0.1227 -0.0190
8 10 10 0.2829 -0.0242
8 10 11 0.1646 -0.0411
8 10 12 -0.2356 0.0224
8 10 13 0.0755 -0.0163
8 11 4 0.2984 0.0458
8 11 5 -0.7744 0.0339
8 11 6 0.2818 0.0345
8 11 7 -0.5990 0.0041
8 11 8 -0.0064 0.0254
8 11 9 -0.3627 0.0161
8 11 10 0.2221 0.0161
8 11 11 -0.3519 0.0257
8 11 12 0.2841 0.0084
8 11 13 -0.0310 -0.0007
8 12 8 0.2030 0.0438
8 12 9 0.5585 0.0499
8 12 10 -0.2982 0.0154
8 12 11 0.1867 0.0155
8 12 12 -0.0507 -0.0234
9 -8 0 -1.1265 0.0355
9 -7 0 -0.1213 -0.0717
9 -7 1 -0.2219 -0.0051
9 -7 2 -0.8231 0.0022
9 -6 0 0.6243 -0.0500
9 -6 1 0.5586 0.0484
9 -6 2 -0.0583 -0.0104
9 -6 3 1.3759 0.0163
9 -6 4 -0.8340 -0.0088
9 -6 5 0.4543 -0.0152
9 -6 6 -0.3038 0.0164
9 -6 7 -0.3737 0.0724
9 -5 0 -1.4786 -0.0128
9 -5 1 0.3648 0.0403
9 -5 2 -0.0744 -0.0091
9 -5 3 -0.5073 -0.0078
9 -5 4 0.2444 -0.0172
9 -5 5 0.1888 0.0262
9 -5 6 -0.3438 -0.0373
9 -5 7 0.3851 -0.0248
9 -4 0 0.0256 0.0033
9 -4 1 0.7615 -0.0735
9 -4 2 -1.0924 0.0234
9 -4 3 0.2597 0.0005
9 -4 4 -0.3144 0.0003
9 -4 5 -0.1362 0.0211
9 -4 6 0.1419 -0.0331
9 -4 7 0.0632 0.0615
9 -4 8 -0.2046 -0.1050
9 -3 0 0.8130 0.1146
9 -3 1 -1.3476 -0.1200
9 -3 2 0.6178 0.0882
9 -3 3 0.1011 -0.0494
9 -3 4 -0.3217 0.0066
9 -3 5 0.2473 0.0453
9 -3 6 -0.1029 -0.0709
9 -3 7 0.3022 0.0587
9 -3 8 0.2577 0.0033
9 -3 9 0.8136 -0.0655
9 -3 10 0.7517 0.0795
9 -2 0 0.0351 0.2485
9 -2 1 -0.0509 -0.1993
9 -2 2 1.4912 0.1563
9 -2 3 0.3359 -0.0682
9 -2 4 0.6757 -0.0340
9 -2 5 0.0702 0.0607
9 -2 6 -0.1550 -0.0664
9 -2 7 -0.8907 0.0385
9 -2 8 -0.0534 0.0126
9 -2 9 -1.0059 -0.0158
9 -2 10 -0.0503 0.0486
9 -2 11 -0.6206 0.0152
9 -1 0 0.3550 0.2971
9 -1 1 0.9706 -0.2959
9 -1 2 -2.1568 0.2018
9 -1 3 -1.4499 -0.0800
9 -1 4 0.0531 -0.0212
9 -1 5 -0.5090 0.0961
9 -1 6 0.9965 -0.0859
9 -1 7 0.8743 0.0434
9 -1 8 0.0531 0.0289
9 -1 9 0.3729 -0.0589
9 -1 10 0.3551 0.0522
9 -1 11 0.3623 -0.0410
9 0 0 -0.9698 0.2650
9 0 1 -0.8636 -0.2973
9 0 2 1.6009 0.2375
9 0 3 1.1038 -0.0743
9 0 4 -0.7495 -0.0511
9 0 5 0.1420 0.1270
9 0 6 -1.2396 -0.1227
9 0 7 -0.7798 0.0558
9 0 8 -0.0456 0.0010
9 0 9 0.4595 -0.0687
9 0 10 -0.6502 0.0607
9 0 11 -0.2402 -0.0099
9 0 12 -0.4499 -0.0376
9 1 0 0.6312 0.1748
9 1 1 -0.2926 -0.2381
9 1 2 -0.5350 0.1827
9 1 3 -0.0587 -0.0555
9 1 4 0.6710 -0.0988
9 1 5 0.5557 0.1549
9 1 6 0.7118 -0.1391
9 1 7 0.3178 0.0479
9 1 8 -0.1264 0.0158
9 1 9 -0.0408 -0.0760
9 1 10 -0.4115 0.0640
9 1 11 0.4016 -0.0575
9 1 12 0.2915 -0.0094
9 2 0 -0.4198 0.0713
9 2 1 1.0248 -0.1527
9 2 2 -0.1659 0.1195
9 2 3 -0.7801 -0.0416
9 2 4 0.4805 -0.0748
9 2 5 -0.4778 0.1440
9 2 6 -0.4506 -0.1329
9 2 7 0.4462 0.0735
9 2 8 0.1328 0.0150
9 2 9 -0.1234 -0.0675
9 2 10 0.3542 0.0968
9 2 11 0.3330 -0.0907
9 2 12 -0.3453 0.0697
9 2 13 0.9604 -0.0590
9 3 0 0.5952 -0.0375
9 3 1 -0.1870 -0.0306
9 3 2 0.2079 0.0528
9 3 3 1.2415 -0.0038
9 3 4 -1.6284 -0.0571
9 3 5 -0.6239 0.1272
9 3 6 0.5310 -0.1209
9 3 7 -0.3665 0.0766
9 3 8 -0.2989 0.0251
9 3 9 0.3015 -0.0691
9 3 10 -0.2590 0.1303
9 3 11 0.1741 -0.0845
9 3 12 -0.2814 0.0362
9 3 13 0.7799 0.0022
9 3 14 -0.0754 0.0936
9 4 0 -0.4234 -0.0607
9 4 1 -0.4785 0.0396
9 4 2 -0.7865 -0.0176
9 4 3 -0.2315 0.0211
9 4 4 1.3117 -0.0596
9 4 5 1.2668 0.1047
9 4 6 -0.4463 -0.1234
9 4 7 -0.2022 0.0707
9 4 8 -0.0924 0.0301
9 4 9 -0.3696 -0.0815
9 4 10 0.0099 0.0796
9 4 11 -0.3819 -0.0458
9 4 12 0.0693 0.0194
9 4 13 -0.9829 0.0431
9 4 14 -0.6078 -0.0708
9 5 0 -0.3653 -0.0296
9 5 1 1.1018 0.0576
9 5 2 0.2747 -0.0230
9 5 3 -0.2799 0.0076
9 5 4 -0.9694 -0.0425
9 5 5 -0.1965 0.0643
9 5 6 0.2762 -0.0761
9 5 7 0.6475 0.0393
9 5 8 0.5103 -0.0129
9 5 9 0.2790 -0.0741
9 5 10 0.5436 0.0631
9 5 11 -0.3089 -0.0524
9 5 12 0.1542 0.0047
9 5 13 0.1155 0.0122
9 5 14 0.6977 -0.0689
9 6 0 -0.1041 -0.0490
9 6 1 -0.3712 0.0262
9 6 2 -0.0825 -0.0103
9 6 3 0.4729 0.0170
9 6 4 0.3703 -0.0205
9 6 5 -0.3812 0.0300
9 6 6 -0.7290 -0.0453
9 6 7 -0.2700 0.0419
9 6 8 -0.7414 -0.0289
9 6 9 -0.1912 -0.0363
9 6 10 -0.3325 0.0541
9 6 11 -0.0340 -0.0763
9 6 12 0.7771 0.0184
9 6 13 0.4342 0.0234
9 7 0 0.0445 -0.0643
9 7 1 0.1784 -0.0217
9 7 2 -0.3031 -0.0086
9 7 3 0.0739 0.0345
9 7 4 0.0567 -0.0087
9 7 5 0.4781 0.0202
9 7 6 0.3840 -0.0333
9 7 7 0.0159 0.0314
9 7 8 0.7251 -0.0103
9 7 9 0.3252 0.0043
9 7 10 0.3487 0.0660
9 7 11 0.0659 -0.0536
9 7 12 -0.5514 0.0359
9 7 13 -1.2048 -0.0016
9 8 0 -0.5229 0.0999
9 8 1 0.4313 -0.0051
9 8 2 -0.0081 -0.0280
9 8 3 -0.2649 0.0146
9 8 4 -0.5340 0.0042
9 8 5 -0.5971 0.0108
9 8 6 0.1924 0.0031
9 8 7 -0.0583 0.0376
9 8 8 -0.5462 -0.0167
9 8 9 -0.6287 0.0199
9 8 10 -0.4411 0.0252
9 8 11 -0.0781 -0.0248
9 8 12 0.4152 0.0595
9 8 13 0.6845 0.0016
9 9 2 -0.2576 -0.0110
9 9 3 0.4602 -0.0353
9 9 4 0.3580 -0.0225
9 9 5 0.3727 -0.0036
9 9 6 0.1973 -0.0009
9 9 7 -0.1910 0.0279
9 9 8 0.3835 -0.0275
9 9 9 0.3261 0.0481
9 9 10 0.0639 -0.0164
9 9 11 0.0858 -0.0344
9 9 12 0.0584 0.0499
9 9 13 -0.1394 -0.0747
9 10 4 0.1045 -0.0448
9 10 5 0.3431 -0.0114
9 10 6 -0.4564 -0.0422
9 10 7 0.2918 -0.0057
9 10 8 0.1135 -0.0431
9 10 9 -0.0081 -0.0068
9 10 10 0.6711 -0.0335
9 10 11 -0.2831 -0.0230
9 10 12 -0.8371 0.0335
9 10 13 -0.5157 -0.0621
9 11 6 0.2060 -0.0145
9 11 7 -0.5218 -0.0205
9 11 8 -0.0916 -0.0297
9 11 9 -0.6119 -0.0242
9 11 10 0.0813 -0.0433
9 11 11 -0.3237 0.0014
9 11 12 1.5905 -0.0484
9 12 10 -0.3686 0.1025
9 12 11 0.3773 0.0762
10 -7 0 -0.2482 -0.0737
10 -7 1 0.5211 0.0108
10 -6 0 1.0303 -0.0677
10 -6 1 0.0218 0.0299
10 -6 2 -0.2481 -0.0878
10 -6 3 0.2901 0.0213
10 -6 4 -0.6612 -0.0893
10 -5 0 -2.1080 -0.1241
10 -5 1 0.4753 0.0807
10 -5 2 -0.6538 0.0075
10 -5 3 0.2492 0.0574
10 -5 4 0.3630 -0.0004
10 -5 5 -0.1231 0.0955
10 -5 6 -0.1819 -0.0643
10 -5 7 -0.0454 -0.0167
10 -4 0 -0.1113 -0.0400
10 -4 1 0.7818 0.0597
10 -4 2 -0.8204 -0.0084
10 -4 3 0.4024 0.0212
10 -4 4 -0.6134 0.0153
10 -4 5 -0.1870 0.0096
10 -4 6 0.0225 -0.0177
10 -4 7 0.1402 0.0523
10 -4 8 -0.3856 -0.0894
10 -3 0 0.5253 -0.0343
10 -3 1 -0.4838 0.0075
10 -3 2 0.7309 -0.0305
10 -3 3 0.2992 -0.0211
10 -3 4 -0.2054 -0.0363
10 -3 5 0.8067 -0.0002
10 -3 6 -0.1756 -0.0036
10 -3 7 0.3099 0.0313
10 -3 8 0.0661 -0.0050
10 -3 9 0.3850 -0.0785
10 -2 0 0.7662 -0.0069
10 -2 1 -0.3201 -0.0357
10 -2 2 0.7646 0.0002
10 -2 3 -0.5644 0.0110
10 -2 4 0.1791 -0.0293
10 -2 5 -0.5132 0.0429
10 -2 6 -0.0386 -0.0701
10 -2 7 -0.4396 0.0222
10 -2 8 0.4221 0.0196
10 -2 9 0.0531 0.0020
10 -2 10 0.7297 0.0155
10 -1 0 -0.4327 0.0164
10 -1 1 0.1530 -0.0201
10 -1 2 -1.3813 0.0301
10 -1 3 -0.2348 0.0240
10 -1 4 0.9300 -0.0499
10 -1 5 0.0155 0.0715
10 -1 6 0.7292 -0.0519
10 -1 7 0.0884 0.0239
10 -1 8 -0.5034 0.0017
10 -1 9 -0.6050 -0.0480
10 -1 10 -0.3082 0.1172
10 0 0 -0.3657 -0.0510
10 0 1 0.0935 0.0058
10 0 2 1.0033 0.0059
10 0 3 0.1753 0.0389
10 0 4 -1.2759 -0.0830
10 0 5 -0.2625 0.1233
10 0 6 -0.8273 -0.0897
10 0 7 -0.1015 0.0332
10 0 8 0.3740 0.0417
10 0 9 0.6822 -0.0813
10 0 10 -0.4535 0.0300
10 0 11 -0.2980 0.0067
10 1 0 -0.0791 -0.1178
10 1 1 -0.7595 0.0441
10 1 2 -0.2347 -0.0279
10 1 3 0.3919 0.0755
10 1 4 0.7840 -0.1320
10 1 5 0.5684 0.1381
10 1 6 0.0784 -0.0952
10 1 7 0.1345 0.0303
10 1 8 -0.0922 0.0315
10 1 9 -0.2157 -0.0811
10 1 10 0.0269 0.0527
10 1 11 1.0380 -0.0021
10 2 0 0.6890 -0.1438
10 2 1 1.2449 0.0871
10 2 2 0.0918 -0.0676
10 2 3 -0.5774 0.0912
10 2 4 0.0338 -0.1480
10 2 5 -0.4339 0.1627
10 2 6 0.2437 -0.1374
10 2 7 0.3518 0.0378
10 2 8 -0.0658 0.0424
10 2 9 0.1126 -0.0570
10 2 10 0.0223 0.0907
10 2 11 0.0896 -0.0974
10 3 0 -0.0087 -0.1555
10 3 1 -0.6156 0.1284
10 3 2 -0.1718 -0.1278
10 3 3 0.3185 0.1095
10 3 4 -0.9042 -0.1294
10 3 5 0.1489 0.1455
10 3 6 0.3138 -0.1079
10 3 7 -0.4591 0.0455
10 3 8 -0.1737 0.0315
10 3 9 0.1131 -0.0869
10 3 10 -0.2069 0.0934
10 3 11 -0.3340 -0.0573
10 3 12 -0.4333 0.0215
10 3 13 0.7500 0.0477
10 4 0 -0.2616 -0.1357
10 4 1 -0.4615 0.1279
10 4 2 -0.4637 -0.0995
10 4 3 0.5359 0.1096
10 4 4 0.8951 -0.1080
10 4 5 0.1116 0.1043
10 4 6 -0.8183 -0.0979
10 4 7 0.0096 0.0645
10 4 8 -0.1502 0.0158
10 4 9 -0.2820 -0.0874
10 4 10 0.1002 0.0814
10 4 11 0.1205 -0.0368
10 4 12 0.7483 0.0007
10 4 13 0.5309 0.0625
10 5 0 0.1900 -0.0833
10 5 1 0.6287 0.1010
10 5 2 0.3786 -0.1131
10 5 3 -0.4663 0.0947
10 5 4 -0.6709 -0.0683
10 5 5 0.0852 0.0905
10 5 6 0.8304 -0.0872
10 5 7 0.0671 0.0514
10 5 8 0.5706 0.0018
10 5 9 0.3014 -0.0447
10 5 10 0.3414 0.0588
10 5 11 -0.3488 -0.0230
10 5 12 -0.1889 0.0040
10 5 13 -1.5438 0.0533
10 6 0 -0.2064 -0.1021
10 6 1 0.3006 0.1227
10 6 2 0.1244 -0.0679
10 6 3 0.0865 0.0303
10 6 4 0.3269 -0.0573
10 6 5 -0.4685 0.0506
10 6 6 -0.4842 -0.0406
10 6 7 -0.0646 0.0428
10 6 8 -0.1341 -0.0259
10 6 9 -0.3441 -0.0068
10 6 10 -0.0818 0.0529
10 6 11 -0.2661 -0.0361
10 6 12 0.3916 -0.0141
10 6 13 0.6822 0.0205
10 6 14 -0.0755 -0.0450
10 7 0 -0.3185 -0.0604
10 7 1 -0.3057 -0.0164
10 7 2 -0.7128 0.0080
10 7 3 0.0889 0.0499
10 7 4 0.0984 -0.0521
10 7 5 0.5655 0.0315
10 7 6 0.0983 -0.0585
10 7 7 0.2970 0.0232
10 7 8 0.2922 -0.0140
10 7 9 -0.1316 -0.0264
10 7 10 0.4499 0.0296
10 7 11 0.0548 -0.0645
10 7 12 0.3218 -0.0052
10 7 13 -0.1853 0.0269
10 8 1 0.5971 -0.0072
10 8 2 -0.0335 -0.0397
10 8 3 0.4049 0.0694
10 8 4 -0.6080 -0.0243
10 8 5 -0.2796 0.0326
10 8 6 0.2527 -0.0269
10 8 7 -0.6450 0.0171
10 8 8 -0.5370 -0.0359
10 8 9 -0.3412 0.0078
10 8 10 -0.1881 0.0166
10 8 11 -0.0069 -0.0396
10 8 12 -0.3231 0.0250
10 8 13 -0.4212 -0.0035
10 9 3 0.1062 -0.0728
10 9 4 0.2133 0.0016
10 9 5 -0.0927 0.0433
10 9 6 -0.0700 0.0085
10 9 7 -0.1742 0.0544
10 9 8 0.5770 0.0044
10 9 9 0.3943 0.0487
10 9 10 -0.3474 0.0016
10 9 11 -0.1066 -0.0078
10 9 12 0.3437 0.1170
10 9 13 0.2170 -0.0024
10 10 5 0.4106 0.0069
10 10 6 -0.0758 -0.0145
10 10 7 0.8216 0.0543
10 10 8 0.1989 -0.0000
10 10 9 -0.1573 0.0321
10 10 10 0.9276 -0.0107
10 10 11 -0.1946 0.0393
10 11 7 -0.6048 -0.0956
10 11 8 -0.4789 -0.1385
10 11 9 -0.3249 -0.0696
10 11 10 -0.0844 -0.0909
11 -5 3 0.8483 0.1160
11 -5 4 -0.1340 -0.0311
11 -5 5 -0.5528 0.0061
11 -4 0 -0.3253 -0.0488
11 -4 1 0.1709 0.0622
11 -4 2 -0.8548 -0.1492
11 -4 3 -0.0314 -0.0261
11 -4 4 -0.6913 0.0679
11 -4 5 0.1418 0.1074
11 -4 6 0.2373 0.0926
11 -4 7 0.3011 0.1152
11 -3 0 0.0808 -0.0762
11 -3 1 0.3238 0.0490
11 -3 2 0.2582 -0.0573
11 -3 3 0.1595 0.0499
11 -3 4 -0.1173 -0.0683
11 -3 5 0.5368 -0.0322
11 -3 6 -0.2834 -0.0012
11 -3 7 0.1989 -0.0342
11 -3 8 -0.0587 -0.0205
11 -2 0 0.5929 -0.2163
11 -2 1 -0.4552 0.0824
11 -2 2 0.3261 -0.0711
11 -2 3 -0.0409 0.0682
11 -2 4 0.2782 -0.0467
11 -2 5 -0.0224 -0.0191
11 -2 6 0.1769 -0.0664
11 -2 7 -0.3919 -0.0104
11 -2 8 0.2802 0.0196
11 -1 0 -0.5536 -0.1673
11 -1 1 -0.0775 0.1514
11 -1 2 -0.6493 -0.1317
11 -1 3 0.0405 0.0753
11 -1 4 0.3966 -0.0840
11 -1 5 -0.2493 0.0834
11 -1 6 -0.1125 -0.0290
11 -1 7 -0.1302 0.0241
11 -1 8 -0.2258 -0.0099
11 -1 9 -0.4677 0.0399
11 0 0 -0.2484 -0.1681
11 0 1 0.2501 0.2352
11 0 2 0.4211 -0.1601
11 0 3 -0.4004 0.1599
11 0 4 -0.7327 -0.1165
11 0 5 -0.1819 0.1248
11 0 6 0.0784 -0.0345
11 0 7 0.6336 0.0116
11 0 8 0.3381 0.0569
11 0 9 0.6116 -0.1135
11 1 0 0.7405 -0.2599
11 1 1 -0.1052 0.2411
11 1 2 0.3635 -0.1907
11 1 3 0.6578 0.1915
11 1 4 0.6810 -0.1367
11 1 5 0.0311 0.1139
11 1 6 -0.0716 -0.0612
11 1 7 -0.5436 0.0151
11 1 8 -0.4156 0.0562
11 1 9 -0.7836 -0.0677
11 1 10 -0.0119 -0.0172
11 2 0 -0.3083 -0.3465
11 2 1 -0.0557 0.2240
11 2 2 -0.4452 -0.2208
11 2 3 -0.8044 0.1670
11 2 4 -0.4650 -0.1798
11 2 5 0.4011 0.1304
11 2 6 0.1125 -0.1133
11 2 7 0.3306 -0.0081
11 2 8 0.4217 0.0537
11 2 9 0.6572 -0.0786
11 2 10 0.1116 0.0852
11 3 1 -0.1029 0.1742
11 3 2 -0.1348 -0.1821
11 3 3 0.4427 0.1363
11 3 4 0.0326 -0.1718
11 3 5 -0.0267 0.1338
11 3 6 0.0945 -0.1030
11 3 7 -0.3509 0.0057
11 3 8 -0.3613 0.0437
11 3 9 -0.2589 -0.0900
11 3 10 -0.1007 0.0956
11 3 11 -0.2792 -0.0108
11 4 1 -0.0726 0.1215
11 4 2 0.3197 -0.0969
11 4 3 0.7626 0.1511
11 4 4 0.1119 -0.1032
11 4 5 -0.3366 0.1044
11 4 6 -0.6839 -0.0348
11 4 7 0.0759 0.0327
11 4 8 0.0304 0.0372
11 4 9 -0.0490 -0.0726
11 4 10 -0.0215 0.0599
11 4 11 -0.4626 -0.0385
11 4 12 0.4602 -0.0070
11 5 2 -0.0312 -0.1379
11 5 3 -1.0160 0.1257
11 5 4 -0.4465 -0.0682
11 5 5 0.2321 0.0725
11 5 6 1.1191 -0.0461
11 5 7 0.1245 0.0523
11 5 8 0.6046 0.0239
11 5 9 0.2112 -0.0479
11 5 10 0.0541 0.0452
11 5 11 0.5149 -0.0221
11 5 12 -0.0412 -0.0044
11 6 2 0.0352 -0.1239
11 6 3 -0.0166 0.0477
11 6 4 0.7473 -0.0692
11 6 5 -0.5346 0.0538
11 6 6 -0.1387 -0.0661
11 6 7 -0.6502 0.0061
11 6 8 -0.2146 -0.0162
11 6 9 -0.5879 -0.0198
11 6 10 0.1935 0.0613
11 6 11 -0.5962 -0.0132
11 6 12 0.0777 -0.0234
11 6 13 0.2208 0.0489
11 7 3 0.3302 0.0244
11 7 4 0.1814 -0.0771
11 7 5 0.3835 0.0230
11 7 6 -0.4285 -0.0323
11 7 7 0.3406 0.0154
11 7 8 0.1116 -0.0259
11 7 9 -0.0233 0.0064
11 7 10 0.5684 0.0250
11 7 11 -0.2748 -0.0305
11 7 12 0.8182 -0.0497
11 8 3 0.3877 0.0575
11 8 4 -0.9418 0.0014
11 8 5 -0.1073 0.0168
11 8 6 0.5015 -0.0386
11 8 7 -0.1600 0.0220
11 8 8 0.4730 0.0031
11 8 9 -0.3281 0.0070
11 8 11 0.3318 -0.0692
11 8 12 -0.5947 0.0481
11 8 13 -0.6720 0.0267
11 9 4 0.2147 0.0420
11 9 5 -0.1065 0.0741
11 9 6 -0.1158 -0.0018
11 9 7 -0.5382 0.0336
11 9 8 -0.2805 -0.0354
11 9 9 -0.0031 -0.0589
11 10 6 0.0061 0.0340
11 10 7 0.6020 0.0639
11 10 8 0.2424 0.0697
12 -2 0 -0.5304 -0.3348
12 -2 1 -0.7479 0.0731
12 -2 2 -0.2096 -0.1284
12 -2 3 0.1752 0.0550
12 -2 4 0.0297 -0.0186
12 -2 5 0.3418 0.0312
12 -2 6 0.0484 0.0558
12 -1 1 0.9775 0.2352
12 -1 2 0.4241 -0.1577
12 -1 3 0.4204 0.1424
12 -1 4 0.3045 -0.0340
12 -1 5 0.2066 0.0754
12 -1 6 -0.0085 -0.0728
12 -1 7 0.4662 -0.0124
12 -1 8 0.3466 -0.0176
12 0 1 -0.6669 0.2844
12 0 2 -0.8073 -0.2213
12 0 3 -0.7039 0.1618
12 0 4 -0.4522 -0.1493
12 0 5 -0.5209 0.0722
12 0 6 -0.0165 0.0348
12 0 7 0.0142 -0.0575
12 0 8 -0.4921 -0.0058
12 0 9 -0.2880 -0.1648
12 1 2 1.1670 -0.2994
12 1 3 0.5542 0.2396
12 1 4 0.3450 -0.1672
12 1 5 -0.3121 0.0833
12 1 6 0.3992 -0.0751
12 1 7 -0.3850 0.0146
12 1 8 0.1223 0.1065
12 1 9 0.1079 -0.0270
12 2 2 -0.9831 -0.2871
12 2 3 -0.8989 0.2513
12 2 4 -0.0132 -0.1418
12 2 5 0.8754 0.0961
12 2 6 -0.5338 -0.0300
12 2 7 0.0175 -0.0120
12 2 8 0.2050 0.0858
12 2 9 -0.2414 -0.0600
12 3 3 1.1631 0.0770
12 3 4 -0.0743 -0.1156
12 3 5 -0.3973 0.0921
12 3 6 0.3914 -0.0286
12 3 7 0.0758 -0.0299
12 3 8 0.0557 0.0540
12 3 9 0.3850 -0.1070
12 3 10 0.6452 0.0681
12 4 4 -0.3322 -0.0847
12 4 5 0.0785 0.0471
12 4 6 -0.4346 -0.0269
12 4 7 0.0712 -0.0557
12 4 8 0.1409 0.0312
12 4 9 -0.3785 -0.0915
12 4 10 -0.3998 0.0142
12 4 11 -1.0722 0.0004
12 5 5 0.0328 -0.0000
12 5 6 0.6135 0.0176
12 5 7 -0.1659 -0.0066
12 5 8 -0.1416 0.0441
12 5 9 -0.4118 -0.0500
12 5 10 -0.5150 0.0551
12 5 11 0.5167 -0.0331
12 6 5 -0.4901 0.0793
12 6 6 0.1898 -0.0438
12 6 7 -0.9464 0.0455
12 6 8 0.2502 0.0820
12 6 9 0.3961 -0.0181
12 6 10 1.4074 0.0908
12 6 11 0.6989 -0.0122
12 6 12 1.0436 0.0153
12 7 7 1.0192 -0.0228
12 7 8 0.7106 -0.0427
12 7 9 0.2430 0.0257
12 7 10 -0.4113 0.0242
12 8 9 -2.0373 -0.0730
13 0 6 0.0636 0.0328
13 1 7 -0.8695 0.1126
13 2 5 1.2809 0.0612
13 2 6 0.3557 0.0142
13 2 8 1.1972 0.0374
13 3 6 -0.3891 0.0280
13 4 7 0.6583 -0.0930
13 4 8 0.6156 0.0607
13 5 6 -0.1098 0.0573
0 0 0 0.0 0.0
;
_shelx_fab_checksum              29557
_olex2_submission_special_instructions 'No special instructions were received'
_oxdiff_exptl_absorpt_empirical_details
;
Empirical correction (ABSPACK) includes:
- Absorption correction using spherical harmonics
- Frame scaling
;
_oxdiff_exptl_absorpt_empirical_full_max 1.297
_oxdiff_exptl_absorpt_empirical_full_min 0.834
loop_
_space_group_symop_operation_xyz
'x, y, z'
'-x, -y, -z'
loop_
_atom_site_label
_atom_site_type_symbol
_atom_site_fract_x
_atom_site_fract_y
_atom_site_fract_z
_atom_site_U_iso_or_equiv
_atom_site_adp_type
_atom_site_occupancy
_atom_site_site_symmetry_order
_atom_site_calc_flag
_atom_site_refinement_flags_posn
_atom_site_refinement_flags_adp
_atom_site_refinement_flags_occupancy
Fe1 Fe 0.500000 0.000000 1.000000 0.02439(10) Uani 1 2 d S T P
Se1 Se 1.07323(7) 0.00443(12) 0.79551(8) 0.0881(3) Uani 0.8 1 d . . .
S2 S 0.58972(6) 0.78985(5) 0.48873(5) 0.03396(12) Uani 1 1 d . . .
S1 S 0.39769(6) 0.68388(5) 0.55729(5) 0.03418(12) Uani 1 1 d . . .
N2 N 0.47031(17) 0.22428(15) 0.84867(16) 0.0308(3) Uani 1 1 d . . .
N3 N 0.52817(17) 0.93284(15) 0.83031(16) 0.0296(3) Uani 1 1 d . . .
N1 N 0.73885(18) 0.02682(17) 0.91587(17) 0.0330(3) Uani 1 1 d . . .
C4 C 0.4328(2) 0.50698(18) 0.67002(19) 0.0296(4) Uani 1 1 d . . .
C9 C 0.5587(2) 0.84144(17) 0.62606(18) 0.0294(4) Uani 1 1 d . . .
C8 C 0.4307(2) 0.8092(2) 0.7497(2) 0.0363(4) Uani 1 1 d . . .
H8 H 0.352849 0.755890 0.767327 0.044 Uiso 1 1 calc R . .
C5 C 0.3243(2) 0.4069(2) 0.7233(2) 0.0351(4) Uani 1 1 d . . .
H5 H 0.237294 0.432584 0.700113 0.042 Uiso 1 1 calc R . .
C11 C 0.6524(2) 0.9634(2) 0.7089(2) 0.0352(4) Uani 1 1 d . . .
H11 H 0.729245 1.016042 0.694156 0.042 Uiso 1 1 calc R . .
C6 C 0.3476(2) 0.2683(2) 0.8113(2) 0.0343(4) Uani 1 1 d . . .
H6 H 0.274015 0.201951 0.846615 0.041 Uiso 1 1 calc R . .
C10 C 0.6719(2) 0.9209(2) 0.6053(2) 0.0364(4) Uani 1 1 d . . .
H10 H 0.759519 0.945005 0.522872 0.044 Uiso 1 1 calc R . .
C3 C 0.5610(2) 0.4631(2) 0.7064(2) 0.0388(4) Uani 1 1 d . . .
H3 H 0.636389 0.527400 0.672245 0.047 Uiso 1 1 calc R . .
C7 C 0.4201(2) 0.8574(2) 0.8471(2) 0.0357(4) Uani 1 1 d . . .
H7 H 0.332418 0.836118 0.929389 0.043 Uiso 1 1 calc R . .
C1 C 0.8686(2) 0.0200(2) 0.8677(2) 0.0417(5) Uani 1 1 d . . .
C2 C 0.5750(2) 0.3223(2) 0.7942(2) 0.0395(4) Uani 1 1 d . . .
H2 H 0.662228 0.293665 0.817019 0.047 Uiso 1 1 calc R . .
Se1A Se 1.0546(3) 0.0973(5) 0.7535(4) 0.0675(10) Uani 0.1 1 d . . .
Se1B Se 1.0448(4) -0.0583(7) 0.7969(6) 0.0748(14) Uani 0.1 1 d . . .
loop_
_atom_site_aniso_label
_atom_site_aniso_U_11
_atom_site_aniso_U_22
_atom_site_aniso_U_33
_atom_site_aniso_U_23
_atom_site_aniso_U_13
_atom_site_aniso_U_12
Fe1 0.02171(17) 0.02660(17) 0.02530(17) -0.01228(13) -0.00740(13) -0.00093(12)
Se1 0.0233(3) 0.1741(11) 0.0661(3) -0.0615(5) -0.0069(2) 0.0050(4)
S2 0.0456(3) 0.0297(2) 0.0274(2) -0.01432(17) -0.01066(19) -0.00268(18)
S1 0.0446(3) 0.0282(2) 0.0368(2) -0.01493(18) -0.0222(2) 0.00374(18)
N2 0.0324(8) 0.0288(7) 0.0325(8) -0.0126(6) -0.0135(6) -0.0012(6)
N3 0.0308(8) 0.0312(7) 0.0292(7) -0.0155(6) -0.0100(6) -0.0006(6)
N1 0.0266(8) 0.0395(8) 0.0328(8) -0.0162(7) -0.0088(6) -0.0028(6)
C4 0.0373(9) 0.0282(8) 0.0286(8) -0.0159(7) -0.0142(7) 0.0034(7)
C9 0.0382(10) 0.0236(8) 0.0269(8) -0.0113(6) -0.0132(7) 0.0027(7)
C8 0.0362(10) 0.0389(10) 0.0385(10) -0.0215(8) -0.0095(8) -0.0068(8)
C5 0.0316(9) 0.0367(9) 0.0397(10) -0.0156(8) -0.0174(8) 0.0017(7)
C11 0.0348(10) 0.0392(10) 0.0321(9) -0.0158(8) -0.0083(8) -0.0091(8)
C6 0.0333(9) 0.0341(9) 0.0366(9) -0.0138(8) -0.0139(8) -0.0038(7)
C10 0.0351(10) 0.0424(10) 0.0284(9) -0.0165(8) -0.0038(7) -0.0075(8)
C3 0.0392(10) 0.0311(9) 0.0498(11) -0.0128(8) -0.0228(9) -0.0057(8)
C7 0.0311(9) 0.0436(10) 0.0340(9) -0.0223(8) -0.0045(7) -0.0052(8)
C1 0.0287(10) 0.0647(13) 0.0310(9) -0.0211(9) -0.0088(8) -0.0025(9)
C2 0.0387(11) 0.0343(9) 0.0486(11) -0.0126(8) -0.0244(9) -0.0016(8)
Se1A 0.0127(12) 0.115(3) 0.065(2) -0.042(2) -0.0003(11) -0.0022(15)
Se1B 0.0154(15) 0.124(4) 0.087(2) -0.056(3) -0.0162(15) 0.0168(17)
loop_
_atom_type_symbol
_atom_type_description
_atom_type_scat_dispersion_real
_atom_type_scat_dispersion_imag
_atom_type_scat_source
C C 0.0033 0.0016 'International Tables Vol C Tables 4.2.6.8 and 6.1.1.4'
H H 0.0000 0.0000 'International Tables Vol C Tables 4.2.6.8 and 6.1.1.4'
Fe Fe 0.3463 0.8444 'International Tables Vol C Tables 4.2.6.8 and 6.1.1.4'
N N 0.0061 0.0033 'International Tables Vol C Tables 4.2.6.8 and 6.1.1.4'
S S 0.1246 0.1234 'International Tables Vol C Tables 4.2.6.8 and 6.1.1.4'
Se Se -0.0929 2.2259 'International Tables Vol C Tables 4.2.6.8 and 6.1.1.4'
loop_
_geom_angle_atom_site_label_1
_geom_angle_atom_site_label_2
_geom_angle_atom_site_label_3
_geom_angle
_geom_angle_site_symmetry_1
_geom_angle_site_symmetry_3
N2 Fe1 N2 180.00(6) . 2_657
N2 Fe1 N3 91.27(5) 2_657 1_545
N2 Fe1 N3 91.27(5) . 2_667
N2 Fe1 N3 88.73(5) 2_657 2_667
N2 Fe1 N3 88.73(5) . 1_545
N3 Fe1 N3 180.00(3) 1_545 2_667
N1 Fe1 N2 90.74(6) 2_657 2_657
N1 Fe1 N2 89.27(6) . 2_657
N1 Fe1 N2 89.27(6) 2_657 .
N1 Fe1 N2 90.73(6) . .
N1 Fe1 N3 88.88(6) . 1_545
N1 Fe1 N3 91.12(6) . 2_667
N1 Fe1 N3 91.12(6) 2_657 1_545
N1 Fe1 N3 88.88(6) 2_657 2_667
N1 Fe1 N1 180.0 . 2_657
Se1A Se1 C1 75.6(2) . .
Se1B Se1 C1 76.1(4) . .
Se1B Se1 Se1A 130.7(7) . .
C9 S2 S1 104.27(7) . .
C4 S1 S2 104.52(7) . .
C6 N2 Fe1 122.75(12) . .
C6 N2 C2 116.57(16) . .
C2 N2 Fe1 120.65(12) . .
C11 N3 Fe1 123.10(12) . 1_565
C7 N3 Fe1 120.57(12) . 1_565
C7 N3 C11 116.32(16) . .
C1 N1 Fe1 167.82(17) . .
C5 C4 S1 117.22(14) . .
C3 C4 S1 124.46(14) . .
C3 C4 C5 118.31(16) . .
C8 C9 S2 124.76(14) . .
C8 C9 C10 118.22(16) . .
C10 C9 S2 117.02(14) . .
C9 C8 H8 120.5 . .
C9 C8 C7 118.92(18) . .
C7 C8 H8 120.5 . .
C4 C5 H5 120.6 . .
C6 C5 C4 118.89(17) . .
C6 C5 H5 120.6 . .
N3 C11 H11 118.2 . .
N3 C11 C10 123.59(17) . .
C10 C11 H11 118.2 . .
N2 C6 C5 123.59(17) . .
N2 C6 H6 118.2 . .
C5 C6 H6 118.2 . .
C9 C10 H10 120.5 . .
C11 C10 C9 118.95(17) . .
C11 C10 H10 120.5 . .
C4 C3 H3 120.6 . .
C2 C3 C4 118.72(17) . .
C2 C3 H3 120.6 . .
N3 C7 C8 123.98(18) . .
N3 C7 H7 118.0 . .
C8 C7 H7 118.0 . .
N1 C1 Se1 178.5(2) . .
N1 C1 Se1A 152.7(3) . .
N1 C1 Se1B 154.5(3) . .
Se1A C1 Se1 28.77(14) . .
Se1B C1 Se1 24.61(16) . .
Se1B C1 Se1A 49.8(3) . .
N2 C2 C3 123.90(18) . .
N2 C2 H2 118.1 . .
C3 C2 H2 118.1 . .
Se1 Se1A C1 75.7(3) . .
Se1 Se1A Se1B 22.6(3) . .
Se1B Se1A C1 64.4(2) . .
Se1 Se1B C1 79.3(4) . .
Se1 Se1B Se1A 26.7(4) . .
Se1A Se1B C1 65.8(2) . .
loop_
_geom_bond_atom_site_label_1
_geom_bond_atom_site_label_2
_geom_bond_distance
_geom_bond_site_symmetry_2
Fe1 N2 2.2473(14) 2_657
Fe1 N2 2.2473(14) .
Fe1 N3 2.2498(15) 2_667
Fe1 N3 2.2498(15) 1_545
Fe1 N1 2.1161(16) 2_657
Fe1 N1 2.1160(16) .
Se1 C1 1.803(2) .
Se1 Se1A 0.895(4) .
Se1 Se1B 0.764(5) .
S2 S1 2.0306(7) .
S2 C9 1.7790(18) .
S1 C4 1.7777(17) .
N2 C6 1.339(2) .
N2 C2 1.340(2) .
N3 C11 1.347(2) .
N3 C7 1.338(2) .
N1 C1 1.142(3) .
C4 C5 1.384(3) .
C4 C3 1.383(3) .
C9 C8 1.379(3) .
C9 C10 1.389(3) .
C8 H8 0.9300 .
C8 C7 1.381(3) .
C5 H5 0.9300 .
C5 C6 1.382(3) .
C11 H11 0.9300 .
C11 C10 1.378(3) .
C6 H6 0.9300 .
C10 H10 0.9300 .
C3 H3 0.9300 .
C3 C2 1.379(3) .
C7 H7 0.9300 .
C1 Se1A 1.802(4) .
C1 Se1B 1.781(5) .
C2 H2 0.9300 .
Se1A Se1B 1.509(9) .
loop_
_smtbx_masks_void_nr
_smtbx_masks_void_average_x
_smtbx_masks_void_average_y
_smtbx_masks_void_average_z
_smtbx_masks_void_volume
_smtbx_masks_void_count_electrons
1 0.259 -0.451 -0.751 340.1 81.5
