#------------------------------------------------------------------------------
#$Date: 2019-11-07 23:03:24 +0200 (Thu, 07 Nov 2019) $
#$Revision: 223921 $
#$URL: file:///home/coder/svn-repositories/cod/cif/7/70/06/7700637.cif $
#------------------------------------------------------------------------------
#
# This file is available in the Crystallography Open Database (COD),
# http://www.crystallography.net/
#
# All data on this site have been placed in the public domain by the
# contributors.
#
data_7700637
loop_
_publ_author_name
'Ito, Hiroaki'
'Miura, Akira'
'Goto, Yosuke'
'Mizuguchi, Yoshikazu'
'Moriyoshi, Chikako'
'Kuroiwa, Yoshihiro'
'Azuma, Masaki'
'Liu, Jinjia'
'Wen, Xiao-Dong'
'Nishioka, Shunta'
'Maeda, Kazuhiko'
'Masubuchi, Yuji'
'Rosero-Navarro, Nataly Carolina'
'Tadanaga, Kiyoharu'
_publ_section_title
;
 An electronic structure governed by the displacement of the indium site
 in In-S<sub>6</sub> octahedra: LnOInS<sub>2</sub> (Ln = La, Ce, and Pr).
;
_journal_issue                   32
_journal_name_full
'Dalton transactions (Cambridge, England : 2003)'
_journal_page_first              12272
_journal_page_last               12278
_journal_paper_doi               10.1039/c9dt01562k
_journal_volume                  48
_journal_year                    2019
_chemical_formula_sum            'In O Pr S2'
_chemical_formula_weight         335.8
_space_group_IT_number           11
_space_group_name_Hall           '-P 2yb'
_space_group_name_H-M_alt        'P 1 21/m 1'
_symmetry_cell_setting           monoclinic
_symmetry_Int_Tables_number      11
_symmetry_space_group_name_Hall  '-P 2yb'
_symmetry_space_group_name_H-M   'P 1 21/m 1'
_audit_update_record
;
2019-01-16 deposited with the CCDC.    2019-07-24 downloaded from the CCDC.
;
_cell_angle_alpha                90
_cell_angle_beta                 90
_cell_angle_gamma                90
_cell_formula_units_Z            2
_cell_length_a                   4.00067(3)
_cell_length_b                   4.00209(3)
_cell_length_c                   12.75783(3)
_cell_measurement_temperature    450
_cell_volume                     204.266(2)
_diffrn_ambient_temperature      450
_diffrn_detector_type
'multiple MYTHEN system (Rev. Sci. Instrum. 88, 85111 (2017))'
_diffrn_measurement_device_type  SPring-8_BL02B2
_diffrn_radiation_probe          x-ray
_diffrn_radiation_type           synchrotron
_diffrn_radiation_wavelength     0.49527
_diffrn_source                   synchrotron
_exptl_absorpt_coefficient_mu    6.746
_exptl_crystal_density_diffrn    5.4604
_exptl_crystal_F_000             296
_pd_instr_location               ' ?'
_pd_meas_2theta_range_inc        0.006
_pd_meas_2theta_range_max        78.216
_pd_meas_2theta_range_min        2.100
_pd_meas_number_of_points        12687
_pd_proc_2theta_range_inc        0.006
_pd_proc_2theta_range_max        78.216
_pd_proc_2theta_range_min        2.1
_pd_proc_ls_background_function  'Manual background'
_pd_proc_ls_pref_orient_corr     none
_pd_proc_ls_profile_function     Pseudo-Voigt
_pd_proc_ls_prof_R_factor        0.0566
_pd_proc_ls_prof_wR_expected     0.0132
_pd_proc_ls_prof_wR_factor       0.0864
_refine_ls_goodness_of_fit_all   6.56
_refine_ls_number_constraints    0
_refine_ls_number_parameters     22
_refine_ls_number_restraints     0
_refine_ls_R_factor_all          0.1151
_refine_ls_R_factor_gt           0.0618
_refine_ls_shift/su_max          0.0422
_refine_ls_shift/su_mean         0.0085
_refine_ls_weighting_scheme      sigma
_refine_ls_wR_factor_all         0.0706
_refine_ls_wR_factor_gt          0.0621
_cod_data_source_file            c9dt01562k2.cif
_cod_data_source_block           I_CCDC8
_cod_depositor_comments
;
The following automatic conversions were performed:

'_diffrn_radiation_probe' value 'X-ray' changed to 'x-ray' according
to
/home/data/users/saulius/crontab/automatic-downloads/rss-feeds/RSC/lib/dictionaries/cif_core.dic
dictionary named 'cif_core.dic' version 2.4.2 from 2011-04-26.

Automatic conversion script
Id: cif_fix_values 4973 2017-02-22 13:04:09Z antanas 

 Adding full bibliography for 7700629--7700637.cif.
;
_cod_original_formula_sum        'In1 O1 Pr1 S2'
_cod_database_code               7700637
loop_
_space_group_symop_id
_space_group_symop_operation_xyz
1 x,y,z
2 -x,y+1/2,-z
3 -x,-y,-z
4 x,-y+1/2,z
loop_
_atom_site_label
_atom_site_type_symbol
_atom_site_fract_x
_atom_site_fract_y
_atom_site_fract_z
_atom_site_adp_type
_atom_site_U_iso_or_equiv
_atom_site_site_symmetry_multiplicity
_atom_site_occupancy
_atom_site_calc_flag
Pr1 Pr 0.25 0.25 0.09593(4) Uiso 0.00558(10) 2 1 d
In1 In 0.25 0.25 0.60858(7) Uani 0.0547(11) 2 1 d
S1 S 0.25 0.25 0.4121(2) Uiso 0.0159(5) 2 1 d
S2 S 0.25 0.25 0.79446(18) Uiso 0.0106(5) 2 1 d
O1 O 0.75 0.25 0 Uiso 0.0041(12) 2 1 d
loop_
_atom_site_aniso_label
_atom_site_aniso_type_symbol
_atom_site_aniso_U_11
_atom_site_aniso_U_22
_atom_site_aniso_U_33
_atom_site_aniso_U_12
_atom_site_aniso_U_13
_atom_site_aniso_U_23
In1 In 0.111(3) 0.0475(19) 0.0056(5) 0 0 0
loop_
_atom_type_symbol
_atom_type_scat_dispersion_real
_atom_type_scat_dispersion_imag
_atom_type_scat_source
In -2.1272 0.6711 'International Tables Vol C tables 4.2.6.8 and 6.1.1.1'
O 0.0007 0.0027 'International Tables Vol C tables 4.2.6.8 and 6.1.1.1'
Pr -1.0877 1.4730 'International Tables Vol C tables 4.2.6.8 and 6.1.1.1'
S 0.0527 0.0607 'International Tables Vol C tables 4.2.6.8 and 6.1.1.1'
loop_
_geom_angle_atom_site_label_1
_geom_angle_atom_site_label_2
_geom_angle_atom_site_label_3
_geom_angle_site_symmetry_1
_geom_angle_site_symmetry_3
_geom_angle
O1 Pr1 O1 1_455 . 117.08(2)
O1 Pr1 O1 1_455 2_645 74.198(10)
O1 Pr1 O1 1_455 2_655 74.198(10)
O1 Pr1 O1 . 2_645 74.198(10)
O1 Pr1 O1 . 2_655 74.198(10)
O1 Pr1 O1 2_645 2_655 117.10(2)
S1 In1 S1 . 2_546 84.67(5)
S1 In1 S1 . 2_556 84.67(5)
S1 In1 S1 . 2_646 84.67(5)
S1 In1 S1 . 2_656 84.67(5)
S1 In1 S2 . . 180.0(5)
S1 In1 S1 2_546 2_556 89.526(7)
S1 In1 S1 2_546 2_646 89.486(7)
S1 In1 S1 2_546 2_656 169.34(8)
S1 In1 S2 2_546 . 95.33(5)
S1 In1 S1 2_556 2_646 169.34(8)
S1 In1 S1 2_556 2_656 89.486(7)
S1 In1 S2 2_556 . 95.33(5)
S1 In1 S1 2_646 2_656 89.526(7)
S1 In1 S2 2_646 . 95.33(5)
S1 In1 S2 2_656 . 95.33(5)
In1 S1 In1 . 2_546 95.33(5)
In1 S1 In1 . 2_556 95.33(5)
In1 S1 In1 . 2_646 95.33(5)
In1 S1 In1 . 2_656 95.33(5)
In1 S1 In1 2_546 2_556 89.526(10)
In1 S1 In1 2_546 2_646 89.486(10)
In1 S1 In1 2_546 2_656 169.34(11)
In1 S1 In1 2_556 2_646 169.34(11)
In1 S1 In1 2_556 2_656 89.486(10)
In1 S1 In1 2_646 2_656 89.526(10)
Pr1 O1 Pr1 . 1_655 117.079(16)
Pr1 O1 Pr1 . 2_645 105.802(7)
Pr1 O1 Pr1 . 2_655 105.802(7)
Pr1 O1 O1 . 2_645 52.911(5)
Pr1 O1 O1 . 2_655 52.911(5)
Pr1 O1 O1 . 2_745 127.089(5)
Pr1 O1 O1 . 2_755 127.089(5)
Pr1 O1 Pr1 1_655 2_645 105.802(7)
Pr1 O1 Pr1 1_655 2_655 105.802(7)
Pr1 O1 O1 1_655 2_645 127.089(5)
Pr1 O1 O1 1_655 2_655 127.089(5)
Pr1 O1 O1 1_655 2_745 52.911(5)
Pr1 O1 O1 1_655 2_755 52.911(5)
Pr1 O1 Pr1 2_645 2_655 117.097(16)
Pr1 O1 O1 2_645 2_645 52.891(5)
Pr1 O1 O1 2_645 2_655 127.109(5)
Pr1 O1 O1 2_645 2_745 52.891(5)
Pr1 O1 O1 2_645 2_755 127.109(5)
Pr1 O1 O1 2_655 2_645 127.109(5)
Pr1 O1 O1 2_655 2_655 52.891(5)
Pr1 O1 O1 2_655 2_745 127.109(5)
Pr1 O1 O1 2_655 2_755 52.891(5)
O1 O1 O1 2_645 2_655 90.0204(5)
O1 O1 O1 2_645 2_745 89.9796(5)
O1 O1 O1 2_645 2_755 180.0(5)
O1 O1 O1 2_655 2_745 180.0(5)
O1 O1 O1 2_655 2_755 89.9796(5)
O1 O1 O1 2_745 2_755 90.0204(5)
loop_
_geom_bond_atom_site_label_1
_geom_bond_atom_site_label_2
_geom_bond_site_symmetry_2
_geom_bond_distance
Pr1 O1 1_455 2.3451(3)
Pr1 O1 . 2.3451(3)
Pr1 O1 2_645 2.3457(3)
Pr1 O1 2_655 2.3457(3)
In1 S1 . 2.507(3)
In1 S1 2_546 2.8417(3)
In1 S1 2_556 2.8417(3)
In1 S1 2_646 2.8417(3)
In1 S1 2_656 2.8417(3)
In1 S2 . 2.371(2)
O1 O1 2_645 2.82940(3)
O1 O1 2_655 2.82940(3)
O1 O1 2_745 2.82940(3)
O1 O1 2_755 2.82940(3)
loop_
_pd_proc_point_id
_pd_proc_2theta_corrected
_pd_proc_intensity_net
_pd_calc_intensity_net
_pd_proc_ls_weight
1 2.1000 5454.00 5782.81 74.00
2 2.1060 5487.00 5846.83 74.00
3 2.1120 5445.00 5911.62 74.00
4 2.1180 5410.00 5977.35 74.00
5 2.1240 5396.00 6044.25 73.00
6 2.1300 5496.00 6112.63 74.00
7 2.1360 5606.00 6182.89 75.00
8 2.1420 5608.00 6255.60 75.00
9 2.1480 5708.00 6331.52 76.00
10 2.1540 5774.00 6411.79 76.00
11 2.1600 5905.00 6498.05 77.00
12 2.1660 6150.00 6592.79 78.00
13 2.1720 6237.00 6699.97 79.00
14 2.1780 6336.00 6826.07 80.00
15 2.1840 6715.00 6966.59 82.00
16 2.1900 7357.00 7080.32 86.00
17 2.1960 8552.00 7323.90 92.00
18 2.2020 11826.00 8384.87 109.00
19 2.2080 21577.00 14970.50 147.00
20 2.2140 48375.00 40255.70 220.00
21 2.2200 91126.00 83812.70 302.00
22 2.2260 113020.00 97698.60 336.00
23 2.2320 90492.00 60292.70 301.00
24 2.2380 47279.00 23510.00 217.00
25 2.2440 19613.00 9938.13 140.00
26 2.2500 11005.00 7301.35 105.00
27 2.2560 8565.00 6794.28 93.00
28 2.2620 7402.00 6568.09 86.00
29 2.2680 6683.00 6415.06 82.00
30 2.2740 6283.00 6300.50 79.00
31 2.2800 6075.00 6209.38 78.00
32 2.2860 5891.00 6133.32 77.00
33 2.2920 5818.00 6067.38 76.00
34 2.2980 5675.00 6008.47 75.00
35 2.3040 5555.00 5954.59 75.00
36 2.3100 5501.00 5919.51 74.00
37 2.3160 5547.00 5894.76 74.00
38 2.3220 5531.00 5872.14 74.00
39 2.3280 5428.00 5851.16 74.00
40 2.3340 5525.00 5831.49 74.00
41 2.3400 5466.00 5812.87 74.00
42 2.3460 5395.00 5795.08 73.00
43 2.3520 5323.00 5777.99 73.00
44 2.3580 5260.00 5761.47 73.00
45 2.3640 5384.00 5709.26 73.00
46 2.3700 5299.00 5696.52 73.00
47 2.3760 5307.00 5683.78 73.00
48 2.3820 5267.00 5671.04 73.00
49 2.3880 5443.00 5658.30 74.00
50 2.3940 5461.00 5645.56 74.00
51 2.4000 5304.00 5632.82 73.00
52 2.4060 5274.00 5620.08 73.00
53 2.4120 5333.00 5607.34 73.00
54 2.4180 5300.00 5594.60 73.00
55 2.4240 5244.00 5581.86 72.00
56 2.4300 5193.00 5569.12 72.00
57 2.4360 5178.00 5556.38 72.00
58 2.4420 5221.00 5543.64 72.00
59 2.4480 5346.00 5541.52 73.00
60 2.4540 5166.00 5541.52 72.00
61 2.4600 5345.00 5541.52 73.00
62 2.4660 5389.00 5541.52 73.00
63 2.4720 5287.00 5541.52 73.00
64 2.4780 5327.00 5541.52 73.00
65 2.4840 5179.00 5541.52 72.00
66 2.4900 5284.00 5541.52 73.00
67 2.4960 5315.00 5541.52 73.00
68 2.5020 5339.00 5541.52 73.00
69 2.5080 5243.00 5541.52 72.00
70 2.5140 5291.00 5541.52 73.00
71 2.5200 5262.00 5541.52 73.00
72 2.5260 5222.00 5541.52 72.00
73 2.5320 5225.00 5541.52 72.00
74 2.5380 5170.00 5541.52 72.00
75 2.5440 5272.00 5541.52 73.00
76 2.5500 5285.00 5541.52 73.00
77 2.5560 5235.00 5541.52 72.00
78 2.5620 5276.00 5541.52 73.00
79 2.5680 5269.00 5541.52 73.00
80 2.5740 5238.00 5541.52 72.00
81 2.5800 5107.00 5541.52 71.00
82 2.5860 5304.00 5541.52 73.00
83 2.5920 5286.00 5541.52 73.00
84 2.5980 5485.00 5541.52 74.00
85 2.6040 5302.00 5541.52 73.00
86 2.6100 5339.00 5541.52 73.00
87 2.6160 5345.00 5541.52 73.00
88 2.6220 5240.00 5541.52 72.00
89 2.6280 5324.00 5541.52 73.00
90 2.6340 5367.00 5541.52 73.00
91 2.6400 5291.00 5541.52 73.00
92 2.6460 5280.00 5541.52 73.00
93 2.6520 5348.00 5541.52 73.00
94 2.6580 5275.00 5541.52 73.00
95 2.6640 5422.00 5541.52 74.00
96 2.6700 5262.00 5543.66 73.00
97 2.6760 5222.00 5545.79 72.00
98 2.6820 5337.00 5547.93 73.00
99 2.6880 5294.00 5550.06 73.00
100 2.6940 5276.00 5552.20 73.00
101 2.7000 5375.00 5554.34 73.00
102 2.7060 5377.00 5556.47 73.00
103 2.7120 5482.00 5558.61 74.00
104 2.7180 5397.00 5560.74 73.00
105 2.7240 5399.00 5562.88 73.00
106 2.7300 5242.00 5565.02 72.00
107 2.7360 5253.00 5567.15 72.00
108 2.7420 5270.00 5569.29 73.00
109 2.7480 5494.00 5571.42 74.00
110 2.7540 5389.00 5573.56 73.00
111 2.7600 5291.00 5575.70 73.00
112 2.7660 5413.00 5577.83 74.00
113 2.7720 5260.00 5579.97 73.00
114 2.7780 5355.00 5582.10 73.00
115 2.7840 5415.00 5584.24 74.00
116 2.7900 5371.00 5586.38 73.00
117 2.7960 5246.00 5588.51 72.00
118 2.8020 5346.00 5590.65 73.00
119 2.8080 5278.00 5592.78 73.00
120 2.8140 5430.00 5594.92 74.00
121 2.8200 5438.00 5597.06 74.00
122 2.8260 5461.00 5599.19 74.00
123 2.8320 5291.00 5601.33 73.00
124 2.8380 5374.00 5603.46 73.00
125 2.8440 5238.00 5605.60 72.00
126 2.8500 5405.00 5607.74 74.00
127 2.8560 5436.00 5609.87 74.00
128 2.8620 5342.00 5612.01 73.00
129 2.8680 5505.00 5614.15 74.00
130 2.8740 5382.00 5616.28 73.00
131 2.8800 5454.00 5618.42 74.00
132 2.8860 5472.00 5620.55 74.00
133 2.8920 5333.00 5622.69 73.00
134 2.8980 5330.00 5624.82 73.00
135 2.9040 5198.00 5626.96 72.00
136 2.9100 5340.00 5629.10 73.00
137 2.9160 5319.00 5631.23 73.00
138 2.9220 5371.00 5633.37 73.00
139 2.9280 5352.00 5635.50 73.00
140 2.9340 5255.00 5637.64 72.00
141 2.9400 5480.00 5639.78 74.00
142 2.9460 5453.00 5641.91 74.00
143 2.9520 5353.00 5644.05 73.00
144 2.9580 5467.00 5646.19 74.00
145 2.9640 5452.00 5648.32 74.00
146 2.9700 5390.00 5650.46 73.00
147 2.9760 5450.00 5652.59 74.00
148 2.9820 5276.00 5654.73 73.00
149 2.9880 5275.00 5656.86 73.00
150 2.9940 5299.00 5659.00 73.00
151 3.0000 5455.00 5661.14 74.00
152 3.0060 5478.00 5663.27 74.00
153 3.0120 5471.00 5665.41 74.00
154 3.0180 5503.00 5667.54 74.00
155 3.0240 5578.00 5669.68 75.00
156 3.0300 5490.00 5671.82 74.00
157 3.0360 5401.00 5673.95 73.00
158 3.0420 5451.00 5676.09 74.00
159 3.0480 5469.00 5678.23 74.00
160 3.0540 5411.00 5680.36 74.00
161 3.0600 5486.00 5682.50 74.00
162 3.0660 5438.00 5684.63 74.00
163 3.0720 5481.00 5686.77 74.00
164 3.0780 5433.00 5688.90 74.00
165 3.0840 5488.00 5691.04 74.00
166 3.0900 5447.00 5693.18 74.00
167 3.0960 5572.00 5695.31 75.00
168 3.1020 5535.00 5697.45 74.00
169 3.1080 5444.00 5699.58 74.00
170 3.1140 5539.00 5701.72 74.00
171 3.1200 5397.00 5703.86 73.00
172 3.1260 5504.00 5705.99 74.00
173 3.1320 5443.00 5708.13 74.00
174 3.1380 5449.00 5710.27 74.00
175 3.1440 5466.00 5712.40 74.00
176 3.1500 5369.00 5714.54 73.00
177 3.1560 5468.00 5716.67 74.00
178 3.1620 5592.00 5718.81 75.00
179 3.1680 5481.00 5720.94 74.00
180 3.1740 5479.00 5723.08 74.00
181 3.1800 5490.00 5725.22 74.00
182 3.1860 5504.00 5727.35 74.00
183 3.1920 5502.00 5729.49 74.00
184 3.1980 5544.00 5731.62 74.00
185 3.2040 5948.00 5733.76 77.00
186 3.2100 6402.00 5735.90 80.00
187 3.2160 6340.00 5738.03 80.00
188 3.2220 5826.00 5740.17 76.00
189 3.2280 5624.00 5742.31 75.00
190 3.2340 5530.00 5744.44 74.00
191 3.2400 5481.00 5746.58 74.00
192 3.2460 5460.00 5748.71 74.00
193 3.2520 5419.00 5750.85 74.00
194 3.2580 5448.00 5752.98 74.00
195 3.2640 5554.00 5755.12 75.00
196 3.2700 5561.00 5757.26 75.00
197 3.2760 5455.00 5759.39 74.00
198 3.2820 5451.00 5761.53 74.00
199 3.2880 5587.00 5763.67 75.00
200 3.2940 5560.00 5765.80 75.00
201 3.3000 5517.00 5767.94 74.00
202 3.3060 5515.00 5770.07 74.00
203 3.3120 5537.00 5772.21 74.00
204 3.3180 5579.00 5774.35 75.00
205 3.3240 5665.00 5776.48 75.00
206 3.3300 5690.00 5778.62 75.00
207 3.3360 5583.00 5780.75 75.00
208 3.3420 5486.00 5782.89 74.00
209 3.3480 5461.00 5785.03 74.00
210 3.3540 5489.00 5787.16 74.00
211 3.3600 5537.00 5789.30 74.00
212 3.3660 5461.00 5791.43 74.00
213 3.3720 5501.00 5793.57 74.00
214 3.3780 5609.00 5795.71 75.00
215 3.3840 5590.00 5797.84 75.00
216 3.3900 5814.00 5799.98 76.00
217 3.3960 6276.00 5802.11 79.00
218 3.4020 6430.00 5804.25 80.00
219 3.4080 6157.00 5806.39 78.00
220 3.4140 5823.00 5808.52 76.00
221 3.4200 5716.00 5810.66 76.00
222 3.4260 5666.00 5812.79 75.00
223 3.4320 5658.00 5814.93 75.00
224 3.4380 5618.00 5817.07 75.00
225 3.4440 5576.00 5819.20 75.00
226 3.4500 5493.00 5821.34 74.00
227 3.4560 5461.00 5823.47 74.00
228 3.4620 5538.00 5825.61 74.00
229 3.4680 5576.00 5827.75 75.00
230 3.4740 5612.00 5829.88 75.00
231 3.4800 5684.00 5832.02 75.00
232 3.4860 5652.00 5834.15 75.00
233 3.4920 5633.00 5836.29 75.00
234 3.4980 5553.00 5838.43 75.00
235 3.5040 5437.00 5840.56 74.00
236 3.5100 5591.00 5842.70 75.00
237 3.5160 5671.00 5844.83 75.00
238 3.5220 5571.00 5846.97 75.00
239 3.5280 5578.00 5849.11 75.00
240 3.5340 5607.00 5851.24 75.00
241 3.5400 5590.00 5853.38 75.00
242 3.5460 5562.00 5855.51 75.00
243 3.5520 5518.00 5857.65 74.00
244 3.5580 5493.00 5859.79 74.00
245 3.5640 5545.00 5861.92 74.00
246 3.5700 5441.00 5864.06 74.00
247 3.5760 5433.00 5866.19 74.00
248 3.5820 5575.00 5868.33 75.00
249 3.5880 5550.00 5870.47 74.00
250 3.5940 5598.00 5872.60 75.00
251 3.6000 5550.00 5874.74 74.00
252 3.6060 5572.00 5876.87 75.00
253 3.6120 5713.00 5879.01 76.00
254 3.6180 5727.00 5881.15 76.00
255 3.6240 5610.00 5883.28 75.00
256 3.6300 5589.00 5885.42 75.00
257 3.6360 5486.00 5887.55 74.00
258 3.6420 5582.00 5889.69 75.00
259 3.6480 5597.00 5891.83 75.00
260 3.6540 5485.00 5893.96 74.00
261 3.6600 5440.00 5896.10 74.00
262 3.6660 5554.00 5898.23 75.00
263 3.6720 5547.00 5900.37 74.00
264 3.6780 5525.00 5902.51 74.00
265 3.6840 5656.00 5904.64 75.00
266 3.6900 5577.00 5906.78 75.00
267 3.6960 5628.00 5908.91 75.00
268 3.7020 5657.00 5911.05 75.00
269 3.7080 5492.00 5913.19 74.00
270 3.7140 5531.00 5915.32 74.00
271 3.7200 5704.00 5917.46 76.00
272 3.7260 5651.00 5919.59 75.00
273 3.7320 5553.00 5921.73 75.00
274 3.7380 5613.00 5923.87 75.00
275 3.7440 5560.00 5926.00 75.00
276 3.7500 5623.00 5928.14 75.00
277 3.7560 5653.00 5930.27 75.00
278 3.7620 5620.00 5932.41 75.00
279 3.7680 5576.00 5934.55 75.00
280 3.7740 5616.00 5936.68 75.00
281 3.7800 5640.00 5938.82 75.00
282 3.7860 5643.00 5940.95 75.00
283 3.7920 5615.00 5943.09 75.00
284 3.7980 5636.00 5945.23 75.00
285 3.8040 5428.00 5947.36 74.00
286 3.8100 5493.00 5949.50 74.00
287 3.8160 5562.00 5951.63 75.00
288 3.8220 5627.00 5953.77 75.00
289 3.8280 5645.00 5955.91 75.00
290 3.8340 5617.00 5958.04 75.00
291 3.8400 5538.00 5960.18 74.00
292 3.8460 5607.00 5962.31 75.00
293 3.8520 5568.00 5964.45 75.00
294 3.8580 5561.00 5966.59 75.00
295 3.8640 5548.00 5968.72 74.00
296 3.8700 5650.00 5970.86 75.00
297 3.8760 5611.00 5972.99 75.00
298 3.8820 5678.00 5975.13 75.00
299 3.8880 5595.00 5977.27 75.00
300 3.8940 5648.00 5979.40 75.00
301 3.9000 5710.00 5981.54 76.00
302 3.9060 5725.00 5983.67 76.00
303 3.9120 5652.00 5985.81 75.00
304 3.9180 5538.00 5987.95 74.00
305 3.9240 5540.00 5990.08 74.00
306 3.9300 5636.00 5992.22 75.00
307 3.9360 5667.00 5994.35 75.00
308 3.9420 5590.00 5996.49 75.00
309 3.9480 5583.00 5998.63 75.00
310 3.9540 5582.00 6000.76 75.00
311 3.9600 5669.00 6002.90 75.00
312 3.9660 5647.00 6005.03 75.00
313 3.9720 5688.00 6007.17 75.00
314 3.9780 5533.00 6009.31 74.00
315 3.9840 5635.00 6011.44 75.00
316 3.9900 5631.00 6013.58 75.00
317 3.9960 5614.00 6015.71 75.00
318 4.0020 5729.00 6017.85 76.00
319 4.0080 5641.00 6019.99 75.00
320 4.0140 5776.00 6022.12 76.00
321 4.0200 5679.00 6024.26 75.00
322 4.0260 5693.00 6026.39 75.00
323 4.0320 5770.00 6028.53 76.00
324 4.0380 5765.00 6030.67 76.00
325 4.0440 5815.00 6032.80 76.00
326 4.0500 5691.00 6034.94 75.00
327 4.0560 5693.00 6037.07 75.00
328 4.0620 5605.00 6039.21 75.00
329 4.0680 5815.00 6041.35 76.00
330 4.0740 5824.00 6043.48 76.00
331 4.0800 5687.00 6045.62 75.00
332 4.0860 5670.00 6047.75 75.00
333 4.0920 5752.00 6049.89 76.00
334 4.0980 5687.00 6052.03 75.00
335 4.1040 5765.00 6054.16 76.00
336 4.1100 5759.00 6056.30 76.00
337 4.1160 5773.00 6058.43 76.00
338 4.1220 5744.00 6060.57 76.00
339 4.1280 5854.00 6062.71 77.00
340 4.1340 6027.00 6064.84 78.00
341 4.1400 6372.00 6066.98 80.00
342 4.1460 6833.00 6069.11 83.00
343 4.1520 7301.00 6071.25 85.00
344 4.1580 7450.00 6073.39 86.00
345 4.1640 7270.00 6075.52 85.00
346 4.1700 7035.00 6077.66 84.00
347 4.1760 6640.00 6079.79 81.00
348 4.1820 6314.00 6081.93 79.00
349 4.1880 5917.00 6084.07 77.00
350 4.1940 5859.00 6086.20 77.00
351 4.2000 5974.00 6088.34 77.00
352 4.2060 5948.00 6090.47 77.00
353 4.2120 5803.00 6092.61 76.00
354 4.2180 5670.00 6094.75 75.00
355 4.2240 5816.00 6096.88 76.00
356 4.2300 5758.00 6099.02 76.00
357 4.2360 5824.00 6101.15 76.00
358 4.2420 5820.00 6103.29 76.00
359 4.2480 5913.00 6105.43 77.00
360 4.2540 5784.00 6107.56 76.00
361 4.2600 6010.00 6109.70 78.00
362 4.2660 5786.00 6111.83 76.00
363 4.2720 5835.00 6113.97 76.00
364 4.2780 5912.00 6116.11 77.00
365 4.2840 5858.00 6118.24 77.00
366 4.2900 5875.00 6120.38 77.00
367 4.2960 6040.00 6122.49 78.00
368 4.3020 6050.00 6124.50 78.00
369 4.3080 5971.00 6126.50 77.00
370 4.3140 6127.00 6128.51 78.00
371 4.3200 6211.00 6280.70 79.00
372 4.3260 5886.00 6297.57 77.00
373 4.3320 6161.00 6316.75 78.00
374 4.3380 6192.00 6338.75 79.00
375 4.3440 6305.00 6364.23 79.00
376 4.3500 6294.00 6394.03 79.00
377 4.3560 6302.00 6429.30 79.00
378 4.3620 6265.00 6471.53 79.00
379 4.3680 6484.00 6522.84 81.00
380 4.3740 6538.00 6586.15 81.00
381 4.3800 6597.00 6665.67 81.00
382 4.3860 6677.00 6767.64 82.00
383 4.3920 6997.00 6901.56 84.00
384 4.3980 7344.00 7082.48 86.00
385 4.4040 7702.00 7335.44 88.00
386 4.4100 8021.00 7704.31 90.00
387 4.4160 9187.00 8273.24 96.00
388 4.4220 10467.00 9289.29 102.00
389 4.4280 13396.00 12545.10 116.00
390 4.4340 23233.00 29908.60 152.00
391 4.4400 66687.00 93401.50 258.00
392 4.4460 178130.00 196183.00 422.00
393 4.4520 229322.00 212643.00 479.00
394 4.4580 162463.00 115410.00 403.00
395 4.4640 65733.00 38746.90 256.00
396 4.4700 25825.00 14348.40 161.00
397 4.4760 15088.00 9683.49 123.00
398 4.4820 11551.00 8463.94 107.00
399 4.4880 9724.00 7834.22 99.00
400 4.4940 8792.00 7434.58 94.00
401 4.5000 8246.00 7164.69 91.00
402 4.5060 7860.00 6974.47 89.00
403 4.5120 7810.00 6835.73 88.00
404 4.5180 7701.00 6731.67 88.00
405 4.5240 8135.00 6651.83 90.00
406 4.5300 9026.00 6589.37 95.00
407 4.5360 9850.00 6539.70 99.00
408 4.5420 9473.00 6499.67 97.00
409 4.5480 8229.00 6467.03 91.00
410 4.5540 7621.00 6440.13 87.00
411 4.5600 7062.00 6417.79 84.00
412 4.5660 6610.00 6399.09 81.00
413 4.5720 6707.00 6383.34 82.00
414 4.5780 6555.00 6370.01 81.00
415 4.5840 6565.00 6218.72 81.00
416 4.5900 6248.00 6220.72 79.00
417 4.5960 6316.00 6222.73 79.00
418 4.6020 6318.00 6224.73 79.00
419 4.6080 6358.00 6226.74 80.00
420 4.6140 6425.00 6228.74 80.00
421 4.6200 6221.00 6230.75 79.00
422 4.6260 6192.00 6232.75 79.00
423 4.6320 6244.00 6234.75 79.00
424 4.6380 6129.00 6236.76 78.00
425 4.6440 6164.00 6238.76 79.00
426 4.6500 6170.00 6240.77 79.00
427 4.6560 6117.00 6242.77 78.00
428 4.6620 6170.00 6244.78 79.00
429 4.6680 6114.00 6246.78 78.00
430 4.6740 5992.00 6248.79 77.00
431 4.6800 6200.00 6250.79 79.00
432 4.6860 6032.00 6252.80 78.00
433 4.6920 6075.00 6254.80 78.00
434 4.6980 6091.00 6256.81 78.00
435 4.7040 6111.00 6258.81 78.00
436 4.7100 6073.00 6260.82 78.00
437 4.7160 6222.00 6262.82 79.00
438 4.7220 5918.00 6264.83 77.00
439 4.7280 6012.00 6266.83 78.00
440 4.7340 6138.00 6269.60 78.00
441 4.7400 6048.00 6273.90 78.00
442 4.7460 6034.00 6278.20 78.00
443 4.7520 6082.00 6282.50 78.00
444 4.7580 5913.00 6286.79 77.00
445 4.7640 6021.00 6291.09 78.00
446 4.7700 5944.00 6295.39 77.00
447 4.7760 6120.00 6299.69 78.00
448 4.7820 6156.00 6303.99 78.00
449 4.7880 6055.00 6308.29 78.00
450 4.7940 6052.00 6312.59 78.00
451 4.8000 6066.00 6316.89 78.00
452 4.8060 6020.00 6321.19 78.00
453 4.8120 5926.00 6325.49 77.00
454 4.8180 6163.00 6329.78 79.00
455 4.8240 5976.00 6334.08 77.00
456 4.8300 6053.00 6338.38 78.00
457 4.8360 6034.00 6342.68 78.00
458 4.8420 6171.00 6346.98 79.00
459 4.8480 5935.00 6351.28 77.00
460 4.8540 5959.00 6355.58 77.00
461 4.8600 6037.00 6359.88 78.00
462 4.8660 6227.00 6364.18 79.00
463 4.8720 6170.00 6368.48 79.00
464 4.8780 6028.00 6372.77 78.00
465 4.8840 6070.00 6377.07 78.00
466 4.8900 6125.00 6381.37 78.00
467 4.8960 6178.00 6385.67 79.00
468 4.9020 6076.00 6389.97 78.00
469 4.9080 6037.00 6394.27 78.00
470 4.9140 6118.00 6398.57 78.00
471 4.9200 6221.00 6402.87 79.00
472 4.9260 6134.00 6407.17 78.00
473 4.9320 6122.00 6411.46 78.00
474 4.9380 5975.00 6415.76 77.00
475 4.9440 6098.00 6420.06 78.00
476 4.9500 6142.00 6424.36 78.00
477 4.9560 5989.00 6428.66 77.00
478 4.9620 6107.00 6432.96 78.00
479 4.9680 6162.00 6437.26 78.00
480 4.9740 6163.00 6441.56 79.00
481 4.9800 6312.00 6445.86 79.00
482 4.9860 6181.00 6450.15 79.00
483 4.9920 6164.00 6454.45 79.00
484 4.9980 6234.00 6458.75 79.00
485 5.0040 6073.00 6463.05 78.00
486 5.0100 6195.00 6467.35 79.00
487 5.0160 6078.00 6471.65 78.00
488 5.0220 6207.00 6475.95 79.00
489 5.0280 6292.00 6480.25 79.00
490 5.0340 6228.00 6484.55 79.00
491 5.0400 6173.00 6488.85 79.00
492 5.0460 6201.00 6493.14 79.00
493 5.0520 6137.00 6497.44 78.00
494 5.0580 6163.00 6501.74 79.00
495 5.0640 6085.00 6506.04 78.00
496 5.0700 6203.00 6510.34 79.00
497 5.0760 6243.00 6514.64 79.00
498 5.0820 6345.00 6518.94 80.00
499 5.0880 6231.00 6523.24 79.00
500 5.0940 6409.00 6527.54 80.00
501 5.1000 6572.00 6531.83 81.00
502 5.1060 6448.00 6536.13 80.00
503 5.1120 6249.00 6540.43 79.00
504 5.1180 6318.00 6544.73 79.00
505 5.1240 6199.00 6549.03 79.00
506 5.1300 6243.00 6553.33 79.00
507 5.1360 6288.00 6557.63 79.00
508 5.1420 6197.00 6561.93 79.00
509 5.1480 6359.00 6566.23 80.00
510 5.1540 6486.00 6570.52 81.00
511 5.1600 6504.00 6574.82 81.00
512 5.1660 6307.00 6579.12 79.00
513 5.1720 6289.00 6583.42 79.00
514 5.1780 6240.00 6587.72 79.00
515 5.1840 6240.00 6592.02 79.00
516 5.1900 6125.00 6596.32 78.00
517 5.1960 6200.00 6600.62 79.00
518 5.2020 6329.00 6604.92 80.00
519 5.2080 6197.00 6609.22 79.00
520 5.2140 6410.00 6613.51 80.00
521 5.2200 6359.00 6617.81 80.00
522 5.2260 6157.00 6622.11 78.00
523 5.2320 6221.00 6626.41 79.00
524 5.2380 6236.00 6630.71 79.00
525 5.2440 6130.00 6635.01 78.00
526 5.2500 6221.00 6639.31 79.00
527 5.2560 6152.00 6643.61 78.00
528 5.2620 6317.00 6647.91 79.00
529 5.2680 6261.00 6652.21 79.00
530 5.2740 6324.00 6656.50 80.00
531 5.2800 6444.00 6663.34 80.00
532 5.2860 6318.00 6672.72 79.00
533 5.2920 6249.00 6682.11 79.00
534 5.2980 6257.00 6691.49 79.00
535 5.3040 6309.00 6700.87 79.00
536 5.3100 6306.00 6710.25 79.00
537 5.3160 6178.00 6719.63 79.00
538 5.3220 6287.00 6729.01 79.00
539 5.3280 6395.00 6738.39 80.00
540 5.3340 6294.00 6747.77 79.00
541 5.3400 6241.00 6757.15 79.00
542 5.3460 6289.00 6766.54 79.00
543 5.3520 6375.00 6775.92 80.00
544 5.3580 6355.00 6785.30 80.00
545 5.3640 6267.00 6794.68 79.00
546 5.3700 6372.00 6804.06 80.00
547 5.3760 6442.00 6813.44 80.00
548 5.3820 6358.00 6822.82 80.00
549 5.3880 6376.00 6832.20 80.00
550 5.3940 6410.00 6841.58 80.00
551 5.4000 6556.00 6850.96 81.00
552 5.4060 6725.00 6860.35 82.00
553 5.4120 6979.00 6869.73 84.00
554 5.4180 6933.00 6879.11 83.00
555 5.4240 6565.00 6888.49 81.00
556 5.4300 6465.00 6897.87 80.00
557 5.4360 6540.00 6907.25 81.00
558 5.4420 6513.00 6916.63 81.00
559 5.4480 6511.00 6926.01 81.00
560 5.4540 6563.00 6935.39 81.00
561 5.4600 6475.00 6944.77 80.00
562 5.4660 6383.00 6954.16 80.00
563 5.4720 6428.00 6963.54 80.00
564 5.4780 6423.00 6972.92 80.00
565 5.4840 6376.00 6982.30 80.00
566 5.4900 6537.00 6991.68 81.00
567 5.4960 6577.00 7001.06 81.00
568 5.5020 6484.00 7010.44 81.00
569 5.5080 6448.00 7019.82 80.00
570 5.5140 6561.00 7029.20 81.00
571 5.5200 6527.00 7038.58 81.00
572 5.5260 6506.00 7047.97 81.00
573 5.5320 6524.00 7057.35 81.00
574 5.5380 6545.00 7066.73 81.00
575 5.5440 6505.00 7076.11 81.00
576 5.5500 6494.00 7085.49 81.00
577 5.5560 6542.00 7094.87 81.00
578 5.5620 6461.00 7104.25 80.00
579 5.5680 6515.00 7113.63 81.00
580 5.5740 6551.00 7123.01 81.00
581 5.5800 6509.00 7132.40 81.00
582 5.5860 6587.00 7141.78 81.00
583 5.5920 6664.00 7151.16 82.00
584 5.5980 6699.00 7160.54 82.00
585 5.6040 6629.00 7169.92 81.00
586 5.6100 6677.00 7179.30 82.00
587 5.6160 6853.00 7188.68 83.00
588 5.6220 6787.00 7198.06 82.00
589 5.6280 6706.00 7207.44 82.00
590 5.6340 6689.00 7216.82 82.00
591 5.6400 6745.00 7226.21 82.00
592 5.6460 6689.00 7235.59 82.00
593 5.6520 6757.00 7244.97 82.00
594 5.6580 6887.00 7254.35 83.00
595 5.6640 6802.00 7263.73 82.00
596 5.6700 6809.00 7273.11 83.00
597 5.6760 6809.00 7282.49 83.00
598 5.6820 6798.00 7291.87 82.00
599 5.6880 6839.00 7301.25 83.00
600 5.6940 6789.00 7310.63 82.00
601 5.7000 6668.00 7320.02 82.00
602 5.7060 6776.00 7329.40 82.00
603 5.7120 6988.00 7338.78 84.00
604 5.7180 6996.00 7348.16 84.00
605 5.7240 6960.00 7357.54 83.00
606 5.7300 6986.00 7366.92 84.00
607 5.7360 6882.00 7376.30 83.00
608 5.7420 6951.00 7385.68 83.00
609 5.7480 7071.00 7395.06 84.00
610 5.7540 6983.00 7404.45 84.00
611 5.7600 6954.00 7413.83 83.00
612 5.7660 7103.00 7423.21 84.00
613 5.7720 7007.00 7432.59 84.00
614 5.7780 6936.00 7441.97 83.00
615 5.7840 6992.00 7451.35 84.00
616 5.7900 7042.00 7460.73 84.00
617 5.7960 7028.00 7470.11 84.00
618 5.8020 7033.00 7479.49 84.00
619 5.8080 7025.00 7488.87 84.00
620 5.8140 7062.00 7498.26 84.00
621 5.8200 7107.00 7507.64 84.00
622 5.8260 6946.00 7517.02 83.00
623 5.8320 6902.00 7526.40 83.00
624 5.8380 6988.00 7535.78 84.00
625 5.8440 6971.00 7545.16 83.00
626 5.8500 7097.00 7554.54 84.00
627 5.8560 7076.00 7563.92 84.00
628 5.8620 6952.00 7573.30 83.00
629 5.8680 6933.00 7582.68 83.00
630 5.8740 6985.00 7592.07 84.00
631 5.8800 7077.00 7601.45 84.00
632 5.8860 7269.00 7610.83 85.00
633 5.8920 7301.00 7620.21 85.00
634 5.8980 7285.00 7629.59 85.00
635 5.9040 7209.00 7638.97 85.00
636 5.9100 7177.00 7648.35 85.00
637 5.9160 7289.00 7657.73 85.00
638 5.9220 7304.00 7667.11 85.00
639 5.9280 7174.00 7676.49 85.00
640 5.9340 7013.00 7685.88 84.00
641 5.9400 7129.00 7695.26 84.00
642 5.9460 7244.00 7704.64 85.00
643 5.9520 7261.00 7714.02 85.00
644 5.9580 7212.00 7723.40 85.00
645 5.9640 7181.00 7732.78 85.00
646 5.9700 7137.00 7742.16 84.00
647 5.9760 7182.00 7751.54 85.00
648 5.9820 7278.00 7760.92 85.00
649 5.9880 7272.00 7770.30 85.00
650 5.9940 7366.00 7779.69 86.00
651 6.0000 7465.00 7789.07 86.00
652 6.0060 7395.00 7798.45 86.00
653 6.0120 7277.00 7807.83 85.00
654 6.0180 7318.00 7817.21 86.00
655 6.0240 7329.00 7826.59 86.00
656 6.0300 7334.00 7835.97 86.00
657 6.0360 7450.00 7845.35 86.00
658 6.0420 7414.00 7854.73 86.00
659 6.0480 7309.00 7864.11 85.00
660 6.0540 7243.00 7873.50 85.00
661 6.0600 7271.00 7882.88 85.00
662 6.0660 7299.00 7892.26 85.00
663 6.0720 7401.00 7901.64 86.00
664 6.0780 7524.00 7911.02 87.00
665 6.0840 7393.00 7920.40 86.00
666 6.0900 7344.00 7929.78 86.00
667 6.0960 7423.00 7939.16 86.00
668 6.1020 7356.00 7948.54 86.00
669 6.1080 7350.00 7957.93 86.00
670 6.1140 7477.00 7967.31 86.00
671 6.1200 7576.00 7976.69 87.00
672 6.1260 7475.00 7986.07 86.00
673 6.1320 7328.00 7995.45 86.00
674 6.1380 7333.00 8004.83 86.00
675 6.1440 7374.00 8014.21 86.00
676 6.1500 7501.00 8023.59 87.00
677 6.1560 7541.00 8032.97 87.00
678 6.1620 7497.00 8042.35 87.00
679 6.1680 7459.00 8051.74 86.00
680 6.1740 7423.00 8061.12 86.00
681 6.1800 7542.00 8070.31 87.00
682 6.1860 7555.00 8078.54 87.00
683 6.1920 7541.00 8086.78 87.00
684 6.1980 7583.00 8095.01 87.00
685 6.2040 7590.00 8103.25 87.00
686 6.2100 7620.00 8111.48 87.00
687 6.2160 7717.00 8119.72 88.00
688 6.2220 7678.00 8127.95 88.00
689 6.2280 7633.00 8136.19 87.00
690 6.2340 7566.00 8144.42 87.00
691 6.2400 7572.00 8152.65 87.00
692 6.2460 7636.00 8160.89 87.00
693 6.2520 7633.00 8169.12 87.00
694 6.2580 7709.00 8177.36 88.00
695 6.2640 7864.00 8185.59 89.00
696 6.2700 7740.00 8193.83 88.00
697 6.2760 7855.00 8202.06 89.00
698 6.2820 8091.00 8210.30 90.00
699 6.2880 8066.00 8218.53 90.00
700 6.2940 7820.00 8226.77 88.00
701 6.3000 7728.00 8235.00 88.00
702 6.3060 7789.00 8243.24 88.00
703 6.3120 7719.00 8251.47 88.00
704 6.3180 7674.00 8259.71 88.00
705 6.3240 7795.00 8267.94 88.00
706 6.3300 7952.00 8276.18 89.00
707 6.3360 8009.00 8284.41 89.00
708 6.3420 7910.00 8292.65 89.00
709 6.3480 7732.00 8300.88 88.00
710 6.3540 7760.00 8309.11 88.00
711 6.3600 7862.00 8317.35 89.00
712 6.3660 7867.00 8325.58 89.00
713 6.3720 7773.00 8333.82 88.00
714 6.3780 7831.00 8342.05 88.00
715 6.3840 7813.00 8350.29 88.00
716 6.3900 7926.00 8358.52 89.00
717 6.3960 8031.00 8366.76 90.00
718 6.4020 7893.00 8374.99 89.00
719 6.4080 7829.00 8383.23 88.00
720 6.4140 8013.00 8391.46 90.00
721 6.4200 8077.00 8399.70 90.00
722 6.4260 7906.00 8407.93 89.00
723 6.4320 7904.00 8416.17 89.00
724 6.4380 8009.00 8424.40 89.00
725 6.4440 7978.00 8432.64 89.00
726 6.4500 7952.00 8440.87 89.00
727 6.4560 7978.00 8449.11 89.00
728 6.4620 8047.00 8457.34 90.00
729 6.4680 7956.00 8465.58 89.00
730 6.4740 7924.00 8473.81 89.00
731 6.4800 7993.00 8482.04 89.00
732 6.4860 8115.00 8490.28 90.00
733 6.4920 8172.00 8498.51 90.00
734 6.4980 8247.00 8506.75 91.00
735 6.5040 8212.00 8514.98 91.00
736 6.5100 8201.00 8523.22 91.00
737 6.5160 8112.00 8531.45 90.00
738 6.5220 8109.00 8539.69 90.00
739 6.5280 8163.00 8547.92 90.00
740 6.5340 8207.00 8556.16 91.00
741 6.5400 8120.00 8564.39 90.00
742 6.5460 8126.00 8575.23 90.00
743 6.5520 8144.00 8583.72 90.00
744 6.5580 8265.00 8592.25 91.00
745 6.5640 8213.00 8600.83 91.00
746 6.5700 8316.00 8609.46 91.00
747 6.5760 8610.00 8618.17 93.00
748 6.5820 8985.00 8626.98 95.00
749 6.5880 9178.00 8635.90 96.00
750 6.5940 8856.00 8644.97 94.00
751 6.6000 8557.00 8654.25 93.00
752 6.6060 8201.00 8663.79 91.00
753 6.6120 8278.00 8673.72 91.00
754 6.6180 8266.00 8684.17 91.00
755 6.6240 8283.00 8695.40 91.00
756 6.6300 8350.00 8707.82 91.00
757 6.6360 8257.00 8722.13 91.00
758 6.6420 8378.00 8739.64 92.00
759 6.6480 8404.00 8763.43 92.00
760 6.6540 8435.00 8808.97 92.00
761 6.6600 8498.00 8985.03 92.00
762 6.6660 8844.00 9670.01 94.00
763 6.6720 9790.00 11013.60 99.00
764 6.6780 9972.00 11550.10 100.00
765 6.6840 9472.00 10369.60 97.00
766 6.6900 8759.00 9290.67 94.00
767 6.6960 8448.00 8923.01 92.00
768 6.7020 8243.00 8851.98 91.00
769 6.7080 8300.00 8837.35 91.00
770 6.7140 8297.00 8833.59 91.00
771 6.7200 8148.00 8834.27 90.00
772 6.7260 8230.00 8837.43 91.00
773 6.7320 8276.00 8842.11 91.00
774 6.7380 8320.00 8847.75 91.00
775 6.7440 8350.00 8854.04 91.00
776 6.7500 8514.00 8860.77 92.00
777 6.7560 8413.00 8867.83 92.00
778 6.7620 8193.00 8875.13 91.00
779 6.7680 8327.00 8881.23 91.00
780 6.7740 8481.00 8880.60 92.00
781 6.7800 8433.00 8880.08 92.00
782 6.7860 8407.00 8879.64 92.00
783 6.7920 8421.00 8879.27 92.00
784 6.7980 8470.00 8878.95 92.00
785 6.8040 8457.00 8878.67 92.00
786 6.8100 8712.00 8875.94 93.00
787 6.8160 8831.00 8875.94 94.00
788 6.8220 9002.00 8875.94 95.00
789 6.8280 9040.00 8875.94 95.00
790 6.8340 9032.00 8875.94 95.00
791 6.8400 8970.00 8875.94 95.00
792 6.8460 8887.00 8875.94 94.00
793 6.8520 8787.00 8875.94 94.00
794 6.8580 8660.00 8875.94 93.00
795 6.8640 8690.00 8875.94 93.00
796 6.8700 8745.00 8875.94 94.00
797 6.8760 8579.00 8875.94 93.00
798 6.8820 8457.00 8875.94 92.00
799 6.8880 8530.00 8875.94 92.00
800 6.8940 8519.00 8875.94 92.00
801 6.9000 8517.00 8875.94 92.00
802 6.9060 8458.00 8875.94 92.00
803 6.9120 8443.00 8875.94 92.00
804 6.9180 8515.00 8875.94 92.00
805 6.9240 8558.00 8875.94 93.00
806 6.9300 8481.00 8875.94 92.00
807 6.9360 8377.00 8875.94 92.00
808 6.9420 8299.00 8875.94 91.00
809 6.9480 8560.00 8875.94 93.00
810 6.9540 8353.00 8875.94 91.00
811 6.9600 8341.00 8875.94 91.00
812 6.9660 8250.00 8875.94 91.00
813 6.9720 8349.00 8875.94 91.00
814 6.9780 8440.00 8875.94 92.00
815 6.9840 8337.00 8875.94 91.00
816 6.9900 8370.00 8875.94 91.00
817 6.9960 8418.00 8875.94 92.00
818 7.0020 8368.00 8875.94 91.00
819 7.0080 8376.00 8875.94 92.00
820 7.0140 8442.00 8875.94 92.00
821 7.0200 8411.00 8875.94 92.00
822 7.0260 8363.00 8875.94 91.00
823 7.0320 8284.00 8875.94 91.00
824 7.0380 8220.00 8875.94 91.00
825 7.0440 8310.00 8875.94 91.00
826 7.0500 8443.00 8872.82 92.00
827 7.0560 8384.00 8868.14 92.00
828 7.0620 8328.00 8863.46 91.00
829 7.0680 8337.00 8858.78 91.00
830 7.0740 8329.00 8854.10 91.00
831 7.0800 8449.00 8849.41 92.00
832 7.0860 8352.00 8844.73 91.00
833 7.0920 8587.00 8840.05 93.00
834 7.0980 8592.00 8835.37 93.00
835 7.1040 8704.00 8830.69 93.00
836 7.1100 8541.00 8826.01 92.00
837 7.1160 8439.00 8821.33 92.00
838 7.1220 8661.00 8816.65 93.00
839 7.1280 8730.00 8811.96 93.00
840 7.1340 8825.00 8807.28 94.00
841 7.1400 8883.00 8802.60 94.00
842 7.1460 9035.00 8797.92 95.00
843 7.1520 9064.00 8793.24 95.00
844 7.1580 8838.00 8788.56 94.00
845 7.1640 8821.00 8783.88 94.00
846 7.1700 8625.00 8779.20 93.00
847 7.1760 8477.00 8774.52 92.00
848 7.1820 8497.00 8769.83 92.00
849 7.1880 8354.00 8765.15 91.00
850 7.1940 8380.00 8760.47 92.00
851 7.2000 8463.00 8755.79 92.00
852 7.2060 8450.00 8751.11 92.00
853 7.2120 8375.00 8746.43 92.00
854 7.2180 8481.00 8741.75 92.00
855 7.2240 8363.00 8737.07 91.00
856 7.2300 8430.00 8732.39 92.00
857 7.2360 8208.00 8727.71 91.00
858 7.2420 8320.00 8723.02 91.00
859 7.2480 8492.00 8718.34 92.00
860 7.2540 8411.00 8713.66 92.00
861 7.2600 8338.00 8708.98 91.00
862 7.2660 8235.00 8704.30 91.00
863 7.2720 8342.00 8699.62 91.00
864 7.2780 8380.00 8694.94 92.00
865 7.2840 8411.00 8690.26 92.00
866 7.2900 8256.00 8685.57 91.00
867 7.2960 8288.00 8680.89 91.00
868 7.3020 8427.00 8676.21 92.00
869 7.3080 8464.00 8672.06 92.00
870 7.3140 8333.00 8667.47 91.00
871 7.3200 8345.00 8662.86 91.00
872 7.3260 8346.00 8658.25 91.00
873 7.3320 8235.00 8653.66 91.00
874 7.3380 8209.00 8649.09 91.00
875 7.3440 8451.00 8644.53 92.00
876 7.3500 8280.00 8640.01 91.00
877 7.3560 8408.00 8635.52 92.00
878 7.3620 8334.00 8631.07 91.00
879 7.3680 8495.00 8626.69 92.00
880 7.3740 8433.00 8622.40 92.00
881 7.3800 8475.00 8618.24 92.00
882 7.3860 8366.00 8614.26 91.00
883 7.3920 8462.00 8610.58 92.00
884 7.3980 8641.00 8607.37 93.00
885 7.4040 9156.00 8604.99 96.00
886 7.4100 9406.00 8604.41 97.00
887 7.4160 9262.00 8611.54 96.00
888 7.4220 9193.00 8661.58 96.00
889 7.4280 8811.00 8837.10 94.00
890 7.4340 8556.00 9086.43 92.00
891 7.4400 8537.00 9053.04 92.00
892 7.4460 8546.00 8788.10 92.00
893 7.4520 8262.00 8624.96 91.00
894 7.4580 8218.00 8575.96 91.00
895 7.4640 8145.00 8561.50 90.00
896 7.4700 8224.00 8553.10 91.00
897 7.4760 8189.00 8546.27 90.00
898 7.4820 8214.00 8540.20 91.00
899 7.4880 8114.00 8534.57 90.00
900 7.4940 8077.00 8529.21 90.00
901 7.5000 8187.00 8524.04 90.00
902 7.5060 8250.00 8518.98 91.00
903 7.5120 8334.00 8514.01 91.00
904 7.5180 8008.00 8509.10 89.00
905 7.5240 8165.00 8504.23 90.00
906 7.5300 8081.00 8499.40 90.00
907 7.5360 8325.00 8494.59 91.00
908 7.5420 8059.00 8489.81 90.00
909 7.5480 8156.00 8485.04 90.00
910 7.5540 8142.00 8480.28 90.00
911 7.5600 8210.00 8475.54 91.00
912 7.5660 7858.00 8470.80 89.00
913 7.5720 8150.00 8465.56 90.00
914 7.5780 8102.00 8460.88 90.00
915 7.5840 8097.00 8456.20 90.00
916 7.5900 8006.00 8451.52 89.00
917 7.5960 7939.00 8446.84 89.00
918 7.6020 8085.00 8442.16 90.00
919 7.6080 7997.00 8437.47 89.00
920 7.6140 7918.00 8432.79 89.00
921 7.6200 8071.00 8428.11 90.00
922 7.6260 7904.00 8423.43 89.00
923 7.6320 7879.00 8418.75 89.00
924 7.6380 7827.00 8414.07 88.00
925 7.6440 7863.00 8409.39 89.00
926 7.6500 7894.00 8404.71 89.00
927 7.6560 7959.00 8400.03 89.00
928 7.6620 7827.00 8395.34 88.00
929 7.6680 7988.00 8390.66 89.00
930 7.6740 7738.00 8385.98 88.00
931 7.6800 7867.00 8381.30 89.00
932 7.6860 7818.00 8376.62 88.00
933 7.6920 7825.00 8371.94 88.00
934 7.6980 7780.00 8367.26 88.00
935 7.7040 7809.00 8362.58 88.00
936 7.7100 7894.00 8357.90 89.00
937 7.7160 7892.00 8353.21 89.00
938 7.7220 7842.00 8348.53 89.00
939 7.7280 7703.00 8343.85 88.00
940 7.7340 7896.00 8339.17 89.00
941 7.7400 7923.00 8334.12 89.00
942 7.7460 7873.00 8328.32 89.00
943 7.7520 7868.00 8322.53 89.00
944 7.7580 7882.00 8316.73 89.00
945 7.7640 7707.00 8310.93 88.00
946 7.7700 7646.00 8305.14 87.00
947 7.7760 7716.00 8299.34 88.00
948 7.7820 7643.00 8293.54 87.00
949 7.7880 7702.00 8287.75 88.00
950 7.7940 7596.00 8281.95 87.00
951 7.8000 7554.00 8276.15 87.00
952 7.8060 7676.00 8270.36 88.00
953 7.8120 7664.00 8264.56 88.00
954 7.8180 7739.00 8258.77 88.00
955 7.8240 7743.00 8252.97 88.00
956 7.8300 7450.00 8247.17 86.00
957 7.8360 7511.00 8241.38 87.00
958 7.8420 7678.00 8235.58 88.00
959 7.8480 7692.00 8229.78 88.00
960 7.8540 7605.00 8223.99 87.00
961 7.8600 7623.00 8218.19 87.00
962 7.8660 7623.00 8212.39 87.00
963 7.8720 7508.00 8206.60 87.00
964 7.8780 7755.00 8200.80 88.00
965 7.8840 7664.00 8195.01 88.00
966 7.8900 7604.00 8189.21 87.00
967 7.8960 7510.00 8183.41 87.00
968 7.9020 7563.00 8177.62 87.00
969 7.9080 7750.00 8171.82 88.00
970 7.9140 7528.00 8166.02 87.00
971 7.9200 7517.00 8160.23 87.00
972 7.9260 7566.00 8154.43 87.00
973 7.9320 7740.00 8148.64 88.00
974 7.9380 7552.00 8142.84 87.00
975 7.9440 7563.00 8137.04 87.00
976 7.9500 7526.00 8131.25 87.00
977 7.9560 7515.00 8125.45 87.00
978 7.9620 7466.00 8119.65 86.00
979 7.9680 7635.00 8113.86 87.00
980 7.9740 7663.00 8108.06 88.00
981 7.9800 7522.00 8102.27 87.00
982 7.9860 7617.00 8096.47 87.00
983 7.9920 7637.00 8090.67 87.00
984 7.9980 7822.00 8084.88 88.00
985 8.0040 7844.00 8079.08 89.00
986 8.0100 7760.00 8073.28 88.00
987 8.0160 7917.00 8067.49 89.00
988 8.0220 7966.00 8061.69 89.00
989 8.0280 7913.00 8055.90 89.00
990 8.0340 7722.00 8050.10 88.00
991 8.0400 7726.00 8044.30 88.00
992 8.0460 7846.00 8038.51 89.00
993 8.0520 8052.00 8032.71 90.00
994 8.0580 8365.00 8026.91 91.00
995 8.0640 8131.00 8021.12 90.00
996 8.0700 7806.00 8015.32 88.00
997 8.0760 7669.00 8009.52 88.00
998 8.0820 7483.00 8003.73 87.00
999 8.0880 7622.00 7997.93 87.00
1000 8.0940 7881.00 7992.14 89.00
1001 8.1000 8083.00 7986.34 90.00
1002 8.1060 8154.00 7980.54 90.00
1003 8.1120 8125.00 7974.75 90.00
1004 8.1180 8403.00 7968.95 92.00
1005 8.1240 9062.00 7963.15 95.00
1006 8.1300 10054.00 7957.36 100.00
1007 8.1360 10427.00 7951.56 102.00
1008 8.1420 10364.00 7945.76 102.00
1009 8.1480 9744.00 7939.97 99.00
1010 8.1540 8853.00 7934.17 94.00
1011 8.1600 8276.00 7928.38 91.00
1012 8.1660 8148.00 7922.58 90.00
1013 8.1720 8178.00 7916.78 90.00
1014 8.1780 7998.00 7910.99 89.00
1015 8.1840 7830.00 7905.19 88.00
1016 8.1900 7868.00 7899.40 89.00
1017 8.1960 7956.00 7893.60 89.00
1018 8.2020 8138.00 7887.80 90.00
1019 8.2080 8063.00 7882.01 90.00
1020 8.2140 8072.00 7876.21 90.00
1021 8.2200 8409.00 7870.41 92.00
1022 8.2260 8631.00 7864.62 93.00
1023 8.2320 9254.00 7858.82 96.00
1024 8.2380 10817.00 7853.02 104.00
1025 8.2440 12215.00 7847.23 111.00
1026 8.2500 12076.00 8495.27 110.00
1027 8.2560 10903.00 9191.67 104.00
1028 8.2620 9801.00 9327.93 99.00
1029 8.2680 9325.00 9487.67 97.00
1030 8.2740 9221.00 9676.41 96.00
1031 8.2800 9478.00 9901.27 97.00
1032 8.2860 9946.00 10171.90 100.00
1033 8.2920 10713.00 10500.90 104.00
1034 8.2980 12302.00 10906.30 111.00
1035 8.3040 14772.00 11412.70 122.00
1036 8.3100 16062.00 12056.30 127.00
1037 8.3160 15334.00 12890.40 124.00
1038 8.3220 14391.00 13997.00 120.00
1039 8.3280 14605.00 15506.90 121.00
1040 8.3340 16173.00 17638.60 127.00
1041 8.3400 18728.00 20779.90 137.00
1042 8.3460 22879.00 25674.80 151.00
1043 8.3520 31610.00 34245.60 178.00
1044 8.3580 53046.00 57108.90 230.00
1045 8.3640 131123.00 156992.00 362.00
1046 8.3700 436279.00 490881.00 661.00
1047 8.3760 916077.00 994646.00 957.00
1048 8.3820 982833.00 989805.00 991.00
1049 8.3880 533345.00 485110.00 730.00
1050 8.3940 167712.00 154732.00 410.00
1051 8.4000 59917.00 56584.30 245.00
1052 8.4060 33642.00 34050.30 183.00
1053 8.4120 24414.00 25538.40 156.00
1054 8.4180 19743.00 20658.70 141.00
1055 8.4240 16728.00 17521.60 129.00
1056 8.4300 14740.00 15387.00 121.00
1057 8.4360 13543.00 13871.60 116.00
1058 8.4420 12583.00 12757.20 112.00
1059 8.4480 11584.00 11914.30 108.00
1060 8.4540 10774.00 11260.90 104.00
1061 8.4600 10142.00 10744.20 101.00
1062 8.4660 9695.00 10328.40 98.00
1063 8.4720 9439.00 9988.53 97.00
1064 8.4780 8923.00 9707.03 94.00
1065 8.4840 8658.00 9471.02 93.00
1066 8.4900 8632.00 9271.10 93.00
1067 8.4960 8445.00 9100.03 92.00
1068 8.5020 8383.00 8952.45 92.00
1069 8.5080 8221.00 8191.31 91.00
1070 8.5140 8053.00 7586.39 90.00
1071 8.5200 7961.00 7580.60 89.00
1072 8.5260 7856.00 7574.80 89.00
1073 8.5320 7757.00 7569.00 88.00
1074 8.5380 7583.00 7563.21 87.00
1075 8.5440 7661.00 7557.41 88.00
1076 8.5500 7610.00 7551.62 87.00
1077 8.5560 7588.00 7545.82 87.00
1078 8.5620 7520.00 7540.02 87.00
1079 8.5680 7442.00 7534.23 86.00
1080 8.5740 7343.00 7528.43 86.00
1081 8.5800 7358.00 7522.63 86.00
1082 8.5860 7379.00 7516.84 86.00
1083 8.5920 7243.00 7511.04 85.00
1084 8.5980 7336.00 7505.25 86.00
1085 8.6040 7353.00 7499.45 86.00
1086 8.6100 7239.00 7490.38 85.00
1087 8.6160 7087.00 7480.66 84.00
1088 8.6220 7210.00 7470.95 85.00
1089 8.6280 7164.00 7461.23 85.00
1090 8.6340 7218.00 7451.51 85.00
1091 8.6400 7462.00 7441.79 86.00
1092 8.6460 7468.00 7432.07 86.00
1093 8.6520 7568.00 7422.35 87.00
1094 8.6580 7885.00 7412.63 89.00
1095 8.6640 8386.00 7402.91 92.00
1096 8.6700 9052.00 7393.19 95.00
1097 8.6760 9725.00 7383.47 99.00
1098 8.6820 10883.00 7373.75 104.00
1099 8.6880 12183.00 7364.04 110.00
1100 8.6940 12773.00 7354.32 113.00
1101 8.7000 12528.00 7344.60 112.00
1102 8.7060 11658.00 7334.88 108.00
1103 8.7120 10689.00 7325.16 103.00
1104 8.7180 9907.00 7315.44 100.00
1105 8.7240 9210.00 7305.72 96.00
1106 8.7300 8597.00 7296.00 93.00
1107 8.7360 8018.00 7286.28 90.00
1108 8.7420 7726.00 7276.56 88.00
1109 8.7480 7558.00 7266.84 87.00
1110 8.7540 7501.00 7257.13 87.00
1111 8.7600 7506.00 7247.41 87.00
1112 8.7660 7382.00 7237.69 86.00
1113 8.7720 7087.00 7227.97 84.00
1114 8.7780 7213.00 7541.07 85.00
1115 8.7840 7294.00 7563.73 85.00
1116 8.7900 7189.00 7591.50 85.00
1117 8.7960 7239.00 7625.53 85.00
1118 8.8020 7280.00 7667.29 85.00
1119 8.8080 7402.00 7718.68 86.00
1120 8.8140 7410.00 7782.30 86.00
1121 8.8200 7524.00 7861.62 87.00
1122 8.8260 7612.00 7961.42 87.00
1123 8.8320 7609.00 8088.47 87.00
1124 8.8380 7789.00 8252.61 88.00
1125 8.8440 7978.00 8468.44 89.00
1126 8.8500 8264.00 8758.56 91.00
1127 8.8560 8662.00 9159.19 93.00
1128 8.8620 9267.00 9731.34 96.00
1129 8.8680 10238.00 10583.80 101.00
1130 8.8740 11764.00 11928.90 108.00
1131 8.8800 14440.00 14336.70 120.00
1132 8.8860 21297.00 21085.80 146.00
1133 8.8920 46697.00 50640.80 216.00
1134 8.8980 138074.00 143110.00 372.00
1135 8.9040 248473.00 264452.00 498.00
1136 8.9100 240083.00 233253.00 490.00
1137 8.9160 137608.00 105792.00 371.00
1138 8.9220 57781.00 36440.10 240.00
1139 8.9280 31600.00 17844.60 178.00
1140 8.9340 17396.00 13293.20 132.00
1141 8.9400 13181.00 11321.20 115.00
1142 8.9460 11370.00 10145.70 107.00
1143 8.9520 10092.00 9378.39 100.00
1144 8.9580 9168.00 8849.68 96.00
1145 8.9640 8630.00 8469.54 93.00
1146 8.9700 8496.00 8186.50 92.00
1147 8.9760 8624.00 7969.51 93.00
1148 8.9820 8422.00 7798.92 92.00
1149 8.9880 8301.00 7661.91 91.00
1150 8.9940 8001.00 7549.74 89.00
1151 9.0000 7515.00 7456.39 87.00
1152 9.0060 7235.00 7377.52 85.00
1153 9.0120 7231.00 7309.95 85.00
1154 9.0180 7206.00 7251.38 85.00
1155 9.0240 7393.00 7200.03 86.00
1156 9.0300 7577.00 7154.54 87.00
1157 9.0360 7669.00 6800.33 88.00
1158 9.0420 7643.00 6790.61 87.00
1159 9.0480 7356.00 6780.89 86.00
1160 9.0540 7171.00 6771.17 85.00
1161 9.0600 7017.00 6761.45 84.00
1162 9.0660 7142.00 6751.73 85.00
1163 9.0720 7128.00 6742.01 84.00
1164 9.0780 7143.00 6732.29 85.00
1165 9.0840 7233.00 6722.57 85.00
1166 9.0900 6932.00 6712.85 83.00
1167 9.0960 6739.00 6703.14 82.00
1168 9.1020 6656.00 6693.42 82.00
1169 9.1080 6433.00 6683.70 80.00
1170 9.1140 6473.00 6673.98 80.00
1171 9.1200 6404.00 6664.26 80.00
1172 9.1260 6321.00 6654.54 80.00
1173 9.1320 6395.00 6644.82 80.00
1174 9.1380 6377.00 6635.10 80.00
1175 9.1440 6355.00 6625.38 80.00
1176 9.1500 6372.00 6615.66 80.00
1177 9.1560 6296.00 6605.94 79.00
1178 9.1620 6249.00 6596.23 79.00
1179 9.1680 6255.00 6586.51 79.00
1180 9.1740 6329.00 6576.79 80.00
1181 9.1800 6362.00 6567.07 80.00
1182 9.1860 6382.00 6557.35 80.00
1183 9.1920 6650.00 6547.63 82.00
1184 9.1980 6896.00 6537.91 83.00
1185 9.2040 6973.00 6528.19 84.00
1186 9.2100 7341.00 6518.47 86.00
1187 9.2160 8609.00 6508.75 93.00
1188 9.2220 12699.00 6499.03 113.00
1189 9.2280 20914.00 6489.31 145.00
1190 9.2340 27118.00 6479.59 165.00
1191 9.2400 24641.00 6469.88 157.00
1192 9.2460 16770.00 6460.16 129.00
1193 9.2520 10634.00 6450.44 103.00
1194 9.2580 7828.00 6440.72 88.00
1195 9.2640 6881.00 6431.00 83.00
1196 9.2700 6614.00 6421.28 81.00
1197 9.2760 6435.00 6411.56 80.00
1198 9.2820 6365.00 6401.84 80.00
1199 9.2880 6303.00 6392.12 79.00
1200 9.2940 6226.00 6382.40 79.00
1201 9.3000 6112.00 6372.68 78.00
1202 9.3060 6073.00 6362.97 78.00
1203 9.3120 6122.00 6353.25 78.00
1204 9.3180 6152.00 6343.53 78.00
1205 9.3240 6057.00 6333.81 78.00
1206 9.3300 6028.00 6324.09 78.00
1207 9.3360 6036.00 6314.37 78.00
1208 9.3420 6042.00 6304.65 78.00
1209 9.3480 6018.00 6294.93 78.00
1210 9.3540 5937.00 6285.21 77.00
1211 9.3600 6015.00 6275.49 78.00
1212 9.3660 5950.00 6265.77 77.00
1213 9.3720 5832.00 6256.06 76.00
1214 9.3780 5929.00 6246.34 77.00
1215 9.3840 6097.00 6236.62 78.00
1216 9.3900 5917.00 6226.90 77.00
1217 9.3960 5807.00 6217.18 76.00
1218 9.4020 5836.00 6207.46 76.00
1219 9.4080 5930.00 6197.74 77.00
1220 9.4140 5881.00 6188.02 77.00
1221 9.4200 5838.00 6178.30 76.00
1222 9.4260 5947.00 6168.58 77.00
1223 9.4320 5967.00 6158.86 77.00
1224 9.4380 5838.00 6154.21 76.00
1225 9.4440 5755.00 6150.58 76.00
1226 9.4500 5795.00 6146.94 76.00
1227 9.4560 5854.00 6143.30 77.00
1228 9.4620 5907.00 6139.66 77.00
1229 9.4680 5810.00 6136.02 76.00
1230 9.4740 5973.00 6132.38 77.00
1231 9.4800 6046.00 6128.75 78.00
1232 9.4860 6213.00 6125.11 79.00
1233 9.4920 6425.00 6121.47 80.00
1234 9.4980 6565.00 6117.83 81.00
1235 9.5040 6829.00 6114.19 83.00
1236 9.5100 6995.00 6110.56 84.00
1237 9.5160 6765.00 6106.92 82.00
1238 9.5220 6247.00 6103.28 79.00
1239 9.5280 5916.00 6099.64 77.00
1240 9.5340 5861.00 6096.00 77.00
1241 9.5400 5871.00 6092.37 77.00
1242 9.5460 5865.00 6088.73 77.00
1243 9.5520 5834.00 6085.09 76.00
1244 9.5580 6007.00 6081.45 78.00
1245 9.5640 5952.00 6077.81 77.00
1246 9.5700 5996.00 6074.18 77.00
1247 9.5760 5873.00 6070.54 77.00
1248 9.5820 5982.00 6066.90 77.00
1249 9.5880 6065.00 6063.26 78.00
1250 9.5940 5871.00 6059.62 77.00
1251 9.6000 6028.00 6055.98 78.00
1252 9.6060 6139.00 6052.35 78.00
1253 9.6120 6041.00 6048.71 78.00
1254 9.6180 5957.00 6045.07 77.00
1255 9.6240 6156.00 6346.18 78.00
1256 9.6300 6242.00 6373.81 79.00
1257 9.6360 6255.00 6406.51 79.00
1258 9.6420 6298.00 6445.42 79.00
1259 9.6480 6316.00 6492.05 79.00
1260 9.6540 6498.00 6548.37 81.00
1261 9.6600 6561.00 6617.04 81.00
1262 9.6660 6803.00 6701.70 82.00
1263 9.6720 7037.00 6807.39 84.00
1264 9.6780 7384.00 6941.39 86.00
1265 9.6840 7294.00 7114.23 85.00
1266 9.6900 7258.00 7341.97 85.00
1267 9.6960 7566.00 7649.86 87.00
1268 9.7020 7855.00 8079.09 89.00
1269 9.7080 8292.00 8701.16 91.00
1270 9.7140 9368.00 9647.79 97.00
1271 9.7200 10697.00 11199.00 103.00
1272 9.7260 13944.00 14386.10 118.00
1273 9.7320 22817.00 25692.40 151.00
1274 9.7380 59270.00 70310.10 243.00
1275 9.7440 180747.00 169449.00 425.00
1276 9.7500 252947.00 229200.00 503.00
1277 9.7560 172633.00 145988.00 415.00
1278 9.7620 67820.00 56191.40 260.00
1279 9.7680 27456.00 21723.90 166.00
1280 9.7740 15986.00 13398.10 126.00
1281 9.7800 12164.00 10757.20 110.00
1282 9.7860 10110.00 9365.82 101.00
1283 9.7920 9106.00 8496.63 95.00
1284 9.7980 8476.00 7916.32 92.00
1285 9.8040 7942.00 7510.11 89.00
1286 9.8100 7706.00 7214.64 88.00
1287 9.8160 7538.00 6992.94 87.00
1288 9.8220 7271.00 6822.14 85.00
1289 9.8280 7162.00 6687.61 85.00
1290 9.8340 7173.00 6579.61 85.00
1291 9.8400 7016.00 6491.42 84.00
1292 9.8460 7094.00 6418.35 84.00
1293 9.8520 6922.00 6356.99 83.00
1294 9.8580 7306.00 6304.87 85.00
1295 9.8640 7689.00 6260.10 88.00
1296 9.8700 8074.00 6221.29 90.00
1297 9.8760 8756.00 6187.33 94.00
1298 9.8820 10019.00 5885.00 100.00
1299 9.8880 11118.00 5881.36 105.00
1300 9.8940 11555.00 5877.72 107.00
1301 9.9000 10606.00 5874.08 103.00
1302 9.9060 9526.00 5870.44 98.00
1303 9.9120 8820.00 5866.81 94.00
1304 9.9180 8353.00 7038.94 91.00
1305 9.9240 8008.00 7157.20 89.00
1306 9.9300 7769.00 7295.44 88.00
1307 9.9360 7952.00 7458.20 89.00
1308 9.9420 8026.00 7651.52 90.00
1309 9.9480 8267.00 7883.30 91.00
1310 9.9540 8566.00 8164.28 93.00
1311 9.9600 8709.00 8509.04 93.00
1312 9.9660 9300.00 8938.22 96.00
1313 9.9720 9970.00 9481.25 100.00
1314 9.9780 10155.00 10181.50 101.00
1315 9.9840 10654.00 11105.30 103.00
1316 9.9900 11020.00 12357.30 105.00
1317 9.9960 11991.00 14111.50 110.00
1318 10.0020 14167.00 16670.00 119.00
1319 10.0080 16875.00 20601.80 130.00
1320 10.0140 22981.00 27171.10 152.00
1321 10.0200 36909.00 41664.80 192.00
1322 10.0260 77885.00 96905.80 279.00
1323 10.0320 230730.00 301522.00 480.00
1324 10.0380 659415.00 691318.00 812.00
1325 10.0440 858484.00 806566.00 927.00
1326 10.0500 476258.00 437139.00 690.00
1327 10.0560 143403.00 148608.00 379.00
1328 10.0620 51836.00 53733.90 228.00
1329 10.0680 27344.00 30995.10 165.00
1330 10.0740 19172.00 22607.60 138.00
1331 10.0800 15385.00 17897.20 124.00
1332 10.0860 12871.00 14903.20 113.00
1333 10.0920 11504.00 12885.30 107.00
1334 10.0980 10756.00 11462.80 104.00
1335 10.1040 9973.00 10423.10 100.00
1336 10.1100 9408.00 9640.92 97.00
1337 10.1160 8956.00 9037.53 95.00
1338 10.1220 8645.00 8562.39 93.00
1339 10.1280 8619.00 8181.38 93.00
1340 10.1340 8620.00 7871.14 93.00
1341 10.1400 8099.00 7614.96 90.00
1342 10.1460 7988.00 7400.98 89.00
1343 10.1520 8183.00 7220.23 90.00
1344 10.1580 7929.00 7067.04 89.00
1345 10.1640 7642.00 6934.56 87.00
1346 10.1700 7290.00 6819.70 85.00
1347 10.1760 7255.00 5707.97 85.00
1348 10.1820 6999.00 5704.47 84.00
1349 10.1880 6814.00 5701.01 83.00
1350 10.1940 6848.00 5697.58 83.00
1351 10.2000 6827.00 5694.19 83.00
1352 10.2060 6648.00 5690.86 82.00
1353 10.2120 6782.00 5687.60 82.00
1354 10.2180 6555.00 5684.45 81.00
1355 10.2240 6555.00 5681.44 81.00
1356 10.2300 6549.00 5678.63 81.00
1357 10.2360 6657.00 5676.12 82.00
1358 10.2420 6748.00 5674.08 82.00
1359 10.2480 6883.00 5672.80 83.00
1360 10.2540 7008.00 5672.83 84.00
1361 10.2600 6805.00 5675.53 82.00
1362 10.2660 6929.00 5687.51 83.00
1363 10.2720 6642.00 5746.91 81.00
1364 10.2780 6601.00 5951.80 81.00
1365 10.2840 6877.00 6267.07 83.00
1366 10.2900 6724.00 6244.43 82.00
1367 10.2960 6303.00 5919.00 79.00
1368 10.3020 6117.00 5720.43 78.00
1369 10.3080 6371.00 5660.10 80.00
1370 10.3140 6430.00 5642.16 80.00
1371 10.3200 6661.00 5632.48 82.00
1372 10.3260 6368.00 5625.30 80.00
1373 10.3320 6202.00 5619.37 79.00
1374 10.3380 6139.00 5614.18 78.00
1375 10.3440 6085.00 5609.44 78.00
1376 10.3500 6140.00 5604.98 78.00
1377 10.3560 6302.00 5600.73 79.00
1378 10.3620 6515.00 5596.62 81.00
1379 10.3680 6598.00 5592.60 81.00
1380 10.3740 6228.00 5588.66 79.00
1381 10.3800 5994.00 5584.78 77.00
1382 10.3860 5914.00 5580.94 77.00
1383 10.3920 5945.00 5577.13 77.00
1384 10.3980 5802.00 5573.35 76.00
1385 10.4040 5803.00 5569.59 76.00
1386 10.4100 5717.00 5565.85 76.00
1387 10.4160 5757.00 5562.12 76.00
1388 10.4220 5559.00 5557.57 75.00
1389 10.4280 5732.00 5553.93 76.00
1390 10.4340 5738.00 5550.29 76.00
1391 10.4400 5686.00 5546.65 75.00
1392 10.4460 5743.00 5543.02 76.00
1393 10.4520 5965.00 5539.38 77.00
1394 10.4580 6098.00 5535.74 78.00
1395 10.4640 6383.00 5532.10 80.00
1396 10.4700 6915.00 5528.46 83.00
1397 10.4760 7261.00 5524.83 85.00
1398 10.4820 7522.00 5521.19 87.00
1399 10.4880 7857.00 5517.55 89.00
1400 10.4940 7746.00 5513.91 88.00
1401 10.5000 7317.00 5510.27 86.00
1402 10.5060 7014.00 5506.64 84.00
1403 10.5120 6746.00 5503.00 82.00
1404 10.5180 6137.00 5499.36 78.00
1405 10.5240 5961.00 5495.72 77.00
1406 10.5300 5906.00 5492.08 77.00
1407 10.5360 5660.00 5488.44 75.00
1408 10.5420 5699.00 5484.81 75.00
1409 10.5480 5540.00 5481.17 74.00
1410 10.5540 5482.00 5477.53 74.00
1411 10.5600 5411.00 5473.89 74.00
1412 10.5660 5364.00 5470.25 73.00
1413 10.5720 5381.00 5466.62 73.00
1414 10.5780 5378.00 5462.98 73.00
1415 10.5840 5251.00 5459.34 72.00
1416 10.5900 5251.00 5455.70 72.00
1417 10.5960 5231.00 5452.06 72.00
1418 10.6020 5136.00 5448.43 72.00
1419 10.6080 5253.00 5444.79 72.00
1420 10.6140 5095.00 5441.15 71.00
1421 10.6200 5094.00 5437.51 71.00
1422 10.6260 5083.00 5433.87 71.00
1423 10.6320 5086.00 5430.24 71.00
1424 10.6380 5008.00 5426.60 71.00
1425 10.6440 5027.00 5422.96 71.00
1426 10.6500 5059.00 5419.32 71.00
1427 10.6560 5085.00 5415.68 71.00
1428 10.6620 5087.00 5412.05 71.00
1429 10.6680 5175.00 5408.41 72.00
1430 10.6740 5109.00 5404.77 71.00
1431 10.6800 4986.00 5401.13 71.00
1432 10.6860 5095.00 5397.49 71.00
1433 10.6920 5075.00 5393.85 71.00
1434 10.6980 4997.00 5390.22 71.00
1435 10.7040 4944.00 5386.58 70.00
1436 10.7100 4975.00 5382.94 71.00
1437 10.7160 4985.00 5379.30 71.00
1438 10.7220 5061.00 5375.18 71.00
1439 10.7280 5028.00 5368.63 71.00
1440 10.7340 5021.00 5362.08 71.00
1441 10.7400 5014.00 5355.53 71.00
1442 10.7460 4995.00 5348.98 71.00
1443 10.7520 4910.00 5342.43 70.00
1444 10.7580 4891.00 5335.88 70.00
1445 10.7640 4983.00 5329.33 71.00
1446 10.7700 4995.00 5322.78 71.00
1447 10.7760 5084.00 5316.23 71.00
1448 10.7820 5229.00 5309.68 72.00
1449 10.7880 5477.00 5303.13 74.00
1450 10.7940 5517.00 5296.58 74.00
1451 10.8000 5361.00 5290.03 73.00
1452 10.8060 5293.00 5283.48 73.00
1453 10.8120 5193.00 5276.93 72.00
1454 10.8180 5083.00 5270.38 71.00
1455 10.8240 5174.00 5263.83 72.00
1456 10.8300 5493.00 5257.28 74.00
1457 10.8360 5409.00 5250.73 74.00
1458 10.8420 5270.00 5244.18 73.00
1459 10.8480 5307.00 5237.63 73.00
1460 10.8540 5336.00 5231.08 73.00
1461 10.8600 5448.00 5258.96 74.00
1462 10.8660 5739.00 5255.85 76.00
1463 10.8720 6341.00 5253.28 80.00
1464 10.8780 7115.00 5251.38 84.00
1465 10.8840 7565.00 5250.29 87.00
1466 10.8900 7433.00 5250.23 86.00
1467 10.8960 6656.00 5251.45 82.00
1468 10.9020 6007.00 5254.33 78.00
1469 10.9080 5514.00 5259.37 74.00
1470 10.9140 5198.00 5267.29 72.00
1471 10.9200 5050.00 5279.09 71.00
1472 10.9260 5001.00 5296.33 71.00
1473 10.9320 5013.00 5321.35 71.00
1474 10.9380 5082.00 5357.91 71.00
1475 10.9440 5298.00 5412.34 73.00
1476 10.9500 5331.00 5495.88 73.00
1477 10.9560 5388.00 5630.20 73.00
1478 10.9620 5545.00 5868.67 74.00
1479 10.9680 6119.00 6472.78 78.00
1480 10.9740 8124.00 8882.53 90.00
1481 10.9800 14706.00 16532.00 121.00
1482 10.9860 24093.00 27561.70 155.00
1483 10.9920 24017.00 25857.50 155.00
1484 10.9980 14534.00 14560.90 121.00
1485 11.0040 7701.00 8106.57 88.00
1486 11.0100 5811.00 6261.62 76.00
1487 11.0160 5258.00 5765.43 73.00
1488 11.0220 4931.00 5543.09 70.00
1489 11.0280 4849.00 5409.66 70.00
1490 11.0340 4848.00 5321.94 70.00
1491 11.0400 4817.00 5261.07 69.00
1492 11.0460 4813.00 5217.12 69.00
1493 11.0520 4917.00 5184.52 70.00
1494 11.0580 4876.00 5160.04 70.00
1495 11.0640 4934.00 5141.80 70.00
1496 11.0700 5106.00 5128.79 71.00
1497 11.0760 5162.00 5120.67 72.00
1498 11.0820 5389.00 5117.70 73.00
1499 11.0880 5800.00 5120.91 76.00
1500 11.0940 5854.00 5132.42 77.00
1501 11.1000 5474.00 5156.41 74.00
1502 11.1060 5230.00 5201.07 72.00
1503 11.1120 5238.00 5286.31 72.00
1504 11.1180 5451.00 5470.35 74.00
1505 11.1240 6358.00 6344.96 80.00
1506 11.1300 9217.00 9237.93 96.00
1507 11.1360 12843.00 13775.70 113.00
1508 11.1420 12858.00 13642.30 113.00
1509 11.1480 9592.00 9073.37 98.00
1510 11.1540 6761.00 6257.09 82.00
1511 11.1600 5630.00 5411.16 75.00
1512 11.1660 5129.00 5185.67 72.00
1513 11.1720 4898.00 5085.56 70.00
1514 11.1780 4971.00 5024.18 71.00
1515 11.1840 4992.00 4982.31 71.00
1516 11.1900 4869.00 4951.72 70.00
1517 11.1960 4830.00 4928.10 69.00
1518 11.2020 4709.00 4909.01 69.00
1519 11.2080 4687.00 4892.98 68.00
1520 11.2140 4754.00 4879.10 69.00
1521 11.2200 4808.00 4866.76 69.00
1522 11.2260 4879.00 4855.57 70.00
1523 11.2320 4857.00 4845.23 70.00
1524 11.2380 4798.00 4835.55 69.00
1525 11.2440 4889.00 4826.39 70.00
1526 11.2500 4972.00 4817.64 71.00
1527 11.2560 5010.00 4809.22 71.00
1528 11.2620 4964.00 4801.06 70.00
1529 11.2680 5004.00 5205.21 71.00
1530 11.2740 5113.00 5225.88 72.00
1531 11.2800 5071.00 5267.02 71.00
1532 11.2860 5043.00 5316.11 71.00
1533 11.2920 5109.00 5374.97 71.00
1534 11.2980 5203.00 5446.06 72.00
1535 11.3040 5171.00 5532.59 72.00
1536 11.3100 5266.00 5638.97 73.00
1537 11.3160 5490.00 5771.20 74.00
1538 11.3220 5648.00 5937.81 75.00
1539 11.3280 5896.00 6151.19 77.00
1540 11.3340 6153.00 6429.54 78.00
1541 11.3400 6424.00 6801.17 80.00
1542 11.3460 6841.00 7311.16 83.00
1543 11.3520 7464.00 8035.55 86.00
1544 11.3580 8389.00 9109.35 92.00
1545 11.3640 9960.00 10793.30 100.00
1546 11.3700 12902.00 13734.70 114.00
1547 11.3760 20303.00 21074.30 142.00
1548 11.3820 46631.00 49540.80 216.00
1549 11.3880 140456.00 137771.00 375.00
1550 11.3940 255638.00 263166.00 506.00
1551 11.4000 240446.00 243938.00 490.00
1552 11.4060 124039.00 115327.00 352.00
1553 11.4120 45948.00 40800.60 214.00
1554 11.4180 21355.00 18873.20 146.00
1555 11.4240 13508.00 12953.90 116.00
1556 11.4300 10314.00 10334.30 102.00
1557 11.4360 8597.00 8783.39 93.00
1558 11.4420 7436.00 7777.37 86.00
1559 11.4480 6798.00 7088.53 82.00
1560 11.4540 6378.00 6596.19 80.00
1561 11.4600 6051.00 6231.97 78.00
1562 11.4660 5788.00 5954.58 76.00
1563 11.4720 5602.00 5738.16 75.00
1564 11.4780 5417.00 5565.75 74.00
1565 11.4840 5251.00 5425.86 72.00
1566 11.4900 5063.00 5310.56 71.00
1567 11.4960 4945.00 5214.13 70.00
1568 11.5020 4924.00 5132.48 70.00
1569 11.5080 4838.00 5062.53 70.00
1570 11.5140 4805.00 5001.98 69.00
1571 11.5200 4762.00 4949.06 69.00
1572 11.5260 4715.00 4697.63 69.00
1573 11.5320 4653.00 4490.92 68.00
1574 11.5380 4661.00 4484.37 68.00
1575 11.5440 4583.00 4477.82 68.00
1576 11.5500 4536.00 4471.27 67.00
1577 11.5560 4610.00 4464.72 68.00
1578 11.5620 4523.00 4458.17 67.00
1579 11.5680 4502.00 4451.62 67.00
1580 11.5740 4478.00 4445.07 67.00
1581 11.5800 4456.00 4438.52 67.00
1582 11.5860 4350.00 4431.97 66.00
1583 11.5920 4251.00 4425.42 65.00
1584 11.5980 4437.00 4418.87 67.00
1585 11.6040 4537.00 4412.32 67.00
1586 11.6100 4450.00 4405.77 67.00
1587 11.6160 4411.00 4399.22 66.00
1588 11.6220 4364.00 4392.67 66.00
1589 11.6280 4371.00 4386.12 66.00
1590 11.6340 4443.00 4379.57 67.00
1591 11.6400 4468.00 4373.02 67.00
1592 11.6460 4454.00 4366.47 67.00
1593 11.6520 4561.00 4359.92 68.00
1594 11.6580 4574.00 4353.37 68.00
1595 11.6640 4613.00 4346.82 68.00
1596 11.6700 4550.00 4340.27 67.00
1597 11.6760 4394.00 4333.72 66.00
1598 11.6820 4427.00 4327.17 67.00
1599 11.6880 4646.00 4320.62 68.00
1600 11.6940 4985.00 4314.07 71.00
1601 11.7000 5850.00 4307.52 76.00
1602 11.7060 8015.00 4300.97 90.00
1603 11.7120 10545.00 4294.42 103.00
1604 11.7180 10860.00 4287.87 104.00
1605 11.7240 8879.00 4281.32 94.00
1606 11.7300 6445.00 4274.77 80.00
1607 11.7360 5235.00 4268.22 72.00
1608 11.7420 4791.00 4261.67 69.00
1609 11.7480 4504.00 4255.12 67.00
1610 11.7540 4325.00 4248.57 66.00
1611 11.7600 4335.00 4242.02 66.00
1612 11.7660 4330.00 4235.47 66.00
1613 11.7720 4227.00 4228.92 65.00
1614 11.7780 4245.00 4222.37 65.00
1615 11.7840 4185.00 4215.82 65.00
1616 11.7900 4197.00 4209.27 65.00
1617 11.7960 4196.00 4202.72 65.00
1618 11.8020 4163.00 4196.17 65.00
1619 11.8080 4098.00 4189.62 64.00
1620 11.8140 4136.00 4183.07 64.00
1621 11.8200 4203.00 4176.52 65.00
1622 11.8260 4192.00 4169.97 65.00
1623 11.8320 4184.00 4163.42 65.00
1624 11.8380 4209.00 4156.87 65.00
1625 11.8440 4148.00 4150.32 64.00
1626 11.8500 4147.00 4145.51 64.00
1627 11.8560 4099.00 4144.17 64.00
1628 11.8620 4173.00 4142.84 65.00
1629 11.8680 4216.00 4141.50 65.00
1630 11.8740 4117.00 4140.17 64.00
1631 11.8800 4106.00 4138.83 64.00
1632 11.8860 4243.00 4137.50 65.00
1633 11.8920 4186.00 4136.16 65.00
1634 11.8980 4192.00 4134.83 65.00
1635 11.9040 4185.00 4133.49 65.00
1636 11.9100 4152.00 4132.16 64.00
1637 11.9160 4163.00 4130.82 65.00
1638 11.9220 4216.00 4129.49 65.00
1639 11.9280 4227.00 4128.15 65.00
1640 11.9340 4223.00 4126.82 65.00
1641 11.9400 4208.00 4140.62 65.00
1642 11.9460 4292.00 4140.80 66.00
1643 11.9520 4309.00 4141.21 66.00
1644 11.9580 4254.00 4141.91 65.00
1645 11.9640 4319.00 4142.98 66.00
1646 11.9700 4257.00 4144.49 65.00
1647 11.9760 4238.00 4146.56 65.00
1648 11.9820 4220.00 4149.36 65.00
1649 11.9880 4113.00 4153.11 64.00
1650 11.9940 4011.00 4158.11 63.00
1651 12.0000 4063.00 4164.81 64.00
1652 12.0060 4097.00 4173.88 64.00
1653 12.0120 4229.00 4186.35 65.00
1654 12.0180 4194.00 4203.85 65.00
1655 12.0240 4265.00 4229.14 65.00
1656 12.0300 4331.00 4267.07 66.00
1657 12.0360 4490.00 4327.02 67.00
1658 12.0420 4503.00 4431.52 67.00
1659 12.0480 4729.00 4683.95 69.00
1660 12.0540 5772.00 5637.37 76.00
1661 12.0600 9359.00 8633.25 97.00
1662 12.0660 14298.00 13081.20 120.00
1663 12.0720 13889.00 12574.30 118.00
1664 12.0780 8795.00 8054.56 94.00
1665 12.0840 5709.00 5409.32 76.00
1666 12.0900 4768.00 4618.89 69.00
1667 12.0960 4359.00 4400.23 66.00
1668 12.1020 4402.00 4301.91 66.00
1669 12.1080 4251.00 4243.22 65.00
1670 12.1140 4121.00 4204.79 64.00
1671 12.1200 4196.00 4178.15 65.00
1672 12.1260 4075.00 4158.81 64.00
1673 12.1320 4150.00 4144.23 64.00
1674 12.1380 4158.00 4132.87 64.00
1675 12.1440 4205.00 4123.76 65.00
1676 12.1500 4170.00 4116.29 65.00
1677 12.1560 4140.00 4110.02 64.00
1678 12.1620 4112.00 4104.67 64.00
1679 12.1680 4122.00 4100.01 64.00
1680 12.1740 4171.00 4095.90 65.00
1681 12.1800 4141.00 4092.22 64.00
1682 12.1860 4221.00 4088.89 65.00
1683 12.1920 4420.00 4085.84 66.00
1684 12.1980 4417.00 4083.02 66.00
1685 12.2040 4334.00 4066.75 66.00
1686 12.2100 4200.00 4065.41 65.00
1687 12.2160 4064.00 4064.08 64.00
1688 12.2220 4052.00 4062.74 64.00
1689 12.2280 4091.00 4061.41 64.00
1690 12.2340 4079.00 4060.07 64.00
1691 12.2400 4183.00 4058.74 65.00
1692 12.2460 4198.00 4057.40 65.00
1693 12.2520 4060.00 4056.07 64.00
1694 12.2580 4095.00 4054.73 64.00
1695 12.2640 4067.00 4053.40 64.00
1696 12.2700 4108.00 4052.06 64.00
1697 12.2760 4063.00 4050.73 64.00
1698 12.2820 4000.00 4049.39 63.00
1699 12.2880 3994.00 4048.06 63.00
1700 12.2940 4094.00 4046.72 64.00
1701 12.3000 4093.00 4045.39 64.00
1702 12.3060 3976.00 4044.05 63.00
1703 12.3120 3999.00 4042.72 63.00
1704 12.3180 4100.00 4041.38 64.00
1705 12.3240 4078.00 4040.05 64.00
1706 12.3300 4200.00 4038.71 65.00
1707 12.3360 4274.00 4037.38 65.00
1708 12.3420 4210.00 4036.04 65.00
1709 12.3480 4103.00 4034.71 64.00
1710 12.3540 4124.00 4033.37 64.00
1711 12.3600 4128.00 4032.04 64.00
1712 12.3660 4100.00 4030.70 64.00
1713 12.3720 3963.00 4029.37 63.00
1714 12.3780 3937.00 4028.03 63.00
1715 12.3840 4041.00 4026.70 64.00
1716 12.3900 3933.00 4025.36 63.00
1717 12.3960 3856.00 4024.03 62.00
1718 12.4020 4031.00 4022.70 63.00
1719 12.4080 4072.00 4021.36 64.00
1720 12.4140 4045.00 4020.03 64.00
1721 12.4200 4021.00 4018.69 63.00
1722 12.4260 3961.00 4017.36 63.00
1723 12.4320 4003.00 4016.02 63.00
1724 12.4380 4125.00 4014.69 64.00
1725 12.4440 4096.00 4013.35 64.00
1726 12.4500 4306.00 4012.02 66.00
1727 12.4560 4312.00 4010.68 66.00
1728 12.4620 4515.00 4009.35 67.00
1729 12.4680 4960.00 4008.01 70.00
1730 12.4740 5352.00 4006.68 73.00
1731 12.4800 5275.00 4005.34 73.00
1732 12.4860 4932.00 4004.01 70.00
1733 12.4920 4531.00 4002.67 67.00
1734 12.4980 4322.00 4001.34 66.00
1735 12.5040 4201.00 4000.00 65.00
1736 12.5100 4179.00 3998.67 65.00
1737 12.5160 4304.00 3997.33 66.00
1738 12.5220 4266.00 3996.00 65.00
1739 12.5280 4206.00 3994.66 65.00
1740 12.5340 4285.00 3993.33 65.00
1741 12.5400 4325.00 3991.99 66.00
1742 12.5460 4204.00 3990.66 65.00
1743 12.5520 4180.00 3989.32 65.00
1744 12.5580 4087.00 3987.99 64.00
1745 12.5640 4020.00 3986.65 63.00
1746 12.5700 4137.00 3985.32 64.00
1747 12.5760 4179.00 3983.98 65.00
1748 12.5820 4473.00 3982.65 67.00
1749 12.5880 4580.00 3981.31 68.00
1750 12.5940 4552.00 3979.98 67.00
1751 12.6000 4388.00 3978.64 66.00
1752 12.6060 4352.00 3977.31 66.00
1753 12.6120 4194.00 3975.97 65.00
1754 12.6180 4034.00 3974.64 64.00
1755 12.6240 3968.00 3973.30 63.00
1756 12.6300 4060.00 3971.97 64.00
1757 12.6360 4080.00 3970.63 64.00
1758 12.6420 4106.00 3969.30 64.00
1759 12.6480 4067.00 3967.96 64.00
1760 12.6540 4033.00 3966.63 64.00
1761 12.6600 3940.00 3965.29 63.00
1762 12.6660 3997.00 3963.96 63.00
1763 12.6720 3961.00 3962.62 63.00
1764 12.6780 3990.00 3961.29 63.00
1765 12.6840 4015.00 3959.95 63.00
1766 12.6900 4064.00 3958.62 64.00
1767 12.6960 4000.00 3957.28 63.00
1768 12.7020 3983.00 3955.95 63.00
1769 12.7080 4115.00 3954.61 64.00
1770 12.7140 4058.00 3953.28 64.00
1771 12.7200 4071.00 3951.94 64.00
1772 12.7260 3903.00 3952.43 62.00
1773 12.7320 3961.00 3954.74 63.00
1774 12.7380 4031.00 3957.05 63.00
1775 12.7440 4040.00 3959.36 64.00
1776 12.7500 4034.00 3961.67 64.00
1777 12.7560 4027.00 3963.97 63.00
1778 12.7620 3910.00 3966.28 63.00
1779 12.7680 4007.00 3968.59 63.00
1780 12.7740 4014.00 3970.90 63.00
1781 12.7800 4002.00 3973.21 63.00
1782 12.7860 4119.00 3975.52 64.00
1783 12.7920 4050.00 3977.83 64.00
1784 12.7980 4082.00 3980.14 64.00
1785 12.8040 4106.00 3982.44 64.00
1786 12.8100 4029.00 3984.75 63.00
1787 12.8160 4006.00 3987.06 63.00
1788 12.8220 4238.00 3989.37 65.00
1789 12.8280 4159.00 3991.68 64.00
1790 12.8340 4188.00 3993.99 65.00
1791 12.8400 4227.00 3996.30 65.00
1792 12.8460 4285.00 3998.60 65.00
1793 12.8520 4278.00 4000.91 65.00
1794 12.8580 4371.00 4003.22 66.00
1795 12.8640 4402.00 4005.53 66.00
1796 12.8700 4241.00 4007.84 65.00
1797 12.8760 4231.00 4010.15 65.00
1798 12.8820 4140.00 4012.46 64.00
1799 12.8880 4166.00 4014.77 65.00
1800 12.8940 4078.00 4017.07 64.00
1801 12.9000 4163.00 4019.38 65.00
1802 12.9060 4304.00 4021.69 66.00
1803 12.9120 4148.00 4024.00 64.00
1804 12.9180 4234.00 4026.31 65.00
1805 12.9240 4340.00 4028.62 66.00
1806 12.9300 4315.00 4030.93 66.00
1807 12.9360 4496.00 4033.23 67.00
1808 12.9420 4671.00 4035.54 68.00
1809 12.9480 4770.00 4037.85 69.00
1810 12.9540 4786.00 4040.16 69.00
1811 12.9600 4665.00 4042.47 68.00
1812 12.9660 4469.00 4044.78 67.00
1813 12.9720 4258.00 4047.09 65.00
1814 12.9780 4211.00 4049.40 65.00
1815 12.9840 4151.00 4051.70 64.00
1816 12.9900 4156.00 4054.01 64.00
1817 12.9960 4183.00 4056.32 65.00
1818 13.0020 4313.00 4058.63 66.00
1819 13.0080 4170.00 4060.94 65.00
1820 13.0140 4299.00 4063.25 66.00
1821 13.0200 4275.00 4065.56 65.00
1822 13.0260 4386.00 4067.86 66.00
1823 13.0320 4302.00 4070.17 66.00
1824 13.0380 4274.00 4072.48 65.00
1825 13.0440 4083.00 4074.79 64.00
1826 13.0500 4239.00 4077.10 65.00
1827 13.0560 4131.00 4079.41 64.00
1828 13.0620 4252.00 4081.72 65.00
1829 13.0680 4127.00 4084.03 64.00
1830 13.0740 4183.00 4086.33 65.00
1831 13.0800 4202.00 4088.64 65.00
1832 13.0860 4321.00 4090.95 66.00
1833 13.0920 4182.00 4136.27 65.00
1834 13.0980 4270.00 4142.91 65.00
1835 13.1040 4273.00 4150.25 65.00
1836 13.1100 4323.00 4158.43 66.00
1837 13.1160 4286.00 4167.66 65.00
1838 13.1220 4252.00 4178.19 65.00
1839 13.1280 4358.00 4190.38 66.00
1840 13.1340 4380.00 4204.70 66.00
1841 13.1400 4435.00 4221.81 67.00
1842 13.1460 4508.00 4242.64 67.00
1843 13.1520 4580.00 4268.55 68.00
1844 13.1580 4471.00 4301.55 67.00
1845 13.1640 4504.00 4344.78 67.00
1846 13.1700 4666.00 4403.32 68.00
1847 13.1760 4637.00 4485.72 68.00
1848 13.1820 4725.00 4607.45 69.00
1849 13.1880 4964.00 4798.88 70.00
1850 13.1940 5300.00 5141.24 73.00
1851 13.2000 5891.00 6034.52 77.00
1852 13.2060 8371.00 9306.68 91.00
1853 13.2120 17758.00 18155.20 133.00
1854 13.2180 26549.00 28257.10 163.00
1855 13.2240 21991.00 23455.90 148.00
1856 13.2300 11786.00 12494.20 109.00
1857 13.2360 7325.00 7018.59 86.00
1858 13.2420 5864.00 5434.18 77.00
1859 13.2480 5375.00 5105.56 73.00
1860 13.2540 5127.00 4884.08 72.00
1861 13.2600 5187.00 4759.55 72.00
1862 13.2660 5068.00 4688.34 71.00
1863 13.2720 4918.00 4650.57 70.00
1864 13.2780 5052.00 4636.14 71.00
1865 13.2840 5138.00 4639.95 72.00
1866 13.2900 5149.00 4659.86 72.00
1867 13.2960 5205.00 4695.78 72.00
1868 13.3020 5424.00 4749.48 74.00
1869 13.3080 5492.00 5502.52 74.00
1870 13.3140 5783.00 5672.84 76.00
1871 13.3200 5995.00 5892.22 77.00
1872 13.3260 6169.00 6180.61 79.00
1873 13.3320 6661.00 6570.72 82.00
1874 13.3380 7456.00 7120.29 86.00
1875 13.3440 8364.00 7938.76 91.00
1876 13.3500 9884.00 9273.79 99.00
1877 13.3560 13885.00 12372.20 118.00
1878 13.3620 26057.00 23159.00 161.00
1879 13.3680 62173.00 53849.50 249.00
1880 13.3740 99172.00 94505.20 315.00
1881 13.3800 88073.00 83797.70 297.00
1882 13.3860 48340.00 42842.50 220.00
1883 13.3920 25877.00 21391.50 161.00
1884 13.3980 18949.00 16302.90 138.00
1885 13.4040 17386.00 16845.00 132.00
1886 13.4100 19842.00 20188.80 141.00
1887 13.4160 29002.00 28919.00 170.00
1888 13.4220 57818.00 60180.90 240.00
1889 13.4280 159022.00 163409.00 399.00
1890 13.4340 356977.00 345300.00 597.00
1891 13.4400 377548.00 377817.00 614.00
1892 13.4460 197438.00 199906.00 444.00
1893 13.4520 71374.00 74079.30 267.00
1894 13.4580 33172.00 31639.40 182.00
1895 13.4640 19902.00 19794.20 141.00
1896 13.4700 14444.00 14821.30 120.00
1897 13.4760 11434.00 11947.80 107.00
1898 13.4820 9667.00 10104.60 98.00
1899 13.4880 8326.00 8853.52 91.00
1900 13.4940 7711.00 7966.37 88.00
1901 13.5000 7150.00 7315.09 85.00
1902 13.5060 6761.00 6822.97 82.00
1903 13.5120 6422.00 6300.76 80.00
1904 13.5180 6247.00 6011.93 79.00
1905 13.5240 5861.00 5780.90 77.00
1906 13.5300 5796.00 5593.42 76.00
1907 13.5360 5598.00 5439.26 75.00
1908 13.5420 5366.00 5311.10 73.00
1909 13.5480 5508.00 5203.48 74.00
1910 13.5540 5495.00 5112.32 74.00
1911 13.5600 5287.00 5034.49 73.00
1912 13.5660 5171.00 4967.57 72.00
1913 13.5720 5316.00 4277.95 73.00
1914 13.5780 5195.00 4280.26 72.00
1915 13.5840 5098.00 4282.57 71.00
1916 13.5900 5235.00 4284.88 72.00
1917 13.5960 5266.00 4287.19 73.00
1918 13.6020 5390.00 4289.50 73.00
1919 13.6080 5419.00 4291.81 74.00
1920 13.6140 5614.00 4294.12 75.00
1921 13.6200 5847.00 4296.42 76.00
1922 13.6260 6135.00 4298.73 78.00
1923 13.6320 6223.00 4301.04 79.00
1924 13.6380 6440.00 4303.35 80.00
1925 13.6440 6277.00 4305.66 79.00
1926 13.6500 6200.00 4307.97 79.00
1927 13.6560 5930.00 4310.28 77.00
1928 13.6620 5810.00 4312.58 76.00
1929 13.6680 5509.00 4314.89 74.00
1930 13.6740 5393.00 4317.20 73.00
1931 13.6800 5192.00 4319.51 72.00
1932 13.6860 5183.00 4321.82 72.00
1933 13.6920 5058.00 4324.13 71.00
1934 13.6980 4937.00 4326.44 70.00
1935 13.7040 4803.00 4328.75 69.00
1936 13.7100 4819.00 4331.05 69.00
1937 13.7160 4818.00 4333.36 69.00
1938 13.7220 4653.00 4335.67 68.00
1939 13.7280 4638.00 4337.98 68.00
1940 13.7340 4635.00 4340.29 68.00
1941 13.7400 4638.00 4342.60 68.00
1942 13.7460 4676.00 4344.91 68.00
1943 13.7520 4499.00 4347.22 67.00
1944 13.7580 4574.00 4349.52 68.00
1945 13.7640 4615.00 4351.83 68.00
1946 13.7700 4534.00 4354.14 67.00
1947 13.7760 4560.00 4356.45 68.00
1948 13.7820 4515.00 4358.76 67.00
1949 13.7880 4498.00 4361.07 67.00
1950 13.7940 4467.00 4363.38 67.00
1951 13.8000 4474.00 4365.69 67.00
1952 13.8060 4475.00 4367.99 67.00
1953 13.8120 4461.00 4370.30 67.00
1954 13.8180 4561.00 4372.61 68.00
1955 13.8240 4532.00 4374.92 67.00
1956 13.8300 4541.00 4377.23 67.00
1957 13.8360 4537.00 4379.54 67.00
1958 13.8420 4476.00 4381.85 67.00
1959 13.8480 4475.00 4384.15 67.00
1960 13.8540 4575.00 4386.46 68.00
1961 13.8600 4477.00 4388.77 67.00
1962 13.8660 4446.00 4391.08 67.00
1963 13.8720 4496.00 4393.39 67.00
1964 13.8780 4567.00 4395.70 68.00
1965 13.8840 4552.00 4398.01 67.00
1966 13.8900 4445.00 4400.32 67.00
1967 13.8960 4555.00 4402.62 67.00
1968 13.9020 4484.00 4404.93 67.00
1969 13.9080 4493.00 4407.24 67.00
1970 13.9140 4534.00 4409.55 67.00
1971 13.9200 4495.00 4411.86 67.00
1972 13.9260 4520.00 4414.17 67.00
1973 13.9320 4604.00 4416.48 68.00
1974 13.9380 4607.00 4418.78 68.00
1975 13.9440 4645.00 4421.09 68.00
1976 13.9500 4700.00 4423.40 69.00
1977 13.9560 4681.00 4425.71 68.00
1978 13.9620 4649.00 4428.02 68.00
1979 13.9680 4600.00 4430.33 68.00
1980 13.9740 4608.00 4432.64 68.00
1981 13.9800 4783.00 4434.95 69.00
1982 13.9860 5010.00 4437.25 71.00
1983 13.9920 5431.00 4439.56 74.00
1984 13.9980 5668.00 4441.87 75.00
1985 14.0040 5932.00 4444.18 77.00
1986 14.0100 5967.00 4446.49 77.00
1987 14.0160 5695.00 4448.80 75.00
1988 14.0220 5442.00 4451.11 74.00
1989 14.0280 5127.00 4453.41 72.00
1990 14.0340 4929.00 4455.72 70.00
1991 14.0400 4877.00 4458.03 70.00
1992 14.0460 4866.00 4460.34 70.00
1993 14.0520 4887.00 4462.65 70.00
1994 14.0580 4862.00 4464.96 70.00
1995 14.0640 4909.00 4467.27 70.00
1996 14.0700 4855.00 4469.58 70.00
1997 14.0760 4891.00 4471.88 70.00
1998 14.0820 4984.00 4474.19 71.00
1999 14.0880 4984.00 4802.00 71.00
2000 14.0940 5119.00 5116.07 72.00
2001 14.1000 5148.00 5183.59 72.00
2002 14.1060 5134.00 5261.63 72.00
2003 14.1120 5299.00 5352.62 73.00
2004 14.1180 5287.00 5459.61 73.00
2005 14.1240 5382.00 5586.74 73.00
2006 14.1300 5534.00 5739.54 74.00
2007 14.1360 5603.00 5925.47 75.00
2008 14.1420 5862.00 6155.06 77.00
2009 14.1480 6019.00 6443.26 78.00
2010 14.1540 6251.00 6811.98 79.00
2011 14.1600 6711.00 7294.32 82.00
2012 14.1660 7260.00 7942.43 85.00
2013 14.1720 7947.00 8841.42 89.00
2014 14.1780 9109.00 10138.90 95.00
2015 14.1840 11089.00 12107.60 105.00
2016 14.1900 14934.00 15333.50 122.00
2017 14.1960 23006.00 21853.00 152.00
2018 14.2020 44033.00 41673.70 210.00
2019 14.2080 104882.00 105505.00 324.00
2020 14.2140 227261.00 233423.00 477.00
2021 14.2200 310472.00 311698.00 557.00
2022 14.2260 234709.00 223235.00 484.00
2023 14.2320 105944.00 99209.40 325.00
2024 14.2380 42093.00 39671.30 205.00
2025 14.2440 21181.00 21280.00 146.00
2026 14.2500 13843.00 15091.00 118.00
2027 14.2560 10768.00 11978.40 104.00
2028 14.2620 9145.00 10082.10 96.00
2029 14.2680 8387.00 8848.31 92.00
2030 14.2740 7939.00 7977.64 89.00
2031 14.2800 7814.00 7351.72 88.00
2032 14.2860 8260.00 6887.98 91.00
2033 14.2920 9455.00 6536.24 97.00
2034 14.2980 11371.00 6264.48 107.00
2035 14.3040 12713.00 6051.67 113.00
2036 14.3100 11880.00 5883.58 109.00
2037 14.3160 9984.00 5750.61 100.00
2038 14.3220 8693.00 5646.20 93.00
2039 14.3280 7684.00 5566.15 88.00
2040 14.3340 6959.00 5508.31 83.00
2041 14.3400 6560.00 5472.39 81.00
2042 14.3460 6265.00 5460.63 79.00
2043 14.3520 6180.00 5177.38 79.00
2044 14.3580 6070.00 5011.53 78.00
2045 14.3640 6133.00 5185.26 78.00
2046 14.3700 6546.00 5505.92 81.00
2047 14.3760 7534.00 6362.51 87.00
2048 14.3820 10618.00 9189.54 103.00
2049 14.3880 17308.00 15989.20 132.00
2050 14.3940 22229.00 23205.20 149.00
2051 14.4000 18499.00 20776.10 136.00
2052 14.4060 11251.00 12343.70 106.00
2053 14.4120 7312.00 7440.64 86.00
2054 14.4180 6037.00 5838.22 78.00
2055 14.4240 5544.00 5345.27 74.00
2056 14.4300 5341.00 5119.08 73.00
2057 14.4360 5253.00 4985.40 72.00
2058 14.4420 5159.00 4899.23 72.00
2059 14.4480 5190.00 4840.87 72.00
2060 14.4540 5194.00 4799.84 72.00
2061 14.4600 5189.00 4770.13 72.00
2062 14.4660 5325.00 4748.15 73.00
2063 14.4720 5378.00 4731.58 73.00
2064 14.4780 5274.00 4718.95 73.00
2065 14.4840 5109.00 4709.22 71.00
2066 14.4900 4962.00 4701.70 70.00
2067 14.4960 4929.00 4695.87 70.00
2068 14.5020 4944.00 4691.38 70.00
2069 14.5080 4896.00 4687.94 70.00
2070 14.5140 4800.00 4685.34 69.00
2071 14.5200 4782.00 4683.43 69.00
2072 14.5260 4848.00 4670.70 70.00
2073 14.5320 4826.00 4647.34 69.00
2074 14.5380 4820.00 4649.65 69.00
2075 14.5440 4832.00 4651.96 70.00
2076 14.5500 4880.00 4654.27 70.00
2077 14.5560 4773.00 4656.58 69.00
2078 14.5620 4767.00 4658.89 69.00
2079 14.5680 4873.00 4661.20 70.00
2080 14.5740 4785.00 4663.50 69.00
2081 14.5800 4776.00 4665.81 69.00
2082 14.5860 4825.00 4668.12 69.00
2083 14.5920 4839.00 4670.43 70.00
2084 14.5980 4757.00 4672.74 69.00
2085 14.6040 4843.00 4675.05 70.00
2086 14.6100 4966.00 4677.36 70.00
2087 14.6160 5046.00 4679.67 71.00
2088 14.6220 4923.00 4681.97 70.00
2089 14.6280 4882.00 4684.28 70.00
2090 14.6340 4846.00 4686.59 70.00
2091 14.6400 4627.00 4688.25 68.00
2092 14.6460 4615.00 4689.77 68.00
2093 14.6520 4647.00 4691.30 68.00
2094 14.6580 4667.00 4692.82 68.00
2095 14.6640 4667.00 4694.35 68.00
2096 14.6700 4648.00 4695.87 68.00
2097 14.6760 4733.00 4697.40 69.00
2098 14.6820 4701.00 4698.92 69.00
2099 14.6880 4717.00 4700.45 69.00
2100 14.6940 4768.00 4701.97 69.00
2101 14.7000 4759.00 4703.50 69.00
2102 14.7060 4875.00 4705.02 70.00
2103 14.7120 5010.00 4706.55 71.00
2104 14.7180 5228.00 4708.07 72.00
2105 14.7240 5448.00 4709.60 74.00
2106 14.7300 5493.00 4711.12 74.00
2107 14.7360 5667.00 4712.65 75.00
2108 14.7420 5498.00 4714.17 74.00
2109 14.7480 5184.00 4715.69 72.00
2110 14.7540 5093.00 4717.22 71.00
2111 14.7600 4927.00 4718.74 70.00
2112 14.7660 4947.00 4720.27 70.00
2113 14.7720 4964.00 4751.70 70.00
2114 14.7780 4976.00 4782.38 71.00
2115 14.7840 4988.00 4789.80 71.00
2116 14.7900 4996.00 4798.16 71.00
2117 14.7960 5116.00 4807.64 72.00
2118 14.8020 5033.00 4818.53 71.00
2119 14.8080 5188.00 4831.17 72.00
2120 14.8140 5388.00 4846.02 73.00
2121 14.8200 5717.00 4863.70 76.00
2122 14.8260 6042.00 4885.09 78.00
2123 14.8320 6534.00 4911.39 81.00
2124 14.8380 6920.00 4944.38 83.00
2125 14.8440 7336.00 4986.67 86.00
2126 14.8500 7805.00 5042.33 88.00
2127 14.8560 7908.00 5117.79 89.00
2128 14.8620 7588.00 5224.00 87.00
2129 14.8680 7581.00 5380.38 87.00
2130 14.8740 7720.00 5624.89 88.00
2131 14.8800 7817.00 6057.36 88.00
2132 14.8860 8672.00 7120.76 93.00
2133 14.8920 12007.00 10636.30 110.00
2134 14.8980 21388.00 19842.60 146.00
2135 14.9040 33730.00 31563.50 184.00
2136 14.9100 31707.00 30434.40 178.00
2137 14.9160 19090.00 18371.90 138.00
2138 14.9220 10661.00 9990.02 103.00
2139 14.9280 7527.00 6938.41 87.00
2140 14.9340 6470.00 6003.64 80.00
2141 14.9400 6234.00 5607.03 79.00
2142 14.9460 6085.00 5379.33 78.00
2143 14.9520 6456.00 5233.74 80.00
2144 14.9580 7039.00 5135.40 84.00
2145 14.9640 8722.00 5066.25 93.00
2146 14.9700 10455.00 5016.15 102.00
2147 14.9760 10037.00 4979.08 100.00
2148 14.9820 8206.00 4951.36 91.00
2149 14.9880 6639.00 4930.85 81.00
2150 14.9940 5685.00 4916.82 75.00
2151 15.0000 5430.00 4912.73 74.00
2152 15.0060 5304.00 4936.09 73.00
2153 15.0120 5401.00 5011.91 73.00
2154 15.0180 5433.00 5086.57 74.00
2155 15.0240 5310.00 5197.91 73.00
2156 15.0300 5365.00 5291.95 73.00
2157 15.0360 5334.00 5280.88 73.00
2158 15.0420 5345.00 5279.89 73.00
2159 15.0480 5403.00 5302.00 74.00
2160 15.0540 5536.00 5361.02 74.00
2161 15.0600 5649.00 5432.27 75.00
2162 15.0660 5937.00 5518.39 77.00
2163 15.0720 6177.00 5623.27 79.00
2164 15.0780 6209.00 5752.61 79.00
2165 15.0840 6174.00 5914.44 79.00
2166 15.0900 6133.00 6120.55 78.00
2167 15.0960 6366.00 6388.60 80.00
2168 15.1020 6489.00 6746.07 81.00
2169 15.1080 6761.00 7237.16 82.00
2170 15.1140 7388.00 7937.50 86.00
2171 15.1200 8476.00 8982.92 92.00
2172 15.1260 10531.00 10643.60 103.00
2173 15.1320 13166.00 13658.00 115.00
2174 15.1380 21306.00 21492.70 146.00
2175 15.1440 50823.00 48211.80 225.00
2176 15.1500 134451.00 115061.00 367.00
2177 15.1560 194053.00 185270.00 441.00
2178 15.1620 140620.00 144254.00 375.00
2179 15.1680 63744.00 65944.50 252.00
2180 15.1740 33665.00 27257.90 183.00
2181 15.1800 18843.00 15408.70 137.00
2182 15.1860 12802.00 11456.90 113.00
2183 15.1920 9679.00 9473.34 98.00
2184 15.1980 8243.00 8263.85 91.00
2185 15.2040 7183.00 7468.92 85.00
2186 15.2100 6581.00 6920.54 81.00
2187 15.2160 6471.00 6526.77 80.00
2188 15.2220 5971.00 6235.01 77.00
2189 15.2280 5900.00 6013.14 77.00
2190 15.2340 5642.00 5840.58 75.00
2191 15.2400 5679.00 5703.91 75.00
2192 15.2460 5483.00 5593.92 74.00
2193 15.2520 5501.00 5504.17 74.00
2194 15.2580 5293.00 5430.06 73.00
2195 15.2640 5076.00 5368.23 71.00
2196 15.2700 5098.00 5316.13 71.00
2197 15.2760 5052.00 5271.89 71.00
2198 15.2820 4745.00 5234.04 69.00
2199 15.2880 4922.00 5201.45 70.00
2200 15.2940 4797.00 4854.46 69.00
2201 15.3000 4756.00 4855.98 69.00
2202 15.3060 4748.00 4857.51 69.00
2203 15.3120 4869.00 4859.03 70.00
2204 15.3180 4747.00 4860.56 69.00
2205 15.3240 4753.00 4862.08 69.00
2206 15.3300 4853.00 4863.61 70.00
2207 15.3360 4683.00 4865.13 68.00
2208 15.3420 4737.00 4866.66 69.00
2209 15.3480 4654.00 4868.18 68.00
2210 15.3540 4659.00 4869.71 68.00
2211 15.3600 4739.00 4871.23 69.00
2212 15.3660 4741.00 4872.76 69.00
2213 15.3720 4681.00 4874.28 68.00
2214 15.3780 4616.00 4875.81 68.00
2215 15.3840 4544.00 4877.33 67.00
2216 15.3900 4578.00 4878.86 68.00
2217 15.3960 4532.00 4880.38 67.00
2218 15.4020 4662.00 4881.91 68.00
2219 15.4080 4577.00 4883.43 68.00
2220 15.4140 4577.00 4884.96 68.00
2221 15.4200 4691.00 4886.48 68.00
2222 15.4260 4736.00 4888.01 69.00
2223 15.4320 4737.00 4889.53 69.00
2224 15.4380 4908.00 4891.06 70.00
2225 15.4440 4695.00 4892.58 69.00
2226 15.4500 4941.00 4894.10 70.00
2227 15.4560 4962.00 4895.63 70.00
2228 15.4620 5118.00 4897.15 72.00
2229 15.4680 4929.00 4898.68 70.00
2230 15.4740 4819.00 4900.20 69.00
2231 15.4800 4835.00 4901.73 70.00
2232 15.4860 4783.00 4914.39 69.00
2233 15.4920 4814.00 4916.99 69.00
2234 15.4980 5056.00 4919.76 71.00
2235 15.5040 4998.00 4922.72 71.00
2236 15.5100 4961.00 4925.94 70.00
2237 15.5160 4792.00 4929.45 69.00
2238 15.5220 4749.00 4933.35 69.00
2239 15.5280 4850.00 4937.73 70.00
2240 15.5340 4947.00 4942.73 70.00
2241 15.5400 4869.00 4948.55 70.00
2242 15.5460 4717.00 4955.46 69.00
2243 15.5520 4929.00 4963.88 70.00
2244 15.5580 4858.00 4974.40 70.00
2245 15.5640 4864.00 4987.98 70.00
2246 15.5700 4864.00 5006.16 70.00
2247 15.5760 4915.00 5031.57 70.00
2248 15.5820 4831.00 5068.99 70.00
2249 15.5880 4921.00 5128.21 70.00
2250 15.5940 5021.00 5237.90 71.00
2251 15.6000 5287.00 5533.57 73.00
2252 15.6060 6392.00 6516.41 80.00
2253 15.6120 8573.00 8778.18 93.00
2254 15.6180 10224.00 10703.10 101.00
2255 15.6240 9321.00 8979.25 97.00
2256 15.6300 7138.00 6642.04 84.00
2257 15.6360 5714.00 5582.02 76.00
2258 15.6420 5284.00 5262.60 73.00
2259 15.6480 5041.00 5150.09 71.00
2260 15.6540 4993.00 5091.90 71.00
2261 15.6600 4981.00 5056.61 71.00
2262 15.6660 4784.00 5033.90 69.00
2263 15.6720 4940.00 5018.79 70.00
2264 15.6780 5008.00 5008.59 71.00
2265 15.6840 4972.00 5001.81 71.00
2266 15.6900 5068.00 4997.64 71.00
2267 15.6960 5135.00 4995.84 72.00
2268 15.7020 5084.00 4997.28 71.00
2269 15.7080 4946.00 5007.51 70.00
2270 15.7140 4839.00 5044.30 70.00
2271 15.7200 4898.00 5121.95 70.00
2272 15.7260 4861.00 5176.74 70.00
2273 15.7320 4737.00 5115.04 69.00
2274 15.7380 4633.00 5037.52 68.00
2275 15.7440 4583.00 5002.75 68.00
2276 15.7500 4587.00 4992.46 68.00
2277 15.7560 4689.00 4978.90 68.00
2278 15.7620 4639.00 4978.38 68.00
2279 15.7680 4676.00 4978.64 68.00
2280 15.7740 4613.00 4979.32 68.00
2281 15.7800 4639.00 4980.26 68.00
2282 15.7860 4616.00 4981.36 68.00
2283 15.7920 4625.00 4982.57 68.00
2284 15.7980 4599.00 4983.85 68.00
2285 15.8040 4644.00 4985.18 68.00
2286 15.8100 4657.00 4986.56 68.00
2287 15.8160 4730.00 4987.96 69.00
2288 15.8220 4789.00 4989.38 69.00
2289 15.8280 4783.00 4990.83 69.00
2290 15.8340 4785.00 4992.28 69.00
2291 15.8400 4823.00 4993.75 69.00
2292 15.8460 4813.00 4995.22 69.00
2293 15.8520 4825.00 4996.70 69.00
2294 15.8580 4928.00 4998.13 70.00
2295 15.8640 5066.00 4999.32 71.00
2296 15.8700 5265.00 5000.85 73.00
2297 15.8760 5289.00 5002.37 73.00
2298 15.8820 5353.00 5003.90 73.00
2299 15.8880 5260.00 5005.42 73.00
2300 15.8940 5186.00 5006.95 72.00
2301 15.9000 5026.00 5008.47 71.00
2302 15.9060 4962.00 5010.00 70.00
2303 15.9120 4856.00 5011.52 70.00
2304 15.9180 4911.00 5013.04 70.00
2305 15.9240 5006.00 5014.57 71.00
2306 15.9300 5021.00 5018.36 71.00
2307 15.9360 4991.00 5026.84 71.00
2308 15.9420 4992.00 5029.27 71.00
2309 15.9480 4989.00 5031.85 71.00
2310 15.9540 5114.00 5034.59 72.00
2311 15.9600 5172.00 5037.55 72.00
2312 15.9660 5315.00 5040.77 73.00
2313 15.9720 5405.00 5044.31 74.00
2314 15.9780 5475.00 5048.28 74.00
2315 15.9840 5419.00 5052.80 74.00
2316 15.9900 5186.00 5058.04 72.00
2317 15.9960 5013.00 5064.25 71.00
2318 16.0020 5005.00 5071.81 71.00
2319 16.0080 4992.00 5081.28 71.00
2320 16.0140 5042.00 5093.55 71.00
2321 16.0200 5165.00 5110.11 72.00
2322 16.0260 5135.00 5133.50 72.00
2323 16.0320 5158.00 5168.58 72.00
2324 16.0380 5313.00 5226.26 73.00
2325 16.0440 5543.00 5346.61 74.00
2326 16.0500 6081.00 5709.96 78.00
2327 16.0560 7327.00 6781.79 86.00
2328 16.0620 8663.00 8662.13 93.00
2329 16.0680 8557.00 9310.69 93.00
2330 16.0740 7101.00 7573.49 84.00
2331 16.0800 6053.00 6063.61 78.00
2332 16.0860 5666.00 5461.82 75.00
2333 16.0920 5348.00 5278.42 73.00
2334 16.0980 5208.00 5205.89 72.00
2335 16.1040 5172.00 5166.10 72.00
2336 16.1100 5129.00 5141.47 72.00
2337 16.1160 5009.00 5125.40 71.00
2338 16.1220 5014.00 5114.54 71.00
2339 16.1280 5095.00 5107.03 71.00
2340 16.1340 5160.00 5101.77 72.00
2341 16.1400 5146.00 5098.07 72.00
2342 16.1460 5120.00 5095.49 72.00
2343 16.1520 5106.00 5093.74 71.00
2344 16.1580 5233.00 5092.59 72.00
2345 16.1640 5165.00 5091.93 72.00
2346 16.1700 5068.00 5091.62 71.00
2347 16.1760 5160.00 5091.61 72.00
2348 16.1820 5130.00 5091.83 72.00
2349 16.1880 5208.00 5092.23 72.00
2350 16.1940 5363.00 5092.79 73.00
2351 16.2000 5454.00 5091.29 74.00
2352 16.2060 5543.00 5086.24 74.00
2353 16.2120 5765.00 5087.76 76.00
2354 16.2180 5953.00 5089.29 77.00
2355 16.2240 5812.00 5090.81 76.00
2356 16.2300 5544.00 5092.34 74.00
2357 16.2360 5497.00 5093.86 74.00
2358 16.2420 5408.00 5095.39 74.00
2359 16.2480 5319.00 5096.91 73.00
2360 16.2540 5337.00 5098.44 73.00
2361 16.2600 5366.00 5099.96 73.00
2362 16.2660 5276.00 5101.49 73.00
2363 16.2720 5254.00 5103.01 72.00
2364 16.2780 5376.00 5104.54 73.00
2365 16.2840 5366.00 5106.06 73.00
2366 16.2900 5353.00 5107.59 73.00
2367 16.2960 5324.00 5109.11 73.00
2368 16.3020 5361.00 5110.64 73.00
2369 16.3080 5475.00 5112.16 74.00
2370 16.3140 5477.00 5113.69 74.00
2371 16.3200 5403.00 5115.21 74.00
2372 16.3260 5455.00 5116.74 74.00
2373 16.3320 5434.00 5118.26 74.00
2374 16.3380 5349.00 5119.79 73.00
2375 16.3440 5307.00 5121.31 73.00
2376 16.3500 5284.00 5122.84 73.00
2377 16.3560 5493.00 5124.36 74.00
2378 16.3620 5521.00 5125.89 74.00
2379 16.3680 5406.00 5127.41 74.00
2380 16.3740 5358.00 5128.94 73.00
2381 16.3800 5451.00 5130.46 74.00
2382 16.3860 5389.00 5131.98 73.00
2383 16.3920 5500.00 5388.96 74.00
2384 16.3980 5574.00 5631.19 75.00
2385 16.4040 5622.00 5682.11 75.00
2386 16.4100 5692.00 5740.81 75.00
2387 16.4160 5727.00 5808.98 76.00
2388 16.4220 5784.00 5888.81 76.00
2389 16.4280 5788.00 5983.16 76.00
2390 16.4340 5921.00 6095.92 77.00
2391 16.4400 6137.00 6232.24 78.00
2392 16.4460 6238.00 6399.21 79.00
2393 16.4520 6265.00 6606.95 79.00
2394 16.4580 6514.00 6869.91 81.00
2395 16.4640 6855.00 7209.57 83.00
2396 16.4700 7406.00 7658.76 86.00
2397 16.4760 8056.00 8270.34 90.00
2398 16.4820 8748.00 9132.14 94.00
2399 16.4880 10139.00 10400.20 101.00
2400 16.4940 12962.00 12372.90 114.00
2401 16.5000 18220.00 15792.40 135.00
2402 16.5060 30058.00 23690.70 173.00
2403 16.5120 60083.00 48563.80 245.00
2404 16.5180 132996.00 115061.00 365.00
2405 16.5240 207368.00 208917.00 455.00
2406 16.5300 195370.00 206392.00 442.00
2407 16.5360 113465.00 112267.00 337.00
2408 16.5420 50402.00 47383.60 225.00
2409 16.5480 26089.00 23343.20 162.00
2410 16.5540 17954.00 15670.70 134.00
2411 16.5600 14834.00 12316.60 122.00
2412 16.5660 13287.00 10373.40 115.00
2413 16.5720 11334.00 9124.26 106.00
2414 16.5780 9798.00 8275.00 99.00
2415 16.5840 8526.00 7672.33 92.00
2416 16.5900 7807.00 7229.98 88.00
2417 16.5960 7335.00 6896.09 86.00
2418 16.6020 7033.00 6638.19 84.00
2419 16.6080 6910.00 6434.89 83.00
2420 16.6140 6776.00 6271.98 82.00
2421 16.6200 6670.00 6568.44 82.00
2422 16.6260 6668.00 6500.44 82.00
2423 16.6320 6662.00 6456.85 82.00
2424 16.6380 6623.00 6435.20 81.00
2425 16.6440 6760.00 6434.30 82.00
2426 16.6500 7030.00 6452.24 84.00
2427 16.6560 7298.00 6488.28 85.00
2428 16.6620 7372.00 6304.69 86.00
2429 16.6680 7238.00 6363.36 85.00
2430 16.6740 7114.00 6643.11 84.00
2431 16.6800 7326.00 6865.63 86.00
2432 16.6860 7188.00 7146.75 85.00
2433 16.6920 7415.00 7508.81 86.00
2434 16.6980 7709.00 7986.42 88.00
2435 16.7040 8166.00 8634.65 90.00
2436 16.7100 9053.00 9544.87 95.00
2437 16.7160 10189.00 10881.20 101.00
2438 16.7220 11880.00 12961.70 109.00
2439 16.7280 15936.00 16608.40 126.00
2440 16.7340 24538.00 25350.00 157.00
2441 16.7400 52527.00 53211.20 229.00
2442 16.7460 138316.00 123690.00 372.00
2443 16.7520 212024.00 209087.00 460.00
2444 16.7580 174713.00 178585.00 418.00
2445 16.7640 90906.00 88964.30 302.00
2446 16.7700 43839.00 40090.70 209.00
2447 16.7760 27433.00 25241.50 166.00
2448 16.7820 24445.00 23972.20 156.00
2449 16.7880 33698.00 34658.20 184.00
2450 16.7940 69982.00 67611.90 265.00
2451 16.8000 117905.00 113376.00 343.00
2452 16.8060 108906.00 111630.00 330.00
2453 16.8120 62300.00 64461.20 250.00
2454 16.8180 29406.00 30034.90 171.00
2455 16.8240 16413.00 16550.80 128.00
2456 16.8300 11690.00 12040.50 108.00
2457 16.8360 9624.00 10024.70 98.00
2458 16.8420 8366.00 8827.13 91.00
2459 16.8480 7608.00 8031.55 87.00
2460 16.8540 7194.00 7471.88 85.00
2461 16.8600 6943.00 7061.28 83.00
2462 16.8660 6656.00 6749.66 82.00
2463 16.8720 6511.00 6506.42 81.00
2464 16.8780 6387.00 6312.24 80.00
2465 16.8840 6285.00 6154.24 79.00
2466 16.8900 6036.00 6023.59 78.00
2467 16.8960 5878.00 5535.04 77.00
2468 16.9020 5880.00 5471.88 77.00
2469 16.9080 5828.00 5418.47 76.00
2470 16.9140 5706.00 5372.81 76.00
2471 16.9200 5735.00 5333.31 76.00
2472 16.9260 5694.00 5298.84 75.00
2473 16.9320 5572.00 5268.50 75.00
2474 16.9380 5580.00 5108.68 75.00
2475 16.9440 5386.00 4996.51 73.00
2476 16.9500 5336.00 4992.42 73.00
2477 16.9560 5362.00 4988.32 73.00
2478 16.9620 5377.00 4984.22 73.00
2479 16.9680 5480.00 4980.13 74.00
2480 16.9740 5308.00 4976.03 73.00
2481 16.9800 5322.00 4971.94 73.00
2482 16.9860 5379.00 4967.84 73.00
2483 16.9920 5343.00 4963.75 73.00
2484 16.9980 5416.00 4959.65 74.00
2485 17.0040 5382.00 4955.55 73.00
2486 17.0100 5304.00 4951.46 73.00
2487 17.0160 5385.00 4947.36 73.00
2488 17.0220 5306.00 4943.27 73.00
2489 17.0280 5671.00 4939.17 75.00
2490 17.0340 5941.00 4935.07 77.00
2491 17.0400 6626.00 4954.96 81.00
2492 17.0460 7699.00 4953.17 88.00
2493 17.0520 7954.00 4951.73 89.00
2494 17.0580 7772.00 4950.71 88.00
2495 17.0640 7110.00 4950.21 84.00
2496 17.0700 6369.00 4950.35 80.00
2497 17.0760 5861.00 4951.28 77.00
2498 17.0820 5604.00 4953.23 75.00
2499 17.0880 5276.00 4956.48 73.00
2500 17.0940 5275.00 4961.44 73.00
2501 17.1000 5388.00 4968.68 73.00
2502 17.1060 5257.00 4979.02 73.00
2503 17.1120 5206.00 4993.70 72.00
2504 17.1180 5206.00 5014.64 72.00
2505 17.1240 5185.00 5044.92 72.00
2506 17.1300 5316.00 5089.75 73.00
2507 17.1360 5278.00 5410.11 73.00
2508 17.1420 5476.00 5545.55 74.00
2509 17.1480 5730.00 5778.11 76.00
2510 17.1540 6185.00 6331.01 79.00
2511 17.1600 7633.00 8024.65 87.00
2512 17.1660 12762.00 12033.50 113.00
2513 17.1720 17096.00 16351.50 131.00
2514 17.1780 14364.00 14203.40 120.00
2515 17.1840 9730.00 9547.59 99.00
2516 17.1900 7650.00 7131.91 87.00
2517 17.1960 6683.00 6408.12 82.00
2518 17.2020 6402.00 6264.09 80.00
2519 17.2080 6384.00 6309.98 80.00
2520 17.2140 6505.00 6475.77 81.00
2521 17.2200 6948.00 6766.11 83.00
2522 17.2260 7282.00 7221.40 85.00
2523 17.2320 8098.00 7928.64 90.00
2524 17.2380 9702.00 9069.00 98.00
2525 17.2440 12492.00 11135.80 112.00
2526 17.2500 18644.00 16229.90 137.00
2527 17.2560 35429.00 32049.10 188.00
2528 17.2620 75587.00 70486.80 275.00
2529 17.2680 114652.00 115765.00 339.00
2530 17.2740 92789.00 102872.00 305.00
2531 17.2800 44798.00 53852.20 212.00
2532 17.2860 21536.00 24249.00 147.00
2533 17.2920 13073.00 13664.40 114.00
2534 17.2980 9546.00 10120.20 98.00
2535 17.3040 7908.00 8462.65 89.00
2536 17.3100 7075.00 7475.62 84.00
2537 17.3160 6476.00 6810.21 80.00
2538 17.3220 6136.00 6368.02 78.00
2539 17.3280 5985.00 6050.94 77.00
2540 17.3340 5670.00 5815.61 75.00
2541 17.3400 5488.00 5636.01 74.00
2542 17.3460 5331.00 5495.60 73.00
2543 17.3520 5296.00 5383.65 73.00
2544 17.3580 5271.00 5292.70 73.00
2545 17.3640 5148.00 5217.66 72.00
2546 17.3700 5181.00 5154.88 72.00
2547 17.3760 5188.00 5101.72 72.00
2548 17.3820 5053.00 5056.15 71.00
2549 17.3880 5092.00 5016.70 71.00
2550 17.3940 5193.00 4982.23 72.00
2551 17.4000 4945.00 4951.84 70.00
2552 17.4060 4927.00 4924.83 70.00
2553 17.4120 5025.00 4677.04 71.00
2554 17.4180 5019.00 4672.94 71.00
2555 17.4240 4990.00 4668.85 71.00
2556 17.4300 4866.00 4664.75 70.00
2557 17.4360 4849.00 4660.65 70.00
2558 17.4420 4886.00 4656.56 70.00
2559 17.4480 4965.00 4652.46 70.00
2560 17.4540 4946.00 4648.37 70.00
2561 17.4600 4969.00 4644.27 70.00
2562 17.4660 4849.00 4640.18 70.00
2563 17.4720 4792.00 4636.08 69.00
2564 17.4780 4895.00 4631.98 70.00
2565 17.4840 4900.00 4627.89 70.00
2566 17.4900 4577.00 4623.79 68.00
2567 17.4960 4753.00 4619.70 69.00
2568 17.5020 4635.00 4615.60 68.00
2569 17.5080 4622.00 4611.51 68.00
2570 17.5140 4527.00 4607.41 67.00
2571 17.5200 4574.00 4603.31 68.00
2572 17.5260 4524.00 4599.22 67.00
2573 17.5320 4625.00 4595.12 68.00
2574 17.5380 4628.00 4591.03 68.00
2575 17.5440 4594.00 4586.93 68.00
2576 17.5500 4701.00 4582.84 69.00
2577 17.5560 4647.00 4578.74 68.00
2578 17.5620 4670.00 4574.64 68.00
2579 17.5680 4624.00 4570.55 68.00
2580 17.5740 4640.00 4566.45 68.00
2581 17.5800 4650.00 4562.36 68.00
2582 17.5860 4482.00 4558.26 67.00
2583 17.5920 4424.00 4554.17 67.00
2584 17.5980 4534.00 4550.07 67.00
2585 17.6040 4472.00 4545.97 67.00
2586 17.6100 4400.00 4541.88 66.00
2587 17.6160 4609.00 4537.78 68.00
2588 17.6220 4484.00 4533.69 67.00
2589 17.6280 4475.00 4529.59 67.00
2590 17.6340 4554.00 4525.49 67.00
2591 17.6400 4488.00 4521.40 67.00
2592 17.6460 4470.00 4517.30 67.00
2593 17.6520 4410.00 4513.21 66.00
2594 17.6580 4402.00 4509.11 66.00
2595 17.6640 4360.00 4505.02 66.00
2596 17.6700 4472.00 4500.92 67.00
2597 17.6760 4395.00 4496.82 66.00
2598 17.6820 4440.00 4492.73 67.00
2599 17.6880 4394.00 4488.63 66.00
2600 17.6940 4423.00 4484.54 67.00
2601 17.7000 4457.00 4480.44 67.00
2602 17.7060 4407.00 4476.34 66.00
2603 17.7120 4401.00 4472.25 66.00
2604 17.7180 4466.00 4468.15 67.00
2605 17.7240 4376.00 4464.06 66.00
2606 17.7300 4511.00 4471.12 67.00
2607 17.7360 4428.00 4468.07 67.00
2608 17.7420 4489.00 4465.17 67.00
2609 17.7480 4510.00 4462.46 67.00
2610 17.7540 4840.00 4459.97 70.00
2611 17.7600 5020.00 4457.77 71.00
2612 17.7660 5276.00 4455.90 73.00
2613 17.7720 5441.00 4454.47 74.00
2614 17.7780 5284.00 4453.59 73.00
2615 17.7840 4981.00 4453.44 71.00
2616 17.7900 4901.00 4454.22 70.00
2617 17.7960 4689.00 4456.28 68.00
2618 17.8020 4466.00 4460.10 67.00
2619 17.8080 4618.00 4466.41 68.00
2620 17.8140 4477.00 4476.35 67.00
2621 17.8200 4466.00 4491.83 67.00
2622 17.8260 4475.00 4516.13 67.00
2623 17.8320 4474.00 4555.35 67.00
2624 17.8380 4585.00 4622.97 68.00
2625 17.8440 4727.00 4765.86 69.00
2626 17.8500 5128.00 5187.56 72.00
2627 17.8560 6522.00 6410.33 81.00
2628 17.8620 8651.00 8610.43 93.00
2629 17.8680 9653.00 9462.20 98.00
2630 17.8740 7661.00 7419.83 88.00
2631 17.8800 6144.00 5633.90 78.00
2632 17.8860 5185.00 4887.25 72.00
2633 17.8920 4803.00 4642.89 69.00
2634 17.8980 4577.00 4540.69 68.00
2635 17.9040 4437.00 4481.84 67.00
2636 17.9100 4478.00 4443.02 67.00
2637 17.9160 4445.00 4415.54 67.00
2638 17.9220 4418.00 4394.96 66.00
2639 17.9280 4476.00 4378.85 67.00
2640 17.9340 4413.00 4365.73 66.00
2641 17.9400 4452.00 4354.68 67.00
2642 17.9460 4350.00 4345.12 66.00
2643 17.9520 4341.00 4336.66 66.00
2644 17.9580 4342.00 4330.29 66.00
2645 17.9640 4341.00 4323.51 66.00
2646 17.9700 4312.00 4317.12 66.00
2647 17.9760 4328.00 4311.15 66.00
2648 17.9820 4184.00 4305.50 65.00
2649 17.9880 4278.00 4300.15 65.00
2650 17.9940 4326.00 4295.03 66.00
2651 18.0000 4364.00 4292.78 66.00
2652 18.0060 4169.00 4292.06 65.00
2653 18.0120 4235.00 4281.72 65.00
2654 18.0180 4307.00 4282.17 66.00
2655 18.0240 4398.00 4282.76 66.00
2656 18.0300 4411.00 4283.54 66.00
2657 18.0360 4375.00 4284.60 66.00
2658 18.0420 4289.00 4286.05 65.00
2659 18.0480 4286.00 4288.08 65.00
2660 18.0540 4218.00 4291.04 65.00
2661 18.0600 4276.00 4295.49 65.00
2662 18.0660 4343.00 4302.62 66.00
2663 18.0720 4396.00 4315.70 66.00
2664 18.0780 4284.00 4348.61 65.00
2665 18.0840 4387.00 4449.12 66.00
2666 18.0900 4418.00 4680.40 66.00
2667 18.0960 4535.00 4922.89 67.00
2668 18.1020 4716.00 4800.23 69.00
2669 18.1080 4503.00 4529.58 67.00
2670 18.1140 4501.00 4378.46 67.00
2671 18.1200 4633.00 4438.83 68.00
2672 18.1260 4692.00 4537.46 68.00
2673 18.1320 4867.00 4550.27 70.00
2674 18.1380 4866.00 4570.03 70.00
2675 18.1440 4909.00 4595.69 70.00
2676 18.1500 4815.00 4627.38 69.00
2677 18.1560 4693.00 4665.81 69.00
2678 18.1620 4683.00 4712.26 68.00
2679 18.1680 4746.00 4768.56 69.00
2680 18.1740 4724.00 4837.36 69.00
2681 18.1800 4810.00 4922.33 69.00
2682 18.1860 4908.00 5028.70 70.00
2683 18.1920 5027.00 5164.02 71.00
2684 18.1980 5296.00 5339.71 73.00
2685 18.2040 5349.00 5573.27 73.00
2686 18.2100 5721.00 5892.46 76.00
2687 18.2160 6336.00 6344.50 80.00
2688 18.2220 7022.00 7012.92 84.00
2689 18.2280 8292.00 8062.17 91.00
2690 18.2340 10827.00 9927.83 104.00
2691 18.2400 16777.00 14393.20 130.00
2692 18.2460 32016.00 27794.30 179.00
2693 18.2520 66317.00 59972.50 258.00
2694 18.2580 101695.00 99196.20 319.00
2695 18.2640 89395.00 90678.60 299.00
2696 18.2700 45830.00 49130.50 214.00
2697 18.2760 21647.00 22645.30 147.00
2698 18.2820 12383.00 12680.30 111.00
2699 18.2880 8705.00 9281.85 93.00
2700 18.2940 7121.00 7719.34 84.00
2701 18.3000 6204.00 6798.59 79.00
2702 18.3060 5624.00 6200.33 75.00
2703 18.3120 5247.00 5790.33 72.00
2704 18.3180 5102.00 5497.60 71.00
2705 18.3240 4999.00 5281.61 71.00
2706 18.3300 4862.00 5117.72 70.00
2707 18.3360 4744.00 4990.52 69.00
2708 18.3420 4616.00 4889.87 68.00
2709 18.3480 4538.00 4808.83 67.00
2710 18.3540 4461.00 4742.64 67.00
2711 18.3600 4371.00 4687.90 66.00
2712 18.3660 4312.00 4642.12 66.00
2713 18.3720 4307.00 4603.43 66.00
2714 18.3780 4265.00 4570.44 65.00
2715 18.3840 4283.00 4542.07 65.00
2716 18.3900 4273.00 4517.52 65.00
2717 18.3960 4332.00 4496.11 66.00
2718 18.4020 4220.00 4370.34 65.00
2719 18.4080 4203.00 4269.86 65.00
2720 18.4140 4202.00 4269.74 65.00
2721 18.4200 4189.00 4269.62 65.00
2722 18.4260 4115.00 4269.49 64.00
2723 18.4320 4057.00 4269.37 64.00
2724 18.4380 4181.00 4269.24 65.00
2725 18.4440 4148.00 4269.12 64.00
2726 18.4500 4234.00 4269.00 65.00
2727 18.4560 4276.00 4268.87 65.00
2728 18.4620 4324.00 4323.43 66.00
2729 18.4680 4436.00 4328.29 67.00
2730 18.4740 4357.00 4333.86 66.00
2731 18.4800 4355.00 4340.28 66.00
2732 18.4860 4403.00 4347.74 66.00
2733 18.4920 4342.00 4356.46 66.00
2734 18.4980 4312.00 4366.74 66.00
2735 18.5040 4438.00 4378.97 67.00
2736 18.5100 4612.00 4393.66 68.00
2737 18.5160 4884.00 4411.50 70.00
2738 18.5220 5301.00 4433.47 73.00
2739 18.5280 5455.00 4460.93 74.00
2740 18.5340 5546.00 4495.83 74.00
2741 18.5400 5203.00 4541.10 72.00
2742 18.5460 4904.00 4601.21 70.00
2743 18.5520 4674.00 4683.40 68.00
2744 18.5580 4587.00 4799.68 68.00
2745 18.5640 4691.00 4971.41 68.00
2746 18.5700 4919.00 5240.52 70.00
2747 18.5760 5258.00 5715.33 73.00
2748 18.5820 6424.00 6836.93 80.00
2749 18.5880 10001.00 10207.10 100.00
2750 18.5940 18877.00 18408.30 137.00
2751 18.6000 28445.00 28698.60 169.00
2752 18.6060 25744.00 26109.30 160.00
2753 18.6120 16257.00 15326.20 128.00
2754 18.6180 10204.00 8772.58 101.00
2755 18.6240 7311.00 6362.74 86.00
2756 18.6300 5818.00 5533.60 76.00
2757 18.6360 5115.00 5142.56 72.00
2758 18.6420 4734.00 4909.52 69.00
2759 18.6480 4567.00 4757.60 68.00
2760 18.6540 4477.00 4653.22 67.00
2761 18.6600 4390.00 4578.52 66.00
2762 18.6660 4193.00 4523.29 65.00
2763 18.6720 4164.00 4481.33 65.00
2764 18.6780 4163.00 4448.72 65.00
2765 18.6840 4219.00 4422.87 65.00
2766 18.6900 4257.00 4402.03 65.00
2767 18.6960 4154.00 4384.99 64.00
2768 18.7020 4122.00 4370.87 64.00
2769 18.7080 4072.00 4359.03 64.00
2770 18.7140 4057.00 4349.02 64.00
2771 18.7200 4102.00 4340.47 64.00
2772 18.7260 4058.00 4333.10 64.00
2773 18.7320 4006.00 4326.70 63.00
2774 18.7380 4001.00 4321.12 63.00
2775 18.7440 4010.00 4262.92 63.00
2776 18.7500 4080.00 4262.79 64.00
2777 18.7560 4160.00 4262.67 64.00
2778 18.7620 4080.00 4262.55 64.00
2779 18.7680 4081.00 4262.42 64.00
2780 18.7740 4152.00 4262.30 64.00
2781 18.7800 4078.00 4262.17 64.00
2782 18.7860 4013.00 4262.05 63.00
2783 18.7920 4042.00 4261.93 64.00
2784 18.7980 4188.00 4261.80 65.00
2785 18.8040 4198.00 4261.68 65.00
2786 18.8100 4173.00 4261.55 65.00
2787 18.8160 4202.00 4261.43 65.00
2788 18.8220 4205.00 4261.31 65.00
2789 18.8280 4222.00 4261.18 65.00
2790 18.8340 4136.00 4261.06 64.00
2791 18.8400 4107.00 4260.93 64.00
2792 18.8460 4013.00 4260.81 63.00
2793 18.8520 3999.00 4260.69 63.00
2794 18.8580 4014.00 4260.56 63.00
2795 18.8640 4053.00 4260.44 64.00
2796 18.8700 4042.00 4260.31 64.00
2797 18.8760 4091.00 4260.19 64.00
2798 18.8820 4150.00 4260.07 64.00
2799 18.8880 3991.00 4259.94 63.00
2800 18.8940 4089.00 4259.82 64.00
2801 18.9000 4118.00 4259.69 64.00
2802 18.9060 4102.00 4259.57 64.00
2803 18.9120 4155.00 4259.45 64.00
2804 18.9180 4142.00 4259.32 64.00
2805 18.9240 4139.00 4259.20 64.00
2806 18.9300 4156.00 4259.07 64.00
2807 18.9360 4121.00 4258.95 64.00
2808 18.9420 4114.00 4258.83 64.00
2809 18.9480 4175.00 4258.70 65.00
2810 18.9540 4161.00 4258.58 65.00
2811 18.9600 4154.00 4258.45 64.00
2812 18.9660 4159.00 4258.33 64.00
2813 18.9720 4140.00 4258.21 64.00
2814 18.9780 4148.00 4258.08 64.00
2815 18.9840 4090.00 4257.96 64.00
2816 18.9900 4123.00 4257.83 64.00
2817 18.9960 4291.00 4257.71 66.00
2818 19.0020 4420.00 4257.59 66.00
2819 19.0080 4549.00 4257.46 67.00
2820 19.0140 5052.00 4257.34 71.00
2821 19.0200 5511.00 4257.21 74.00
2822 19.0260 5608.00 4257.09 75.00
2823 19.0320 5265.00 4256.97 73.00
2824 19.0380 4827.00 4256.84 69.00
2825 19.0440 4525.00 4256.72 67.00
2826 19.0500 4273.00 4256.59 65.00
2827 19.0560 4214.00 4256.47 65.00
2828 19.0620 4251.00 4256.35 65.00
2829 19.0680 4198.00 4256.22 65.00
2830 19.0740 4137.00 4256.10 64.00
2831 19.0800 4185.00 4255.97 65.00
2832 19.0860 4268.00 4255.85 65.00
2833 19.0920 4312.00 4255.73 66.00
2834 19.0980 4294.00 4255.60 66.00
2835 19.1040 4275.00 4408.05 65.00
2836 19.1100 4214.00 4421.66 65.00
2837 19.1160 4180.00 4437.21 65.00
2838 19.1220 4212.00 4455.08 65.00
2839 19.1280 4210.00 4475.75 65.00
2840 19.1340 4253.00 4499.85 65.00
2841 19.1400 4275.00 4528.13 65.00
2842 19.1460 4318.00 4561.65 66.00
2843 19.1520 4320.00 4601.77 66.00
2844 19.1580 4268.00 4650.32 65.00
2845 19.1640 4290.00 4709.79 65.00
2846 19.1700 4369.00 4783.77 66.00
2847 19.1760 4432.00 4877.29 67.00
2848 19.1820 4543.00 4997.81 67.00
2849 19.1880 4701.00 5156.79 69.00
2850 19.1940 4896.00 5372.22 70.00
2851 19.2000 5112.00 5673.92 71.00
2852 19.2060 5504.00 6113.76 74.00
2853 19.2120 6197.00 6790.70 79.00
2854 19.2180 7314.00 7937.75 86.00
2855 19.2240 9708.00 10420.30 99.00
2856 19.2300 16969.00 17562.70 130.00
2857 19.2360 38351.00 36148.90 196.00
2858 19.2420 64387.00 65072.40 254.00
2859 19.2480 64597.00 69948.90 254.00
2860 19.2540 41325.00 42053.40 203.00
2861 19.2600 21776.00 20380.60 148.00
2862 19.2660 12806.00 11374.30 113.00
2863 19.2720 9006.00 8303.47 95.00
2864 19.2780 7175.00 6984.48 85.00
2865 19.2840 6018.00 6233.83 78.00
2866 19.2900 5482.00 5753.12 74.00
2867 19.2960 5288.00 5426.82 73.00
2868 19.3020 5073.00 5195.53 71.00
2869 19.3080 4827.00 5025.92 69.00
2870 19.3140 4617.00 4897.97 68.00
2871 19.3200 4596.00 4819.00 68.00
2872 19.3260 4534.00 4742.83 67.00
2873 19.3320 4410.00 4682.33 66.00
2874 19.3380 4546.00 4633.76 67.00
2875 19.3440 4517.00 4594.45 67.00
2876 19.3500 4399.00 4562.52 66.00
2877 19.3560 4338.00 4536.63 66.00
2878 19.3620 4333.00 4515.83 66.00
2879 19.3680 4335.00 4499.45 66.00
2880 19.3740 4342.00 4487.07 66.00
2881 19.3800 4317.00 4478.53 66.00
2882 19.3860 4322.00 4473.86 66.00
2883 19.3920 4297.00 4330.44 66.00
2884 19.3980 4175.00 4345.88 65.00
2885 19.4040 4286.00 4366.25 65.00
2886 19.4100 4348.00 4393.85 66.00
2887 19.4160 4404.00 4432.47 66.00
2888 19.4220 4529.00 4488.71 67.00
2889 19.4280 4575.00 4757.81 68.00
2890 19.4340 4767.00 4920.09 69.00
2891 19.4400 5073.00 5251.75 71.00
2892 19.4460 6000.00 6156.95 77.00
2893 19.4520 8331.00 8463.61 91.00
2894 19.4580 11362.00 12104.80 107.00
2895 19.4640 11506.00 13104.80 107.00
2896 19.4700 8598.00 9830.63 93.00
2897 19.4760 6293.00 6961.52 79.00
2898 19.4820 5338.00 5726.69 73.00
2899 19.4880 5003.00 5348.26 71.00
2900 19.4940 4971.00 5250.57 71.00
2901 19.5000 5055.00 5259.08 71.00
2902 19.5060 5047.00 5337.39 71.00
2903 19.5120 5093.00 5482.58 71.00
2904 19.5180 5295.00 5707.93 73.00
2905 19.5240 5564.00 6044.22 75.00
2906 19.5300 6060.00 6550.54 78.00
2907 19.5360 6925.00 7342.77 83.00
2908 19.5420 8424.00 8708.07 92.00
2909 19.5480 11727.00 11711.90 108.00
2910 19.5540 20905.00 20195.30 145.00
2911 19.5600 47375.00 41424.90 218.00
2912 19.5660 83000.00 73355.70 288.00
2913 19.5720 82913.00 80300.10 288.00
2914 19.5780 50100.00 51052.60 224.00
2915 19.5840 24104.00 25105.10 155.00
2916 19.5900 13390.00 13443.90 116.00
2917 19.5960 9190.00 9333.72 96.00
2918 19.6020 7275.00 7633.48 85.00
2919 19.6080 6161.00 6675.37 78.00
2920 19.6140 5571.00 6080.44 75.00
2921 19.6200 5234.00 5678.30 72.00
2922 19.6260 4955.00 5394.35 70.00
2923 19.6320 4745.00 5186.55 69.00
2924 19.6380 4616.00 5030.05 68.00
2925 19.6440 4556.00 4909.40 67.00
2926 19.6500 4536.00 4814.39 67.00
2927 19.6560 4449.00 4738.26 67.00
2928 19.6620 4389.00 4676.34 66.00
2929 19.6680 4407.00 4625.32 66.00
2930 19.6740 4471.00 4582.75 67.00
2931 19.6800 4472.00 4546.88 67.00
2932 19.6860 4473.00 4516.36 67.00
2933 19.6920 4346.00 4490.20 66.00
2934 19.6980 4321.00 4467.58 66.00
2935 19.7040 4358.00 4447.90 66.00
2936 19.7100 4369.00 4430.67 66.00
2937 19.7160 4235.00 4324.66 65.00
2938 19.7220 4273.00 4242.70 65.00
2939 19.7280 4241.00 4242.58 65.00
2940 19.7340 4255.00 4242.46 65.00
2941 19.7400 4190.00 4242.33 65.00
2942 19.7460 4193.00 4242.21 65.00
2943 19.7520 4158.00 4242.08 64.00
2944 19.7580 4148.00 4241.96 64.00
2945 19.7640 4136.00 4241.83 64.00
2946 19.7700 4140.00 4241.71 64.00
2947 19.7760 4143.00 4241.59 64.00
2948 19.7820 4198.00 4241.46 65.00
2949 19.7880 4174.00 4241.34 65.00
2950 19.7940 4229.00 4241.21 65.00
2951 19.8000 4198.00 4241.09 65.00
2952 19.8060 4147.00 4241.50 64.00
2953 19.8120 4191.00 4242.45 65.00
2954 19.8180 4171.00 4243.39 65.00
2955 19.8240 4072.00 4244.34 64.00
2956 19.8300 4211.00 4245.28 65.00
2957 19.8360 4258.00 4246.23 65.00
2958 19.8420 4330.00 4247.17 66.00
2959 19.8480 4359.00 4248.12 66.00
2960 19.8540 4458.00 4249.06 67.00
2961 19.8600 4316.00 4250.01 66.00
2962 19.8660 4214.00 4250.95 65.00
2963 19.8720 4184.00 4251.90 65.00
2964 19.8780 4333.00 4252.84 66.00
2965 19.8840 4190.00 4253.79 65.00
2966 19.8900 4184.00 4254.73 65.00
2967 19.8960 4182.00 4255.68 65.00
2968 19.9020 4169.00 4256.63 65.00
2969 19.9080 4248.00 4257.57 65.00
2970 19.9140 4279.00 4258.52 65.00
2971 19.9200 4264.00 4259.46 65.00
2972 19.9260 4222.00 4260.41 65.00
2973 19.9320 4200.00 4261.35 65.00
2974 19.9380 4139.00 4262.30 64.00
2975 19.9440 4115.00 4263.24 64.00
2976 19.9500 4147.00 4264.19 64.00
2977 19.9560 4258.00 4265.13 65.00
2978 19.9620 4125.00 4266.08 64.00
2979 19.9680 4094.00 4267.02 64.00
2980 19.9740 4200.00 4267.97 65.00
2981 19.9800 4160.00 4268.97 64.00
2982 19.9860 4108.00 4269.92 64.00
2983 19.9920 4095.00 4270.87 64.00
2984 19.9980 4156.00 4271.82 64.00
2985 20.0040 4152.00 4272.77 64.00
2986 20.0100 4185.00 4273.72 65.00
2987 20.0160 4210.00 4445.21 65.00
2988 20.0220 4262.00 4460.98 65.00
2989 20.0280 4403.00 4478.78 66.00
2990 20.0340 4305.00 4498.97 66.00
2991 20.0400 4305.00 4522.05 66.00
2992 20.0460 4345.00 4548.60 66.00
2993 20.0520 4374.00 4579.41 66.00
2994 20.0580 4436.00 4615.47 67.00
2995 20.0640 4550.00 4658.06 67.00
2996 20.0700 4646.00 4708.95 68.00
2997 20.0760 4543.00 4770.45 67.00
2998 20.0820 4584.00 4845.79 68.00
2999 20.0880 4683.00 4939.50 68.00
3000 20.0940 4875.00 5058.21 70.00
3001 20.1000 5040.00 5211.88 71.00
3002 20.1060 5453.00 5416.40 74.00
3003 20.1120 5830.00 5697.40 76.00
3004 20.1180 6343.00 6094.02 80.00
3005 20.1240 7072.00 6664.93 84.00
3006 20.1300 8638.00 7542.73 93.00
3007 20.1360 11352.00 9096.20 107.00
3008 20.1420 16986.00 12733.70 130.00
3009 20.1480 29958.00 23023.20 173.00
3010 20.1540 54828.00 47051.70 234.00
3011 20.1600 72894.00 77822.40 270.00
3012 20.1660 62121.00 73153.30 249.00
3013 20.1720 36916.00 41338.70 192.00
3014 20.1780 19729.00 20223.30 140.00
3015 20.1840 12129.00 11769.90 110.00
3016 20.1900 9004.00 8771.11 95.00
3017 20.1960 7399.00 7400.60 86.00
3018 20.2020 6700.00 6600.81 82.00
3019 20.2080 6325.00 6086.35 80.00
3020 20.2140 5992.00 5740.09 77.00
3021 20.2200 5807.00 5500.79 76.00
3022 20.2260 5733.00 5334.20 76.00
3023 20.2320 5667.00 5221.13 75.00
3024 20.2380 5528.00 5151.65 74.00
3025 20.2440 5590.00 5123.05 75.00
3026 20.2500 5651.00 5140.37 75.00
3027 20.2560 5762.00 5221.92 76.00
3028 20.2620 5997.00 5428.87 77.00
3029 20.2680 6852.00 6013.35 83.00
3030 20.2740 8892.00 7738.66 94.00
3031 20.2800 12266.00 11498.90 111.00
3032 20.2860 13966.00 15416.20 118.00
3033 20.2920 11387.00 13514.40 107.00
3034 20.2980 8180.00 9058.98 90.00
3035 20.3040 6313.00 6442.47 79.00
3036 20.3100 5501.00 5268.49 74.00
3037 20.3160 5005.00 4906.28 71.00
3038 20.3220 4784.00 4730.87 69.00
3039 20.3280 4776.00 4625.56 69.00
3040 20.3340 4712.00 4556.60 69.00
3041 20.3400 4508.00 4509.19 67.00
3042 20.3460 4480.00 4475.37 67.00
3043 20.3520 4493.00 4450.51 67.00
3044 20.3580 4350.00 4431.79 66.00
3045 20.3640 4575.00 4417.42 68.00
3046 20.3700 4562.00 4406.20 68.00
3047 20.3760 4543.00 4397.34 67.00
3048 20.3820 4390.00 4390.25 66.00
3049 20.3880 4480.00 4391.05 67.00
3050 20.3940 4474.00 4386.99 67.00
3051 20.4000 4397.00 4383.85 66.00
3052 20.4060 4292.00 4381.50 66.00
3053 20.4120 4393.00 4379.82 66.00
3054 20.4180 4471.00 4378.73 67.00
3055 20.4240 4332.00 4378.18 66.00
3056 20.4300 4412.00 4378.14 66.00
3057 20.4360 4297.00 4354.97 66.00
3058 20.4420 4244.00 4357.77 65.00
3059 20.4480 4290.00 4360.97 65.00
3060 20.4540 4290.00 4364.67 65.00
3061 20.4600 4287.00 4369.04 65.00
3062 20.4660 4408.00 4374.31 66.00
3063 20.4720 4259.00 4380.83 65.00
3064 20.4780 4142.00 4389.11 64.00
3065 20.4840 4368.00 4399.99 66.00
3066 20.4900 4325.00 4414.83 66.00
3067 20.4960 4368.00 4436.01 66.00
3068 20.5020 4280.00 4468.04 65.00
3069 20.5080 4357.00 4521.85 66.00
3070 20.5140 4509.00 4655.40 67.00
3071 20.5200 4697.00 4976.90 69.00
3072 20.5260 5639.00 5768.33 75.00
3073 20.5320 6955.00 6964.42 83.00
3074 20.5380 6855.00 7179.16 83.00
3075 20.5440 5713.00 6040.23 76.00
3076 20.5500 4888.00 5124.89 70.00
3077 20.5560 4670.00 4726.55 68.00
3078 20.5620 4345.00 4588.64 66.00
3079 20.5680 4377.00 4533.59 66.00
3080 20.5740 4410.00 4506.55 66.00
3081 20.5800 4362.00 4493.56 66.00
3082 20.5860 4306.00 4489.81 66.00
3083 20.5920 4447.00 4493.35 67.00
3084 20.5980 4329.00 4503.83 66.00
3085 20.6040 4434.00 4522.17 67.00
3086 20.6100 4397.00 4550.77 66.00
3087 20.6160 4468.00 4594.37 67.00
3088 20.6220 4614.00 4662.09 68.00
3089 20.6280 4812.00 4774.18 69.00
3090 20.6340 5185.00 4996.96 72.00
3091 20.6400 6211.00 5584.97 79.00
3092 20.6460 7854.00 7159.23 89.00
3093 20.6520 10474.00 10072.80 102.00
3094 20.6580 11289.00 11971.80 106.00
3095 20.6640 8982.00 9689.02 95.00
3096 20.6700 6695.00 6896.45 82.00
3097 20.6760 5303.00 5478.25 73.00
3098 20.6820 4987.00 4958.83 71.00
3099 20.6880 4671.00 4749.96 68.00
3100 20.6940 4573.00 4835.72 68.00
3101 20.7000 4377.00 4787.10 66.00
3102 20.7060 4439.00 4762.67 67.00
3103 20.7120 4405.00 4754.17 66.00
3104 20.7180 4674.00 4757.36 68.00
3105 20.7240 4595.00 4770.10 68.00
3106 20.7300 4574.00 4791.48 68.00
3107 20.7360 4667.00 4821.51 68.00
3108 20.7420 4875.00 4860.86 70.00
3109 20.7480 5126.00 4910.92 72.00
3110 20.7540 5702.00 4973.94 76.00
3111 20.7600 6208.00 5053.22 79.00
3112 20.7660 6515.00 5153.57 81.00
3113 20.7720 6036.00 5282.02 78.00
3114 20.7780 5861.00 5449.24 77.00
3115 20.7840 5770.00 5671.55 76.00
3116 20.7900 5749.00 5974.85 76.00
3117 20.7960 6008.00 6402.40 78.00
3118 20.8020 6629.00 7030.95 81.00
3119 20.8080 7552.00 7994.82 87.00
3120 20.8140 9723.00 9730.48 99.00
3121 20.8200 14515.00 13741.10 120.00
3122 20.8260 27659.00 24790.40 166.00
3123 20.8320 57675.00 49773.80 240.00
3124 20.8380 88301.00 81361.30 297.00
3125 20.8440 77996.00 78941.10 279.00
3126 20.8500 42882.00 46632.90 207.00
3127 20.8560 21217.00 23174.20 146.00
3128 20.8620 12852.00 13155.30 113.00
3129 20.8680 9220.00 9509.33 96.00
3130 20.8740 7477.00 7885.20 86.00
3131 20.8800 6585.00 6951.27 81.00
3132 20.8860 6003.00 6347.75 77.00
3133 20.8920 5570.00 5935.13 75.00
3134 20.8980 5431.00 5641.24 74.00
3135 20.9040 5209.00 5424.95 72.00
3136 20.9100 4970.00 5261.28 70.00
3137 20.9160 4898.00 5134.62 70.00
3138 20.9220 4733.00 5034.68 69.00
3139 20.9280 4644.00 4954.56 68.00
3140 20.9340 4631.00 4889.36 68.00
3141 20.9400 4563.00 4835.66 68.00
3142 20.9460 4573.00 4790.95 68.00
3143 20.9520 4508.00 4753.34 67.00
3144 20.9580 4464.00 4721.45 67.00
3145 20.9640 4371.00 4694.21 66.00
3146 20.9700 4460.00 4670.77 67.00
3147 20.9760 4459.00 4650.49 67.00
3148 20.9820 4384.00 4632.83 66.00
3149 20.9880 4407.00 4617.39 66.00
3150 20.9940 4395.00 4428.66 66.00
3151 21.0000 4449.00 4429.60 67.00
3152 21.0060 4503.00 4430.55 67.00
3153 21.0120 4471.00 4430.95 67.00
3154 21.0180 4411.00 4430.28 66.00
3155 21.0240 4338.00 4429.60 66.00
3156 21.0300 4339.00 4428.92 66.00
3157 21.0360 4493.00 4446.52 67.00
3158 21.0420 4532.00 4447.44 67.00
3159 21.0480 4639.00 4448.57 68.00
3160 21.0540 4754.00 4449.96 69.00
3161 21.0600 4540.00 4451.67 67.00
3162 21.0660 4481.00 4453.74 67.00
3163 21.0720 4596.00 4456.28 68.00
3164 21.0780 4639.00 4459.38 68.00
3165 21.0840 4584.00 4463.19 68.00
3166 21.0900 4599.00 4467.90 68.00
3167 21.0960 4557.00 4473.75 68.00
3168 21.1020 4493.00 4481.10 67.00
3169 21.1080 4420.00 4490.45 66.00
3170 21.1140 4460.00 4503.54 67.00
3171 21.1200 4464.00 4519.45 67.00
3172 21.1260 4430.00 4540.76 67.00
3173 21.1320 4393.00 4570.09 66.00
3174 21.1380 4493.00 4611.83 67.00
3175 21.1440 4597.00 4673.71 68.00
3176 21.1500 4732.00 4771.64 69.00
3177 21.1560 4882.00 4950.94 70.00
3178 21.1620 5291.00 5380.89 73.00
3179 21.1680 6669.00 6538.05 82.00
3180 21.1740 9532.00 8979.18 98.00
3181 21.1800 11622.00 11661.40 108.00
3182 21.1860 10376.00 11020.90 102.00
3183 21.1920 7577.00 8091.19 87.00
3184 21.1980 5806.00 6062.73 76.00
3185 21.2040 5150.00 5200.51 72.00
3186 21.2100 4823.00 4899.24 69.00
3187 21.2160 4629.00 4776.03 68.00
3188 21.2220 4603.00 4697.38 68.00
3189 21.2280 4547.00 4650.68 67.00
3190 21.2340 4537.00 4625.57 67.00
3191 21.2400 4562.00 4623.02 68.00
3192 21.2460 4575.00 4663.31 68.00
3193 21.2520 4778.00 4782.39 69.00
3194 21.2580 4961.00 4954.11 70.00
3195 21.2640 4884.00 4959.71 70.00
3196 21.2700 4742.00 4788.51 69.00
3197 21.2760 4587.00 4664.15 68.00
3198 21.2820 4484.00 4618.26 67.00
3199 21.2880 4453.00 4614.11 67.00
3200 21.2940 4481.00 4628.30 67.00
3201 21.3000 4565.00 4655.29 68.00
3202 21.3060 4572.00 4696.55 68.00
3203 21.3120 4712.00 4757.09 69.00
3204 21.3180 4650.00 4846.34 68.00
3205 21.3240 4725.00 4981.78 69.00
3206 21.3300 4950.00 5200.35 70.00
3207 21.3360 5403.00 5596.51 74.00
3208 21.3420 6554.00 6623.48 81.00
3209 21.3480 9789.00 9383.71 99.00
3210 21.3540 16675.00 14939.30 129.00
3211 21.3600 20367.00 20173.10 143.00
3212 21.3660 16369.00 17147.90 128.00
3213 21.3720 10592.00 10947.90 103.00
3214 21.3780 7601.00 7283.36 87.00
3215 21.3840 6154.00 5833.26 78.00
3216 21.3900 5492.00 5286.49 74.00
3217 21.3960 5196.00 5019.45 72.00
3218 21.4020 4946.00 4858.33 70.00
3219 21.4080 4756.00 4752.10 69.00
3220 21.4140 4610.00 4677.63 68.00
3221 21.4200 4624.00 4624.97 68.00
3222 21.4260 4663.00 4586.16 68.00
3223 21.4320 4697.00 4557.04 69.00
3224 21.4380 4504.00 4534.94 67.00
3225 21.4440 4451.00 4518.18 67.00
3226 21.4500 4683.00 4505.73 68.00
3227 21.4560 4634.00 4496.97 68.00
3228 21.4620 4499.00 4491.71 67.00
3229 21.4680 4618.00 4490.13 68.00
3230 21.4740 4557.00 4492.99 68.00
3231 21.4800 4702.00 4501.94 69.00
3232 21.4860 4824.00 4520.82 69.00
3233 21.4920 4947.00 4560.91 70.00
3234 21.4980 4793.00 4660.11 69.00
3235 21.5040 5436.00 4916.09 74.00
3236 21.5100 5703.00 5450.03 76.00
3237 21.5160 6255.00 6084.80 79.00
3238 21.5220 5915.00 6288.53 77.00
3239 21.5280 5151.00 5635.07 72.00
3240 21.5340 4780.00 4975.91 69.00
3241 21.5400 4735.00 4646.75 69.00
3242 21.5460 4693.00 4521.11 69.00
3243 21.5520 4740.00 4469.00 69.00
3244 21.5580 4627.00 4440.65 68.00
3245 21.5640 4549.00 4422.52 67.00
3246 21.5700 4532.00 4410.04 67.00
3247 21.5760 4515.00 4401.02 67.00
3248 21.5820 4472.00 4394.24 67.00
3249 21.5880 4627.00 4388.97 68.00
3250 21.5940 4409.00 4384.75 66.00
3251 21.6000 4575.00 4381.28 68.00
3252 21.6060 4465.00 4378.37 67.00
3253 21.6120 4530.00 4375.87 67.00
3254 21.6180 4501.00 4373.70 67.00
3255 21.6240 4506.00 4371.77 67.00
3256 21.6300 4455.00 4370.04 67.00
3257 21.6360 4423.00 4368.47 67.00
3258 21.6420 4533.00 4367.02 67.00
3259 21.6480 4485.00 4365.68 67.00
3260 21.6540 4575.00 4364.43 68.00
3261 21.6600 4485.00 4363.25 67.00
3262 21.6660 4524.00 4361.18 67.00
3263 21.6720 4654.00 4360.18 68.00
3264 21.6780 4645.00 4355.68 68.00
3265 21.6840 4453.00 4357.95 67.00
3266 21.6900 4566.00 4363.15 68.00
3267 21.6960 4557.00 4368.35 68.00
3268 21.7020 4562.00 4373.55 68.00
3269 21.7080 4564.00 4378.75 68.00
3270 21.7140 4595.00 4430.82 68.00
3271 21.7200 4578.00 4468.17 68.00
3272 21.7260 4491.00 4480.22 67.00
3273 21.7320 4558.00 4493.20 68.00
3274 21.7380 4496.00 4507.29 67.00
3275 21.7440 4625.00 4522.70 68.00
3276 21.7500 4627.00 4539.71 68.00
3277 21.7560 4726.00 4558.68 69.00
3278 21.7620 4807.00 4580.06 69.00
3279 21.7680 4715.00 4604.45 69.00
3280 21.7740 4697.00 4632.64 69.00
3281 21.7800 4667.00 4665.72 68.00
3282 21.7860 4879.00 4705.12 70.00
3283 21.7920 4912.00 4752.96 70.00
3284 21.7980 4833.00 4812.23 70.00
3285 21.8040 4897.00 4887.38 70.00
3286 21.8100 5076.00 4985.22 71.00
3287 21.8160 5282.00 5116.70 73.00
3288 21.8220 5410.00 5300.06 74.00
3289 21.8280 5759.00 5567.80 76.00
3290 21.8340 6307.00 5988.32 79.00
3291 21.8400 7217.00 6764.46 85.00
3292 21.8460 9228.00 8612.82 96.00
3293 21.8520 13178.00 13313.60 115.00
3294 21.8580 21393.00 22594.40 146.00
3295 21.8640 31860.00 32095.00 178.00
3296 21.8700 34290.00 31332.10 185.00
3297 21.8760 24963.00 22344.10 158.00
3298 21.8820 14881.00 13437.50 122.00
3299 21.8880 9685.00 8752.83 98.00
3300 21.8940 7182.00 6850.65 85.00
3301 21.9000 6206.00 6056.30 79.00
3302 21.9060 5903.00 5639.36 77.00
3303 21.9120 5610.00 5380.07 75.00
3304 21.9180 5503.00 5206.35 74.00
3305 21.9240 5502.00 5084.82 74.00
3306 21.9300 5383.00 5074.20 73.00
3307 21.9360 5218.00 5015.86 72.00
3308 21.9420 5001.00 4974.33 71.00
3309 21.9480 5030.00 4945.29 71.00
3310 21.9540 4982.00 4925.92 71.00
3311 21.9600 5085.00 4914.39 71.00
3312 21.9660 4990.00 4909.54 71.00
3313 21.9720 4950.00 4910.71 70.00
3314 21.9780 5035.00 4917.62 71.00
3315 21.9840 4973.00 4930.38 71.00
3316 21.9900 5014.00 4949.46 71.00
3317 21.9960 5026.00 4975.80 71.00
3318 22.0020 5176.00 5010.85 72.00
3319 22.0080 5412.00 5056.92 74.00
3320 22.0140 5682.00 5117.51 75.00
3321 22.0200 5942.00 5154.50 77.00
3322 22.0260 6203.00 5239.24 79.00
3323 22.0320 6281.00 5395.13 79.00
3324 22.0380 6280.00 5616.46 79.00
3325 22.0440 6455.00 5947.09 80.00
3326 22.0500 6974.00 6485.99 84.00
3327 22.0560 8329.00 7561.51 91.00
3328 22.0620 11572.00 10326.60 108.00
3329 22.0680 18599.00 17256.40 136.00
3330 22.0740 29123.00 29341.40 171.00
3331 22.0800 34060.00 36777.20 185.00
3332 22.0860 27101.00 27470.20 165.00
3333 22.0920 16403.00 15927.30 128.00
3334 22.0980 10269.00 9772.90 101.00
3335 22.1040 7902.00 7387.19 89.00
3336 22.1100 6802.00 6440.88 82.00
3337 22.1160 6223.00 5953.32 79.00
3338 22.1220 5859.00 5652.85 77.00
3339 22.1280 5602.00 5453.38 75.00
3340 22.1340 5438.00 5315.05 74.00
3341 22.1400 5182.00 5215.91 72.00
3342 22.1460 5143.00 5142.93 72.00
3343 22.1520 5141.00 5088.13 72.00
3344 22.1580 5078.00 5046.30 71.00
3345 22.1640 4975.00 5013.96 71.00
3346 22.1700 4978.00 4988.73 71.00
3347 22.1760 5025.00 4968.93 71.00
3348 22.1820 5006.00 4953.34 71.00
3349 22.1880 4997.00 4941.07 71.00
3350 22.1940 5112.00 4931.45 71.00
3351 22.2000 5123.00 4923.97 72.00
3352 22.2060 5127.00 4918.24 72.00
3353 22.2120 5201.00 4962.37 72.00
3354 22.2180 5211.00 4963.27 72.00
3355 22.2240 5201.00 4965.71 72.00
3356 22.2300 5263.00 5040.16 73.00
3357 22.2360 5323.00 4980.76 73.00
3358 22.2420 5199.00 4999.20 72.00
3359 22.2480 5026.00 5019.55 71.00
3360 22.2540 5149.00 5042.21 72.00
3361 22.2600 5177.00 5067.68 72.00
3362 22.2660 5130.00 5096.58 72.00
3363 22.2720 5271.00 5129.74 73.00
3364 22.2780 5362.00 5168.27 73.00
3365 22.2840 5454.00 5239.72 74.00
3366 22.2900 5465.00 5336.09 74.00
3367 22.2960 5638.00 5407.74 75.00
3368 22.3020 5961.00 5495.93 77.00
3369 22.3080 6466.00 5606.83 80.00
3370 22.3140 7103.00 5749.81 84.00
3371 22.3200 7765.00 5939.96 88.00
3372 22.3260 8187.00 6202.44 90.00
3373 22.3320 8305.00 6584.07 91.00
3374 22.3380 8492.00 7198.10 92.00
3375 22.3440 9279.00 8420.60 96.00
3376 22.3500 11911.00 11347.30 109.00
3377 22.3560 18566.00 17663.30 136.00
3378 22.3620 26623.00 26689.10 163.00
3379 22.3680 29847.00 30860.30 173.00
3380 22.3740 32894.00 30803.50 181.00
3381 22.3800 38938.00 36316.20 197.00
3382 22.3860 37129.00 38572.90 193.00
3383 22.3920 26883.00 27496.60 164.00
3384 22.3980 17705.00 16680.40 133.00
3385 22.4040 12840.00 11322.90 113.00
3386 22.4100 10994.00 9535.64 105.00
3387 22.4160 10753.00 9599.88 104.00
3388 22.4220 12561.00 11431.70 112.00
3389 22.4280 17341.00 16356.00 132.00
3390 22.4340 25460.00 24757.30 160.00
3391 22.4400 30452.00 30926.00 175.00
3392 22.4460 25497.00 28312.20 160.00
3393 22.4520 16658.00 19020.10 129.00
3394 22.4580 11311.00 12069.40 106.00
3395 22.4640 9242.00 8844.18 96.00
3396 22.4700 8358.00 7584.72 91.00
3397 22.4760 7561.00 7034.41 87.00
3398 22.4820 7032.00 6745.22 84.00
3399 22.4880 6726.00 6589.50 82.00
3400 22.4940 6397.00 6522.27 80.00
3401 22.5000 6450.00 6524.49 80.00
3402 22.5060 6588.00 6590.84 81.00
3403 22.5120 6856.00 6726.33 83.00
3404 22.5180 7041.00 6947.45 84.00
3405 22.5240 7423.00 7241.19 86.00
3406 22.5300 8187.00 7767.33 90.00
3407 22.5360 9243.00 8595.64 96.00
3408 22.5420 11227.00 9940.99 106.00
3409 22.5480 14764.00 13002.20 122.00
3410 22.5540 22474.00 20774.50 150.00
3411 22.5600 38204.00 38164.10 195.00
3412 22.5660 61901.00 63701.70 249.00
3413 22.5720 73221.00 74698.00 271.00
3414 22.5780 59319.00 58610.10 244.00
3415 22.5840 36043.00 34033.60 190.00
3416 22.5900 20532.00 18825.40 143.00
3417 22.5960 13250.00 12226.30 115.00
3418 22.6020 10053.00 9550.92 100.00
3419 22.6080 8467.00 8276.91 92.00
3420 22.6140 7664.00 7521.79 88.00
3421 22.6200 7032.00 7030.71 84.00
3422 22.6260 6754.00 6699.38 82.00
3423 22.6320 6501.00 6473.70 81.00
3424 22.6380 6292.00 6324.65 79.00
3425 22.6440 6291.00 6238.49 79.00
3426 22.6500 6203.00 6214.89 79.00
3427 22.6560 6386.00 6278.36 80.00
3428 22.6620 6703.00 6532.83 82.00
3429 22.6680 7543.00 7281.96 87.00
3430 22.6740 9427.00 9006.22 97.00
3431 22.6800 11156.00 11536.00 106.00
3432 22.6860 11483.00 12835.80 107.00
3433 22.6920 9651.00 11057.50 98.00
3434 22.6980 7564.00 8403.43 87.00
3435 22.7040 6522.00 6833.52 81.00
3436 22.7100 5982.00 6169.12 77.00
3437 22.7160 5694.00 5896.84 75.00
3438 22.7220 5606.00 5757.13 75.00
3439 22.7280 5476.00 5576.09 74.00
3440 22.7340 5408.00 5449.14 74.00
3441 22.7400 5255.00 5417.71 72.00
3442 22.7460 5249.00 5396.31 72.00
3443 22.7520 5276.00 5390.74 73.00
3444 22.7580 5261.00 5381.42 73.00
3445 22.7640 5253.00 5375.49 72.00
3446 22.7700 5161.00 5372.10 72.00
3447 22.7760 5162.00 5370.65 72.00
3448 22.7820 5207.00 5370.74 72.00
3449 22.7880 5172.00 5372.10 72.00
3450 22.7940 5117.00 5374.53 72.00
3451 22.8000 5131.00 5377.92 72.00
3452 22.8060 5100.00 5382.20 71.00
3453 22.8120 5147.00 5381.85 72.00
3454 22.8180 5219.00 5376.89 72.00
3455 22.8240 5202.00 5372.96 72.00
3456 22.8300 5220.00 5370.26 72.00
3457 22.8360 5325.00 5369.07 73.00
3458 22.8420 5334.00 5364.74 73.00
3459 22.8480 5164.00 5356.60 72.00
3460 22.8540 5111.00 5364.95 71.00
3461 22.8600 5183.00 5383.20 72.00
3462 22.8660 5168.00 5409.19 72.00
3463 22.8720 5174.00 5446.96 72.00
3464 22.8780 5285.00 5513.99 73.00
3465 22.8840 5410.00 5659.55 74.00
3466 22.8900 5725.00 6038.62 76.00
3467 22.8960 6784.00 6929.58 82.00
3468 22.9020 8495.00 8339.10 92.00
3469 22.9080 8979.00 9006.92 95.00
3470 22.9140 7578.00 7906.56 87.00
3471 22.9200 6258.00 6590.22 79.00
3472 22.9260 5719.00 5865.73 76.00
3473 22.9320 5586.00 5570.58 75.00
3474 22.9380 5303.00 5451.01 73.00
3475 22.9440 5091.00 5388.82 71.00
3476 22.9500 5027.00 5351.37 71.00
3477 22.9560 5122.00 5328.28 72.00
3478 22.9620 5132.00 5315.46 72.00
3479 22.9680 5263.00 5311.54 73.00
3480 22.9740 5193.00 5317.18 72.00
3481 22.9800 5292.00 5335.58 73.00
3482 22.9860 5405.00 5375.88 74.00
3483 22.9920 5479.00 5469.19 74.00
3484 22.9980 5824.00 5714.61 76.00
3485 23.0040 6234.00 6305.44 79.00
3486 23.0100 7324.00 7313.61 86.00
3487 23.0160 8277.00 8038.26 91.00
3488 23.0220 7743.00 7625.50 88.00
3489 23.0280 6422.00 6594.90 80.00
3490 23.0340 5516.00 5838.17 74.00
3491 23.0400 5193.00 5481.00 72.00
3492 23.0460 5068.00 5335.31 71.00
3493 23.0520 5005.00 5268.53 71.00
3494 23.0580 4860.00 5255.62 70.00
3495 23.0640 4921.00 5234.57 70.00
3496 23.0700 4894.00 5260.71 70.00
3497 23.0760 5057.00 5325.07 71.00
3498 23.0820 5055.00 5484.48 71.00
3499 23.0880 5359.00 5702.45 73.00
3500 23.0940 5299.00 5714.86 73.00
3501 23.1000 5174.00 5491.86 72.00
3502 23.1060 4925.00 5310.51 70.00
3503 23.1120 4922.00 5225.27 70.00
3504 23.1180 4836.00 5194.74 70.00
3505 23.1240 4903.00 5185.56 70.00
3506 23.1300 4811.00 5185.81 69.00
3507 23.1360 4837.00 5192.74 70.00
3508 23.1420 4792.00 5206.16 69.00
3509 23.1480 4836.00 5227.03 70.00
3510 23.1540 4921.00 5257.31 70.00
3511 23.1600 4962.00 5300.36 70.00
3512 23.1660 4989.00 5361.65 71.00
3513 23.1720 5109.00 5450.35 71.00
3514 23.1780 5193.00 5578.53 72.00
3515 23.1840 5354.00 5783.82 73.00
3516 23.1900 5991.00 6155.67 77.00
3517 23.1960 6850.00 6985.63 83.00
3518 23.2020 8663.00 9049.61 93.00
3519 23.2080 13272.00 13371.10 115.00
3520 23.2140 19991.00 19041.50 141.00
3521 23.2200 22523.00 20769.50 150.00
3522 23.2260 16721.00 16899.30 129.00
3523 23.2320 10692.00 11430.70 103.00
3524 23.2380 7553.00 8045.67 87.00
3525 23.2440 6221.00 6547.18 79.00
3526 23.2500 5538.00 5925.42 74.00
3527 23.2560 5167.00 5617.84 72.00
3528 23.2620 5000.00 5430.58 71.00
3529 23.2680 4800.00 5303.99 69.00
3530 23.2740 4868.00 5213.54 70.00
3531 23.2800 4904.00 5146.18 70.00
3532 23.2860 4787.00 5094.27 69.00
3533 23.2920 4767.00 5053.02 69.00
3534 23.2980 4685.00 5019.42 68.00
3535 23.3040 4577.00 4991.40 68.00
3536 23.3100 4578.00 4967.58 68.00
3537 23.3160 4767.00 4946.94 69.00
3538 23.3220 4701.00 4928.79 69.00
3539 23.3280 4577.00 4912.60 68.00
3540 23.3340 4580.00 4897.96 68.00
3541 23.3400 4558.00 4884.59 68.00
3542 23.3460 4620.00 4872.25 68.00
3543 23.3520 4590.00 4862.46 68.00
3544 23.3580 4597.00 4851.82 68.00
3545 23.3640 4643.00 4841.78 68.00
3546 23.3700 4617.00 4835.36 68.00
3547 23.3760 4605.00 4809.98 68.00
3548 23.3820 4519.00 4791.03 67.00
3549 23.3880 4674.00 4791.59 68.00
3550 23.3940 4691.00 4792.19 68.00
3551 23.4000 4590.00 4792.83 68.00
3552 23.4060 4617.00 4797.68 68.00
3553 23.4120 4647.00 4806.24 68.00
3554 23.4180 4762.00 4808.11 69.00
3555 23.4240 4671.00 4810.23 68.00
3556 23.4300 4614.00 4812.66 68.00
3557 23.4360 4507.00 4815.49 67.00
3558 23.4420 4726.00 4818.82 69.00
3559 23.4480 4660.00 4822.81 68.00
3560 23.4540 4671.00 4827.69 68.00
3561 23.4600 4920.00 4833.80 70.00
3562 23.4660 5047.00 4841.68 71.00
3563 23.4720 5237.00 4852.25 72.00
3564 23.4780 5528.00 4867.30 74.00
3565 23.4840 5647.00 4891.68 75.00
3566 23.4900 5594.00 4941.72 75.00
3567 23.4960 5546.00 5058.94 74.00
3568 23.5020 5364.00 5289.85 73.00
3569 23.5080 5668.00 5559.48 75.00
3570 23.5140 5544.00 5545.01 74.00
3571 23.5200 5294.00 5308.23 73.00
3572 23.5260 5285.00 5154.12 73.00
3573 23.5320 5260.00 5132.41 73.00
3574 23.5380 5524.00 5230.35 74.00
3575 23.5440 5891.00 5528.47 77.00
3576 23.5500 6958.00 6261.26 83.00
3577 23.5560 8186.00 7610.42 90.00
3578 23.5620 9280.00 8933.15 96.00
3579 23.5680 8528.00 8827.52 92.00
3580 23.5740 7009.00 7333.90 84.00
3581 23.5800 5881.00 6054.45 77.00
3582 23.5860 5357.00 5412.53 73.00
3583 23.5920 5014.00 5151.35 71.00
3584 23.5980 5009.00 5036.81 71.00
3585 23.6040 4777.00 4973.62 69.00
3586 23.6100 4828.00 4933.19 69.00
3587 23.6160 4788.00 4905.55 69.00
3588 23.6220 4660.00 4885.84 68.00
3589 23.6280 4740.00 4871.34 69.00
3590 23.6340 4727.00 4860.38 69.00
3591 23.6400 4559.00 4851.93 68.00
3592 23.6460 4662.00 4845.28 68.00
3593 23.6520 4618.00 4839.98 68.00
3594 23.6580 4487.00 4835.69 67.00
3595 23.6640 4521.00 4832.20 67.00
3596 23.6700 4650.00 4829.31 68.00
3597 23.6760 4596.00 4825.37 68.00
3598 23.6820 4546.00 4823.47 67.00
3599 23.6880 4473.00 4821.89 67.00
3600 23.6940 4609.00 4820.56 68.00
3601 23.7000 4570.00 4819.44 68.00
3602 23.7060 4647.00 4818.49 68.00
3603 23.7120 4762.00 4817.70 69.00
3604 23.7180 4740.00 4817.03 69.00
3605 23.7240 4611.00 4812.77 68.00
3606 23.7300 4607.00 4805.89 68.00
3607 23.7360 4675.00 4806.19 68.00
3608 23.7420 4562.00 4806.49 68.00
3609 23.7480 4596.00 4806.79 68.00
3610 23.7540 4560.00 4807.09 68.00
3611 23.7600 4693.00 4807.39 69.00
3612 23.7660 4640.00 4807.69 68.00
3613 23.7720 4757.00 4807.99 69.00
3614 23.7780 4666.00 4808.29 68.00
3615 23.7840 4588.00 4808.59 68.00
3616 23.7900 4772.00 4808.89 69.00
3617 23.7960 4666.00 4809.19 68.00
3618 23.8020 4643.00 4809.49 68.00
3619 23.8080 4712.00 4809.79 69.00
3620 23.8140 4660.00 4810.09 68.00
3621 23.8200 4689.00 4810.39 68.00
3622 23.8260 4712.00 4810.69 69.00
3623 23.8320 4736.00 4810.99 69.00
3624 23.8380 4694.00 4811.29 69.00
3625 23.8440 4764.00 4811.60 69.00
3626 23.8500 4732.00 4916.17 69.00
3627 23.8560 4695.00 4924.72 69.00
3628 23.8620 4620.00 4934.29 68.00
3629 23.8680 4731.00 4945.04 69.00
3630 23.8740 4630.00 4957.20 68.00
3631 23.8800 4667.00 4971.03 68.00
3632 23.8860 4714.00 4986.85 69.00
3633 23.8920 4646.00 5005.08 68.00
3634 23.8980 4670.00 5026.23 68.00
3635 23.9040 4672.00 5050.97 68.00
3636 23.9100 4685.00 5080.19 68.00
3637 23.9160 4747.00 5115.05 69.00
3638 23.9220 4857.00 5157.08 70.00
3639 23.9280 4926.00 5208.42 70.00
3640 23.9340 4977.00 5272.07 71.00
3641 23.9400 4927.00 5352.25 70.00
3642 23.9460 5059.00 5455.17 71.00
3643 23.9520 5192.00 5590.36 72.00
3644 23.9580 5394.00 5772.66 73.00
3645 23.9640 5521.00 6026.41 74.00
3646 23.9700 5893.00 6393.79 77.00
3647 23.9760 6509.00 6958.35 81.00
3648 23.9820 7502.00 7941.85 87.00
3649 23.9880 9426.00 10093.70 97.00
3650 23.9940 14982.00 15465.10 122.00
3651 24.0000 28594.00 26939.80 169.00
3652 24.0060 48404.00 42701.10 220.00
3653 24.0120 48539.00 46455.80 220.00
3654 24.0180 29653.00 32303.40 172.00
3655 24.0240 16432.00 18611.00 128.00
3656 24.0300 10782.00 11426.20 104.00
3657 24.0360 8009.00 8486.18 89.00
3658 24.0420 6976.00 7235.75 84.00
3659 24.0480 6264.00 6567.19 79.00
3660 24.0540 5888.00 6146.09 77.00
3661 24.0600 5528.00 5860.64 74.00
3662 24.0660 5412.00 5658.45 74.00
3663 24.0720 5256.00 5510.40 72.00
3664 24.0780 5225.00 5399.12 72.00
3665 24.0840 4998.00 5313.52 71.00
3666 24.0900 4972.00 5246.51 71.00
3667 24.0960 4987.00 5193.30 71.00
3668 24.1020 5098.00 5150.62 71.00
3669 24.1080 4875.00 5116.16 70.00
3670 24.1140 4886.00 5160.12 70.00
3671 24.1200 4988.00 5143.56 71.00
3672 24.1260 4957.00 5132.61 70.00
3673 24.1320 4865.00 5127.12 70.00
3674 24.1380 4836.00 5127.45 70.00
3675 24.1440 4941.00 5210.87 70.00
3676 24.1500 4981.00 5289.04 71.00
3677 24.1560 4982.00 5333.52 71.00
3678 24.1620 4944.00 5420.04 70.00
3679 24.1680 5078.00 5610.07 71.00
3680 24.1740 5463.00 5885.57 74.00
3681 24.1800 6007.00 6392.56 78.00
3682 24.1860 6277.00 6597.99 79.00
3683 24.1920 6090.00 6347.21 78.00
3684 24.1980 5585.00 5980.68 75.00
3685 24.2040 5315.00 5788.72 73.00
3686 24.2100 5415.00 5771.05 74.00
3687 24.2160 5526.00 5858.33 74.00
3688 24.2220 5546.00 6016.44 74.00
3689 24.2280 5824.00 6248.38 76.00
3690 24.2340 6093.00 6582.68 78.00
3691 24.2400 6819.00 7082.64 83.00
3692 24.2460 7789.00 7915.72 88.00
3693 24.2520 9871.00 9633.84 99.00
3694 24.2580 14043.00 13698.50 119.00
3695 24.2640 23650.00 22065.80 154.00
3696 24.2700 35280.00 33316.80 188.00
3697 24.2760 36523.00 35998.00 191.00
3698 24.2820 27242.00 27716.40 165.00
3699 24.2880 22400.00 22806.00 150.00
3700 24.2940 26894.00 27695.00 164.00
3701 24.3000 41050.00 42481.00 203.00
3702 24.3060 55157.00 56319.70 235.00
3703 24.3120 52182.00 51966.40 228.00
3704 24.3180 33748.00 34549.40 184.00
3705 24.3240 19287.00 20074.50 139.00
3706 24.3300 12264.00 12644.20 111.00
3707 24.3360 9309.00 9476.75 96.00
3708 24.3420 7675.00 8032.28 88.00
3709 24.3480 6702.00 7217.02 82.00
3710 24.3540 6157.00 6686.87 78.00
3711 24.3600 5708.00 6318.58 76.00
3712 24.3660 5631.00 6051.53 75.00
3713 24.3720 5548.00 5851.47 74.00
3714 24.3780 5283.00 5697.71 73.00
3715 24.3840 5265.00 5576.92 73.00
3716 24.3900 5236.00 5480.30 72.00
3717 24.3960 5038.00 5401.75 71.00
3718 24.4020 4942.00 5337.02 70.00
3719 24.4080 5029.00 5283.05 71.00
3720 24.4140 5003.00 5237.58 71.00
3721 24.4200 4944.00 5198.89 70.00
3722 24.4260 4919.00 5316.09 70.00
3723 24.4320 4877.00 5299.21 70.00
3724 24.4380 4948.00 5219.67 70.00
3725 24.4440 4807.00 5217.42 69.00
3726 24.4500 5001.00 5219.31 71.00
3727 24.4560 4980.00 5223.70 71.00
3728 24.4620 4966.00 5231.61 70.00
3729 24.4680 4915.00 5244.20 70.00
3730 24.4740 4906.00 5192.10 70.00
3731 24.4800 4954.00 5169.58 70.00
3732 24.4860 5019.00 5208.09 71.00
3733 24.4920 5126.00 5257.91 72.00
3734 24.4980 5081.00 5314.36 71.00
3735 24.5040 5034.00 5383.64 71.00
3736 24.5100 5046.00 5469.70 71.00
3737 24.5160 5242.00 5578.24 72.00
3738 24.5220 5313.00 5717.49 73.00
3739 24.5280 5405.00 5899.93 74.00
3740 24.5340 5601.00 6144.81 75.00
3741 24.5400 5718.00 6483.31 76.00
3742 24.5460 6175.00 6968.37 79.00
3743 24.5520 6921.00 7700.51 83.00
3744 24.5580 8160.00 8925.19 90.00
3745 24.5640 10838.00 11449.10 104.00
3746 24.5700 17705.00 17634.10 133.00
3747 24.5760 35557.00 31531.40 189.00
3748 24.5820 60319.00 53534.10 246.00
3749 24.5880 64075.00 66035.50 253.00
3750 24.5940 43430.00 49856.50 208.00
3751 24.6000 24691.00 28659.80 157.00
3752 24.6060 15514.00 16249.30 125.00
3753 24.6120 11064.00 10909.90 105.00
3754 24.6180 8653.00 8712.17 93.00
3755 24.6240 7507.00 7616.67 87.00
3756 24.6300 6707.00 6972.56 82.00
3757 24.6360 6204.00 6605.14 79.00
3758 24.6420 6262.00 6505.54 79.00
3759 24.6480 6683.00 6711.46 82.00
3760 24.6540 6910.00 7057.20 83.00
3761 24.6600 6467.00 6900.28 80.00
3762 24.6660 5821.00 6266.32 76.00
3763 24.6720 5375.00 5758.14 73.00
3764 24.6780 5142.00 5483.60 72.00
3765 24.6840 5012.00 5350.45 71.00
3766 24.6900 4966.00 5281.12 70.00
3767 24.6960 4953.00 5248.51 70.00
3768 24.7020 4962.00 5261.01 70.00
3769 24.7080 5106.00 5370.67 71.00
3770 24.7140 5607.00 5674.60 75.00
3771 24.7200 6457.00 6192.84 80.00
3772 24.7260 6485.00 6535.19 81.00
3773 24.7320 5837.00 6171.55 76.00
3774 24.7380 5272.00 5598.20 73.00
3775 24.7440 5058.00 5234.07 71.00
3776 24.7500 4866.00 5063.62 70.00
3777 24.7560 4744.00 4847.71 69.00
3778 24.7620 4653.00 4813.25 68.00
3779 24.7680 4584.00 4791.44 68.00
3780 24.7740 4599.00 4776.05 68.00
3781 24.7800 4591.00 4764.51 68.00
3782 24.7860 4657.00 4755.45 68.00
3783 24.7920 4627.00 4748.06 68.00
3784 24.7980 4603.00 4741.83 68.00
3785 24.8040 4541.00 4736.44 67.00
3786 24.8100 4531.00 4731.68 67.00
3787 24.8160 4555.00 4727.38 67.00
3788 24.8220 4545.00 4723.44 67.00
3789 24.8280 4500.00 4716.52 67.00
3790 24.8340 4497.00 4713.31 67.00
3791 24.8400 4442.00 4710.26 67.00
3792 24.8460 4435.00 4707.33 67.00
3793 24.8520 4444.00 4704.52 67.00
3794 24.8580 4398.00 4701.79 66.00
3795 24.8640 4512.00 4699.13 67.00
3796 24.8700 4462.00 4696.53 67.00
3797 24.8760 4359.00 4693.98 66.00
3798 24.8820 4427.00 4691.48 67.00
3799 24.8880 4671.00 4689.02 68.00
3800 24.8940 4819.00 4682.94 69.00
3801 24.9000 4936.00 4680.78 70.00
3802 24.9060 5012.00 4678.62 71.00
3803 24.9120 4978.00 4676.46 71.00
3804 24.9180 4864.00 4674.31 70.00
3805 24.9240 4768.00 4672.15 69.00
3806 24.9300 4702.00 4669.99 69.00
3807 24.9360 4653.00 4667.83 68.00
3808 24.9420 4674.00 4665.67 68.00
3809 24.9480 4623.00 4663.51 68.00
3810 24.9540 4497.00 4661.35 67.00
3811 24.9600 4415.00 4659.19 66.00
3812 24.9660 4477.00 4657.03 67.00
3813 24.9720 4446.00 4654.87 67.00
3814 24.9780 4391.00 4652.71 66.00
3815 24.9840 4381.00 4650.55 66.00
3816 24.9900 4399.00 4648.39 66.00
3817 24.9960 4381.00 4646.23 66.00
3818 25.0020 4363.00 4644.07 66.00
3819 25.0080 4356.00 4641.91 66.00
3820 25.0140 4363.00 4639.75 66.00
3821 25.0200 4355.00 4637.59 66.00
3822 25.0260 4401.00 4635.43 66.00
3823 25.0320 4331.00 4633.27 66.00
3824 25.0380 4257.00 4631.11 65.00
3825 25.0440 4399.00 4628.95 66.00
3826 25.0500 4437.00 4626.79 67.00
3827 25.0560 4285.00 4624.63 65.00
3828 25.0620 4313.00 4622.47 66.00
3829 25.0680 4376.00 4623.69 66.00
3830 25.0740 4321.00 4631.29 66.00
3831 25.0800 4358.00 4630.15 66.00
3832 25.0860 4379.00 4629.13 66.00
3833 25.0920 4402.00 4628.26 66.00
3834 25.0980 4399.00 4627.55 66.00
3835 25.1040 4379.00 4627.04 66.00
3836 25.1100 4362.00 4626.78 66.00
3837 25.1160 4379.00 4626.79 66.00
3838 25.1220 4396.00 4627.15 66.00
3839 25.1280 4381.00 4627.94 66.00
3840 25.1340 4409.00 4629.25 66.00
3841 25.1400 4457.00 4631.21 67.00
3842 25.1460 4582.00 4634.00 68.00
3843 25.1520 4553.00 4660.22 67.00
3844 25.1580 4484.00 4681.62 67.00
3845 25.1640 4538.00 4691.73 67.00
3846 25.1700 4580.00 4704.75 68.00
3847 25.1760 4617.00 4721.72 68.00
3848 25.1820 4652.00 4744.26 68.00
3849 25.1880 4670.00 4774.95 68.00
3850 25.1940 4631.00 4818.08 68.00
3851 25.2000 4678.00 4881.78 68.00
3852 25.2060 4804.00 4985.64 69.00
3853 25.2120 5154.00 5189.52 72.00
3854 25.2180 5740.00 5656.71 76.00
3855 25.2240 6842.00 6667.11 83.00
3856 25.2300 8467.00 8296.61 92.00
3857 25.2360 9068.00 9612.58 95.00
3858 25.2420 7891.00 9070.23 89.00
3859 25.2480 6281.00 7352.35 79.00
3860 25.2540 5413.00 6087.53 74.00
3861 25.2600 5087.00 5492.93 71.00
3862 25.2660 4944.00 5285.89 70.00
3863 25.2720 4966.00 5248.34 70.00
3864 25.2780 5159.00 5303.09 72.00
3865 25.2840 5529.00 5450.38 74.00
3866 25.2900 6229.00 5757.93 79.00
3867 25.2960 7270.00 6464.97 85.00
3868 25.3020 8942.00 8166.36 95.00
3869 25.3080 12452.00 11632.40 112.00
3870 25.3140 17769.00 16363.20 133.00
3871 25.3200 19737.00 18333.30 140.00
3872 25.3260 15767.00 15414.50 126.00
3873 25.3320 10637.00 10831.20 103.00
3874 25.3380 7584.00 7719.78 87.00
3875 25.3440 6140.00 6219.33 78.00
3876 25.3500 5429.00 5570.65 74.00
3877 25.3560 5089.00 5255.91 71.00
3878 25.3620 4858.00 5070.15 70.00
3879 25.3680 4757.00 4946.32 69.00
3880 25.3740 4784.00 4858.71 69.00
3881 25.3800 4883.00 4794.23 70.00
3882 25.3860 4978.00 4745.21 71.00
3883 25.3920 4971.00 4706.93 71.00
3884 25.3980 4932.00 4676.34 70.00
3885 25.4040 4811.00 4648.25 69.00
3886 25.4100 4569.00 4618.95 68.00
3887 25.4160 4496.00 4602.25 67.00
3888 25.4220 4512.00 4588.01 67.00
3889 25.4280 4406.00 4575.69 66.00
3890 25.4340 4343.00 4564.91 66.00
3891 25.4400 4276.00 4564.29 65.00
3892 25.4460 4340.00 4556.46 66.00
3893 25.4520 4334.00 4549.55 66.00
3894 25.4580 4267.00 4543.43 65.00
3895 25.4640 4291.00 4538.01 66.00
3896 25.4700 4339.00 4533.21 66.00
3897 25.4760 4284.00 4528.99 65.00
3898 25.4820 4232.00 4525.31 65.00
3899 25.4880 4294.00 4501.40 66.00
3900 25.4940 4283.00 4486.59 65.00
3901 25.5000 4291.00 4486.71 66.00
3902 25.5060 4352.00 4487.26 66.00
3903 25.5120 4379.00 4488.35 66.00
3904 25.5180 4370.00 4496.83 66.00
3905 25.5240 4389.00 4505.94 66.00
3906 25.5300 4388.00 4510.78 66.00
3907 25.5360 4337.00 4517.32 66.00
3908 25.5420 4319.00 4526.19 66.00
3909 25.5480 4414.00 4538.33 66.00
3910 25.5540 4431.00 4555.24 67.00
3911 25.5600 4383.00 4579.34 66.00
3912 25.5660 4469.00 4614.95 67.00
3913 25.5720 4581.00 4671.23 68.00
3914 25.5780 4688.00 4774.69 68.00
3915 25.5840 4924.00 5027.36 70.00
3916 25.5900 5571.00 5599.31 75.00
3917 25.5960 6801.00 6645.79 82.00
3918 25.6020 7865.00 7844.71 89.00
3919 25.6080 7458.00 7798.80 86.00
3920 25.6140 6158.00 6594.18 78.00
3921 25.6200 5372.00 5598.17 73.00
3922 25.6260 4997.00 5094.68 71.00
3923 25.6320 4682.00 4897.92 68.00
3924 25.6380 4597.00 4831.07 68.00
3925 25.6440 4589.00 4819.95 68.00
3926 25.6500 4541.00 4846.69 67.00
3927 25.6560 4659.00 4916.89 68.00
3928 25.6620 4888.00 5067.67 70.00
3929 25.6680 5312.00 5423.83 73.00
3930 25.6740 6517.00 6260.01 81.00
3931 25.6800 8721.00 7824.16 93.00
3932 25.6860 10010.00 9572.37 100.00
3933 25.6920 9016.00 9458.52 95.00
3934 25.6980 7300.00 7722.85 85.00
3935 25.7040 6059.00 6335.07 78.00
3936 25.7100 5531.00 5690.17 74.00
3937 25.7160 5343.00 5534.72 73.00
3938 25.7220 5409.00 5652.48 74.00
3939 25.7280 5770.00 6053.97 76.00
3940 25.7340 6768.00 7101.39 82.00
3941 25.7400 9546.00 9615.13 98.00
3942 25.7460 15767.00 14297.00 126.00
3943 25.7520 20504.00 19385.80 143.00
3944 25.7580 17518.00 18871.40 132.00
3945 25.7640 11625.00 13508.20 108.00
3946 25.7700 8101.00 9067.92 90.00
3947 25.7760 6533.00 6752.55 81.00
3948 25.7820 5750.00 5766.91 76.00
3949 25.7880 5185.00 5323.14 72.00
3950 25.7940 4962.00 5077.76 70.00
3951 25.8000 4926.00 4920.67 70.00
3952 25.8060 4779.00 4813.35 69.00
3953 25.8120 4699.00 4737.78 69.00
3954 25.8180 4720.00 4683.91 69.00
3955 25.8240 4730.00 4645.99 69.00
3956 25.8300 4669.00 4620.80 68.00
3957 25.8360 4765.00 4607.09 69.00
3958 25.8420 4759.00 4605.35 69.00
3959 25.8480 4735.00 4618.51 69.00
3960 25.8540 5092.00 4655.28 71.00
3961 25.8600 5173.00 4731.69 72.00
3962 25.8660 5388.00 4956.73 73.00
3963 25.8720 5999.00 5482.09 77.00
3964 25.8780 6988.00 6419.40 84.00
3965 25.8840 7562.00 7347.18 87.00
3966 25.8900 7217.00 7169.04 85.00
3967 25.8960 6442.00 6123.15 80.00
3968 25.9020 5716.00 5266.40 76.00
3969 25.9080 5156.00 4818.20 72.00
3970 25.9140 4932.00 4622.62 70.00
3971 25.9200 4696.00 4531.54 69.00
3972 25.9260 4592.00 4461.18 68.00
3973 25.9320 4600.00 4409.25 68.00
3974 25.9380 4621.00 4386.10 68.00
3975 25.9440 4535.00 4368.87 67.00
3976 25.9500 4606.00 4355.55 68.00
3977 25.9560 4490.00 4344.90 67.00
3978 25.9620 4637.00 4336.14 68.00
3979 25.9680 4471.00 4328.74 67.00
3980 25.9740 4490.00 4322.37 67.00
3981 25.9800 4527.00 4316.76 67.00
3982 25.9860 4480.00 4311.75 67.00
3983 25.9920 4434.00 4307.20 67.00
3984 25.9980 4370.00 4303.02 66.00
3985 26.0040 4437.00 4299.14 67.00
3986 26.0100 4467.00 4352.50 67.00
3987 26.0160 4414.00 4353.26 66.00
3988 26.0220 4430.00 4354.68 67.00
3989 26.0280 4342.00 4356.79 66.00
3990 26.0340 4387.00 4359.67 66.00
3991 26.0400 4438.00 4363.42 67.00
3992 26.0460 4473.00 4368.15 67.00
3993 26.0520 4475.00 4374.03 67.00
3994 26.0580 4474.00 4378.29 67.00
3995 26.0640 4462.00 4383.15 67.00
3996 26.0700 4472.00 4394.36 67.00
3997 26.0760 4435.00 4407.92 67.00
3998 26.0820 4459.00 4424.37 67.00
3999 26.0880 4484.00 4444.48 67.00
4000 26.0940 4465.00 4469.29 67.00
4001 26.1000 4531.00 4500.19 67.00
4002 26.1060 4561.00 4539.15 68.00
4003 26.1120 4581.00 4589.00 68.00
4004 26.1180 4668.00 4653.93 68.00
4005 26.1240 4759.00 4740.28 69.00
4006 26.1300 4968.00 4858.05 70.00
4007 26.1360 5250.00 5023.91 72.00
4008 26.1420 5654.00 5267.76 75.00
4009 26.1480 6099.00 5656.36 78.00
4010 26.1540 7074.00 6453.82 84.00
4011 26.1600 9136.00 8166.24 96.00
4012 26.1660 12900.00 11918.00 114.00
4013 26.1720 19214.00 18702.20 139.00
4014 26.1780 25577.00 25979.30 160.00
4015 26.1840 25083.00 25689.90 158.00
4016 26.1900 18200.00 18287.80 135.00
4017 26.1960 12094.00 11696.20 110.00
4018 26.2020 8580.00 8122.77 93.00
4019 26.2080 7061.00 6567.49 84.00
4020 26.2140 5973.00 5889.14 77.00
4021 26.2200 5483.00 5539.53 74.00
4022 26.2260 5463.00 5334.81 74.00
4023 26.2320 5309.00 5213.29 73.00
4024 26.2380 5185.00 5147.97 72.00
4025 26.2440 5185.00 5125.44 72.00
4026 26.2500 5006.00 5139.67 71.00
4027 26.2560 5161.00 5189.80 72.00
4028 26.2620 5338.00 5279.56 73.00
4029 26.2680 5428.00 5417.93 74.00
4030 26.2740 5740.00 5621.24 76.00
4031 26.2800 6054.00 5917.76 78.00
4032 26.2860 6772.00 6357.88 82.00
4033 26.2920 7655.00 7047.07 87.00
4034 26.2980 9255.00 8271.79 96.00
4035 26.3040 12042.00 10896.90 110.00
4036 26.3100 17848.00 16920.00 134.00
4037 26.3160 30814.00 28810.00 176.00
4038 26.3220 51550.00 44903.90 227.00
4039 26.3280 57323.00 52189.10 239.00
4040 26.3340 41500.00 42101.10 204.00
4041 26.3400 23917.00 26244.10 155.00
4042 26.3460 14622.00 15481.20 121.00
4043 26.3520 10142.00 10215.70 101.00
4044 26.3580 8008.00 7857.51 89.00
4045 26.3640 6790.00 6740.85 82.00
4046 26.3700 6107.00 6085.76 78.00
4047 26.3760 5612.00 5652.04 75.00
4048 26.3820 5399.00 5347.18 73.00
4049 26.3880 5086.00 5124.69 71.00
4050 26.3940 5004.00 4957.42 71.00
4051 26.4000 4881.00 4828.37 70.00
4052 26.4060 4814.00 4726.69 69.00
4053 26.4120 4747.00 4645.07 69.00
4054 26.4180 4843.00 4578.49 70.00
4055 26.4240 4654.00 4529.49 68.00
4056 26.4300 4735.00 4483.72 69.00
4057 26.4360 4709.00 4457.77 69.00
4058 26.4420 4918.00 4425.70 70.00
4059 26.4480 4760.00 4516.51 69.00
4060 26.4540 5021.00 4501.77 71.00
4061 26.4600 5426.00 4491.34 74.00
4062 26.4660 5206.00 4484.88 72.00
4063 26.4720 5134.00 4482.24 72.00
4064 26.4780 4824.00 4483.38 69.00
4065 26.4840 4695.00 4488.41 69.00
4066 26.4900 4669.00 4534.05 68.00
4067 26.4960 4663.00 4594.00 68.00
4068 26.5020 4750.00 4555.38 69.00
4069 26.5080 4671.00 4544.08 68.00
4070 26.5140 4671.00 4590.93 68.00
4071 26.5200 4847.00 4646.63 70.00
4072 26.5260 4697.00 4713.49 69.00
4073 26.5320 4772.00 4794.70 69.00
4074 26.5380 4862.00 4894.61 70.00
4075 26.5440 5070.00 5019.41 71.00
4076 26.5500 5126.00 5178.14 72.00
4077 26.5560 5017.00 5384.59 71.00
4078 26.5620 5443.00 5660.58 74.00
4079 26.5680 5800.00 6044.76 76.00
4080 26.5740 6134.00 6619.33 78.00
4081 26.5800 7132.00 7583.60 84.00
4082 26.5860 8807.00 9370.74 94.00
4083 26.5920 12206.00 12721.60 110.00
4084 26.5980 17510.00 18505.20 132.00
4085 26.6040 25816.00 27325.60 161.00
4086 26.6100 43298.00 39685.20 208.00
4087 26.6160 60397.00 52169.70 246.00
4088 26.6220 47775.00 50064.30 219.00
4089 26.6280 28657.00 34597.50 169.00
4090 26.6340 18973.00 21588.00 138.00
4091 26.6400 15589.00 15337.10 125.00
4092 26.6460 15626.00 14650.40 125.00
4093 26.6520 19778.00 18884.90 141.00
4094 26.6580 27968.00 27931.50 167.00
4095 26.6640 35358.00 37109.10 188.00
4096 26.6700 32387.00 35544.20 180.00
4097 26.6760 22990.00 25617.40 152.00
4098 26.6820 16293.00 17322.90 128.00
4099 26.6880 11224.00 12082.10 106.00
4100 26.6940 8231.00 8957.90 91.00
4101 26.7000 7000.00 7247.76 84.00
4102 26.7060 6123.00 6316.74 78.00
4103 26.7120 5463.00 5777.11 74.00
4104 26.7180 5483.00 5428.07 74.00
4105 26.7240 5315.00 5180.69 73.00
4106 26.7300 5208.00 4995.75 72.00
4107 26.7360 5282.00 4852.78 73.00
4108 26.7420 5164.00 4739.52 72.00
4109 26.7480 4905.00 4647.96 70.00
4110 26.7540 4729.00 4572.61 69.00
4111 26.7600 4755.00 4509.70 69.00
4112 26.7660 4729.00 4457.73 69.00
4113 26.7720 4622.00 4412.31 68.00
4114 26.7780 4462.00 4367.21 67.00
4115 26.7840 4394.00 4321.90 66.00
4116 26.7900 4322.00 4292.94 66.00
4117 26.7960 4215.00 4157.59 65.00
4118 26.8020 4188.00 4141.88 65.00
4119 26.8080 4274.00 4127.91 65.00
4120 26.8140 4193.00 4115.41 65.00
4121 26.8200 4097.00 4104.16 64.00
4122 26.8260 4211.00 4093.99 65.00
4123 26.8320 4167.00 4084.75 65.00
4124 26.8380 4137.00 4076.34 64.00
4125 26.8440 4145.00 3992.70 64.00
4126 26.8500 4137.00 3990.57 64.00
4127 26.8560 4095.00 3988.62 64.00
4128 26.8620 3950.00 3980.75 63.00
4129 26.8680 4050.00 3979.65 64.00
4130 26.8740 4132.00 3978.86 64.00
4131 26.8800 4040.00 3978.48 64.00
4132 26.8860 4096.00 3978.72 64.00
4133 26.8920 4132.00 3981.98 64.00
4134 26.8980 3989.00 3984.73 63.00
4135 26.9040 4057.00 3990.04 64.00
4136 26.9100 4020.00 4000.88 63.00
4137 26.9160 4134.00 4026.31 64.00
4138 26.9220 4117.00 4087.35 64.00
4139 26.9280 4317.00 4209.32 66.00
4140 26.9340 4443.00 4375.45 67.00
4141 26.9400 4426.00 4436.66 67.00
4142 26.9460 4267.00 4300.23 65.00
4143 26.9520 4084.00 4140.94 64.00
4144 26.9580 4029.00 4043.65 63.00
4145 26.9640 4023.00 3997.80 63.00
4146 26.9700 4017.00 3977.09 63.00
4147 26.9760 3979.00 3966.05 63.00
4148 26.9820 3961.00 3959.05 63.00
4149 26.9880 3934.00 3954.29 63.00
4150 26.9940 4003.00 3951.08 63.00
4151 27.0000 4012.00 3949.14 63.00
4152 27.0060 3960.00 3948.44 63.00
4153 27.0120 4071.00 3949.14 64.00
4154 27.0180 4012.00 3951.66 63.00
4155 27.0240 3980.00 3956.84 63.00
4156 27.0300 4046.00 3966.50 64.00
4157 27.0360 4030.00 3985.73 63.00
4158 27.0420 4040.00 4029.96 64.00
4159 27.0480 4045.00 4134.71 64.00
4160 27.0540 4300.00 4342.11 66.00
4161 27.0600 4672.00 4622.54 68.00
4162 27.0660 4605.00 4725.41 68.00
4163 27.0720 4291.00 4496.15 66.00
4164 27.0780 4066.00 4228.03 64.00
4165 27.0840 4156.00 4063.57 64.00
4166 27.0900 3987.00 3985.80 63.00
4167 27.0960 3888.00 3950.50 62.00
4168 27.1020 3946.00 3931.47 63.00
4169 27.1080 3952.00 3918.98 63.00
4170 27.1140 3844.00 3909.84 62.00
4171 27.1200 3838.00 3901.59 62.00
4172 27.1260 3952.00 3895.85 63.00
4173 27.1320 3905.00 3890.99 62.00
4174 27.1380 3890.00 3886.74 62.00
4175 27.1440 3877.00 3882.94 62.00
4176 27.1500 3764.00 3879.46 61.00
4177 27.1560 3831.00 3915.09 62.00
4178 27.1620 3863.00 3914.83 62.00
4179 27.1680 3865.00 3915.03 62.00
4180 27.1740 3915.00 3915.70 63.00
4181 27.1800 3825.00 3916.88 62.00
4182 27.1860 3837.00 3918.62 62.00
4183 27.1920 3769.00 3920.99 61.00
4184 27.1980 3779.00 3924.08 61.00
4185 27.2040 3833.00 3928.01 62.00
4186 27.2100 3832.00 3932.94 62.00
4187 27.2160 3812.00 3939.05 62.00
4188 27.2220 3820.00 3946.60 62.00
4189 27.2280 3837.00 3955.92 62.00
4190 27.2340 3924.00 3967.44 63.00
4191 27.2400 3999.00 3981.72 63.00
4192 27.2460 4025.00 3997.64 63.00
4193 27.2520 3996.00 4020.20 63.00
4194 27.2580 4022.00 4048.86 63.00
4195 27.2640 4062.00 4085.81 64.00
4196 27.2700 4124.00 4134.23 64.00
4197 27.2760 4173.00 4199.04 65.00
4198 27.2820 4276.00 4288.05 65.00
4199 27.2880 4375.00 4414.32 66.00
4200 27.2940 4639.00 4602.63 68.00
4201 27.3000 5164.00 4912.84 72.00
4202 27.3060 6067.00 5523.95 78.00
4203 27.3120 7765.00 6903.39 88.00
4204 27.3180 10724.00 9823.99 104.00
4205 27.3240 14940.00 14583.80 122.00
4206 27.3300 18063.00 18764.70 134.00
4207 27.3360 16701.00 17444.00 129.00
4208 27.3420 12216.00 12436.20 111.00
4209 27.3480 8378.00 8367.97 92.00
4210 27.3540 6282.00 6177.25 79.00
4211 27.3600 5289.00 5192.93 73.00
4212 27.3660 4748.00 4737.91 69.00
4213 27.3720 4388.00 4485.64 66.00
4214 27.3780 4267.00 4323.04 65.00
4215 27.3840 4131.00 4221.33 64.00
4216 27.3900 4020.00 4151.02 63.00
4217 27.3960 3950.00 4091.07 63.00
4218 27.4020 3897.00 4045.60 62.00
4219 27.4080 3930.00 4010.17 63.00
4220 27.4140 3985.00 3982.25 63.00
4221 27.4200 3918.00 3960.03 63.00
4222 27.4260 3754.00 3942.25 61.00
4223 27.4320 3702.00 3928.06 61.00
4224 27.4380 3796.00 3916.84 62.00
4225 27.4440 3806.00 3908.17 62.00
4226 27.4500 3755.00 3901.79 61.00
4227 27.4560 3776.00 3897.54 61.00
4228 27.4620 3767.00 3895.41 61.00
4229 27.4680 3813.00 3895.45 62.00
4230 27.4740 3807.00 3897.87 62.00
4231 27.4800 3733.00 3903.00 61.00
4232 27.4860 3747.00 3911.38 61.00
4233 27.4920 3823.00 3923.83 62.00
4234 27.4980 3864.00 3941.54 62.00
4235 27.5040 3883.00 3966.37 62.00
4236 27.5100 3880.00 3981.74 62.00
4237 27.5160 3925.00 4015.02 63.00
4238 27.5220 3998.00 4088.57 63.00
4239 27.5280 4104.00 4198.72 64.00
4240 27.5340 4310.00 4381.54 66.00
4241 27.5400 4751.00 4742.28 69.00
4242 27.5460 5605.00 5544.58 75.00
4243 27.5520 7073.00 7209.40 84.00
4244 27.5580 9779.00 9882.14 99.00
4245 27.5640 12225.00 12239.50 111.00
4246 27.5700 11318.00 11840.90 106.00
4247 27.5760 8119.00 9192.45 90.00
4248 27.5820 5946.00 6755.77 77.00
4249 27.5880 5026.00 5327.39 71.00
4250 27.5940 4521.00 4640.28 67.00
4251 27.6000 4215.00 4318.34 65.00
4252 27.6060 4094.00 4146.36 64.00
4253 27.6120 4006.00 4039.46 63.00
4254 27.6180 3919.00 3966.35 63.00
4255 27.6240 3907.00 3913.55 63.00
4256 27.6300 3913.00 3873.96 63.00
4257 27.6360 3913.00 3843.37 63.00
4258 27.6420 3960.00 3819.12 63.00
4259 27.6480 4016.00 3799.46 63.00
4260 27.6540 4115.00 3783.22 64.00
4261 27.6600 4238.00 3769.56 65.00
4262 27.6660 4317.00 3757.89 66.00
4263 27.6720 4305.00 3747.77 66.00
4264 27.6780 4132.00 3738.89 64.00
4265 27.6840 3942.00 3731.00 63.00
4266 27.6900 3871.00 3723.92 62.00
4267 27.6960 3951.00 3717.50 63.00
4268 27.7020 3881.00 3711.63 62.00
4269 27.7080 3777.00 3706.21 61.00
4270 27.7140 3711.00 3753.37 61.00
4271 27.7200 3703.00 3752.36 61.00
4272 27.7260 3686.00 3752.03 61.00
4273 27.7320 3715.00 3752.41 61.00
4274 27.7380 3762.00 3753.54 61.00
4275 27.7440 3699.00 3756.79 61.00
4276 27.7500 3694.00 3739.65 61.00
4277 27.7560 3802.00 3746.12 62.00
4278 27.7620 3854.00 3753.62 62.00
4279 27.7680 3780.00 3762.14 61.00
4280 27.7740 3803.00 3772.37 62.00
4281 27.7800 3752.00 3784.41 61.00
4282 27.7860 3785.00 3798.65 62.00
4283 27.7920 3854.00 3815.66 62.00
4284 27.7980 3827.00 3836.13 62.00
4285 27.8040 3835.00 3861.01 62.00
4286 27.8100 3877.00 3891.60 62.00
4287 27.8160 3893.00 3929.72 62.00
4288 27.8220 3894.00 3977.95 62.00
4289 27.8280 3910.00 4053.20 63.00
4290 27.8340 3956.00 4144.72 63.00
4291 27.8400 4078.00 4256.53 64.00
4292 27.8460 4237.00 4411.54 65.00
4293 27.8520 4480.00 4635.61 67.00
4294 27.8580 4810.00 4985.66 69.00
4295 27.8640 5329.00 5623.27 73.00
4296 27.8700 6621.00 7005.72 81.00
4297 27.8760 9925.00 10051.10 100.00
4298 27.8820 17129.00 15611.70 131.00
4299 27.8880 24028.00 22345.10 155.00
4300 27.8940 24150.00 23716.90 155.00
4301 27.9000 17987.00 17746.40 134.00
4302 27.9060 11778.00 11492.70 109.00
4303 27.9120 8556.00 7737.03 92.00
4304 27.9180 6857.00 5972.55 83.00
4305 27.9240 5870.00 5188.44 77.00
4306 27.9300 5330.00 4790.39 73.00
4307 27.9360 5103.00 4553.24 71.00
4308 27.9420 4814.00 4401.72 69.00
4309 27.9480 4631.00 4305.26 68.00
4310 27.9540 4582.00 4249.14 68.00
4311 27.9600 4498.00 4226.71 67.00
4312 27.9660 4409.00 4237.41 66.00
4313 27.9720 4405.00 4287.50 66.00
4314 27.9780 4490.00 4396.94 67.00
4315 27.9840 4628.00 4629.60 68.00
4316 27.9900 5147.00 5153.65 72.00
4317 27.9960 6295.00 6321.40 79.00
4318 28.0020 9074.00 8486.89 95.00
4319 28.0080 12502.00 11232.20 112.00
4320 28.0140 13128.00 12354.30 115.00
4321 28.0200 10470.00 10626.30 102.00
4322 28.0260 7522.00 7901.02 87.00
4323 28.0320 5719.00 5939.95 76.00
4324 28.0380 4819.00 4912.37 69.00
4325 28.0440 4405.00 4437.59 66.00
4326 28.0500 4067.00 4204.56 64.00
4327 28.0560 3980.00 4068.88 63.00
4328 28.0620 4007.00 3978.85 63.00
4329 28.0680 4032.00 3915.03 63.00
4330 28.0740 3752.00 3868.09 61.00
4331 28.0800 3715.00 3785.92 61.00
4332 28.0860 3742.00 3761.51 61.00
4333 28.0920 3753.00 3742.99 61.00
4334 28.0980 3875.00 3729.05 62.00
4335 28.1040 3796.00 3718.91 62.00
4336 28.1100 3818.00 3712.22 62.00
4337 28.1160 3777.00 3709.01 61.00
4338 28.1220 3876.00 3709.81 62.00
4339 28.1280 3905.00 3716.06 62.00
4340 28.1340 3771.00 3731.74 61.00
4341 28.1400 3745.00 3768.88 61.00
4342 28.1460 3935.00 3858.21 63.00
4343 28.1520 4095.00 4049.61 64.00
4344 28.1580 4420.00 4363.98 66.00
4345 28.1640 4433.00 4655.77 67.00
4346 28.1700 4398.00 4596.04 66.00
4347 28.1760 4120.00 4261.67 64.00
4348 28.1820 3920.00 3969.32 63.00
4349 28.1880 3741.00 3802.43 61.00
4350 28.1940 3791.00 3723.61 62.00
4351 28.2000 3632.00 3673.79 60.00
4352 28.2060 3663.00 3645.06 61.00
4353 28.2120 3627.00 3632.21 60.00
4354 28.2180 3633.00 3623.10 60.00
4355 28.2240 3731.00 3616.31 61.00
4356 28.2300 3672.00 3611.06 61.00
4357 28.2360 3709.00 3606.85 61.00
4358 28.2420 3679.00 3603.39 61.00
4359 28.2480 3558.00 3600.46 60.00
4360 28.2540 3715.00 3597.94 61.00
4361 28.2600 3703.00 3595.73 61.00
4362 28.2660 3664.00 3593.75 61.00
4363 28.2720 3614.00 3591.96 60.00
4364 28.2780 3598.00 3590.31 60.00
4365 28.2840 3665.00 3588.78 61.00
4366 28.2900 3652.00 3587.35 60.00
4367 28.2960 3598.00 3586.00 60.00
4368 28.3020 3570.00 3584.71 60.00
4369 28.3080 3582.00 3583.47 60.00
4370 28.3140 3555.00 3582.29 60.00
4371 28.3200 3615.00 3581.14 60.00
4372 28.3260 3552.00 3580.02 60.00
4373 28.3320 3615.00 3578.94 60.00
4374 28.3380 3596.00 3577.88 60.00
4375 28.3440 3665.00 3576.84 61.00
4376 28.3500 3651.00 3574.40 60.00
4377 28.3560 3728.00 3572.38 61.00
4378 28.3620 3587.00 3571.54 60.00
4379 28.3680 3562.00 3571.25 60.00
4380 28.3740 3648.00 3572.07 60.00
4381 28.3800 3607.00 3572.88 60.00
4382 28.3860 3738.00 3573.70 61.00
4383 28.3920 3666.00 3584.57 61.00
4384 28.3980 3625.00 3586.07 60.00
4385 28.4040 3684.00 3587.64 61.00
4386 28.4100 3625.00 3589.30 60.00
4387 28.4160 3582.00 3591.05 60.00
4388 28.4220 3630.00 3592.92 60.00
4389 28.4280 3575.00 3594.91 60.00
4390 28.4340 3612.00 3597.05 60.00
4391 28.4400 3700.00 3599.38 61.00
4392 28.4460 3710.00 3601.91 61.00
4393 28.4520 3657.00 3609.53 60.00
4394 28.4580 3651.00 3612.94 60.00
4395 28.4640 3666.00 3616.76 61.00
4396 28.4700 3655.00 3621.07 60.00
4397 28.4760 3734.00 3645.88 61.00
4398 28.4820 3550.00 3652.91 60.00
4399 28.4880 3789.00 3676.30 62.00
4400 28.4940 3795.00 3686.90 62.00
4401 28.5000 3747.00 3699.41 61.00
4402 28.5060 3691.00 3714.42 61.00
4403 28.5120 3676.00 3732.78 61.00
4404 28.5180 3866.00 3755.72 62.00
4405 28.5240 3894.00 3785.14 62.00
4406 28.5300 3962.00 3824.13 63.00
4407 28.5360 3889.00 3878.09 62.00
4408 28.5420 3858.00 3959.06 62.00
4409 28.5480 3995.00 4100.49 63.00
4410 28.5540 4206.00 4392.39 65.00
4411 28.5600 4670.00 5005.85 68.00
4412 28.5660 5971.00 6094.68 77.00
4413 28.5720 7729.00 7397.10 88.00
4414 28.5780 7556.00 7765.43 87.00
4415 28.5840 5999.00 6735.94 77.00
4416 28.5900 5036.00 5551.73 71.00
4417 28.5960 4732.00 4831.23 69.00
4418 28.6020 4541.00 4532.05 67.00
4419 28.6080 4428.00 4488.64 67.00
4420 28.6140 4574.00 4630.01 68.00
4421 28.6200 5321.00 5003.13 73.00
4422 28.6260 6192.00 5688.98 79.00
4423 28.6320 7519.00 6623.55 87.00
4424 28.6380 8272.00 7412.40 91.00
4425 28.6440 8291.00 8303.62 91.00
4426 28.6500 10234.00 10389.50 101.00
4427 28.6560 14049.00 13653.40 119.00
4428 28.6620 17092.00 15763.20 131.00
4429 28.6680 15346.00 15169.20 124.00
4430 28.6740 11473.00 12448.90 107.00
4431 28.6800 8110.00 9054.43 90.00
4432 28.6860 6345.00 6682.39 80.00
4433 28.6920 5287.00 5418.70 73.00
4434 28.6980 4719.00 4819.16 69.00
4435 28.7040 4487.00 4529.30 67.00
4436 28.7100 4288.00 4377.01 65.00
4437 28.7160 4351.00 4302.10 66.00
4438 28.7220 4471.00 4295.37 67.00
4439 28.7280 4638.00 4387.93 68.00
4440 28.7340 5011.00 4663.74 71.00
4441 28.7400 5676.00 5242.01 75.00
4442 28.7460 6682.00 6133.97 82.00
4443 28.7520 7378.00 6951.89 86.00
4444 28.7580 7107.00 7250.67 84.00
4445 28.7640 5814.00 6657.95 76.00
4446 28.7700 4998.00 5583.19 71.00
4447 28.7760 4566.00 4762.82 68.00
4448 28.7820 4345.00 4315.67 66.00
4449 28.7880 3978.00 4117.12 63.00
4450 28.7940 3824.00 4056.02 62.00
4451 28.8000 4006.00 4096.76 63.00
4452 28.8060 4365.00 4240.12 66.00
4453 28.8120 4640.00 4432.19 68.00
4454 28.8180 4579.00 4461.38 68.00
4455 28.8240 4436.00 4247.27 67.00
4456 28.8300 4392.00 4023.64 66.00
4457 28.8360 4155.00 3879.93 64.00
4458 28.8420 4099.00 3807.62 64.00
4459 28.8480 4140.00 3752.07 64.00
4460 28.8540 4126.00 3732.54 64.00
4461 28.8600 4065.00 3705.87 64.00
4462 28.8660 4084.00 3698.00 64.00
4463 28.8720 4006.00 3692.60 63.00
4464 28.8780 3913.00 3689.03 63.00
4465 28.8840 3798.00 3686.97 62.00
4466 28.8900 3850.00 3686.31 62.00
4467 28.8960 3796.00 3687.23 62.00
4468 28.9020 3707.00 3690.62 61.00
4469 28.9080 3794.00 3699.23 62.00
4470 28.9140 3828.00 3719.09 62.00
4471 28.9200 3821.00 3757.44 62.00
4472 28.9260 3920.00 3811.45 63.00
4473 28.9320 3867.00 3843.98 62.00
4474 28.9380 3769.00 3810.60 61.00
4475 28.9440 3916.00 3760.13 63.00
4476 28.9500 3862.00 3719.74 62.00
4477 28.9560 3730.00 3704.70 61.00
4478 28.9620 3752.00 3701.69 61.00
4479 28.9680 3839.00 3721.93 62.00
4480 28.9740 3808.00 3745.62 62.00
4481 28.9800 3837.00 3761.45 62.00
4482 28.9860 3813.00 3786.56 62.00
4483 28.9920 3969.00 3831.83 63.00
4484 28.9980 4150.00 3924.01 64.00
4485 29.0040 4365.00 4106.77 66.00
4486 29.0100 4636.00 4416.73 68.00
4487 29.0160 4990.00 4769.25 71.00
4488 29.0220 5213.00 4911.28 72.00
4489 29.0280 4855.00 4793.29 70.00
4490 29.0340 4519.00 4485.60 67.00
4491 29.0400 4059.00 4181.50 64.00
4492 29.0460 3995.00 3995.73 63.00
4493 29.0520 3895.00 3905.95 62.00
4494 29.0580 3889.00 3870.33 62.00
4495 29.0640 3860.00 3860.10 62.00
4496 29.0700 3809.00 3862.80 62.00
4497 29.0760 3821.00 3874.49 62.00
4498 29.0820 3744.00 3894.44 61.00
4499 29.0880 3898.00 3923.45 62.00
4500 29.0940 3869.00 3963.61 62.00
4501 29.1000 3991.00 4018.62 63.00
4502 29.1060 4088.00 4094.69 64.00
4503 29.1120 4225.00 4202.42 65.00
4504 29.1180 4469.00 4362.88 67.00
4505 29.1240 4646.00 4627.27 68.00
4506 29.1300 5332.00 5142.66 73.00
4507 29.1360 6525.00 6258.50 81.00
4508 29.1420 9172.00 8505.38 96.00
4509 29.1480 12668.00 12075.50 113.00
4510 29.1540 15322.00 15409.90 124.00
4511 29.1600 13885.00 14957.20 118.00
4512 29.1660 9820.00 11321.20 99.00
4513 29.1720 7165.00 7973.24 85.00
4514 29.1780 5582.00 5988.06 75.00
4515 29.1840 4902.00 5031.02 70.00
4516 29.1900 4552.00 4589.46 67.00
4517 29.1960 4221.00 4362.00 65.00
4518 29.2020 4039.00 4231.57 64.00
4519 29.2080 4068.00 4164.95 64.00
4520 29.2140 4173.00 4170.93 65.00
4521 29.2200 4241.00 4261.34 65.00
4522 29.2260 4390.00 4416.08 66.00
4523 29.2320 4436.00 4484.08 67.00
4524 29.2380 4319.00 4330.75 66.00
4525 29.2440 4049.00 4118.12 64.00
4526 29.2500 3973.00 3967.60 63.00
4527 29.2560 3932.00 3884.27 63.00
4528 29.2620 3814.00 3841.12 62.00
4529 29.2680 3766.00 3816.22 61.00
4530 29.2740 3943.00 3799.63 63.00
4531 29.2800 3835.00 3787.81 62.00
4532 29.2860 3727.00 3778.13 61.00
4533 29.2920 3756.00 3776.03 61.00
4534 29.2980 3734.00 3770.15 61.00
4535 29.3040 3764.00 3765.42 61.00
4536 29.3100 3909.00 3761.61 63.00
4537 29.3160 3853.00 3758.57 62.00
4538 29.3220 3782.00 3756.16 61.00
4539 29.3280 3812.00 3754.31 62.00
4540 29.3340 3852.00 3753.27 62.00
4541 29.3400 3825.00 3752.83 62.00
4542 29.3460 3816.00 3741.98 62.00
4543 29.3520 3825.00 3736.39 62.00
4544 29.3580 3822.00 3739.58 62.00
4545 29.3640 3925.00 3743.12 63.00
4546 29.3700 3937.00 3747.08 63.00
4547 29.3760 3905.00 3751.53 62.00
4548 29.3820 3960.00 3756.58 63.00
4549 29.3880 3920.00 3762.36 63.00
4550 29.3940 3868.00 3769.06 62.00
4551 29.4000 3896.00 3776.93 62.00
4552 29.4060 3952.00 3786.33 63.00
4553 29.4120 3875.00 3797.79 62.00
4554 29.4180 3917.00 3812.10 63.00
4555 29.4240 3962.00 3829.06 63.00
4556 29.4300 3965.00 3853.89 63.00
4557 29.4360 4122.00 3889.68 64.00
4558 29.4420 4069.00 3946.19 64.00
4559 29.4480 4092.00 4043.40 64.00
4560 29.4540 4287.00 4218.22 65.00
4561 29.4600 4522.00 4525.90 67.00
4562 29.4660 5126.00 5020.57 72.00
4563 29.4720 6090.00 5685.50 78.00
4564 29.4780 6885.00 6223.92 83.00
4565 29.4840 6464.00 6056.78 80.00
4566 29.4900 5460.00 5355.76 74.00
4567 29.4960 4797.00 4763.85 69.00
4568 29.5020 4456.00 4459.75 67.00
4569 29.5080 4370.00 4399.68 66.00
4570 29.5140 4515.00 4559.41 67.00
4571 29.5200 4914.00 5026.75 70.00
4572 29.5260 5914.00 5938.05 77.00
4573 29.5320 7594.00 7192.23 87.00
4574 29.5380 8400.00 7988.19 92.00
4575 29.5440 7181.00 7489.23 85.00
4576 29.5500 5647.00 6221.36 75.00
4577 29.5560 4824.00 5157.59 69.00
4578 29.5620 4350.00 4541.96 66.00
4579 29.5680 4246.00 4243.53 65.00
4580 29.5740 4117.00 4102.20 64.00
4581 29.5800 4073.00 4027.10 64.00
4582 29.5860 4051.00 3982.14 64.00
4583 29.5920 4048.00 3954.35 64.00
4584 29.5980 4041.00 3938.52 64.00
4585 29.6040 3992.00 3932.49 63.00
4586 29.6100 3907.00 3936.07 63.00
4587 29.6160 4024.00 3951.68 63.00
4588 29.6220 4154.00 3987.76 64.00
4589 29.6280 4285.00 4067.23 65.00
4590 29.6340 4597.00 4237.76 68.00
4591 29.6400 5023.00 4562.97 71.00
4592 29.6460 5599.00 5050.68 75.00
4593 29.6520 5893.00 5507.97 77.00
4594 29.6580 5636.00 5656.06 75.00
4595 29.6640 5052.00 5297.44 71.00
4596 29.6700 4570.00 4733.59 68.00
4597 29.6760 4237.00 4312.57 65.00
4598 29.6820 4066.00 4084.27 64.00
4599 29.6880 4076.00 3974.56 64.00
4600 29.6940 4036.00 3920.52 64.00
4601 29.7000 4009.00 3889.75 63.00
4602 29.7060 4046.00 3869.78 64.00
4603 29.7120 3875.00 3855.89 62.00
4604 29.7180 3901.00 3863.49 62.00
4605 29.7240 4004.00 3857.28 63.00
4606 29.7300 3982.00 3859.46 63.00
4607 29.7360 3924.00 3852.34 63.00
4608 29.7420 3945.00 3852.17 63.00
4609 29.7480 3923.00 3852.97 63.00
4610 29.7540 3882.00 3854.62 62.00
4611 29.7600 3913.00 3857.05 63.00
4612 29.7660 4025.00 3860.22 63.00
4613 29.7720 4038.00 3864.13 64.00
4614 29.7780 3929.00 3868.82 63.00
4615 29.7840 4047.00 3874.34 64.00
4616 29.7900 4108.00 3880.81 64.00
4617 29.7960 4072.00 3888.36 64.00
4618 29.8020 4046.00 3897.17 64.00
4619 29.8080 4075.00 3907.50 64.00
4620 29.8140 4060.00 3919.67 64.00
4621 29.8200 4003.00 3934.15 63.00
4622 29.8260 4040.00 3951.53 64.00
4623 29.8320 4063.00 3972.66 64.00
4624 29.8380 4147.00 3998.68 64.00
4625 29.8440 4237.00 4029.71 65.00
4626 29.8500 4255.00 4071.49 65.00
4627 29.8560 4301.00 4122.81 66.00
4628 29.8620 4435.00 4196.23 67.00
4629 29.8680 4527.00 4298.28 67.00
4630 29.8740 4726.00 4458.25 69.00
4631 29.8800 5081.00 4708.07 71.00
4632 29.8860 5637.00 5196.20 75.00
4633 29.8920 6685.00 6198.68 82.00
4634 29.8980 8646.00 8114.05 93.00
4635 29.9040 11756.00 11033.90 108.00
4636 29.9100 14556.00 13706.60 121.00
4637 29.9160 14545.00 13980.80 121.00
4638 29.9220 11859.00 12018.70 109.00
4639 29.9280 8947.00 9143.72 95.00
4640 29.9340 6866.00 6879.05 83.00
4641 29.9400 5619.00 5579.11 75.00
4642 29.9460 5063.00 4932.89 71.00
4643 29.9520 4772.00 4614.35 69.00
4644 29.9580 4636.00 4439.21 68.00
4645 29.9640 4572.00 4330.07 68.00
4646 29.9700 4547.00 4257.36 67.00
4647 29.9760 4513.00 4208.09 67.00
4648 29.9820 4454.00 4175.37 67.00
4649 29.9880 4416.00 4155.17 66.00
4650 29.9940 4386.00 4145.23 66.00
4651 30.0000 4332.00 4144.48 66.00
4652 30.0060 4277.00 4152.84 65.00
4653 30.0120 4324.00 4171.21 66.00
4654 30.0180 4430.00 4201.76 67.00
4655 30.0240 4495.00 4248.62 67.00
4656 30.0300 4636.00 4319.91 68.00
4657 30.0360 4880.00 4434.89 70.00
4658 30.0420 5238.00 4645.23 72.00
4659 30.0480 5630.00 5072.17 75.00
4660 30.0540 6409.00 5913.16 80.00
4661 30.0600 7857.00 7310.47 89.00
4662 30.0660 9596.00 8927.65 98.00
4663 30.0720 10427.00 9621.71 102.00
4664 30.0780 9386.00 9076.47 97.00
4665 30.0840 7645.00 7818.76 87.00
4666 30.0900 6647.00 6706.18 82.00
4667 30.0960 6456.00 6398.06 80.00
4668 30.1020 7261.00 7056.45 85.00
4669 30.1080 9731.00 8761.11 99.00
4670 30.1140 12449.00 10817.60 112.00
4671 30.1200 12310.00 11229.80 111.00
4672 30.1260 9728.00 9339.14 99.00
4673 30.1320 7411.00 7190.06 86.00
4674 30.1380 6241.00 5777.20 79.00
4675 30.1440 5555.00 5067.39 75.00
4676 30.1500 5064.00 4726.38 71.00
4677 30.1560 4839.00 4583.95 70.00
4678 30.1620 4670.00 4489.08 68.00
4679 30.1680 4616.00 4431.98 68.00
4680 30.1740 4662.00 4398.74 68.00
4681 30.1800 4739.00 4382.65 69.00
4682 30.1860 4693.00 4380.05 69.00
4683 30.1920 4805.00 4389.02 69.00
4684 30.1980 4910.00 4408.84 70.00
4685 30.2040 4880.00 4439.68 70.00
4686 30.2100 4972.00 4482.60 71.00
4687 30.2160 4965.00 4539.65 70.00
4688 30.2220 4878.00 4618.48 70.00
4689 30.2280 4824.00 4715.49 69.00
4690 30.2340 4886.00 4842.41 70.00
4691 30.2400 5096.00 5011.02 71.00
4692 30.2460 5336.00 5240.86 73.00
4693 30.2520 5674.00 5589.25 75.00
4694 30.2580 6246.00 6104.64 79.00
4695 30.2640 7233.00 7022.14 85.00
4696 30.2700 9131.00 8774.23 96.00
4697 30.2760 12791.00 12007.50 113.00
4698 30.2820 18031.00 17120.60 134.00
4699 30.2880 23223.00 23021.10 152.00
4700 30.2940 29301.00 27651.20 171.00
4701 30.3000 32855.00 30763.40 181.00
4702 30.3060 28328.00 28853.20 168.00
4703 30.3120 20407.00 21897.90 143.00
4704 30.3180 15452.00 15913.60 124.00
4705 30.3240 14492.00 13409.80 120.00
4706 30.3300 16584.00 14408.40 129.00
4707 30.3360 20651.00 17968.80 144.00
4708 30.3420 23121.00 21469.00 152.00
4709 30.3480 20418.00 22040.60 143.00
4710 30.3540 15268.00 18657.10 124.00
4711 30.3600 11161.00 13553.60 106.00
4712 30.3660 8580.00 9678.74 93.00
4713 30.3720 7155.00 7471.25 85.00
4714 30.3780 6318.00 6380.97 79.00
4715 30.3840 5966.00 5860.69 77.00
4716 30.3900 5796.00 5624.91 76.00
4717 30.3960 5798.00 5592.27 76.00
4718 30.4020 6189.00 5786.43 79.00
4719 30.4080 7030.00 6245.76 84.00
4720 30.4140 7802.00 6876.65 88.00
4721 30.4200 8048.00 7383.64 90.00
4722 30.4260 8363.00 7835.98 91.00
4723 30.4320 9600.00 8960.55 98.00
4724 30.4380 11216.00 10939.00 106.00
4725 30.4440 11643.00 12354.70 108.00
4726 30.4500 10363.00 11165.20 102.00
4727 30.4560 8367.00 8693.17 91.00
4728 30.4620 6817.00 6742.10 83.00
4729 30.4680 5903.00 5624.22 77.00
4730 30.4740 5291.00 5078.43 73.00
4731 30.4800 4951.00 4815.81 70.00
4732 30.4860 4827.00 4665.44 69.00
4733 30.4920 4709.00 4577.54 69.00
4734 30.4980 4769.00 4555.38 69.00
4735 30.5040 4897.00 4553.44 70.00
4736 30.5100 5107.00 4730.63 71.00
4737 30.5160 5588.00 5112.43 75.00
4738 30.5220 6127.00 5703.31 78.00
4739 30.5280 6300.00 6209.17 79.00
4740 30.5340 5956.00 6051.35 77.00
4741 30.5400 5459.00 5408.51 74.00
4742 30.5460 5072.00 4869.54 71.00
4743 30.5520 4835.00 4535.04 70.00
4744 30.5580 4724.00 4414.04 69.00
4745 30.5640 4638.00 4427.90 68.00
4746 30.5700 4705.00 4580.12 69.00
4747 30.5760 5122.00 4900.27 72.00
4748 30.5820 5524.00 5332.50 74.00
4749 30.5880 5563.00 5559.52 75.00
4750 30.5940 5185.00 5285.17 72.00
4751 30.6000 4781.00 4823.54 69.00
4752 30.6060 4496.00 4474.94 67.00
4753 30.6120 4298.00 4278.27 66.00
4754 30.6180 4177.00 4177.16 65.00
4755 30.6240 4164.00 4128.64 65.00
4756 30.6300 4100.00 4100.53 64.00
4757 30.6360 3965.00 4082.38 63.00
4758 30.6420 4070.00 4069.22 64.00
4759 30.6480 4077.00 4043.43 64.00
4760 30.6540 3991.00 4037.34 63.00
4761 30.6600 4023.00 4032.93 63.00
4762 30.6660 3990.00 4029.76 63.00
4763 30.6720 4044.00 4027.54 64.00
4764 30.6780 4185.00 4026.07 65.00
4765 30.6840 4106.00 4025.22 64.00
4766 30.6900 3986.00 4021.63 63.00
4767 30.6960 4021.00 4016.89 63.00
4768 30.7020 4087.00 4012.56 64.00
4769 30.7080 4168.00 4008.66 65.00
4770 30.7140 4106.00 4005.19 64.00
4771 30.7200 4047.00 4002.21 64.00
4772 30.7260 3968.00 3999.82 63.00
4773 30.7320 3958.00 3993.35 63.00
4774 30.7380 3940.00 4004.74 63.00
4775 30.7440 4022.00 4015.98 63.00
4776 30.7500 4137.00 4021.53 64.00
4777 30.7560 4067.00 4033.65 64.00
4778 30.7620 4017.00 4060.59 63.00
4779 30.7680 4144.00 4115.33 64.00
4780 30.7740 4281.00 4205.40 65.00
4781 30.7800 4426.00 4305.22 67.00
4782 30.7860 4319.00 4325.97 66.00
4783 30.7920 4216.00 4243.92 65.00
4784 30.7980 4138.00 4155.67 64.00
4785 30.8040 4050.00 4104.94 64.00
4786 30.8100 4103.00 4095.08 64.00
4787 30.8160 4109.00 4125.16 64.00
4788 30.8220 4272.00 4207.40 65.00
4789 30.8280 4565.00 4362.37 68.00
4790 30.8340 4780.00 4581.61 69.00
4791 30.8400 4750.00 4783.62 69.00
4792 30.8460 4601.00 4824.47 68.00
4793 30.8520 4445.00 4635.78 67.00
4794 30.8580 4204.00 4406.25 65.00
4795 30.8640 4217.00 4255.99 65.00
4796 30.8700 4090.00 4188.27 64.00
4797 30.8760 4060.00 4175.15 64.00
4798 30.8820 4202.00 4195.06 65.00
4799 30.8880 4238.00 4241.04 65.00
4800 30.8940 4407.00 4318.28 66.00
4801 30.9000 4641.00 4447.84 68.00
4802 30.9060 4775.00 4688.28 69.00
4803 30.9120 5324.00 5178.13 73.00
4804 30.9180 6405.00 6154.10 80.00
4805 30.9240 8285.00 7831.67 91.00
4806 30.9300 10848.00 9966.69 104.00
4807 30.9360 11965.00 11284.90 109.00
4808 30.9420 10638.00 10870.70 103.00
4809 30.9480 8280.00 9072.47 91.00
4810 30.9540 6497.00 7082.38 81.00
4811 30.9600 5486.00 5743.72 74.00
4812 30.9660 5018.00 5065.31 71.00
4813 30.9720 4899.00 4813.04 70.00
4814 30.9780 4740.00 4748.91 69.00
4815 30.9840 4711.00 4644.57 69.00
4816 30.9900 4482.00 4439.87 67.00
4817 30.9960 4240.00 4246.55 65.00
4818 31.0020 4131.00 4115.68 64.00
4819 31.0080 4040.00 4034.52 64.00
4820 31.0140 3998.00 3984.49 63.00
4821 31.0200 3957.00 3950.32 63.00
4822 31.0260 3996.00 3924.50 63.00
4823 31.0320 3920.00 3903.75 63.00
4824 31.0380 3817.00 3886.10 62.00
4825 31.0440 3920.00 3871.49 63.00
4826 31.0500 3938.00 3857.23 63.00
4827 31.0560 3822.00 3846.25 62.00
4828 31.0620 3768.00 3836.51 61.00
4829 31.0680 3814.00 3827.77 62.00
4830 31.0740 3754.00 3819.88 61.00
4831 31.0800 3853.00 3812.69 62.00
4832 31.0860 3844.00 3806.14 62.00
4833 31.0920 3832.00 3800.14 62.00
4834 31.0980 3870.00 3794.67 62.00
4835 31.1040 3817.00 3789.70 62.00
4836 31.1100 3724.00 3790.47 61.00
4837 31.1160 3778.00 3792.83 61.00
4838 31.1220 3855.00 3795.84 62.00
4839 31.1280 3830.00 3799.64 62.00
4840 31.1340 3866.00 3804.62 62.00
4841 31.1400 3859.00 3800.98 62.00
4842 31.1460 3881.00 3802.76 62.00
4843 31.1520 3890.00 3818.12 62.00
4844 31.1580 3956.00 3837.27 63.00
4845 31.1640 4028.00 3856.76 63.00
4846 31.1700 4003.00 3876.87 63.00
4847 31.1760 4031.00 3913.96 63.00
4848 31.1820 4171.00 3998.35 65.00
4849 31.1880 4412.00 4165.12 66.00
4850 31.1940 4757.00 4427.98 69.00
4851 31.2000 4897.00 4689.61 70.00
4852 31.2060 4810.00 4696.05 69.00
4853 31.2120 4615.00 4441.63 68.00
4854 31.2180 4460.00 4180.47 67.00
4855 31.2240 4332.00 4012.01 66.00
4856 31.2300 4160.00 3925.33 64.00
4857 31.2360 4033.00 3907.80 64.00
4858 31.2420 4065.00 3909.40 64.00
4859 31.2480 4117.00 3901.38 64.00
4860 31.2540 3938.00 3898.01 63.00
4861 31.2600 4010.00 3897.53 63.00
4862 31.2660 4064.00 3899.09 64.00
4863 31.2720 3971.00 3902.21 63.00
4864 31.2780 4009.00 3906.63 63.00
4865 31.2840 3882.00 3912.17 62.00
4866 31.2900 3914.00 3918.79 63.00
4867 31.2960 4011.00 3926.48 63.00
4868 31.3020 3938.00 3935.28 63.00
4869 31.3080 3960.00 3945.31 63.00
4870 31.3140 3987.00 3956.72 63.00
4871 31.3200 3972.00 3969.72 63.00
4872 31.3260 3950.00 3984.59 63.00
4873 31.3320 3960.00 4005.88 63.00
4874 31.3380 3867.00 4026.02 62.00
4875 31.3440 4000.00 4060.97 63.00
4876 31.3500 3920.00 4099.57 63.00
4877 31.3560 4045.00 4134.45 64.00
4878 31.3620 4116.00 4176.66 64.00
4879 31.3680 4056.00 4228.67 64.00
4880 31.3740 4186.00 4294.00 65.00
4881 31.3800 4269.00 4377.80 65.00
4882 31.3860 4221.00 4488.03 65.00
4883 31.3920 4357.00 4637.69 66.00
4884 31.3980 4577.00 4850.89 68.00
4885 31.4040 4875.00 5183.09 70.00
4886 31.4100 5384.00 5780.93 73.00
4887 31.4160 6473.00 6999.77 80.00
4888 31.4220 8786.00 9426.78 94.00
4889 31.4280 15145.00 13531.20 123.00
4890 31.4340 22805.00 18585.70 151.00
4891 31.4400 23997.00 20927.40 155.00
4892 31.4460 17272.00 17733.50 131.00
4893 31.4520 11467.00 12708.30 107.00
4894 31.4580 8314.00 8942.43 91.00
4895 31.4640 6714.00 6817.23 82.00
4896 31.4700 5946.00 5786.25 77.00
4897 31.4760 5282.00 5295.26 73.00
4898 31.4820 4955.00 5040.00 70.00
4899 31.4880 4778.00 4901.82 69.00
4900 31.4940 4768.00 4838.45 69.00
4901 31.5000 4739.00 4839.80 69.00
4902 31.5060 4778.00 4917.37 69.00
4903 31.5120 5033.00 5118.32 71.00
4904 31.5180 5377.00 5554.85 73.00
4905 31.5240 6373.00 6426.92 80.00
4906 31.5300 8041.00 7962.16 90.00
4907 31.5360 11066.00 10111.90 105.00
4908 31.5420 13710.00 12340.30 117.00
4909 31.5480 14126.00 13506.90 119.00
4910 31.5540 11263.00 12113.60 106.00
4911 31.5600 8437.00 9388.42 92.00
4912 31.5660 6456.00 7156.55 80.00
4913 31.5720 5439.00 5819.42 74.00
4914 31.5780 4826.00 5149.88 69.00
4915 31.5840 4625.00 4810.72 68.00
4916 31.5900 4378.00 4624.02 66.00
4917 31.5960 4331.00 4506.44 66.00
4918 31.6020 4164.00 4426.07 65.00
4919 31.6080 4270.00 4369.09 65.00
4920 31.6140 4036.00 4328.27 64.00
4921 31.6200 4105.00 4299.24 64.00
4922 31.6260 3992.00 4279.36 63.00
4923 31.6320 4152.00 4266.96 64.00
4924 31.6380 4021.00 4261.32 63.00
4925 31.6440 4064.00 4240.38 64.00
4926 31.6500 4099.00 4234.05 64.00
4927 31.6560 4125.00 4261.23 64.00
4928 31.6620 4130.00 4312.78 64.00
4929 31.6680 4158.00 4406.35 64.00
4930 31.6740 4476.00 4548.31 67.00
4931 31.6800 4434.00 4693.33 67.00
4932 31.6860 4500.00 4746.66 67.00
4933 31.6920 4385.00 4699.19 66.00
4934 31.6980 4314.00 4613.69 66.00
4935 31.7040 4381.00 4566.83 66.00
4936 31.7100 4428.00 4590.69 67.00
4937 31.7160 4622.00 4697.29 68.00
4938 31.7220 4979.00 4928.45 71.00
4939 31.7280 5501.00 5399.26 74.00
4940 31.7340 6476.00 6304.30 80.00
4941 31.7400 7989.00 7809.92 89.00
4942 31.7460 10859.00 9696.71 104.00
4943 31.7520 12380.00 10969.70 111.00
4944 31.7580 11790.00 11010.00 109.00
4945 31.7640 9969.00 10335.10 100.00
4946 31.7700 9505.00 9978.77 97.00
4947 31.7760 9893.00 10432.20 99.00
4948 31.7820 9474.00 10561.00 97.00
4949 31.7880 7857.00 9191.91 89.00
4950 31.7940 6570.00 7382.05 81.00
4951 31.8000 5595.00 6038.36 75.00
4952 31.8060 4918.00 5241.08 70.00
4953 31.8120 4605.00 4831.01 68.00
4954 31.8180 4377.00 4617.31 66.00
4955 31.8240 4341.00 4491.84 66.00
4956 31.8300 4232.00 4409.08 65.00
4957 31.8360 4076.00 4351.08 64.00
4958 31.8420 4064.00 4309.52 64.00
4959 31.8480 4074.00 4286.61 64.00
4960 31.8540 3918.00 4266.05 63.00
4961 31.8600 4144.00 4252.49 64.00
4962 31.8660 4057.00 4244.76 64.00
4963 31.8720 4008.00 4242.13 63.00
4964 31.8780 4052.00 4244.23 64.00
4965 31.8840 4027.00 4250.99 63.00
4966 31.8900 3948.00 4261.75 63.00
4967 31.8960 4073.00 4278.58 64.00
4968 31.9020 4104.00 4300.88 64.00
4969 31.9080 4147.00 4330.67 64.00
4970 31.9140 4189.00 4368.99 65.00
4971 31.9200 4261.00 4418.06 65.00
4972 31.9260 4196.00 4500.23 65.00
4973 31.9320 4297.00 4599.12 66.00
4974 31.9380 4406.00 4707.96 66.00
4975 31.9440 4487.00 4852.50 67.00
4976 31.9500 4780.00 5049.27 69.00
4977 31.9560 4937.00 5318.05 70.00
4978 31.9620 5516.00 5743.21 74.00
4979 31.9680 6037.00 6471.98 78.00
4980 31.9740 7256.00 7918.17 85.00
4981 31.9800 9971.00 10803.30 100.00
4982 31.9860 15776.00 15906.90 126.00
4983 31.9920 27164.00 22942.70 165.00
4984 31.9980 34470.00 28420.60 186.00
4985 32.0040 27459.00 27101.50 166.00
4986 32.0100 17012.00 20498.80 130.00
4987 32.0160 11341.00 14030.40 106.00
4988 32.0220 8501.00 9848.23 92.00
4989 32.0280 6938.00 7719.45 83.00
4990 32.0340 6361.00 6891.22 80.00
4991 32.0400 6443.00 6844.26 80.00
4992 32.0460 7180.00 7290.60 85.00
4993 32.0520 7528.00 7795.48 87.00
4994 32.0580 6997.00 7602.54 84.00
4995 32.0640 5965.00 6755.99 77.00
4996 32.0700 5425.00 5949.77 74.00
4997 32.0760 5233.00 5445.44 72.00
4998 32.0820 5135.00 5215.58 72.00
4999 32.0880 5066.00 5171.79 71.00
5000 32.0940 5435.00 5264.97 74.00
5001 32.1000 5946.00 5524.30 77.00
5002 32.1060 6631.00 6099.70 81.00
5003 32.1120 7998.00 7312.94 89.00
5004 32.1180 10313.00 9591.79 102.00
5005 32.1240 13894.00 13067.30 118.00
5006 32.1300 16345.00 16574.40 128.00
5007 32.1360 15897.00 17507.40 126.00
5008 32.1420 12714.00 15078.50 113.00
5009 32.1480 9621.00 11323.20 98.00
5010 32.1540 7488.00 8350.93 87.00
5011 32.1600 6239.00 6596.96 79.00
5012 32.1660 5776.00 5707.55 76.00
5013 32.1720 5275.00 5290.95 73.00
5014 32.1780 5256.00 5112.84 72.00
5015 32.1840 5370.00 5097.86 73.00
5016 32.1900 5607.00 5285.18 75.00
5017 32.1960 6285.00 5800.39 79.00
5018 32.2020 7364.00 6779.25 86.00
5019 32.2080 8717.00 8102.04 93.00
5020 32.2140 9309.00 9125.34 96.00
5021 32.2200 8208.00 8988.18 91.00
5022 32.2260 6786.00 7722.23 82.00
5023 32.2320 5751.00 6312.93 76.00
5024 32.2380 5075.00 5329.47 71.00
5025 32.2440 4667.00 4777.66 68.00
5026 32.2500 4229.00 4493.76 65.00
5027 32.2560 4237.00 4344.52 65.00
5028 32.2620 4236.00 4253.57 65.00
5029 32.2680 4139.00 4185.80 64.00
5030 32.2740 4073.00 4142.41 64.00
5031 32.2800 4091.00 4110.85 64.00
5032 32.2860 4141.00 4088.09 64.00
5033 32.2920 4081.00 4072.35 64.00
5034 32.2980 4022.00 4062.72 63.00
5035 32.3040 3979.00 4063.14 63.00
5036 32.3100 3996.00 4065.95 63.00
5037 32.3160 4023.00 4076.40 63.00
5038 32.3220 3984.00 4097.31 63.00
5039 32.3280 4065.00 4135.41 64.00
5040 32.3340 4098.00 4208.40 64.00
5041 32.3400 4249.00 4341.25 65.00
5042 32.3460 4510.00 4652.95 67.00
5043 32.3520 4999.00 5195.62 71.00
5044 32.3580 6104.00 5977.96 78.00
5045 32.3640 6663.00 6610.81 82.00
5046 32.3700 6129.00 6421.60 78.00
5047 32.3760 5387.00 5658.28 73.00
5048 32.3820 4783.00 4950.08 69.00
5049 32.3880 4402.00 4501.15 66.00
5050 32.3940 4131.00 4267.91 64.00
5051 32.4000 4041.00 4157.97 64.00
5052 32.4060 3934.00 4106.58 63.00
5053 32.4120 4016.00 4084.09 63.00
5054 32.4180 3948.00 4081.79 63.00
5055 32.4240 3962.00 4097.10 63.00
5056 32.4300 4115.00 4150.63 64.00
5057 32.4360 4400.00 4287.02 66.00
5058 32.4420 4529.00 4536.74 67.00
5059 32.4480 4894.00 4902.87 70.00
5060 32.4540 5243.00 5244.94 72.00
5061 32.4600 5123.00 5306.52 72.00
5062 32.4660 4873.00 5048.22 70.00
5063 32.4720 4584.00 4697.42 68.00
5064 32.4780 4412.00 4453.66 66.00
5065 32.4840 4477.00 4365.85 67.00
5066 32.4900 4482.00 4439.01 67.00
5067 32.4960 4749.00 4690.26 69.00
5068 32.5020 5325.00 5118.41 73.00
5069 32.5080 5631.00 5579.62 75.00
5070 32.5140 5464.00 5675.50 74.00
5071 32.5200 4956.00 5304.98 70.00
5072 32.5260 4678.00 4873.16 68.00
5073 32.5320 4538.00 4600.73 67.00
5074 32.5380 4421.00 4509.93 66.00
5075 32.5440 4545.00 4584.36 67.00
5076 32.5500 4769.00 4863.33 69.00
5077 32.5560 5422.00 5478.42 74.00
5078 32.5620 6463.00 6592.60 80.00
5079 32.5680 8328.00 8179.28 91.00
5080 32.5740 9909.00 9564.99 100.00
5081 32.5800 9605.00 9701.39 98.00
5082 32.5860 7922.00 8596.18 89.00
5083 32.5920 6248.00 7002.34 79.00
5084 32.5980 5241.00 5720.96 72.00
5085 32.6040 4640.00 4942.35 68.00
5086 32.6100 4352.00 4535.75 66.00
5087 32.6160 4216.00 4340.09 65.00
5088 32.6220 4016.00 4260.20 63.00
5089 32.6280 4023.00 4264.57 63.00
5090 32.6340 4355.00 4347.78 66.00
5091 32.6400 4825.00 4480.47 69.00
5092 32.6460 4995.00 4548.38 71.00
5093 32.6520 4663.00 4438.29 68.00
5094 32.6580 4406.00 4246.25 66.00
5095 32.6640 4111.00 4087.47 64.00
5096 32.6700 4040.00 3985.48 64.00
5097 32.6760 4082.00 3927.88 64.00
5098 32.6820 3853.00 3896.34 62.00
5099 32.6880 3868.00 3876.45 62.00
5100 32.6940 3866.00 3862.35 62.00
5101 32.7000 3848.00 3851.70 62.00
5102 32.7060 3888.00 3843.45 62.00
5103 32.7120 3877.00 3843.52 62.00
5104 32.7180 3856.00 3845.94 62.00
5105 32.7240 3768.00 3839.29 61.00
5106 32.7300 3788.00 3838.29 62.00
5107 32.7360 3778.00 3838.78 61.00
5108 32.7420 3856.00 3840.96 62.00
5109 32.7480 3812.00 3845.23 62.00
5110 32.7540 3678.00 3852.29 61.00
5111 32.7600 3730.00 3863.47 61.00
5112 32.7660 3788.00 3881.84 62.00
5113 32.7720 3760.00 3914.90 61.00
5114 32.7780 3867.00 3979.16 62.00
5115 32.7840 4003.00 4101.64 63.00
5116 32.7900 4337.00 4298.67 66.00
5117 32.7960 4770.00 4565.14 69.00
5118 32.8020 5014.00 4776.89 71.00
5119 32.8080 4998.00 4792.21 71.00
5120 32.8140 4735.00 4611.64 69.00
5121 32.8200 4384.00 4359.72 66.00
5122 32.8260 4133.00 4174.19 64.00
5123 32.8320 4128.00 4089.99 64.00
5124 32.8380 4102.00 4100.34 64.00
5125 32.8440 4248.00 4197.79 65.00
5126 32.8500 4393.00 4368.79 66.00
5127 32.8560 4391.00 4554.38 66.00
5128 32.8620 4483.00 4657.89 67.00
5129 32.8680 4479.00 4634.83 67.00
5130 32.8740 4362.00 4512.09 66.00
5131 32.8800 4135.00 4375.52 64.00
5132 32.8860 4102.00 4311.60 64.00
5133 32.8920 4258.00 4364.03 65.00
5134 32.8980 4489.00 4590.57 67.00
5135 32.9040 5037.00 5112.27 71.00
5136 32.9100 6134.00 6079.88 78.00
5137 32.9160 7775.00 7491.92 88.00
5138 32.9220 8849.00 8790.28 94.00
5139 32.9280 7989.00 8790.94 89.00
5140 32.9340 6458.00 7485.09 80.00
5141 32.9400 5163.00 6053.57 72.00
5142 32.9460 4532.00 5060.13 67.00
5143 32.9520 4180.00 4503.42 65.00
5144 32.9580 3962.00 4221.29 63.00
5145 32.9640 3818.00 4087.59 62.00
5146 32.9700 3773.00 4000.55 61.00
5147 32.9760 3697.00 3942.26 61.00
5148 32.9820 3761.00 3900.47 61.00
5149 32.9880 3761.00 3869.24 61.00
5150 32.9940 3726.00 3845.38 61.00
5151 33.0000 3799.00 3826.78 62.00
5152 33.0060 3743.00 3812.09 61.00
5153 33.0120 3696.00 3800.36 61.00
5154 33.0180 3719.00 3789.63 61.00
5155 33.0240 3715.00 3780.88 61.00
5156 33.0300 3668.00 3775.02 61.00
5157 33.0360 3654.00 3770.49 60.00
5158 33.0420 3765.00 3767.12 61.00
5159 33.0480 3784.00 3764.83 62.00
5160 33.0540 3759.00 3763.57 61.00
5161 33.0600 3735.00 3763.37 61.00
5162 33.0660 3759.00 3764.25 61.00
5163 33.0720 3698.00 3765.84 61.00
5164 33.0780 3729.00 3768.50 61.00
5165 33.0840 3709.00 3772.91 61.00
5166 33.0900 3763.00 3779.91 61.00
5167 33.0960 3767.00 3789.42 61.00
5168 33.1020 3802.00 3802.04 62.00
5169 33.1080 3813.00 3818.78 62.00
5170 33.1140 3766.00 3841.09 61.00
5171 33.1200 3701.00 3871.23 61.00
5172 33.1260 3741.00 3912.79 61.00
5173 33.1320 3828.00 3972.04 62.00
5174 33.1380 3881.00 4056.41 62.00
5175 33.1440 3985.00 4207.06 63.00
5176 33.1500 4099.00 4512.91 64.00
5177 33.1560 4609.00 5117.96 68.00
5178 33.1620 5746.00 6190.50 76.00
5179 33.1680 7350.00 7715.77 86.00
5180 33.1740 8311.00 9079.10 91.00
5181 33.1800 7664.00 8958.70 88.00
5182 33.1860 6283.00 7515.22 79.00
5183 33.1920 5223.00 6040.20 72.00
5184 33.1980 4566.00 5041.43 68.00
5185 33.2040 4231.00 4486.30 65.00
5186 33.2100 4082.00 4207.31 64.00
5187 33.2160 3984.00 4062.28 63.00
5188 33.2220 3847.00 3976.82 62.00
5189 33.2280 3765.00 3920.46 61.00
5190 33.2340 3737.00 3892.96 61.00
5191 33.2400 3744.00 3879.28 61.00
5192 33.2460 3790.00 3860.50 62.00
5193 33.2520 3778.00 3847.73 61.00
5194 33.2580 3742.00 3839.69 61.00
5195 33.2640 3758.00 3835.57 61.00
5196 33.2700 3752.00 3834.89 61.00
5197 33.2760 3759.00 3837.41 61.00
5198 33.2820 3794.00 3843.07 62.00
5199 33.2880 3765.00 3852.01 61.00
5200 33.2940 3772.00 3864.55 61.00
5201 33.3000 3744.00 3881.23 61.00
5202 33.3060 3860.00 3902.83 62.00
5203 33.3120 3927.00 3930.55 63.00
5204 33.3180 3889.00 3966.05 62.00
5205 33.3240 3950.00 4011.84 63.00
5206 33.3300 4033.00 4071.63 64.00
5207 33.3360 4169.00 4151.28 65.00
5208 33.3420 4250.00 4261.45 65.00
5209 33.3480 4367.00 4425.17 66.00
5210 33.3540 4800.00 4698.74 69.00
5211 33.3600 5516.00 5206.57 74.00
5212 33.3660 6831.00 6152.62 83.00
5213 33.3720 8747.00 7726.21 94.00
5214 33.3780 10577.00 9823.22 103.00
5215 33.3840 11094.00 11517.90 105.00
5216 33.3900 10529.00 11607.20 103.00
5217 33.3960 10156.00 10999.60 101.00
5218 33.4020 10430.00 11000.60 102.00
5219 33.4080 10598.00 11275.80 103.00
5220 33.4140 9564.00 10776.70 98.00
5221 33.4200 8222.00 9513.31 91.00
5222 33.4260 7389.00 8497.20 86.00
5223 33.4320 7621.00 8574.71 87.00
5224 33.4380 9942.00 10034.70 100.00
5225 33.4440 13837.00 12532.50 118.00
5226 33.4500 15236.00 14450.10 123.00
5227 33.4560 12535.00 13544.20 112.00
5228 33.4620 9078.00 10667.00 95.00
5229 33.4680 6876.00 7993.23 83.00
5230 33.4740 5923.00 6231.98 77.00
5231 33.4800 5324.00 5261.01 73.00
5232 33.4860 4824.00 4761.48 69.00
5233 33.4920 4571.00 4489.87 68.00
5234 33.4980 4436.00 4322.76 67.00
5235 33.5040 4353.00 4209.52 66.00
5236 33.5100 4134.00 4129.38 64.00
5237 33.5160 4046.00 4072.18 64.00
5238 33.5220 4057.00 4032.29 64.00
5239 33.5280 4074.00 4006.41 64.00
5240 33.5340 4149.00 3992.83 64.00
5241 33.5400 4151.00 3991.12 64.00
5242 33.5460 4205.00 4002.11 65.00
5243 33.5520 4375.00 4028.12 66.00
5244 33.5580 4593.00 4074.14 68.00
5245 33.5640 4740.00 4150.69 69.00
5246 33.5700 4941.00 4283.33 70.00
5247 33.5760 5122.00 4532.84 72.00
5248 33.5820 5607.00 5020.51 75.00
5249 33.5880 6593.00 5921.00 81.00
5250 33.5940 8347.00 7352.57 91.00
5251 33.6000 10060.00 9068.04 100.00
5252 33.6060 10271.00 10190.80 101.00
5253 33.6120 8711.00 9952.16 93.00
5254 33.6180 6867.00 8429.35 83.00
5255 33.6240 5522.00 6734.60 74.00
5256 33.6300 4678.00 5532.26 68.00
5257 33.6360 4556.00 4870.10 67.00
5258 33.6420 4582.00 4604.59 68.00
5259 33.6480 4497.00 4621.05 67.00
5260 33.6540 4727.00 4906.81 69.00
5261 33.6600 5477.00 5478.83 74.00
5262 33.6660 6447.00 6206.62 80.00
5263 33.6720 6702.00 6597.62 82.00
5264 33.6780 5744.00 6249.53 76.00
5265 33.6840 4851.00 5454.73 70.00
5266 33.6900 4377.00 4740.19 66.00
5267 33.6960 4146.00 4272.65 64.00
5268 33.7020 4076.00 4012.18 64.00
5269 33.7080 3904.00 3874.62 62.00
5270 33.7140 3872.00 3796.82 62.00
5271 33.7200 3804.00 3746.76 62.00
5272 33.7260 3888.00 3711.07 62.00
5273 33.7320 3738.00 3684.14 61.00
5274 33.7380 3756.00 3663.10 61.00
5275 33.7440 3645.00 3646.31 60.00
5276 33.7500 3626.00 3632.67 60.00
5277 33.7560 3666.00 3621.42 61.00
5278 33.7620 3738.00 3612.36 61.00
5279 33.7680 3686.00 3604.59 61.00
5280 33.7740 3688.00 3597.69 61.00
5281 33.7800 3640.00 3591.51 60.00
5282 33.7860 3597.00 3586.33 60.00
5283 33.7920 3616.00 3582.11 60.00
5284 33.7980 3659.00 3578.85 60.00
5285 33.8040 3606.00 3576.61 60.00
5286 33.8100 3584.00 3575.54 60.00
5287 33.8160 3630.00 3575.90 60.00
5288 33.8220 3621.00 3571.49 60.00
5289 33.8280 3746.00 3576.74 61.00
5290 33.8340 3558.00 3575.95 60.00
5291 33.8400 3625.00 3592.58 60.00
5292 33.8460 3677.00 3622.17 61.00
5293 33.8520 3742.00 3678.40 61.00
5294 33.8580 3950.00 3786.46 63.00
5295 33.8640 4139.00 3978.25 64.00
5296 33.8700 4579.00 4259.74 68.00
5297 33.8760 4911.00 4534.99 70.00
5298 33.8820 4632.00 4565.74 68.00
5299 33.8880 4174.00 4313.31 65.00
5300 33.8940 3953.00 4008.48 63.00
5301 33.9000 3806.00 3790.44 62.00
5302 33.9060 3896.00 3663.06 62.00
5303 33.9120 3653.00 3596.54 60.00
5304 33.9180 3557.00 3561.61 60.00
5305 33.9240 3551.00 3541.17 60.00
5306 33.9300 3505.00 3527.80 59.00
5307 33.9360 3523.00 3518.70 59.00
5308 33.9420 3497.00 3513.01 59.00
5309 33.9480 3582.00 3511.22 60.00
5310 33.9540 3608.00 3515.32 60.00
5311 33.9600 3500.00 3528.55 59.00
5312 33.9660 3450.00 3552.90 59.00
5313 33.9720 3496.00 3583.11 59.00
5314 33.9780 3522.00 3597.86 59.00
5315 33.9840 3627.00 3579.49 60.00
5316 33.9900 3631.00 3545.36 60.00
5317 33.9960 3551.00 3514.87 60.00
5318 34.0020 3511.00 3494.40 59.00
5319 34.0080 3558.00 3482.72 60.00
5320 34.0140 3577.00 3476.55 60.00
5321 34.0200 3596.00 3473.42 60.00
5322 34.0260 3482.00 3472.09 59.00
5323 34.0320 3432.00 3472.13 59.00
5324 34.0380 3440.00 3473.51 59.00
5325 34.0440 3374.00 3476.45 58.00
5326 34.0500 3476.00 3481.36 59.00
5327 34.0560 3438.00 3488.96 59.00
5328 34.0620 3531.00 3500.51 59.00
5329 34.0680 3562.00 3518.57 60.00
5330 34.0740 3628.00 3549.16 60.00
5331 34.0800 3659.00 3606.51 60.00
5332 34.0860 3983.00 3718.77 63.00
5333 34.0920 4325.00 3925.89 66.00
5334 34.0980 4582.00 4253.32 68.00
5335 34.1040 4935.00 4641.25 70.00
5336 34.1100 5297.00 4884.79 73.00
5337 34.1160 4837.00 4774.14 70.00
5338 34.1220 4380.00 4397.40 66.00
5339 34.1280 4022.00 4022.27 63.00
5340 34.1340 3792.00 3763.54 62.00
5341 34.1400 3725.00 3615.32 61.00
5342 34.1460 3637.00 3537.08 60.00
5343 34.1520 3568.00 3494.34 60.00
5344 34.1580 3450.00 3467.98 59.00
5345 34.1640 3627.00 3449.62 60.00
5346 34.1700 3588.00 3439.52 60.00
5347 34.1760 3573.00 3428.87 60.00
5348 34.1820 3517.00 3420.31 59.00
5349 34.1880 3481.00 3413.29 59.00
5350 34.1940 3400.00 3407.25 58.00
5351 34.2000 3542.00 3401.76 60.00
5352 34.2060 3527.00 3397.20 59.00
5353 34.2120 3430.00 3393.11 59.00
5354 34.2180 3478.00 3389.47 59.00
5355 34.2240 3486.00 3386.16 59.00
5356 34.2300 3389.00 3383.14 58.00
5357 34.2360 3401.00 3380.37 58.00
5358 34.2420 3391.00 3377.83 58.00
5359 34.2480 3442.00 3375.50 59.00
5360 34.2540 3404.00 3373.37 58.00
5361 34.2600 3335.00 3371.45 58.00
5362 34.2660 3364.00 3369.74 58.00
5363 34.2720 3407.00 3368.25 58.00
5364 34.2780 3427.00 3367.01 59.00
5365 34.2840 3322.00 3366.05 58.00
5366 34.2900 3481.00 3365.42 59.00
5367 34.2960 3436.00 3365.58 59.00
5368 34.3020 3370.00 3368.20 58.00
5369 34.3080 3511.00 3371.43 59.00
5370 34.3140 3553.00 3375.44 60.00
5371 34.3200 3408.00 3380.47 58.00
5372 34.3260 3413.00 3386.87 58.00
5373 34.3320 3433.00 3393.81 59.00
5374 34.3380 3332.00 3402.56 58.00
5375 34.3440 3537.00 3417.82 59.00
5376 34.3500 3546.00 3439.88 60.00
5377 34.3560 3511.00 3475.36 59.00
5378 34.3620 3599.00 3540.09 60.00
5379 34.3680 3795.00 3665.44 62.00
5380 34.3740 4085.00 3894.28 64.00
5381 34.3800 4441.00 4250.36 67.00
5382 34.3860 4685.00 4664.91 68.00
5383 34.3920 4700.00 4871.33 69.00
5384 34.3980 4547.00 4657.04 67.00
5385 34.4040 4281.00 4258.84 65.00
5386 34.4100 3810.00 3922.56 62.00
5387 34.4160 3692.00 3693.59 61.00
5388 34.4220 3594.00 3563.66 60.00
5389 34.4280 3601.00 3494.85 60.00
5390 34.4340 3503.00 3463.61 59.00
5391 34.4400 3457.00 3445.58 59.00
5392 34.4460 3431.00 3431.39 59.00
5393 34.4520 3470.00 3421.76 59.00
5394 34.4580 3496.00 3415.11 59.00
5395 34.4640 3396.00 3410.57 58.00
5396 34.4700 3494.00 3407.61 59.00
5397 34.4760 3578.00 3405.89 60.00
5398 34.4820 3566.00 3405.17 60.00
5399 34.4880 3577.00 3405.31 60.00
5400 34.4940 3502.00 3406.23 59.00
5401 34.5000 3594.00 3407.88 60.00
5402 34.5060 3484.00 3410.26 59.00
5403 34.5120 3535.00 3413.38 59.00
5404 34.5180 3523.00 3417.31 59.00
5405 34.5240 3564.00 3428.70 60.00
5406 34.5300 3597.00 3442.10 60.00
5407 34.5360 3708.00 3449.95 61.00
5408 34.5420 3747.00 3464.50 61.00
5409 34.5480 3621.00 3476.03 60.00
5410 34.5540 3620.00 3489.92 60.00
5411 34.5600 3656.00 3506.80 60.00
5412 34.5660 3689.00 3527.57 61.00
5413 34.5720 3591.00 3553.50 60.00
5414 34.5780 3558.00 3586.51 60.00
5415 34.5840 3596.00 3629.55 60.00
5416 34.5900 3558.00 3687.89 60.00
5417 34.5960 3671.00 3772.70 61.00
5418 34.6020 3933.00 3910.18 63.00
5419 34.6080 4066.00 4156.20 64.00
5420 34.6140 4487.00 4601.57 67.00
5421 34.6200 5477.00 5335.65 74.00
5422 34.6260 6792.00 6358.72 82.00
5423 34.6320 7338.00 7354.23 86.00
5424 34.6380 7026.00 7761.32 84.00
5425 34.6440 7455.00 7789.92 86.00
5426 34.6500 8786.00 8045.64 94.00
5427 34.6560 9792.00 8325.99 99.00
5428 34.6620 8347.00 7899.14 91.00
5429 34.6680 6315.00 6785.12 79.00
5430 34.6740 5261.00 5647.16 73.00
5431 34.6800 4585.00 4841.07 68.00
5432 34.6860 4370.00 4375.47 66.00
5433 34.6920 3996.00 4144.01 63.00
5434 34.6980 4012.00 4046.52 63.00
5435 34.7040 4070.00 4026.54 64.00
5436 34.7100 4053.00 4068.34 64.00
5437 34.7160 4143.00 4191.06 64.00
5438 34.7220 4457.00 4468.30 67.00
5439 34.7280 4997.00 5006.98 71.00
5440 34.7340 6171.00 5948.28 79.00
5441 34.7400 7675.00 7363.03 88.00
5442 34.7460 9257.00 8950.56 96.00
5443 34.7520 10101.00 9971.26 101.00
5444 34.7580 10012.00 9900.66 100.00
5445 34.7640 8722.00 8822.88 93.00
5446 34.7700 6973.00 7263.56 84.00
5447 34.7760 5575.00 5866.87 75.00
5448 34.7820 4812.00 4921.41 69.00
5449 34.7880 4364.00 4371.07 66.00
5450 34.7940 4015.00 4070.96 63.00
5451 34.8000 3811.00 3904.09 62.00
5452 34.8060 3779.00 3802.77 61.00
5453 34.8120 3787.00 3735.24 62.00
5454 34.8180 3685.00 3687.62 61.00
5455 34.8240 3719.00 3653.32 61.00
5456 34.8300 3637.00 3628.67 60.00
5457 34.8360 3671.00 3611.51 61.00
5458 34.8420 3604.00 3600.39 60.00
5459 34.8480 3558.00 3594.51 60.00
5460 34.8540 3540.00 3593.49 59.00
5461 34.8600 3582.00 3593.15 60.00
5462 34.8660 3557.00 3598.66 60.00
5463 34.8720 3594.00 3613.79 60.00
5464 34.8780 3653.00 3635.97 60.00
5465 34.8840 3725.00 3661.11 61.00
5466 34.8900 3714.00 3700.92 61.00
5467 34.8960 3604.00 3762.24 60.00
5468 34.9020 3869.00 3850.86 62.00
5469 34.9080 4158.00 3989.00 64.00
5470 34.9140 4504.00 4229.58 67.00
5471 34.9200 5049.00 4683.94 71.00
5472 34.9260 5911.00 5531.87 77.00
5473 34.9320 7434.00 6947.75 86.00
5474 34.9380 9640.00 8874.36 98.00
5475 34.9440 11357.00 10590.70 107.00
5476 34.9500 10958.00 10859.60 105.00
5477 34.9560 8996.00 9461.98 95.00
5478 34.9620 6908.00 7487.35 83.00
5479 34.9680 5579.00 5890.77 75.00
5480 34.9740 4705.00 4877.70 69.00
5481 34.9800 4235.00 4318.53 65.00
5482 34.9860 4091.00 4017.26 64.00
5483 34.9920 3874.00 3847.44 62.00
5484 34.9980 3708.00 3743.75 61.00
5485 35.0040 3754.00 3671.84 61.00
5486 35.0100 3623.00 3619.11 60.00
5487 35.0160 3600.00 3579.12 60.00
5488 35.0220 3573.00 3548.11 60.00
5489 35.0280 3587.00 3523.61 60.00
5490 35.0340 3579.00 3503.95 60.00
5491 35.0400 3286.00 3488.91 57.00
5492 35.0460 3222.00 3475.78 57.00
5493 35.0520 3480.00 3467.06 59.00
5494 35.0580 3549.00 3458.02 60.00
5495 35.0640 3468.00 3450.41 59.00
5496 35.0700 3416.00 3443.95 58.00
5497 35.0760 3383.00 3438.45 58.00
5498 35.0820 3387.00 3433.75 58.00
5499 35.0880 3442.00 3429.73 59.00
5500 35.0940 3439.00 3426.27 59.00
5501 35.1000 3446.00 3423.32 59.00
5502 35.1060 3429.00 3420.79 59.00
5503 35.1120 3453.00 3418.64 59.00
5504 35.1180 3444.00 3416.83 59.00
5505 35.1240 3344.00 3415.34 58.00
5506 35.1300 3269.00 3414.13 57.00
5507 35.1360 3365.00 3413.19 58.00
5508 35.1420 3448.00 3412.51 59.00
5509 35.1480 3487.00 3412.08 59.00
5510 35.1540 3419.00 3411.93 58.00
5511 35.1600 3457.00 3412.04 59.00
5512 35.1660 3439.00 3412.46 59.00
5513 35.1720 3400.00 3414.13 58.00
5514 35.1780 3415.00 3405.56 58.00
5515 35.1840 3554.00 3399.09 60.00
5516 35.1900 3446.00 3402.14 59.00
5517 35.1960 3439.00 3408.15 59.00
5518 35.2020 3439.00 3412.79 59.00
5519 35.2080 3462.00 3418.57 59.00
5520 35.2140 3475.00 3425.91 59.00
5521 35.2200 3480.00 3435.49 59.00
5522 35.2260 3470.00 3448.54 59.00
5523 35.2320 3482.00 3467.53 59.00
5524 35.2380 3487.00 3498.25 59.00
5525 35.2440 3551.00 3553.19 60.00
5526 35.2500 3745.00 3654.50 61.00
5527 35.2560 3951.00 3829.96 63.00
5528 35.2620 4360.00 4091.44 66.00
5529 35.2680 4698.00 4386.03 69.00
5530 35.2740 4651.00 4573.04 68.00
5531 35.2800 4313.00 4525.99 66.00
5532 35.2860 4038.00 4253.27 64.00
5533 35.2920 3799.00 3955.67 62.00
5534 35.2980 3669.00 3739.19 61.00
5535 35.3040 3569.00 3610.17 60.00
5536 35.3100 3506.00 3541.75 59.00
5537 35.3160 3486.00 3506.65 59.00
5538 35.3220 3450.00 3487.82 59.00
5539 35.3280 3435.00 3477.20 59.00
5540 35.3340 3422.00 3471.52 58.00
5541 35.3400 3424.00 3469.44 59.00
5542 35.3460 3415.00 3470.48 58.00
5543 35.3520 3465.00 3474.69 59.00
5544 35.3580 3502.00 3482.78 59.00
5545 35.3640 3479.00 3496.81 59.00
5546 35.3700 3449.00 3521.60 59.00
5547 35.3760 3520.00 3565.94 59.00
5548 35.3820 3610.00 3641.33 60.00
5549 35.3880 3820.00 3755.54 62.00
5550 35.3940 4038.00 3898.06 64.00
5551 35.4000 4071.00 4022.35 64.00
5552 35.4060 4196.00 4110.79 65.00
5553 35.4120 4461.00 4232.03 67.00
5554 35.4180 4680.00 4392.08 68.00
5555 35.4240 4577.00 4456.59 68.00
5556 35.4300 4197.00 4314.96 65.00
5557 35.4360 3864.00 4072.32 62.00
5558 35.4420 3738.00 3866.58 61.00
5559 35.4480 3716.00 3739.14 61.00
5560 35.4540 3589.00 3680.11 60.00
5561 35.4600 3569.00 3668.27 60.00
5562 35.4660 3614.00 3690.06 60.00
5563 35.4720 3640.00 3747.12 60.00
5564 35.4780 3745.00 3863.36 61.00
5565 35.4840 4026.00 4095.92 63.00
5566 35.4900 4521.00 4534.76 67.00
5567 35.4960 5624.00 5258.45 75.00
5568 35.5020 7133.00 6219.36 84.00
5569 35.5080 7614.00 7020.92 87.00
5570 35.5140 6634.00 6960.41 81.00
5571 35.5200 5374.00 6103.30 73.00
5572 35.5260 4601.00 5152.06 68.00
5573 35.5320 4167.00 4454.12 65.00
5574 35.5380 3920.00 4035.22 63.00
5575 35.5440 3779.00 3809.73 61.00
5576 35.5500 3654.00 3689.80 60.00
5577 35.5560 3546.00 3620.08 60.00
5578 35.5620 3526.00 3574.53 59.00
5579 35.5680 3496.00 3542.15 59.00
5580 35.5740 3432.00 3518.06 59.00
5581 35.5800 3436.00 3499.61 59.00
5582 35.5860 3431.00 3485.21 59.00
5583 35.5920 3442.00 3473.76 59.00
5584 35.5980 3493.00 3464.52 59.00
5585 35.6040 3460.00 3456.98 59.00
5586 35.6100 3399.00 3450.76 58.00
5587 35.6160 3352.00 3445.58 58.00
5588 35.6220 3342.00 3441.23 58.00
5589 35.6280 3384.00 3437.56 58.00
5590 35.6340 3384.00 3433.58 58.00
5591 35.6400 3386.00 3430.96 58.00
5592 35.6460 3403.00 3428.73 58.00
5593 35.6520 3442.00 3426.83 59.00
5594 35.6580 3489.00 3423.01 59.00
5595 35.6640 3481.00 3421.75 59.00
5596 35.6700 3435.00 3420.69 59.00
5597 35.6760 3467.00 3419.84 59.00
5598 35.6820 3531.00 3420.89 59.00
5599 35.6880 3467.00 3422.15 59.00
5600 35.6940 3467.00 3422.02 59.00
5601 35.7000 3440.00 3422.10 59.00
5602 35.7060 3357.00 3422.41 58.00
5603 35.7120 3378.00 3423.01 58.00
5604 35.7180 3414.00 3423.98 58.00
5605 35.7240 3430.00 3425.47 59.00
5606 35.7300 3444.00 3427.86 59.00
5607 35.7360 3398.00 3432.02 58.00
5608 35.7420 3402.00 3435.61 58.00
5609 35.7480 3433.00 3445.94 59.00
5610 35.7540 3446.00 3470.47 59.00
5611 35.7600 3536.00 3504.15 59.00
5612 35.7660 3626.00 3536.00 60.00
5613 35.7720 3625.00 3541.48 60.00
5614 35.7780 3618.00 3515.71 60.00
5615 35.7840 3572.00 3482.78 60.00
5616 35.7900 3617.00 3461.67 60.00
5617 35.7960 3695.00 3451.15 61.00
5618 35.8020 3710.00 3444.27 61.00
5619 35.8080 3596.00 3441.87 60.00
5620 35.8140 3536.00 3441.82 59.00
5621 35.8200 3497.00 3443.14 59.00
5622 35.8260 3473.00 3445.46 59.00
5623 35.8320 3565.00 3448.71 60.00
5624 35.8380 3567.00 3452.98 60.00
5625 35.8440 3572.00 3458.43 60.00
5626 35.8500 3585.00 3465.37 60.00
5627 35.8560 3562.00 3474.32 60.00
5628 35.8620 3577.00 3486.06 60.00
5629 35.8680 3679.00 3502.05 61.00
5630 35.8740 3716.00 3525.39 61.00
5631 35.8800 3685.00 3563.29 61.00
5632 35.8860 3696.00 3631.66 61.00
5633 35.8920 3804.00 3758.63 62.00
5634 35.8980 3957.00 3970.86 63.00
5635 35.9040 4301.00 4277.40 66.00
5636 35.9100 4637.00 4606.94 68.00
5637 35.9160 4731.00 4769.26 69.00
5638 35.9220 4494.00 4636.15 67.00
5639 35.9280 4079.00 4321.97 64.00
5640 35.9340 3817.00 4021.30 62.00
5641 35.9400 3777.00 3815.27 61.00
5642 35.9460 3670.00 3700.87 61.00
5643 35.9520 3679.00 3652.77 61.00
5644 35.9580 3594.00 3642.04 60.00
5645 35.9640 3592.00 3657.21 60.00
5646 35.9700 3750.00 3689.54 61.00
5647 35.9760 3748.00 3726.40 61.00
5648 35.9820 3707.00 3757.45 61.00
5649 35.9880 3778.00 3802.19 61.00
5650 35.9940 3879.00 3904.05 62.00
5651 36.0000 4150.00 4121.25 64.00
5652 36.0060 4520.00 4523.87 67.00
5653 36.0120 5211.00 5157.52 72.00
5654 36.0180 6384.00 5937.54 80.00
5655 36.0240 6931.00 6517.54 83.00
5656 36.0300 6451.00 6512.49 80.00
5657 36.0360 5421.00 5920.51 74.00
5658 36.0420 4615.00 5138.67 68.00
5659 36.0480 4200.00 4509.15 65.00
5660 36.0540 4063.00 4107.48 64.00
5661 36.0600 3949.00 3884.55 63.00
5662 36.0660 3776.00 3770.04 61.00
5663 36.0720 3812.00 3713.12 62.00
5664 36.0780 3774.00 3688.07 61.00
5665 36.0840 3766.00 3687.19 61.00
5666 36.0900 3809.00 3715.69 62.00
5667 36.0960 3930.00 3791.70 63.00
5668 36.1020 4228.00 3947.64 65.00
5669 36.1080 4507.00 4213.01 67.00
5670 36.1140 4951.00 4560.50 70.00
5671 36.1200 5188.00 4876.83 72.00
5672 36.1260 5239.00 4961.66 72.00
5673 36.1320 4837.00 4746.50 70.00
5674 36.1380 4375.00 4395.90 66.00
5675 36.1440 4086.00 4091.20 64.00
5676 36.1500 3912.00 3897.07 63.00
5677 36.1560 3921.00 3812.60 63.00
5678 36.1620 3922.00 3825.56 63.00
5679 36.1680 4182.00 3931.76 65.00
5680 36.1740 4569.00 4128.72 68.00
5681 36.1800 4821.00 4373.75 69.00
5682 36.1860 4625.00 4521.64 68.00
5683 36.1920 4309.00 4417.85 66.00
5684 36.1980 4046.00 4161.25 64.00
5685 36.2040 3871.00 3920.69 62.00
5686 36.2100 3793.00 3754.58 62.00
5687 36.2160 3761.00 3657.94 61.00
5688 36.2220 3682.00 3607.51 61.00
5689 36.2280 3662.00 3581.96 61.00
5690 36.2340 3719.00 3568.97 61.00
5691 36.2400 3728.00 3562.96 61.00
5692 36.2460 3713.00 3561.73 61.00
5693 36.2520 3677.00 3564.48 61.00
5694 36.2580 3560.00 3571.02 60.00
5695 36.2640 3681.00 3577.93 61.00
5696 36.2700 3720.00 3589.37 61.00
5697 36.2760 3657.00 3614.88 60.00
5698 36.2820 3784.00 3649.38 62.00
5699 36.2880 3870.00 3689.97 62.00
5700 36.2940 4041.00 3747.52 64.00
5701 36.3000 3953.00 3835.05 63.00
5702 36.3060 4172.00 3982.28 65.00
5703 36.3120 4566.00 4249.92 68.00
5704 36.3180 4983.00 4736.11 71.00
5705 36.3240 5767.00 5546.11 76.00
5706 36.3300 6965.00 6689.49 83.00
5707 36.3360 8016.00 7877.79 90.00
5708 36.3420 8494.00 8464.17 92.00
5709 36.3480 7796.00 8015.15 88.00
5710 36.3540 6454.00 6875.73 80.00
5711 36.3600 5542.00 5702.83 74.00
5712 36.3660 4954.00 4840.93 70.00
5713 36.3720 4375.00 4313.05 66.00
5714 36.3780 4146.00 4020.88 64.00
5715 36.3840 3982.00 3861.64 63.00
5716 36.3900 3859.00 3769.33 62.00
5717 36.3960 3791.00 3710.48 62.00
5718 36.4020 3829.00 3670.21 62.00
5719 36.4080 3783.00 3641.80 62.00
5720 36.4140 3678.00 3621.83 61.00
5721 36.4200 3747.00 3608.33 61.00
5722 36.4260 3729.00 3597.75 61.00
5723 36.4320 3746.00 3603.78 61.00
5724 36.4380 3796.00 3612.44 62.00
5725 36.4440 3746.00 3619.04 61.00
5726 36.4500 3703.00 3631.06 61.00
5727 36.4560 3655.00 3649.81 60.00
5728 36.4620 3654.00 3681.79 60.00
5729 36.4680 3837.00 3743.65 62.00
5730 36.4740 3917.00 3817.04 63.00
5731 36.4800 4050.00 3935.87 64.00
5732 36.4860 4272.00 4156.09 65.00
5733 36.4920 4623.00 4555.05 68.00
5734 36.4980 5545.00 5203.64 74.00
5735 36.5040 7122.00 6076.47 84.00
5736 36.5100 7974.00 6882.62 89.00
5737 36.5160 7046.00 7058.54 84.00
5738 36.5220 5869.00 6441.41 77.00
5739 36.5280 5022.00 5547.33 71.00
5740 36.5340 4595.00 4806.42 68.00
5741 36.5400 4371.00 4325.29 66.00
5742 36.5460 4190.00 4063.03 65.00
5743 36.5520 4075.00 3923.82 64.00
5744 36.5580 4016.00 3858.20 63.00
5745 36.5640 3918.00 3820.83 63.00
5746 36.5700 3885.00 3802.36 62.00
5747 36.5760 3915.00 3793.85 63.00
5748 36.5820 3863.00 3794.12 62.00
5749 36.5880 3999.00 3802.53 63.00
5750 36.5940 3916.00 3826.00 63.00
5751 36.6000 4057.00 3859.68 64.00
5752 36.6060 3911.00 3905.62 63.00
5753 36.6120 4155.00 3967.22 64.00
5754 36.6180 4159.00 4052.36 64.00
5755 36.6240 4206.00 4169.22 65.00
5756 36.6300 4341.00 4348.29 66.00
5757 36.6360 4894.00 4639.82 70.00
5758 36.6420 5237.00 5147.81 72.00
5759 36.6480 6228.00 6012.12 79.00
5760 36.6540 7671.00 7337.28 88.00
5761 36.6600 10357.00 9020.13 102.00
5762 36.6660 12287.00 10486.30 111.00
5763 36.6720 12176.00 11042.50 110.00
5764 36.6780 10799.00 10811.10 104.00
5765 36.6840 10351.00 10684.90 102.00
5766 36.6900 11769.00 11516.70 108.00
5767 36.6960 14111.00 13360.70 119.00
5768 36.7020 15833.00 15175.20 126.00
5769 36.7080 14934.00 15340.40 122.00
5770 36.7140 12392.00 13408.30 111.00
5771 36.7200 9505.00 10606.20 97.00
5772 36.7260 7488.00 8193.92 87.00
5773 36.7320 6227.00 6589.94 79.00
5774 36.7380 5805.00 5699.48 76.00
5775 36.7440 5528.00 5307.52 74.00
5776 36.7500 5704.00 5253.62 76.00
5777 36.7560 6020.00 5461.33 78.00
5778 36.7620 6622.00 5923.19 81.00
5779 36.7680 6983.00 6574.17 84.00
5780 36.7740 7623.00 7382.35 87.00
5781 36.7800 8647.00 8248.03 93.00
5782 36.7860 9327.00 8722.08 97.00
5783 36.7920 8978.00 8555.16 95.00
5784 36.7980 7790.00 7833.59 88.00
5785 36.8040 6602.00 6745.61 81.00
5786 36.8100 5676.00 5731.91 75.00
5787 36.8160 5119.00 5021.30 72.00
5788 36.8220 4791.00 4607.40 69.00
5789 36.8280 4709.00 4417.54 69.00
5790 36.8340 4682.00 4395.03 68.00
5791 36.8400 4791.00 4516.93 69.00
5792 36.8460 5079.00 4775.06 71.00
5793 36.8520 5682.00 5116.37 75.00
5794 36.8580 6022.00 5402.09 78.00
5795 36.8640 6008.00 5525.29 78.00
5796 36.8700 5395.00 5423.97 73.00
5797 36.8760 5078.00 5127.20 71.00
5798 36.8820 4840.00 4834.38 70.00
5799 36.8880 4708.00 4660.29 69.00
5800 36.8940 4640.00 4639.43 68.00
5801 36.9000 4988.00 4840.12 71.00
5802 36.9060 5648.00 5340.45 75.00
5803 36.9120 7022.00 6137.18 84.00
5804 36.9180 7919.00 7029.90 89.00
5805 36.9240 7374.00 7427.09 86.00
5806 36.9300 6431.00 6894.81 80.00
5807 36.9360 5409.00 5920.56 74.00
5808 36.9420 4736.00 5051.04 69.00
5809 36.9480 4446.00 4440.59 67.00
5810 36.9540 4292.00 4088.48 66.00
5811 36.9600 4128.00 3901.16 64.00
5812 36.9660 4036.00 3799.89 64.00
5813 36.9720 3914.00 3742.41 63.00
5814 36.9780 3705.00 3703.24 61.00
5815 36.9840 3872.00 3680.22 62.00
5816 36.9900 3797.00 3670.15 62.00
5817 36.9960 3813.00 3668.77 62.00
5818 37.0020 3829.00 3666.41 62.00
5819 37.0080 3702.00 3650.26 61.00
5820 37.0140 3794.00 3626.60 62.00
5821 37.0200 3704.00 3603.72 61.00
5822 37.0260 3684.00 3580.00 61.00
5823 37.0320 3763.00 3571.06 61.00
5824 37.0380 3584.00 3563.54 60.00
5825 37.0440 3879.00 3570.11 62.00
5826 37.0500 3707.00 3587.51 61.00
5827 37.0560 3615.00 3619.13 60.00
5828 37.0620 3770.00 3664.98 61.00
5829 37.0680 3779.00 3713.49 61.00
5830 37.0740 3800.00 3739.78 62.00
5831 37.0800 3965.00 3734.48 63.00
5832 37.0860 3828.00 3703.65 62.00
5833 37.0920 3632.00 3658.69 60.00
5834 37.0980 3786.00 3617.32 62.00
5835 37.1040 3623.00 3591.85 60.00
5836 37.1100 3675.00 3576.74 61.00
5837 37.1160 3698.00 3573.97 61.00
5838 37.1220 3578.00 3577.59 60.00
5839 37.1280 3685.00 3585.89 61.00
5840 37.1340 3533.00 3598.07 59.00
5841 37.1400 3608.00 3615.50 60.00
5842 37.1460 3803.00 3639.05 62.00
5843 37.1520 3741.00 3671.04 61.00
5844 37.1580 3822.00 3715.96 62.00
5845 37.1640 3852.00 3782.79 62.00
5846 37.1700 4089.00 3883.59 64.00
5847 37.1760 4291.00 4079.36 66.00
5848 37.1820 4876.00 4432.45 70.00
5849 37.1880 5178.00 5028.24 72.00
5850 37.1940 6094.00 5899.66 78.00
5851 37.2000 7268.00 6898.57 85.00
5852 37.2060 7787.00 7570.05 88.00
5853 37.2120 7207.00 7451.96 85.00
5854 37.2180 6311.00 6638.82 79.00
5855 37.2240 5352.00 5650.73 73.00
5856 37.2300 4536.00 4859.66 67.00
5857 37.2360 4240.00 4347.61 65.00
5858 37.2420 3919.00 4052.91 63.00
5859 37.2480 3839.00 3885.31 62.00
5860 37.2540 3736.00 3782.22 61.00
5861 37.2600 3712.00 3713.51 61.00
5862 37.2660 3661.00 3665.43 61.00
5863 37.2720 3672.00 3630.90 61.00
5864 37.2780 3634.00 3605.56 60.00
5865 37.2840 3700.00 3586.53 61.00
5866 37.2900 3499.00 3571.87 59.00
5867 37.2960 3439.00 3560.35 59.00
5868 37.3020 3625.00 3551.19 60.00
5869 37.3080 3519.00 3543.46 59.00
5870 37.3140 3616.00 3536.66 60.00
5871 37.3200 3583.00 3531.44 60.00
5872 37.3260 3558.00 3527.27 60.00
5873 37.3320 3512.00 3523.80 59.00
5874 37.3380 3504.00 3521.45 59.00
5875 37.3440 3535.00 3519.98 59.00
5876 37.3500 3614.00 3519.43 60.00
5877 37.3560 3476.00 3519.97 59.00
5878 37.3620 3648.00 3521.96 60.00
5879 37.3680 3502.00 3533.34 59.00
5880 37.3740 3592.00 3541.46 60.00
5881 37.3800 3662.00 3555.21 61.00
5882 37.3860 3711.00 3576.89 61.00
5883 37.3920 3669.00 3618.71 61.00
5884 37.3980 3847.00 3659.08 62.00
5885 37.4040 3755.00 3716.56 61.00
5886 37.4100 3900.00 3780.45 62.00
5887 37.4160 3889.00 3880.57 62.00
5888 37.4220 4152.00 4018.02 64.00
5889 37.4280 4241.00 4148.64 65.00
5890 37.4340 4257.00 4215.25 65.00
5891 37.4400 4196.00 4189.27 65.00
5892 37.4460 4028.00 4059.86 63.00
5893 37.4520 3785.00 3894.08 62.00
5894 37.4580 3803.00 3758.78 62.00
5895 37.4640 3625.00 3670.89 60.00
5896 37.4700 3653.00 3621.89 60.00
5897 37.4760 3720.00 3599.54 61.00
5898 37.4820 3667.00 3587.73 61.00
5899 37.4880 3766.00 3582.90 61.00
5900 37.4940 3700.00 3582.28 61.00
5901 37.5000 3682.00 3584.66 61.00
5902 37.5060 3698.00 3589.54 61.00
5903 37.5120 3776.00 3596.81 61.00
5904 37.5180 3817.00 3606.54 62.00
5905 37.5240 3752.00 3618.98 61.00
5906 37.5300 3752.00 3634.57 61.00
5907 37.5360 3722.00 3653.97 61.00
5908 37.5420 3817.00 3678.11 62.00
5909 37.5480 3742.00 3708.34 61.00
5910 37.5540 3896.00 3746.69 62.00
5911 37.5600 3807.00 3796.22 62.00
5912 37.5660 3902.00 3862.43 62.00
5913 37.5720 3995.00 3956.39 63.00
5914 37.5780 4120.00 4101.78 64.00
5915 37.5840 4272.00 4343.73 65.00
5916 37.5900 4567.00 4751.24 68.00
5917 37.5960 5409.00 5398.34 74.00
5918 37.6020 6714.00 6311.67 82.00
5919 37.6080 7700.00 7364.04 88.00
5920 37.6140 7857.00 8211.14 89.00
5921 37.6200 8222.00 8799.53 91.00
5922 37.6260 10235.00 9578.36 101.00
5923 37.6320 12020.00 10596.70 110.00
5924 37.6380 12285.00 11236.00 111.00
5925 37.6440 11287.00 11081.80 106.00
5926 37.6500 9072.00 10085.50 95.00
5927 37.6560 7179.00 8445.94 85.00
5928 37.6620 5913.00 6836.64 77.00
5929 37.6680 5241.00 5653.30 72.00
5930 37.6740 4811.00 4916.40 69.00
5931 37.6800 4456.00 4500.51 67.00
5932 37.6860 4331.00 4296.09 66.00
5933 37.6920 4171.00 4227.03 65.00
5934 37.6980 4291.00 4271.65 66.00
5935 37.7040 4489.00 4421.80 67.00
5936 37.7100 4899.00 4642.83 70.00
5937 37.7160 4838.00 4811.43 70.00
5938 37.7220 4563.00 4748.80 68.00
5939 37.7280 4207.00 4481.02 65.00
5940 37.7340 4041.00 4187.30 64.00
5941 37.7400 3909.00 3960.82 63.00
5942 37.7460 3836.00 3813.57 62.00
5943 37.7520 3825.00 3726.23 62.00
5944 37.7580 3758.00 3675.11 61.00
5945 37.7640 3821.00 3643.22 62.00
5946 37.7700 3689.00 3621.48 61.00
5947 37.7760 3694.00 3605.78 61.00
5948 37.7820 3631.00 3594.26 60.00
5949 37.7880 3704.00 3586.05 61.00
5950 37.7940 3613.00 3580.76 60.00
5951 37.8000 3638.00 3578.44 60.00
5952 37.8060 3572.00 3579.80 60.00
5953 37.8120 3679.00 3586.66 61.00
5954 37.8180 3681.00 3602.36 61.00
5955 37.8240 3540.00 3631.18 59.00
5956 37.8300 3625.00 3675.81 60.00
5957 37.8360 3787.00 3731.53 62.00
5958 37.8420 3796.00 3779.02 62.00
5959 37.8480 3784.00 3792.71 62.00
5960 37.8540 3635.00 3770.06 60.00
5961 37.8600 3854.00 3731.90 62.00
5962 37.8660 3696.00 3716.66 61.00
5963 37.8720 3754.00 3718.19 61.00
5964 37.8780 3740.00 3746.45 61.00
5965 37.8840 3925.00 3798.99 63.00
5966 37.8900 4087.00 3918.86 64.00
5967 37.8960 4220.00 4129.92 65.00
5968 37.9020 4478.00 4515.81 67.00
5969 37.9080 5043.00 5123.92 71.00
5970 37.9140 5848.00 5929.67 76.00
5971 37.9200 6807.00 6704.49 83.00
5972 37.9260 7295.00 7049.51 85.00
5973 37.9320 6994.00 6863.85 84.00
5974 37.9380 6029.00 6254.31 78.00
5975 37.9440 5079.00 5454.64 71.00
5976 37.9500 4530.00 4763.90 67.00
5977 37.9560 4226.00 4289.66 65.00
5978 37.9620 3997.00 4003.16 63.00
5979 37.9680 3820.00 3836.11 62.00
5980 37.9740 3861.00 3742.64 62.00
5981 37.9800 3799.00 3686.13 62.00
5982 37.9860 3687.00 3649.12 61.00
5983 37.9920 3568.00 3623.58 60.00
5984 37.9980 3586.00 3605.66 60.00
5985 38.0040 3595.00 3593.37 60.00
5986 38.0100 3680.00 3585.53 61.00
5987 38.0160 3770.00 3581.43 61.00
5988 38.0220 3729.00 3580.71 61.00
5989 38.0280 3668.00 3583.27 61.00
5990 38.0340 3667.00 3589.24 61.00
5991 38.0400 3632.00 3599.01 60.00
5992 38.0460 3658.00 3613.31 60.00
5993 38.0520 3730.00 3633.27 61.00
5994 38.0580 3726.00 3660.78 61.00
5995 38.0640 3764.00 3699.09 61.00
5996 38.0700 3867.00 3754.70 62.00
5997 38.0760 3914.00 3842.22 63.00
5998 38.0820 4161.00 3993.53 65.00
5999 38.0880 4339.00 4267.59 66.00
6000 38.0940 4888.00 4745.30 70.00
6001 38.1000 5721.00 5490.05 76.00
6002 38.1060 7163.00 6457.93 85.00
6003 38.1120 7978.00 7326.56 89.00
6004 38.1180 7315.00 7474.62 86.00
6005 38.1240 6233.00 6787.05 79.00
6006 38.1300 5321.00 5875.22 73.00
6007 38.1360 4794.00 5183.93 69.00
6008 38.1420 4632.00 4834.54 68.00
6009 38.1480 4801.00 4791.99 69.00
6010 38.1540 5254.00 4936.72 72.00
6011 38.1600 5285.00 5079.45 73.00
6012 38.1660 5075.00 5053.35 71.00
6013 38.1720 4573.00 4840.73 68.00
6014 38.1780 4365.00 4607.91 66.00
6015 38.1840 4477.00 4502.88 67.00
6016 38.1900 4650.00 4604.02 68.00
6017 38.1960 5337.00 4904.20 73.00
6018 38.2020 5804.00 5296.33 76.00
6019 38.2080 5915.00 5532.95 77.00
6020 38.2140 5388.00 5390.91 73.00
6021 38.2200 4710.00 4950.66 69.00
6022 38.2260 4378.00 4474.46 66.00
6023 38.2320 4119.00 4108.09 64.00
6024 38.2380 3898.00 3870.52 62.00
6025 38.2440 3859.00 3731.05 62.00
6026 38.2500 3808.00 3651.21 62.00
6027 38.2560 3720.00 3602.96 61.00
6028 38.2620 3672.00 3570.84 61.00
6029 38.2680 3683.00 3547.57 61.00
6030 38.2740 3599.00 3529.86 60.00
6031 38.2800 3620.00 3515.95 60.00
6032 38.2860 3671.00 3506.38 61.00
6033 38.2920 3621.00 3497.51 60.00
6034 38.2980 3637.00 3491.94 60.00
6035 38.3040 3525.00 3486.21 59.00
6036 38.3100 3603.00 3484.21 60.00
6037 38.3160 3526.00 3480.75 59.00
6038 38.3220 3562.00 3478.20 60.00
6039 38.3280 3601.00 3476.50 60.00
6040 38.3340 3482.00 3475.63 59.00
6041 38.3400 3520.00 3475.63 59.00
6042 38.3460 3546.00 3476.58 60.00
6043 38.3520 3498.00 3478.60 59.00
6044 38.3580 3455.00 3486.11 59.00
6045 38.3640 3503.00 3493.59 59.00
6046 38.3700 3528.00 3492.84 59.00
6047 38.3760 3572.00 3503.77 60.00
6048 38.3820 3601.00 3519.40 60.00
6049 38.3880 3672.00 3543.37 61.00
6050 38.3940 3644.00 3583.71 60.00
6051 38.4000 3626.00 3655.85 60.00
6052 38.4060 3802.00 3782.87 62.00
6053 38.4120 4084.00 3986.09 64.00
6054 38.4180 4656.00 4266.82 68.00
6055 38.4240 5157.00 4561.60 72.00
6056 38.4300 5007.00 4705.76 71.00
6057 38.4360 4521.00 4581.52 67.00
6058 38.4420 4188.00 4295.68 65.00
6059 38.4480 4055.00 4015.63 64.00
6060 38.4540 4056.00 3812.44 64.00
6061 38.4600 3887.00 3686.48 62.00
6062 38.4660 3858.00 3617.37 62.00
6063 38.4720 3774.00 3585.68 61.00
6064 38.4780 3814.00 3573.18 62.00
6065 38.4840 3894.00 3572.44 62.00
6066 38.4900 3868.00 3581.36 62.00
6067 38.4960 3813.00 3601.63 62.00
6068 38.5020 3765.00 3639.31 61.00
6069 38.5080 3931.00 3706.24 63.00
6070 38.5140 4140.00 3819.83 64.00
6071 38.5200 4417.00 3998.51 66.00
6072 38.5260 4714.00 4248.96 69.00
6073 38.5320 4987.00 4538.28 71.00
6074 38.5380 5187.00 4795.65 72.00
6075 38.5440 5405.00 5012.84 74.00
6076 38.5500 5613.00 5194.16 75.00
6077 38.5560 5649.00 5275.32 75.00
6078 38.5620 5282.00 5194.17 73.00
6079 38.5680 4771.00 4929.50 69.00
6080 38.5740 4496.00 4625.12 67.00
6081 38.5800 4388.00 4444.10 66.00
6082 38.5860 4404.00 4468.31 66.00
6083 38.5920 4631.00 4736.33 68.00
6084 38.5980 5147.00 5245.25 72.00
6085 38.6040 5853.00 5890.51 77.00
6086 38.6100 6189.00 6384.73 79.00
6087 38.6160 6001.00 6388.05 77.00
6088 38.6220 5582.00 5881.63 75.00
6089 38.6280 4915.00 5182.75 70.00
6090 38.6340 4374.00 4573.55 66.00
6091 38.6400 4109.00 4148.56 64.00
6092 38.6460 3955.00 3887.96 63.00
6093 38.6520 3780.00 3738.05 61.00
6094 38.6580 3699.00 3650.95 61.00
6095 38.6640 3662.00 3596.42 61.00
6096 38.6700 3712.00 3558.94 61.00
6097 38.6760 3756.00 3531.22 61.00
6098 38.6820 3663.00 3508.37 61.00
6099 38.6880 3575.00 3489.92 60.00
6100 38.6940 3553.00 3476.33 60.00
6101 38.7000 3626.00 3465.18 60.00
6102 38.7060 3637.00 3455.90 60.00
6103 38.7120 3614.00 3448.08 60.00
6104 38.7180 3612.00 3441.42 60.00
6105 38.7240 3689.00 3435.68 61.00
6106 38.7300 3752.00 3430.70 61.00
6107 38.7360 3758.00 3426.34 61.00
6108 38.7420 3696.00 3423.24 61.00
6109 38.7480 3614.00 3419.87 60.00
6110 38.7540 3630.00 3417.87 60.00
6111 38.7600 3707.00 3415.24 61.00
6112 38.7660 3602.00 3412.89 60.00
6113 38.7720 3588.00 3410.80 60.00
6114 38.7780 3598.00 3408.93 60.00
6115 38.7840 3626.00 3407.26 60.00
6116 38.7900 3616.00 3404.35 60.00
6117 38.7960 3588.00 3403.14 60.00
6118 38.8020 3586.00 3402.13 60.00
6119 38.8080 3527.00 3405.94 59.00
6120 38.8140 3469.00 3405.77 59.00
6121 38.8200 3481.00 3403.52 59.00
6122 38.8260 3586.00 3404.50 60.00
6123 38.8320 3625.00 3406.65 60.00
6124 38.8380 3584.00 3410.85 60.00
6125 38.8440 3597.00 3418.06 60.00
6126 38.8500 3580.00 3428.68 60.00
6127 38.8560 3611.00 3441.19 60.00
6128 38.8620 3682.00 3448.35 61.00
6129 38.8680 3649.00 3444.10 60.00
6130 38.8740 3565.00 3435.63 60.00
6131 38.8800 3592.00 3426.06 60.00
6132 38.8860 3709.00 3418.10 61.00
6133 38.8920 3788.00 3413.63 62.00
6134 38.8980 3734.00 3412.00 61.00
6135 38.9040 3704.00 3412.30 61.00
6136 38.9100 3702.00 3413.84 61.00
6137 38.9160 3598.00 3416.28 60.00
6138 38.9220 3570.00 3419.55 60.00
6139 38.9280 3645.00 3423.70 60.00
6140 38.9340 3628.00 3428.88 60.00
6141 38.9400 3549.00 3435.38 60.00
6142 38.9460 3547.00 3446.74 60.00
6143 38.9520 3653.00 3457.68 60.00
6144 38.9580 3735.00 3475.20 61.00
6145 38.9640 3799.00 3497.79 62.00
6146 38.9700 3862.00 3533.99 62.00
6147 38.9760 3885.00 3593.66 62.00
6148 38.9820 3986.00 3687.79 63.00
6149 38.9880 4267.00 3822.47 65.00
6150 38.9940 4509.00 3982.46 67.00
6151 39.0000 4559.00 4116.60 68.00
6152 39.0060 4400.00 4171.56 66.00
6153 39.0120 4207.00 4129.36 65.00
6154 39.0180 4095.00 4029.61 64.00
6155 39.0240 4045.00 3954.11 64.00
6156 39.0300 4031.00 3962.57 63.00
6157 39.0360 4225.00 4097.43 65.00
6158 39.0420 4641.00 4396.45 68.00
6159 39.0480 5413.00 4881.11 74.00
6160 39.0540 6380.00 5474.29 80.00
6161 39.0600 6552.00 5947.15 81.00
6162 39.0660 5845.00 5935.43 76.00
6163 39.0720 5098.00 5464.92 71.00
6164 39.0780 4628.00 4893.58 68.00
6165 39.0840 4296.00 4446.90 66.00
6166 39.0900 4216.00 4181.51 65.00
6167 39.0960 4219.00 4088.51 65.00
6168 39.1020 4182.00 4155.30 65.00
6169 39.1080 4311.00 4388.92 66.00
6170 39.1140 4811.00 4812.34 69.00
6171 39.1200 5671.00 5359.97 75.00
6172 39.1260 6088.00 5857.98 78.00
6173 39.1320 5700.00 5970.23 75.00
6174 39.1380 4964.00 5595.50 70.00
6175 39.1440 4396.00 5026.18 66.00
6176 39.1500 4162.00 4529.36 65.00
6177 39.1560 4106.00 4192.36 64.00
6178 39.1620 4050.00 4006.56 64.00
6179 39.1680 4048.00 3938.34 64.00
6180 39.1740 4089.00 3966.44 64.00
6181 39.1800 4244.00 4095.79 65.00
6182 39.1860 4567.00 4348.82 68.00
6183 39.1920 4909.00 4737.15 70.00
6184 39.1980 5308.00 5207.65 73.00
6185 39.2040 5846.00 5579.96 76.00
6186 39.2100 5851.00 5658.04 76.00
6187 39.2160 5357.00 5424.33 73.00
6188 39.2220 4985.00 4999.52 71.00
6189 39.2280 4539.00 4575.86 67.00
6190 39.2340 4343.00 4258.52 66.00
6191 39.2400 4231.00 4055.58 65.00
6192 39.2460 4198.00 3950.37 65.00
6193 39.2520 4334.00 3915.89 66.00
6194 39.2580 4249.00 3926.98 65.00
6195 39.2640 4259.00 3976.11 65.00
6196 39.2700 4387.00 4084.43 66.00
6197 39.2760 4614.00 4292.72 68.00
6198 39.2820 4985.00 4664.57 71.00
6199 39.2880 5606.00 5281.07 75.00
6200 39.2940 6590.00 6175.32 81.00
6201 39.3000 7934.00 7234.37 89.00
6202 39.3060 9031.00 8086.51 95.00
6203 39.3120 8956.00 8349.41 95.00
6204 39.3180 7961.00 7989.40 89.00
6205 39.3240 6842.00 7161.30 83.00
6206 39.3300 5946.00 6284.40 77.00
6207 39.3360 5662.00 5702.36 75.00
6208 39.3420 5530.00 5556.19 74.00
6209 39.3480 5935.00 5891.21 77.00
6210 39.3540 7277.00 6690.89 85.00
6211 39.3600 9092.00 7802.38 95.00
6212 39.3660 9719.00 8752.94 99.00
6213 39.3720 8432.00 8806.01 92.00
6214 39.3780 6846.00 7868.81 83.00
6215 39.3840 5778.00 6627.14 76.00
6216 39.3900 5067.00 5580.96 71.00
6217 39.3960 4691.00 4867.67 68.00
6218 39.4020 4583.00 4444.08 68.00
6219 39.4080 4503.00 4213.28 67.00
6220 39.4140 4483.00 4092.94 67.00
6221 39.4200 4340.00 4032.83 66.00
6222 39.4260 4352.00 4008.27 66.00
6223 39.4320 4386.00 4009.47 66.00
6224 39.4380 4403.00 4033.48 66.00
6225 39.4440 4404.00 4081.26 66.00
6226 39.4500 4431.00 4157.36 67.00
6227 39.4560 4662.00 4272.04 68.00
6228 39.4620 5051.00 4448.03 71.00
6229 39.4680 5353.00 4726.99 73.00
6230 39.4740 5919.00 5200.83 77.00
6231 39.4800 6604.00 6012.14 81.00
6232 39.4860 8002.00 7332.85 89.00
6233 39.4920 10313.00 9291.60 102.00
6234 39.4980 13166.00 11744.10 115.00
6235 39.5040 15491.00 14130.40 124.00
6236 39.5100 16536.00 15622.80 129.00
6237 39.5160 15355.00 15594.80 124.00
6238 39.5220 12869.00 14147.10 113.00
6239 39.5280 11103.00 12277.90 105.00
6240 39.5340 10392.00 10991.60 102.00
6241 39.5400 10587.00 10523.50 103.00
6242 39.5460 10723.00 10425.20 104.00
6243 39.5520 10253.00 10124.00 101.00
6244 39.5580 9130.00 9305.66 96.00
6245 39.5640 7432.00 8044.80 86.00
6246 39.5700 6196.00 6734.51 79.00
6247 39.5760 5449.00 5687.27 74.00
6248 39.5820 4996.00 4959.82 71.00
6249 39.5880 4583.00 4504.30 68.00
6250 39.5940 4267.00 4225.92 65.00
6251 39.6000 4169.00 4051.43 65.00
6252 39.6060 4052.00 3934.37 64.00
6253 39.6120 4013.00 3850.08 63.00
6254 39.6180 4020.00 3786.28 63.00
6255 39.6240 3968.00 3736.64 63.00
6256 39.6300 3877.00 3691.65 62.00
6257 39.6360 3869.00 3654.83 62.00
6258 39.6420 3845.00 3631.25 62.00
6259 39.6480 3849.00 3613.33 62.00
6260 39.6540 3707.00 3600.47 61.00
6261 39.6600 3802.00 3597.95 62.00
6262 39.6660 3727.00 3594.93 61.00
6263 39.6720 3828.00 3597.20 62.00
6264 39.6780 3779.00 3606.00 61.00
6265 39.6840 3717.00 3623.82 61.00
6266 39.6900 3813.00 3655.28 62.00
6267 39.6960 3833.00 3707.52 62.00
6268 39.7020 4020.00 3789.92 63.00
6269 39.7080 4102.00 3913.07 64.00
6270 39.7140 4372.00 4085.78 66.00
6271 39.7200 4448.00 4313.64 67.00
6272 39.7260 4824.00 4625.90 69.00
6273 39.7320 5625.00 5096.07 75.00
6274 39.7380 6645.00 5758.51 82.00
6275 39.7440 8024.00 6523.54 90.00
6276 39.7500 8219.00 7117.91 91.00
6277 39.7560 6957.00 7116.53 83.00
6278 39.7620 5878.00 6448.92 77.00
6279 39.7680 5018.00 5557.29 71.00
6280 39.7740 4570.00 4806.34 68.00
6281 39.7800 4263.00 4276.97 65.00
6282 39.7860 4003.00 3950.51 63.00
6283 39.7920 3930.00 3768.93 63.00
6284 39.7980 3951.00 3665.02 63.00
6285 39.8040 3756.00 3601.59 61.00
6286 39.8100 3636.00 3553.82 60.00
6287 39.8160 3637.00 3524.45 60.00
6288 39.8220 3699.00 3496.94 61.00
6289 39.8280 3599.00 3480.52 60.00
6290 39.8340 3508.00 3470.89 59.00
6291 39.8400 3638.00 3465.45 60.00
6292 39.8460 3693.00 3463.88 61.00
6293 39.8520 3647.00 3466.21 60.00
6294 39.8580 3569.00 3472.81 60.00
6295 39.8640 3629.00 3484.58 60.00
6296 39.8700 3702.00 3503.33 61.00
6297 39.8760 3654.00 3532.96 60.00
6298 39.8820 3719.00 3582.17 61.00
6299 39.8880 3745.00 3669.05 61.00
6300 39.8940 3853.00 3824.97 62.00
6301 39.9000 4250.00 4090.75 65.00
6302 39.9060 4866.00 4496.52 70.00
6303 39.9120 5780.00 5021.34 76.00
6304 39.9180 5875.00 5517.55 77.00
6305 39.9240 5472.00 5672.41 74.00
6306 39.9300 4829.00 5352.52 69.00
6307 39.9360 4441.00 4820.61 67.00
6308 39.9420 4093.00 4338.61 64.00
6309 39.9480 3939.00 3994.93 63.00
6310 39.9540 3903.00 3784.73 62.00
6311 39.9600 3751.00 3670.59 61.00
6312 39.9660 3685.00 3615.64 61.00
6313 39.9720 3735.00 3596.84 61.00
6314 39.9780 3799.00 3606.67 62.00
6315 39.9840 3937.00 3650.79 63.00
6316 39.9900 4035.00 3748.81 64.00
6317 39.9960 4120.00 3926.50 64.00
6318 40.0020 4386.00 4205.21 66.00
6319 40.0080 4836.00 4574.50 70.00
6320 40.0140 5221.00 4938.66 72.00
6321 40.0200 5312.00 5119.89 73.00
6322 40.0260 5028.00 5040.54 71.00
6323 40.0320 4578.00 4731.27 68.00
6324 40.0380 4223.00 4338.80 65.00
6325 40.0440 3997.00 4001.06 63.00
6326 40.0500 3681.00 3763.23 61.00
6327 40.0560 3623.00 3614.36 60.00
6328 40.0620 3552.00 3527.01 60.00
6329 40.0680 3495.00 3475.98 59.00
6330 40.0740 3522.00 3444.57 59.00
6331 40.0800 3489.00 3423.71 59.00
6332 40.0860 3439.00 3409.07 59.00
6333 40.0920 3447.00 3398.58 59.00
6334 40.0980 3425.00 3391.21 59.00
6335 40.1040 3415.00 3386.40 58.00
6336 40.1100 3513.00 3383.85 59.00
6337 40.1160 3444.00 3383.51 59.00
6338 40.1220 3401.00 3385.51 58.00
6339 40.1280 3373.00 3390.30 58.00
6340 40.1340 3530.00 3399.97 59.00
6341 40.1400 3506.00 3415.09 59.00
6342 40.1460 3483.00 3439.89 59.00
6343 40.1520 3654.00 3487.75 60.00
6344 40.1580 3730.00 3565.34 61.00
6345 40.1640 3796.00 3696.73 62.00
6346 40.1700 4050.00 3889.30 64.00
6347 40.1760 4324.00 4134.00 66.00
6348 40.1820 4567.00 4363.71 68.00
6349 40.1880 4520.00 4471.37 67.00
6350 40.1940 4236.00 4426.74 65.00
6351 40.2000 4020.00 4239.12 63.00
6352 40.2060 3711.00 3988.54 61.00
6353 40.2120 3557.00 3766.70 60.00
6354 40.2180 3511.00 3607.71 59.00
6355 40.2240 3427.00 3506.79 59.00
6356 40.2300 3383.00 3447.22 58.00
6357 40.2360 3445.00 3412.59 59.00
6358 40.2420 3429.00 3395.37 59.00
6359 40.2480 3448.00 3384.02 59.00
6360 40.2540 3447.00 3375.82 59.00
6361 40.2600 3472.00 3369.36 59.00
6362 40.2660 3459.00 3364.87 59.00
6363 40.2720 3534.00 3361.91 59.00
6364 40.2780 3441.00 3360.22 59.00
6365 40.2840 3370.00 3357.24 58.00
6366 40.2900 3394.00 3357.74 58.00
6367 40.2960 3403.00 3356.98 58.00
6368 40.3020 3422.00 3359.40 58.00
6369 40.3080 3416.00 3362.87 58.00
6370 40.3140 3447.00 3367.51 59.00
6371 40.3200 3375.00 3373.51 58.00
6372 40.3260 3367.00 3381.14 58.00
6373 40.3320 3496.00 3390.80 59.00
6374 40.3380 3459.00 3403.05 59.00
6375 40.3440 3452.00 3418.73 59.00
6376 40.3500 3506.00 3439.34 59.00
6377 40.3560 3581.00 3467.19 60.00
6378 40.3620 3558.00 3507.42 60.00
6379 40.3680 3652.00 3569.07 60.00
6380 40.3740 3774.00 3667.57 61.00
6381 40.3800 3857.00 3824.44 62.00
6382 40.3860 4100.00 4063.88 64.00
6383 40.3920 4543.00 4401.03 67.00
6384 40.3980 5008.00 4816.20 71.00
6385 40.4040 5447.00 5252.65 74.00
6386 40.4100 6089.00 5689.88 78.00
6387 40.4160 6885.00 6086.95 83.00
6388 40.4220 6884.00 6237.17 83.00
6389 40.4280 5856.00 5971.33 77.00
6390 40.4340 5040.00 5407.96 71.00
6391 40.4400 4492.00 4807.80 67.00
6392 40.4460 4122.00 4335.75 64.00
6393 40.4520 3966.00 4024.47 63.00
6394 40.4580 3894.00 3850.60 62.00
6395 40.4640 3891.00 3772.95 62.00
6396 40.4700 3830.00 3770.31 62.00
6397 40.4760 3902.00 3841.38 62.00
6398 40.4820 4233.00 4010.89 65.00
6399 40.4880 4673.00 4317.50 68.00
6400 40.4940 5011.00 4786.37 71.00
6401 40.5000 5832.00 5378.36 76.00
6402 40.5060 6536.00 5916.24 81.00
6403 40.5120 6363.00 6107.14 80.00
6404 40.5180 5594.00 5813.55 75.00
6405 40.5240 4931.00 5227.29 70.00
6406 40.5300 4378.00 4629.40 66.00
6407 40.5360 4130.00 4165.93 64.00
6408 40.5420 3936.00 3857.59 63.00
6409 40.5480 3835.00 3670.76 62.00
6410 40.5540 3768.00 3561.59 61.00
6411 40.5600 3721.00 3495.93 61.00
6412 40.5660 3758.00 3453.45 61.00
6413 40.5720 3721.00 3423.85 61.00
6414 40.5780 3568.00 3402.45 60.00
6415 40.5840 3460.00 3387.40 59.00
6416 40.5900 3616.00 3378.34 60.00
6417 40.5960 3606.00 3375.70 60.00
6418 40.6020 3558.00 3379.90 60.00
6419 40.6080 3452.00 3389.89 59.00
6420 40.6140 3473.00 3400.79 59.00
6421 40.6200 3462.00 3403.88 59.00
6422 40.6260 3341.00 3394.36 58.00
6423 40.6320 3295.00 3374.81 57.00
6424 40.6380 3482.00 3351.66 59.00
6425 40.6440 3337.00 3331.44 58.00
6426 40.6500 3272.00 3318.66 57.00
6427 40.6560 3262.00 3310.86 57.00
6428 40.6620 3305.00 3303.88 57.00
6429 40.6680 3434.00 3298.96 59.00
6430 40.6740 3277.00 3293.50 57.00
6431 40.6800 3291.00 3290.59 57.00
6432 40.6860 3363.00 3288.16 58.00
6433 40.6920 3389.00 3282.29 58.00
6434 40.6980 3351.00 3278.14 58.00
6435 40.7040 3321.00 3276.82 58.00
6436 40.7100 3326.00 3275.68 58.00
6437 40.7160 3349.00 3278.63 58.00
6438 40.7220 3273.00 3277.98 57.00
6439 40.7280 3231.00 3277.48 57.00
6440 40.7340 3172.00 3277.13 56.00
6441 40.7400 3223.00 3276.92 57.00
6442 40.7460 3352.00 3276.87 58.00
6443 40.7520 3171.00 3276.96 56.00
6444 40.7580 3273.00 3277.22 57.00
6445 40.7640 3331.00 3277.65 58.00
6446 40.7700 3252.00 3278.28 57.00
6447 40.7760 3432.00 3277.72 59.00
6448 40.7820 3473.00 3278.89 59.00
6449 40.7880 3320.00 3277.45 58.00
6450 40.7940 3314.00 3279.50 58.00
6451 40.8000 3357.00 3282.80 58.00
6452 40.8060 3330.00 3287.12 58.00
6453 40.8120 3427.00 3290.61 59.00
6454 40.8180 3445.00 3294.75 59.00
6455 40.8240 3406.00 3300.32 58.00
6456 40.8300 3379.00 3306.29 58.00
6457 40.8360 3512.00 3313.54 59.00
6458 40.8420 3476.00 3322.43 59.00
6459 40.8480 3497.00 3333.51 59.00
6460 40.8540 3536.00 3347.62 59.00
6461 40.8600 3485.00 3366.15 59.00
6462 40.8660 3503.00 3391.59 59.00
6463 40.8720 3504.00 3428.59 59.00
6464 40.8780 3631.00 3485.71 60.00
6465 40.8840 3721.00 3578.04 61.00
6466 40.8900 3697.00 3727.93 61.00
6467 40.8960 3836.00 3960.29 62.00
6468 40.9020 4521.00 4293.17 67.00
6469 40.9080 4829.00 4704.37 69.00
6470 40.9140 5413.00 5109.09 74.00
6471 40.9200 5334.00 5308.54 73.00
6472 40.9260 4786.00 5160.67 69.00
6473 40.9320 4272.00 4774.84 65.00
6474 40.9380 4015.00 4368.96 63.00
6475 40.9440 3976.00 4066.89 63.00
6476 40.9500 3775.00 3902.52 61.00
6477 40.9560 3894.00 3875.73 62.00
6478 40.9620 4014.00 3981.60 63.00
6479 40.9680 4293.00 4213.27 66.00
6480 40.9740 4452.00 4541.91 67.00
6481 40.9800 4664.00 4866.57 68.00
6482 40.9860 4520.00 4988.75 67.00
6483 40.9920 4347.00 4798.22 66.00
6484 40.9980 4081.00 4450.70 64.00
6485 41.0040 3890.00 4121.39 62.00
6486 41.0100 3885.00 3888.47 62.00
6487 41.0160 3893.00 3763.77 62.00
6488 41.0220 3881.00 3738.73 62.00
6489 41.0280 3923.00 3804.62 63.00
6490 41.0340 4038.00 3956.72 64.00
6491 41.0400 4364.00 4182.46 66.00
6492 41.0460 4493.00 4433.14 67.00
6493 41.0520 4468.00 4607.10 67.00
6494 41.0580 4522.00 4656.38 67.00
6495 41.0640 4765.00 4663.56 69.00
6496 41.0700 4755.00 4677.97 69.00
6497 41.0760 4564.00 4631.13 68.00
6498 41.0820 4376.00 4473.62 66.00
6499 41.0880 4175.00 4271.27 65.00
6500 41.0940 4123.00 4083.88 64.00
6501 41.1000 3817.00 3911.74 62.00
6502 41.1060 3618.00 3759.42 60.00
6503 41.1120 3613.00 3645.01 60.00
6504 41.1180 3637.00 3572.76 60.00
6505 41.1240 3563.00 3538.24 60.00
6506 41.1300 3529.00 3538.36 59.00
6507 41.1360 3613.00 3577.87 60.00
6508 41.1420 3705.00 3672.60 61.00
6509 41.1480 3939.00 3847.94 63.00
6510 41.1540 4358.00 4126.43 66.00
6511 41.1600 4879.00 4502.88 70.00
6512 41.1660 5563.00 4899.43 75.00
6513 41.1720 5509.00 5121.24 74.00
6514 41.1780 4875.00 4997.04 70.00
6515 41.1840 4346.00 4630.00 66.00
6516 41.1900 3962.00 4231.83 63.00
6517 41.1960 3646.00 3914.94 60.00
6518 41.2020 3523.00 3704.73 59.00
6519 41.2080 3458.00 3582.64 59.00
6520 41.2140 3533.00 3522.77 59.00
6521 41.2200 3565.00 3505.22 60.00
6522 41.2260 3469.00 3520.91 59.00
6523 41.2320 3633.00 3569.87 60.00
6524 41.2380 3616.00 3657.41 60.00
6525 41.2440 3610.00 3786.95 60.00
6526 41.2500 3797.00 3955.41 62.00
6527 41.2560 4151.00 4165.97 64.00
6528 41.2620 4744.00 4409.03 69.00
6529 41.2680 4962.00 4609.90 70.00
6530 41.2740 4585.00 4614.06 68.00
6531 41.2800 4188.00 4396.90 65.00
6532 41.2860 3871.00 4103.21 62.00
6533 41.2920 3710.00 3854.11 61.00
6534 41.2980 3681.00 3683.41 61.00
6535 41.3040 3496.00 3594.46 59.00
6536 41.3100 3586.00 3578.67 60.00
6537 41.3160 3684.00 3632.46 61.00
6538 41.3220 3694.00 3759.86 61.00
6539 41.3280 3947.00 3960.12 63.00
6540 41.3340 4156.00 4212.29 64.00
6541 41.3400 4291.00 4430.50 66.00
6542 41.3460 4323.00 4503.46 66.00
6543 41.3520 4101.00 4393.26 64.00
6544 41.3580 3831.00 4157.77 62.00
6545 41.3640 3642.00 3894.10 60.00
6546 41.3700 3407.00 3677.90 58.00
6547 41.3760 3378.00 3529.53 58.00
6548 41.3820 3409.00 3438.62 58.00
6549 41.3880 3349.00 3387.03 58.00
6550 41.3940 3334.00 3357.30 58.00
6551 41.4000 3335.00 3335.96 58.00
6552 41.4060 3345.00 3316.69 58.00
6553 41.4120 3257.00 3299.63 57.00
6554 41.4180 3248.00 3285.89 57.00
6555 41.4240 3287.00 3275.57 57.00
6556 41.4300 3370.00 3268.17 58.00
6557 41.4360 3422.00 3263.01 58.00
6558 41.4420 3418.00 3259.51 58.00
6559 41.4480 3312.00 3255.15 58.00
6560 41.4540 3198.00 3251.90 57.00
6561 41.4600 3027.00 3251.74 55.00
6562 41.4660 3019.00 3252.43 55.00
6563 41.4720 3166.00 3254.07 56.00
6564 41.4780 3291.00 3256.70 57.00
6565 41.4840 3270.00 3260.49 57.00
6566 41.4900 3211.00 3265.66 57.00
6567 41.4960 3269.00 3276.55 57.00
6568 41.5020 3297.00 3285.83 57.00
6569 41.5080 3308.00 3298.19 58.00
6570 41.5140 3264.00 3315.15 57.00
6571 41.5200 3302.00 3339.89 57.00
6572 41.5260 3400.00 3378.45 58.00
6573 41.5320 3508.00 3443.68 59.00
6574 41.5380 3476.00 3553.17 59.00
6575 41.5440 3757.00 3726.98 61.00
6576 41.5500 4068.00 3971.71 64.00
6577 41.5560 4420.00 4270.43 66.00
6578 41.5620 4678.00 4527.13 68.00
6579 41.5680 4482.00 4591.36 67.00
6580 41.5740 4155.00 4432.21 64.00
6581 41.5800 3931.00 4183.55 63.00
6582 41.5860 3854.00 3971.56 62.00
6583 41.5920 3836.00 3859.46 62.00
6584 41.5980 3877.00 3875.36 62.00
6585 41.6040 4155.00 4034.70 64.00
6586 41.6100 4546.00 4342.29 67.00
6587 41.6160 5216.00 4769.35 72.00
6588 41.6220 5779.00 5203.47 76.00
6589 41.6280 5709.00 5436.21 76.00
6590 41.6340 5146.00 5308.24 72.00
6591 41.6400 4419.00 4897.66 66.00
6592 41.6460 3950.00 4420.66 63.00
6593 41.6520 3760.00 4022.19 61.00
6594 41.6580 3629.00 3742.40 60.00
6595 41.6640 3539.00 3566.06 59.00
6596 41.6700 3421.00 3462.16 58.00
6597 41.6760 3369.00 3401.62 58.00
6598 41.6820 3340.00 3365.29 58.00
6599 41.6880 3342.00 3342.53 58.00
6600 41.6940 3352.00 3328.28 58.00
6601 41.7000 3286.00 3320.31 57.00
6602 41.7060 3233.00 3317.80 57.00
6603 41.7120 3283.00 3320.83 57.00
6604 41.7180 3324.00 3330.53 58.00
6605 41.7240 3361.00 3350.06 58.00
6606 41.7300 3418.00 3386.51 58.00
6607 41.7360 3506.00 3453.62 59.00
6608 41.7420 3556.00 3572.94 60.00
6609 41.7480 3751.00 3770.90 61.00
6610 41.7540 4333.00 4058.58 66.00
6611 41.7600 5014.00 4415.12 71.00
6612 41.7660 5376.00 4737.62 73.00
6613 41.7720 5079.00 4832.81 71.00
6614 41.7780 4489.00 4624.19 67.00
6615 41.7840 4046.00 4268.71 64.00
6616 41.7900 3719.00 3928.19 61.00
6617 41.7960 3518.00 3672.02 59.00
6618 41.8020 3484.00 3503.82 59.00
6619 41.8080 3416.00 3402.57 58.00
6620 41.8140 3333.00 3343.62 58.00
6621 41.8200 3394.00 3308.20 58.00
6622 41.8260 3360.00 3285.24 58.00
6623 41.8320 3218.00 3269.20 57.00
6624 41.8380 3213.00 3257.45 57.00
6625 41.8440 3319.00 3245.79 58.00
6626 41.8500 3321.00 3239.40 58.00
6627 41.8560 3250.00 3234.59 57.00
6628 41.8620 3241.00 3231.56 57.00
6629 41.8680 3322.00 3229.96 58.00
6630 41.8740 3353.00 3229.78 58.00
6631 41.8800 3220.00 3231.25 57.00
6632 41.8860 3198.00 3234.94 57.00
6633 41.8920 3296.00 3242.18 57.00
6634 41.8980 3299.00 3255.57 57.00
6635 41.9040 3322.00 3280.92 58.00
6636 41.9100 3333.00 3315.87 58.00
6637 41.9160 3326.00 3374.40 58.00
6638 41.9220 3372.00 3444.21 58.00
6639 41.9280 3343.00 3508.73 58.00
6640 41.9340 3361.00 3532.54 58.00
6641 41.9400 3397.00 3499.85 58.00
6642 41.9460 3365.00 3439.52 58.00
6643 41.9520 3333.00 3383.14 58.00
6644 41.9580 3376.00 3343.94 58.00
6645 41.9640 3402.00 3323.45 58.00
6646 41.9700 3372.00 3318.67 58.00
6647 41.9760 3360.00 3326.21 58.00
6648 41.9820 3400.00 3344.75 58.00
6649 41.9880 3392.00 3376.44 58.00
6650 41.9940 3453.00 3427.66 59.00
6651 42.0000 3550.00 3509.60 60.00
6652 42.0060 3712.00 3633.69 61.00
6653 42.0120 3802.00 3811.98 62.00
6654 42.0180 3879.00 4041.90 62.00
6655 42.0240 4126.00 4302.90 64.00
6656 42.0300 4395.00 4554.97 66.00
6657 42.0360 4689.00 4831.59 68.00
6658 42.0420 5287.00 5244.80 73.00
6659 42.0480 6390.00 5833.85 80.00
6660 42.0540 7342.00 6458.61 86.00
6661 42.0600 7154.00 6805.56 85.00
6662 42.0660 6144.00 6608.92 78.00
6663 42.0720 5152.00 5960.85 72.00
6664 42.0780 4480.00 5194.36 67.00
6665 42.0840 4076.00 4548.53 64.00
6666 42.0900 3854.00 4089.88 62.00
6667 42.0960 3715.00 3801.14 61.00
6668 42.1020 3605.00 3630.88 60.00
6669 42.1080 3575.00 3534.07 60.00
6670 42.1140 3583.00 3478.95 60.00
6671 42.1200 3578.00 3447.96 60.00
6672 42.1260 3520.00 3433.15 59.00
6673 42.1320 3586.00 3432.92 60.00
6674 42.1380 3624.00 3447.97 60.00
6675 42.1440 3729.00 3485.48 61.00
6676 42.1500 3808.00 3555.90 62.00
6677 42.1560 3924.00 3684.08 63.00
6678 42.1620 4200.00 3900.20 65.00
6679 42.1680 4682.00 4230.14 68.00
6680 42.1740 5230.00 4670.32 72.00
6681 42.1800 5735.00 5142.70 76.00
6682 42.1860 5860.00 5474.96 77.00
6683 42.1920 5433.00 5510.82 74.00
6684 42.1980 4794.00 5227.30 69.00
6685 42.2040 4312.00 4768.73 66.00
6686 42.2100 4045.00 4325.99 64.00
6687 42.2160 3843.00 3990.13 62.00
6688 42.2220 3754.00 3768.29 61.00
6689 42.2280 3709.00 3631.72 61.00
6690 42.2340 3664.00 3553.38 61.00
6691 42.2400 3657.00 3516.62 60.00
6692 42.2460 3669.00 3513.80 61.00
6693 42.2520 3781.00 3545.94 61.00
6694 42.2580 3880.00 3621.88 62.00
6695 42.2640 4184.00 3756.37 65.00
6696 42.2700 4439.00 3965.41 67.00
6697 42.2760 4739.00 4254.87 69.00
6698 42.2820 5112.00 4607.87 71.00
6699 42.2880 5356.00 4994.12 73.00
6700 42.2940 5360.00 5363.23 73.00
6701 42.3000 5424.00 5626.51 74.00
6702 42.3060 5198.00 5656.16 72.00
6703 42.3120 4813.00 5385.79 69.00
6704 42.3180 4426.00 4924.89 67.00
6705 42.3240 4219.00 4460.02 65.00
6706 42.3300 4036.00 4104.61 64.00
6707 42.3360 3942.00 3890.23 63.00
6708 42.3420 4045.00 3805.54 64.00
6709 42.3480 4198.00 3836.11 65.00
6710 42.3540 4419.00 3965.24 66.00
6711 42.3600 4596.00 4149.91 68.00
6712 42.3660 4562.00 4314.83 68.00
6713 42.3720 4479.00 4368.75 67.00
6714 42.3780 4320.00 4288.63 66.00
6715 42.3840 4198.00 4153.28 65.00
6716 42.3900 4116.00 4070.44 64.00
6717 42.3960 4310.00 4103.01 66.00
6718 42.4020 4554.00 4261.56 67.00
6719 42.4080 4994.00 4500.61 71.00
6720 42.4140 5252.00 4714.57 72.00
6721 42.4200 5103.00 4786.81 71.00
6722 42.4260 4648.00 4660.75 68.00
6723 42.4320 4229.00 4375.41 65.00
6724 42.4380 4075.00 4045.82 64.00
6725 42.4440 3744.00 3763.85 61.00
6726 42.4500 3568.00 3559.36 60.00
6727 42.4560 3482.00 3425.30 59.00
6728 42.4620 3467.00 3342.20 59.00
6729 42.4680 3449.00 3288.47 59.00
6730 42.4740 3345.00 3255.62 58.00
6731 42.4800 3242.00 3229.86 57.00
6732 42.4860 3267.00 3213.33 57.00
6733 42.4920 3310.00 3200.72 58.00
6734 42.4980 3313.00 3190.94 58.00
6735 42.5040 3348.00 3183.41 58.00
6736 42.5100 3308.00 3177.72 58.00
6737 42.5160 3306.00 3174.11 57.00
6738 42.5220 3262.00 3172.79 57.00
6739 42.5280 3281.00 3174.59 57.00
6740 42.5340 3418.00 3180.72 58.00
6741 42.5400 3432.00 3192.39 59.00
6742 42.5460 3379.00 3210.02 58.00
6743 42.5520 3382.00 3231.58 58.00
6744 42.5580 3444.00 3251.09 59.00
6745 42.5640 3395.00 3261.31 58.00
6746 42.5700 3351.00 3264.90 58.00
6747 42.5760 3526.00 3271.85 59.00
6748 42.5820 3452.00 3298.07 59.00
6749 42.5880 3537.00 3346.42 59.00
6750 42.5940 3764.00 3415.22 61.00
6751 42.6000 3740.00 3482.12 61.00
6752 42.6060 3680.00 3500.55 61.00
6753 42.6120 3524.00 3451.35 59.00
6754 42.6180 3461.00 3367.76 59.00
6755 42.6240 3338.00 3287.09 58.00
6756 42.6300 3266.00 3224.91 57.00
6757 42.6360 3199.00 3182.83 57.00
6758 42.6420 3269.00 3156.65 57.00
6759 42.6480 3247.00 3140.86 57.00
6760 42.6540 3147.00 3129.92 56.00
6761 42.6600 3147.00 3122.16 56.00
6762 42.6660 3202.00 3117.58 57.00
6763 42.6720 3166.00 3114.24 56.00
6764 42.6780 3083.00 3111.92 56.00
6765 42.6840 3171.00 3110.61 56.00
6766 42.6900 3223.00 3110.39 57.00
6767 42.6960 3205.00 3110.34 57.00
6768 42.7020 3207.00 3110.92 57.00
6769 42.7080 3148.00 3110.93 56.00
6770 42.7140 3145.00 3109.65 56.00
6771 42.7200 3084.00 3106.78 56.00
6772 42.7260 3110.00 3102.96 56.00
6773 42.7320 3267.00 3099.49 57.00
6774 42.7380 3192.00 3096.83 56.00
6775 42.7440 3167.00 3095.03 56.00
6776 42.7500 3121.00 3093.91 56.00
6777 42.7560 3156.00 3095.20 56.00
6778 42.7620 3206.00 3095.41 57.00
6779 42.7680 3158.00 3096.12 56.00
6780 42.7740 3097.00 3097.10 56.00
6781 42.7800 3083.00 3098.37 56.00
6782 42.7860 3131.00 3108.48 56.00
6783 42.7920 3183.00 3110.92 56.00
6784 42.7980 3233.00 3114.03 57.00
6785 42.8040 3171.00 3118.16 56.00
6786 42.8100 3171.00 3123.94 56.00
6787 42.8160 3203.00 3132.46 57.00
6788 42.8220 3278.00 3145.25 57.00
6789 42.8280 3298.00 3164.12 57.00
6790 42.8340 3360.00 3190.49 58.00
6791 42.8400 3351.00 3224.31 58.00
6792 42.8460 3439.00 3263.09 59.00
6793 42.8520 3415.00 3303.50 58.00
6794 42.8580 3402.00 3344.42 58.00
6795 42.8640 3524.00 3397.82 59.00
6796 42.8700 3606.00 3461.01 60.00
6797 42.8760 3565.00 3513.76 60.00
6798 42.8820 3582.00 3522.42 60.00
6799 42.8880 3361.00 3475.17 58.00
6800 42.8940 3336.00 3394.87 58.00
6801 42.9000 3306.00 3316.21 57.00
6802 42.9060 3309.00 3255.13 58.00
6803 42.9120 3273.00 3214.26 57.00
6804 42.9180 3133.00 3190.01 56.00
6805 42.9240 3162.00 3177.18 56.00
6806 42.9300 3099.00 3171.37 56.00
6807 42.9360 3168.00 3169.76 56.00
6808 42.9420 3074.00 3170.85 55.00
6809 42.9480 3167.00 3174.00 56.00
6810 42.9540 3266.00 3178.97 57.00
6811 42.9600 3137.00 3185.80 56.00
6812 42.9660 3240.00 3194.68 57.00
6813 42.9720 3161.00 3205.98 56.00
6814 42.9780 3202.00 3220.28 57.00
6815 42.9840 3230.00 3238.57 57.00
6816 42.9900 3253.00 3262.65 57.00
6817 42.9960 3340.00 3295.80 58.00
6818 43.0020 3374.00 3344.19 58.00
6819 43.0080 3418.00 3417.65 58.00
6820 43.0140 3479.00 3531.82 59.00
6821 43.0200 3653.00 3695.49 60.00
6822 43.0260 3995.00 3919.42 63.00
6823 43.0320 4276.00 4198.73 65.00
6824 43.0380 4586.00 4495.90 68.00
6825 43.0440 4538.00 4780.32 67.00
6826 43.0500 4922.00 5114.03 70.00
6827 43.0560 5750.00 5591.63 76.00
6828 43.0620 7098.00 6194.21 84.00
6829 43.0680 7794.00 6698.77 88.00
6830 43.0740 6795.00 6749.81 82.00
6831 43.0800 5576.00 6257.59 75.00
6832 43.0860 4763.00 5523.76 69.00
6833 43.0920 4221.00 4846.86 65.00
6834 43.0980 3977.00 4353.90 63.00
6835 43.1040 3935.00 4064.90 63.00
6836 43.1100 3912.00 3958.16 63.00
6837 43.1160 3918.00 4003.60 63.00
6838 43.1220 4287.00 4171.18 65.00
6839 43.1280 4578.00 4415.90 68.00
6840 43.1340 5015.00 4656.46 71.00
6841 43.1400 4995.00 4784.07 71.00
6842 43.1460 4511.00 4726.41 67.00
6843 43.1520 4272.00 4499.94 65.00
6844 43.1580 3939.00 4188.46 63.00
6845 43.1640 3576.00 3890.66 60.00
6846 43.1700 3546.00 3658.45 60.00
6847 43.1760 3427.00 3498.24 59.00
6848 43.1820 3312.00 3396.51 58.00
6849 43.1880 3327.00 3334.23 58.00
6850 43.1940 3316.00 3300.51 58.00
6851 43.2000 3344.00 3276.51 58.00
6852 43.2060 3282.00 3264.55 57.00
6853 43.2120 3256.00 3254.67 57.00
6854 43.2180 3354.00 3249.03 58.00
6855 43.2240 3313.00 3247.22 58.00
6856 43.2300 3221.00 3248.69 57.00
6857 43.2360 3262.00 3253.82 57.00
6858 43.2420 3333.00 3263.18 58.00
6859 43.2480 3250.00 3278.02 57.00
6860 43.2540 3339.00 3300.99 58.00
6861 43.2600 3420.00 3337.29 58.00
6862 43.2660 3490.00 3396.54 59.00
6863 43.2720 3662.00 3493.76 61.00
6864 43.2780 3788.00 3648.35 62.00
6865 43.2840 4153.00 3878.92 64.00
6866 43.2900 4311.00 4191.12 66.00
6867 43.2960 4547.00 4555.54 67.00
6868 43.3020 4747.00 4881.87 69.00
6869 43.3080 5034.00 5100.41 71.00
6870 43.3140 5120.00 5224.21 72.00
6871 43.3200 4812.00 5226.57 69.00
6872 43.3260 4517.00 5039.47 67.00
6873 43.3320 4166.00 4683.43 65.00
6874 43.3380 3898.00 4282.19 62.00
6875 43.3440 3668.00 3937.41 61.00
6876 43.3500 3550.00 3684.73 60.00
6877 43.3560 3395.00 3518.11 58.00
6878 43.3620 3313.00 3410.73 58.00
6879 43.3680 3444.00 3345.28 59.00
6880 43.3740 3392.00 3309.46 58.00
6881 43.3800 3379.00 3287.09 58.00
6882 43.3860 3343.00 3273.45 58.00
6883 43.3920 3196.00 3265.85 57.00
6884 43.3980 3310.00 3263.07 58.00
6885 43.4040 3193.00 3264.43 57.00
6886 43.4100 3360.00 3269.89 58.00
6887 43.4160 3309.00 3280.02 58.00
6888 43.4220 3243.00 3295.14 57.00
6889 43.4280 3388.00 3318.11 58.00
6890 43.4340 3373.00 3349.81 58.00
6891 43.4400 3547.00 3399.70 60.00
6892 43.4460 3519.00 3482.26 59.00
6893 43.4520 3625.00 3619.64 60.00
6894 43.4580 3788.00 3846.29 62.00
6895 43.4640 4243.00 4200.56 65.00
6896 43.4700 4790.00 4705.84 69.00
6897 43.4760 5762.00 5334.60 76.00
6898 43.4820 6652.00 5945.08 82.00
6899 43.4880 6803.00 6297.00 82.00
6900 43.4940 5971.00 6247.77 77.00
6901 43.5000 5109.00 5836.18 71.00
6902 43.5060 4324.00 5236.24 66.00
6903 43.5120 4011.00 4652.82 63.00
6904 43.5180 3682.00 4188.70 61.00
6905 43.5240 3671.00 3861.73 61.00
6906 43.5300 3503.00 3651.80 59.00
6907 43.5360 3507.00 3527.11 59.00
6908 43.5420 3478.00 3459.84 59.00
6909 43.5480 3539.00 3432.87 59.00
6910 43.5540 3447.00 3441.05 59.00
6911 43.5600 3393.00 3487.78 58.00
6912 43.5660 3607.00 3579.57 60.00
6913 43.5720 3843.00 3721.37 62.00
6914 43.5780 4072.00 3897.02 64.00
6915 43.5840 4310.00 4062.21 66.00
6916 43.5900 4273.00 4155.29 65.00
6917 43.5960 4157.00 4157.78 64.00
6918 43.6020 3933.00 4086.27 63.00
6919 43.6080 3701.00 3944.89 61.00
6920 43.6140 3693.00 3774.95 61.00
6921 43.6200 3556.00 3635.28 60.00
6922 43.6260 3497.00 3559.11 59.00
6923 43.6320 3559.00 3542.44 60.00
6924 43.6380 3697.00 3579.82 61.00
6925 43.6440 3665.00 3648.53 61.00
6926 43.6500 3825.00 3711.52 62.00
6927 43.6560 3775.00 3741.36 61.00
6928 43.6620 3686.00 3731.47 61.00
6929 43.6680 3480.00 3671.17 59.00
6930 43.6740 3333.00 3568.89 58.00
6931 43.6800 3410.00 3460.67 58.00
6932 43.6860 3257.00 3372.19 57.00
6933 43.6920 3126.00 3310.20 56.00
6934 43.6980 3101.00 3271.87 56.00
6935 43.7040 3303.00 3251.56 57.00
6936 43.7100 3245.00 3243.99 57.00
6937 43.7160 3264.00 3246.07 57.00
6938 43.7220 3227.00 3257.46 57.00
6939 43.7280 3222.00 3281.29 57.00
6940 43.7340 3434.00 3325.09 59.00
6941 43.7400 3347.00 3401.37 58.00
6942 43.7460 3490.00 3525.67 59.00
6943 43.7520 3818.00 3710.65 62.00
6944 43.7580 4260.00 3953.23 65.00
6945 43.7640 4698.00 4213.56 69.00
6946 43.7700 4824.00 4397.40 69.00
6947 43.7760 4426.00 4404.70 67.00
6948 43.7820 4010.00 4228.68 63.00
6949 43.7880 3607.00 3977.32 60.00
6950 43.7940 3542.00 3739.31 60.00
6951 43.8000 3326.00 3564.42 58.00
6952 43.8060 3489.00 3454.28 59.00
6953 43.8120 3334.00 3399.04 58.00
6954 43.8180 3403.00 3386.27 58.00
6955 43.8240 3574.00 3405.71 60.00
6956 43.8300 3499.00 3453.57 59.00
6957 43.8360 3599.00 3529.24 60.00
6958 43.8420 3702.00 3638.31 61.00
6959 43.8480 3886.00 3793.54 62.00
6960 43.8540 4387.00 4005.40 66.00
6961 43.8600 4766.00 4250.86 69.00
6962 43.8660 4905.00 4483.19 70.00
6963 43.8720 4923.00 4646.32 70.00
6964 43.8780 4815.00 4741.45 69.00
6965 43.8840 4776.00 4773.99 69.00
6966 43.8900 4550.00 4733.91 67.00
6967 43.8960 4374.00 4657.18 66.00
6968 43.9020 4510.00 4627.75 67.00
6969 43.9080 4861.00 4693.06 70.00
6970 43.9140 5057.00 4793.51 71.00
6971 43.9200 4726.00 4780.94 69.00
6972 43.9260 4246.00 4566.90 65.00
6973 43.9320 3855.00 4238.09 62.00
6974 43.9380 3684.00 3918.20 61.00
6975 43.9440 3591.00 3664.34 60.00
6976 43.9500 3393.00 3487.03 58.00
6977 43.9560 3222.00 3372.86 57.00
6978 43.9620 3266.00 3301.80 57.00
6979 43.9680 3254.00 3258.64 57.00
6980 43.9740 3246.00 3230.95 57.00
6981 43.9800 3137.00 3211.98 56.00
6982 43.9860 3152.00 3198.11 56.00
6983 43.9920 3111.00 3186.15 56.00
6984 43.9980 3104.00 3176.17 56.00
6985 44.0040 3153.00 3167.44 56.00
6986 44.0100 3194.00 3160.59 57.00
6987 44.0160 3207.00 3155.56 57.00
6988 44.0220 3146.00 3152.17 56.00
6989 44.0280 3177.00 3150.24 56.00
6990 44.0340 3089.00 3149.63 56.00
6991 44.0400 3185.00 3150.27 56.00
6992 44.0460 3156.00 3152.23 56.00
6993 44.0520 3174.00 3155.63 56.00
6994 44.0580 3144.00 3160.80 56.00
6995 44.0640 3149.00 3168.30 56.00
6996 44.0700 3098.00 3177.74 56.00
6997 44.0760 3153.00 3192.36 56.00
6998 44.0820 3236.00 3216.64 57.00
6999 44.0880 3220.00 3252.78 57.00
7000 44.0940 3360.00 3304.93 58.00
7001 44.1000 3465.00 3376.72 59.00
7002 44.1060 3457.00 3470.58 59.00
7003 44.1120 3498.00 3581.59 59.00
7004 44.1180 3590.00 3711.07 60.00
7005 44.1240 3730.00 3881.81 61.00
7006 44.1300 4176.00 4121.44 65.00
7007 44.1360 4826.00 4418.86 69.00
7008 44.1420 5161.00 4687.77 72.00
7009 44.1480 4669.00 4775.29 68.00
7010 44.1540 4329.00 4614.41 66.00
7011 44.1600 4070.00 4322.54 64.00
7012 44.1660 3860.00 4037.57 62.00
7013 44.1720 3797.00 3835.80 62.00
7014 44.1780 3776.00 3738.67 61.00
7015 44.1840 3756.00 3749.41 61.00
7016 44.1900 4015.00 3850.35 63.00
7017 44.1960 4183.00 4005.17 65.00
7018 44.2020 4301.00 4141.00 66.00
7019 44.2080 4151.00 4177.60 64.00
7020 44.2140 3817.00 4084.02 62.00
7021 44.2200 3695.00 3893.43 61.00
7022 44.2260 3483.00 3686.91 59.00
7023 44.2320 3348.00 3513.45 58.00
7024 44.2380 3288.00 3389.32 57.00
7025 44.2440 3290.00 3311.75 57.00
7026 44.2500 3235.00 3271.70 57.00
7027 44.2560 3266.00 3260.78 57.00
7028 44.2620 3332.00 3273.67 58.00
7029 44.2680 3328.00 3309.59 58.00
7030 44.2740 3415.00 3359.32 58.00
7031 44.2800 3515.00 3406.93 59.00
7032 44.2860 3492.00 3436.78 59.00
7033 44.2920 3389.00 3442.40 58.00
7034 44.2980 3432.00 3419.22 59.00
7035 44.3040 3291.00 3366.42 57.00
7036 44.3100 3192.00 3302.63 56.00
7037 44.3160 3165.00 3246.14 56.00
7038 44.3220 3288.00 3204.02 57.00
7039 44.3280 3279.00 3176.06 57.00
7040 44.3340 3185.00 3159.39 56.00
7041 44.3400 3155.00 3150.73 56.00
7042 44.3460 3186.00 3147.58 56.00
7043 44.3520 3164.00 3148.73 56.00
7044 44.3580 3248.00 3154.40 57.00
7045 44.3640 3183.00 3166.29 56.00
7046 44.3700 3206.00 3187.80 57.00
7047 44.3760 3165.00 3223.47 56.00
7048 44.3820 3245.00 3277.35 57.00
7049 44.3880 3410.00 3349.89 58.00
7050 44.3940 3471.00 3432.60 59.00
7051 44.4000 3492.00 3500.32 59.00
7052 44.4060 3437.00 3517.26 59.00
7053 44.4120 3374.00 3477.34 58.00
7054 44.4180 3341.00 3416.20 58.00
7055 44.4240 3327.00 3366.92 58.00
7056 44.4300 3326.00 3347.62 58.00
7057 44.4360 3393.00 3368.40 58.00
7058 44.4420 3482.00 3436.47 59.00
7059 44.4480 3578.00 3552.83 60.00
7060 44.4540 3758.00 3721.84 61.00
7061 44.4600 4077.00 3916.76 64.00
7062 44.4660 4257.00 4082.46 65.00
7063 44.4720 4296.00 4169.63 66.00
7064 44.4780 4153.00 4172.81 64.00
7065 44.4840 3967.00 4106.52 63.00
7066 44.4900 3757.00 3989.17 61.00
7067 44.4960 3632.00 3848.66 60.00
7068 44.5020 3593.00 3710.33 60.00
7069 44.5080 3537.00 3594.74 59.00
7070 44.5140 3574.00 3515.87 60.00
7071 44.5200 3596.00 3486.08 60.00
7072 44.5260 3596.00 3511.92 60.00
7073 44.5320 3687.00 3606.99 61.00
7074 44.5380 4024.00 3791.99 63.00
7075 44.5440 4441.00 4088.09 67.00
7076 44.5500 4843.00 4499.14 70.00
7077 44.5560 5185.00 4980.81 72.00
7078 44.5620 5373.00 5402.63 73.00
7079 44.5680 5200.00 5584.21 72.00
7080 44.5740 4957.00 5448.92 70.00
7081 44.5800 4583.00 5090.99 68.00
7082 44.5860 4229.00 4666.79 65.00
7083 44.5920 3958.00 4281.76 63.00
7084 44.5980 3723.00 3966.47 61.00
7085 44.6040 3567.00 3720.16 60.00
7086 44.6100 3284.00 3538.87 57.00
7087 44.6160 3246.00 3413.06 57.00
7088 44.6220 3242.00 3328.52 57.00
7089 44.6280 3218.00 3272.36 57.00
7090 44.6340 3155.00 3235.05 56.00
7091 44.6400 3145.00 3209.98 56.00
7092 44.6460 3219.00 3192.31 57.00
7093 44.6520 3226.00 3179.84 57.00
7094 44.6580 3260.00 3171.07 57.00
7095 44.6640 3195.00 3167.28 57.00
7096 44.6700 3147.00 3163.94 56.00
7097 44.6760 3162.00 3162.81 56.00
7098 44.6820 3111.00 3163.84 56.00
7099 44.6880 3140.00 3167.06 56.00
7100 44.6940 3233.00 3172.69 57.00
7101 44.7000 3220.00 3181.08 57.00
7102 44.7060 3270.00 3191.94 57.00
7103 44.7120 3315.00 3208.01 58.00
7104 44.7180 3269.00 3230.05 57.00
7105 44.7240 3350.00 3261.25 58.00
7106 44.7300 3478.00 3307.61 59.00
7107 44.7360 3538.00 3379.99 59.00
7108 44.7420 3616.00 3495.94 60.00
7109 44.7480 3847.00 3679.67 62.00
7110 44.7540 4190.00 3957.76 65.00
7111 44.7600 4706.00 4347.53 69.00
7112 44.7660 5323.00 4833.35 73.00
7113 44.7720 5797.00 5330.88 76.00
7114 44.7780 6019.00 5720.07 78.00
7115 44.7840 5833.00 5921.77 76.00
7116 44.7900 5389.00 5871.50 73.00
7117 44.7960 4794.00 5537.36 69.00
7118 44.8020 4245.00 5028.92 65.00
7119 44.8080 3986.00 4504.36 63.00
7120 44.8140 3808.00 4068.99 62.00
7121 44.8200 3563.00 3751.43 60.00
7122 44.8260 3491.00 3538.36 59.00
7123 44.8320 3368.00 3403.41 58.00
7124 44.8380 3316.00 3319.53 58.00
7125 44.8440 3378.00 3266.61 58.00
7126 44.8500 3360.00 3231.06 58.00
7127 44.8560 3245.00 3206.07 57.00
7128 44.8620 3179.00 3187.94 56.00
7129 44.8680 3166.00 3172.07 56.00
7130 44.8740 3150.00 3160.38 56.00
7131 44.8800 3151.00 3154.88 56.00
7132 44.8860 3186.00 3152.27 56.00
7133 44.8920 3195.00 3154.48 57.00
7134 44.8980 3220.00 3162.93 57.00
7135 44.9040 3198.00 3178.71 57.00
7136 44.9100 3233.00 3205.55 57.00
7137 44.9160 3320.00 3247.87 58.00
7138 44.9220 3427.00 3305.89 59.00
7139 44.9280 3479.00 3379.79 59.00
7140 44.9340 3518.00 3463.69 59.00
7141 44.9400 3513.00 3552.02 59.00
7142 44.9460 3644.00 3650.35 60.00
7143 44.9520 3859.00 3771.23 62.00
7144 44.9580 4041.00 3904.68 64.00
7145 44.9640 4124.00 3993.83 64.00
7146 44.9700 3844.00 3965.43 62.00
7147 44.9760 3558.00 3821.75 60.00
7148 44.9820 3394.00 3637.01 58.00
7149 44.9880 3261.00 3470.10 57.00
7150 44.9940 3170.00 3343.33 56.00
7151 45.0000 3149.00 3257.48 56.00
7152 45.0060 3139.00 3204.26 56.00
7153 45.0120 3104.00 3173.25 56.00
7154 45.0180 3102.00 3155.93 56.00
7155 45.0240 3044.00 3146.78 55.00
7156 45.0300 3004.00 3142.68 55.00
7157 45.0360 3065.00 3141.94 55.00
7158 45.0420 3133.00 3143.82 56.00
7159 45.0480 3123.00 3148.48 56.00
7160 45.0540 3058.00 3157.51 55.00
7161 45.0600 3146.00 3171.54 56.00
7162 45.0660 3176.00 3192.13 56.00
7163 45.0720 3137.00 3224.85 56.00
7164 45.0780 3182.00 3275.71 56.00
7165 45.0840 3250.00 3364.82 57.00
7166 45.0900 3340.00 3508.66 58.00
7167 45.0960 3578.00 3722.03 60.00
7168 45.1020 4026.00 4018.81 63.00
7169 45.1080 4723.00 4372.28 69.00
7170 45.1140 5030.00 4694.76 71.00
7171 45.1200 4837.00 4841.53 70.00
7172 45.1260 4465.00 4736.02 67.00
7173 45.1320 4099.00 4466.00 64.00
7174 45.1380 3833.00 4163.17 62.00
7175 45.1440 3646.00 3899.15 60.00
7176 45.1500 3463.00 3689.58 59.00
7177 45.1560 3374.00 3534.64 58.00
7178 45.1620 3394.00 3434.56 58.00
7179 45.1680 3357.00 3386.90 58.00
7180 45.1740 3416.00 3388.75 58.00
7181 45.1800 3516.00 3439.12 59.00
7182 45.1860 3616.00 3535.69 60.00
7183 45.1920 3722.00 3666.68 61.00
7184 45.1980 3887.00 3798.78 62.00
7185 45.2040 3985.00 3882.24 63.00
7186 45.2100 3887.00 3892.64 62.00
7187 45.2160 3749.00 3832.97 61.00
7188 45.2220 3580.00 3709.73 60.00
7189 45.2280 3340.00 3555.57 58.00
7190 45.2340 3211.00 3412.45 57.00
7191 45.2400 3141.00 3300.49 56.00
7192 45.2460 3125.00 3222.32 56.00
7193 45.2520 3068.00 3171.21 55.00
7194 45.2580 3059.00 3138.74 55.00
7195 45.2640 3083.00 3120.59 56.00
7196 45.2700 3057.00 3109.47 55.00
7197 45.2760 3086.00 3099.18 56.00
7198 45.2820 3068.00 3093.98 55.00
7199 45.2880 3096.00 3091.15 56.00
7200 45.2940 3072.00 3090.47 55.00
7201 45.3000 3070.00 3092.08 55.00
7202 45.3060 3085.00 3096.64 56.00
7203 45.3120 3012.00 3105.60 55.00
7204 45.3180 2999.00 3121.84 55.00
7205 45.3240 3002.00 3150.17 55.00
7206 45.3300 2972.00 3197.20 55.00
7207 45.3360 3131.00 3270.29 56.00
7208 45.3420 3503.00 3372.25 59.00
7209 45.3480 3772.00 3496.40 61.00
7210 45.3540 3662.00 3616.83 61.00
7211 45.3600 3627.00 3686.62 60.00
7212 45.3660 3501.00 3670.14 59.00
7213 45.3720 3407.00 3578.41 58.00
7214 45.3780 3282.00 3456.27 57.00
7215 45.3840 3166.00 3338.89 56.00
7216 45.3900 3055.00 3245.30 55.00
7217 45.3960 3070.00 3179.07 55.00
7218 45.4020 3108.00 3135.94 56.00
7219 45.4080 3081.00 3109.23 56.00
7220 45.4140 3026.00 3092.94 55.00
7221 45.4200 3053.00 3082.88 55.00
7222 45.4260 2990.00 3074.36 55.00
7223 45.4320 2913.00 3068.72 54.00
7224 45.4380 2960.00 3066.27 54.00
7225 45.4440 3018.00 3065.30 55.00
7226 45.4500 3027.00 3065.44 55.00
7227 45.4560 3056.00 3066.31 55.00
7228 45.4620 3102.00 3068.56 56.00
7229 45.4680 3021.00 3071.94 55.00
7230 45.4740 3012.00 3076.61 55.00
7231 45.4800 3015.00 3082.85 55.00
7232 45.4860 2970.00 3091.78 54.00
7233 45.4920 3006.00 3102.27 55.00
7234 45.4980 3073.00 3116.18 55.00
7235 45.5040 3054.00 3136.13 55.00
7236 45.5100 3116.00 3162.56 56.00
7237 45.5160 3184.00 3204.06 56.00
7238 45.5220 3253.00 3267.81 57.00
7239 45.5280 3310.00 3364.21 58.00
7240 45.5340 3451.00 3508.39 59.00
7241 45.5400 3678.00 3709.50 61.00
7242 45.5460 4132.00 3964.59 64.00
7243 45.5520 4377.00 4248.10 66.00
7244 45.5580 4682.00 4525.88 68.00
7245 45.5640 5043.00 4762.91 71.00
7246 45.5700 4945.00 4890.72 70.00
7247 45.5760 4525.00 4823.16 67.00
7248 45.5820 3996.00 4562.53 63.00
7249 45.5880 3786.00 4216.07 62.00
7250 45.5940 3542.00 3891.84 60.00
7251 45.6000 3411.00 3641.73 58.00
7252 45.6060 3279.00 3475.00 57.00
7253 45.6120 3243.00 3382.30 57.00
7254 45.6180 3232.00 3348.77 57.00
7255 45.6240 3338.00 3360.06 58.00
7256 45.6300 3265.00 3402.13 57.00
7257 45.6360 3390.00 3455.85 58.00
7258 45.6420 3355.00 3492.50 58.00
7259 45.6480 3287.00 3489.06 57.00
7260 45.6540 3237.00 3454.82 57.00
7261 45.6600 3179.00 3421.86 56.00
7262 45.6660 3259.00 3414.23 57.00
7263 45.6720 3462.00 3439.64 59.00
7264 45.6780 3503.00 3483.05 59.00
7265 45.6840 3435.00 3511.17 59.00
7266 45.6900 3321.00 3486.34 58.00
7267 45.6960 3244.00 3411.91 57.00
7268 45.7020 3131.00 3322.14 56.00
7269 45.7080 3107.00 3242.89 56.00
7270 45.7140 3221.00 3183.87 57.00
7271 45.7200 3179.00 3145.77 56.00
7272 45.7260 3180.00 3125.13 56.00
7273 45.7320 3191.00 3117.47 56.00
7274 45.7380 3265.00 3118.73 57.00
7275 45.7440 3287.00 3125.52 57.00
7276 45.7500 3260.00 3135.94 57.00
7277 45.7560 3377.00 3152.74 58.00
7278 45.7620 3250.00 3178.73 57.00
7279 45.7680 3225.00 3223.34 57.00
7280 45.7740 3389.00 3289.72 58.00
7281 45.7800 3568.00 3384.64 60.00
7282 45.7860 3689.00 3497.20 61.00
7283 45.7920 3784.00 3605.60 62.00
7284 45.7980 3742.00 3675.19 61.00
7285 45.8040 3780.00 3686.96 61.00
7286 45.8100 3484.00 3645.25 59.00
7287 45.8160 3410.00 3555.20 58.00
7288 45.8220 3255.00 3436.25 57.00
7289 45.8280 3091.00 3321.45 56.00
7290 45.8340 3178.00 3227.87 56.00
7291 45.8400 3141.00 3161.55 56.00
7292 45.8460 3063.00 3116.26 55.00
7293 45.8520 3120.00 3088.06 56.00
7294 45.8580 3098.00 3069.63 56.00
7295 45.8640 3092.00 3056.89 56.00
7296 45.8700 3080.00 3048.52 55.00
7297 45.8760 3120.00 3042.95 56.00
7298 45.8820 3052.00 3037.71 55.00
7299 45.8880 3008.00 3031.94 55.00
7300 45.8940 3044.00 3028.96 55.00
7301 45.9000 3070.00 3027.18 55.00
7302 45.9060 2978.00 3025.95 55.00
7303 45.9120 2976.00 3025.19 55.00
7304 45.9180 3012.00 3024.85 55.00
7305 45.9240 3053.00 3024.91 55.00
7306 45.9300 3013.00 3025.36 55.00
7307 45.9360 2971.00 3026.21 55.00
7308 45.9420 3017.00 3027.46 55.00
7309 45.9480 3052.00 3029.16 55.00
7310 45.9540 2993.00 3030.85 55.00
7311 45.9600 3022.00 3033.34 55.00
7312 45.9660 2972.00 3036.88 55.00
7313 45.9720 3008.00 3041.35 55.00
7314 45.9780 3081.00 3046.98 56.00
7315 45.9840 3077.00 3054.08 55.00
7316 45.9900 3151.00 3062.85 56.00
7317 45.9960 3070.00 3073.44 55.00
7318 46.0020 3240.00 3085.11 57.00
7319 46.0080 3164.00 3099.32 56.00
7320 46.0140 3189.00 3116.52 56.00
7321 46.0200 3265.00 3140.33 57.00
7322 46.0260 3320.00 3175.96 58.00
7323 46.0320 3342.00 3231.79 58.00
7324 46.0380 3486.00 3318.95 59.00
7325 46.0440 3686.00 3450.61 61.00
7326 46.0500 3812.00 3637.85 62.00
7327 46.0560 4188.00 3881.11 65.00
7328 46.0620 4402.00 4156.65 66.00
7329 46.0680 4605.00 4415.86 68.00
7330 46.0740 4485.00 4607.98 67.00
7331 46.0800 4689.00 4693.94 68.00
7332 46.0860 4379.00 4650.46 66.00
7333 46.0920 4129.00 4497.02 64.00
7334 46.0980 3909.00 4264.45 63.00
7335 46.1040 3771.00 4025.49 61.00
7336 46.1100 3577.00 3846.63 60.00
7337 46.1160 3623.00 3761.97 60.00
7338 46.1220 3892.00 3774.05 62.00
7339 46.1280 3992.00 3865.53 63.00
7340 46.1340 4147.00 3999.45 64.00
7341 46.1400 4153.00 4121.46 64.00
7342 46.1460 4229.00 4196.17 65.00
7343 46.1520 4039.00 4209.82 64.00
7344 46.1580 4075.00 4160.91 64.00
7345 46.1640 3989.00 4067.09 63.00
7346 46.1700 3831.00 3944.58 62.00
7347 46.1760 3708.00 3811.87 61.00
7348 46.1820 3670.00 3685.80 61.00
7349 46.1880 3474.00 3568.25 59.00
7350 46.1940 3373.00 3455.82 58.00
7351 46.2000 3385.00 3352.01 58.00
7352 46.2060 3145.00 3265.34 56.00
7353 46.2120 3138.00 3199.45 56.00
7354 46.2180 3193.00 3152.54 57.00
7355 46.2240 3087.00 3120.61 56.00
7356 46.2300 3095.00 3099.61 56.00
7357 46.2360 3196.00 3086.20 57.00
7358 46.2420 3088.00 3078.02 56.00
7359 46.2480 3090.00 3073.58 56.00
7360 46.2540 3110.00 3071.91 56.00
7361 46.2600 3041.00 3072.40 55.00
7362 46.2660 3026.00 3074.04 55.00
7363 46.2720 3080.00 3077.21 55.00
7364 46.2780 2977.00 3082.82 55.00
7365 46.2840 3083.00 3092.87 56.00
7366 46.2900 3156.00 3108.72 56.00
7367 46.2960 3124.00 3131.56 56.00
7368 46.3020 3125.00 3160.18 56.00
7369 46.3080 3256.00 3193.00 57.00
7370 46.3140 3283.00 3225.59 57.00
7371 46.3200 3250.00 3249.46 57.00
7372 46.3260 3132.00 3260.67 56.00
7373 46.3320 3146.00 3260.53 56.00
7374 46.3380 3185.00 3254.65 56.00
7375 46.3440 3125.00 3255.29 56.00
7376 46.3500 3229.00 3276.82 57.00
7377 46.3560 3289.00 3334.38 57.00
7378 46.3620 3288.00 3446.09 57.00
7379 46.3680 3521.00 3632.42 59.00
7380 46.3740 3935.00 3909.56 63.00
7381 46.3800 4474.00 4275.10 67.00
7382 46.3860 5033.00 4688.84 71.00
7383 46.3920 5168.00 5034.02 72.00
7384 46.3980 4915.00 5161.08 70.00
7385 46.4040 4511.00 5023.66 67.00
7386 46.4100 4229.00 4722.86 65.00
7387 46.4160 3994.00 4380.40 63.00
7388 46.4220 3825.00 4057.73 62.00
7389 46.4280 3484.00 3777.35 59.00
7390 46.4340 3432.00 3554.35 59.00
7391 46.4400 3273.00 3389.98 57.00
7392 46.4460 3204.00 3276.24 57.00
7393 46.4520 3132.00 3199.80 56.00
7394 46.4580 3131.00 3147.79 56.00
7395 46.4640 3103.00 3113.43 56.00
7396 46.4700 3120.00 3088.35 56.00
7397 46.4760 3082.00 3071.12 56.00
7398 46.4820 3063.00 3058.32 55.00
7399 46.4880 3095.00 3049.39 56.00
7400 46.4940 3007.00 3041.81 55.00
7401 46.5000 3090.00 3035.76 56.00
7402 46.5060 3020.00 3031.16 55.00
7403 46.5120 2974.00 3028.31 55.00
7404 46.5180 3029.00 3026.83 55.00
7405 46.5240 3063.00 3026.84 55.00
7406 46.5300 3004.00 3028.73 55.00
7407 46.5360 3029.00 3033.18 55.00
7408 46.5420 3135.00 3041.27 56.00
7409 46.5480 3130.00 3054.44 56.00
7410 46.5540 3140.00 3074.21 56.00
7411 46.5600 3128.00 3101.83 56.00
7412 46.5660 3223.00 3137.38 57.00
7413 46.5720 3187.00 3178.71 56.00
7414 46.5780 3218.00 3224.05 57.00
7415 46.5840 3315.00 3279.04 58.00
7416 46.5900 3318.00 3344.29 58.00
7417 46.5960 3601.00 3424.50 60.00
7418 46.6020 3754.00 3515.99 61.00
7419 46.6080 3988.00 3597.65 63.00
7420 46.6140 3723.00 3626.74 61.00
7421 46.6200 3509.00 3579.36 59.00
7422 46.6260 3350.00 3480.22 58.00
7423 46.6320 3179.00 3368.15 56.00
7424 46.6380 3256.00 3264.97 57.00
7425 46.6440 3158.00 3183.00 56.00
7426 46.6500 3217.00 3123.91 57.00
7427 46.6560 3195.00 3084.76 57.00
7428 46.6620 3001.00 3060.02 55.00
7429 46.6680 3079.00 3044.90 55.00
7430 46.6740 3113.00 3035.91 56.00
7431 46.6800 3062.00 3030.92 55.00
7432 46.6860 3205.00 3028.79 57.00
7433 46.6920 3010.00 3029.14 55.00
7434 46.6980 3074.00 3032.17 55.00
7435 46.7040 3080.00 3038.78 55.00
7436 46.7100 3071.00 3051.60 55.00
7437 46.7160 3201.00 3067.50 57.00
7438 46.7220 3079.00 3099.37 55.00
7439 46.7280 3192.00 3143.08 56.00
7440 46.7340 3316.00 3200.43 58.00
7441 46.7400 3414.00 3264.54 58.00
7442 46.7460 3445.00 3323.13 59.00
7443 46.7520 3457.00 3348.87 59.00
7444 46.7580 3369.00 3342.89 58.00
7445 46.7640 3373.00 3331.15 58.00
7446 46.7700 3384.00 3341.92 58.00
7447 46.7760 3436.00 3392.43 59.00
7448 46.7820 3689.00 3486.90 61.00
7449 46.7880 3962.00 3613.03 63.00
7450 46.7940 4092.00 3734.66 64.00
7451 46.8000 4123.00 3795.40 64.00
7452 46.8060 3851.00 3758.28 62.00
7453 46.8120 3677.00 3642.14 61.00
7454 46.8180 3441.00 3499.75 59.00
7455 46.8240 3328.00 3372.30 58.00
7456 46.8300 3191.00 3276.79 56.00
7457 46.8360 3132.00 3215.06 56.00
7458 46.8420 3220.00 3182.25 57.00
7459 46.8480 3256.00 3172.74 57.00
7460 46.8540 3148.00 3185.36 56.00
7461 46.8600 3177.00 3219.58 56.00
7462 46.8660 3290.00 3283.70 57.00
7463 46.8720 3284.00 3392.40 57.00
7464 46.8780 3531.00 3546.32 59.00
7465 46.8840 3789.00 3751.80 62.00
7466 46.8900 4090.00 3992.28 64.00
7467 46.8960 4137.00 4216.90 64.00
7468 46.9020 4100.00 4355.50 64.00
7469 46.9080 3886.00 4378.65 62.00
7470 46.9140 3959.00 4353.23 63.00
7471 46.9200 4023.00 4331.83 63.00
7472 46.9260 3923.00 4301.98 63.00
7473 46.9320 3979.00 4227.51 63.00
7474 46.9380 3910.00 4113.92 63.00
7475 46.9440 3875.00 3988.68 62.00
7476 46.9500 3655.00 3853.18 60.00
7477 46.9560 3516.00 3703.10 59.00
7478 46.9620 3406.00 3556.70 58.00
7479 46.9680 3322.00 3436.91 58.00
7480 46.9740 3333.00 3351.99 58.00
7481 46.9800 3258.00 3301.06 57.00
7482 46.9860 3236.00 3280.57 57.00
7483 46.9920 3240.00 3288.11 57.00
7484 46.9980 3286.00 3324.19 57.00
7485 47.0040 3455.00 3392.33 59.00
7486 47.0100 3521.00 3497.93 59.00
7487 47.0160 3660.00 3645.93 60.00
7488 47.0220 3751.00 3835.77 61.00
7489 47.0280 4184.00 4058.20 65.00
7490 47.0340 4246.00 4308.65 65.00
7491 47.0400 4496.00 4604.09 67.00
7492 47.0460 4980.00 4963.62 71.00
7493 47.0520 5590.00 5382.38 75.00
7494 47.0580 6183.00 5793.55 79.00
7495 47.0640 6397.00 6033.55 80.00
7496 47.0700 5724.00 5938.22 76.00
7497 47.0760 4828.00 5524.71 69.00
7498 47.0820 4307.00 4971.89 66.00
7499 47.0880 3862.00 4446.89 62.00
7500 47.0940 3645.00 4029.09 60.00
7501 47.1000 3510.00 3733.02 59.00
7502 47.1060 3401.00 3541.34 58.00
7503 47.1120 3381.00 3426.95 58.00
7504 47.1180 3343.00 3363.77 58.00
7505 47.1240 3355.00 3336.44 58.00
7506 47.1300 3464.00 3334.72 59.00
7507 47.1360 3558.00 3359.92 60.00
7508 47.1420 3556.00 3417.39 60.00
7509 47.1480 3615.00 3519.67 60.00
7510 47.1540 3865.00 3683.17 62.00
7511 47.1600 4139.00 3924.33 64.00
7512 47.1660 4572.00 4249.44 68.00
7513 47.1720 5059.00 4638.93 71.00
7514 47.1780 5406.00 5044.02 74.00
7515 47.1840 5716.00 5409.96 76.00
7516 47.1900 5784.00 5668.82 76.00
7517 47.1960 5611.00 5749.55 75.00
7518 47.2020 5443.00 5692.79 74.00
7519 47.2080 5615.00 5625.16 75.00
7520 47.2140 5553.00 5597.39 75.00
7521 47.2200 5483.00 5529.01 74.00
7522 47.2260 5304.00 5300.42 73.00
7523 47.2320 4857.00 4922.04 70.00
7524 47.2380 4459.00 4508.33 67.00
7525 47.2440 4108.00 4160.45 64.00
7526 47.2500 3882.00 3918.23 62.00
7527 47.2560 3906.00 3780.01 62.00
7528 47.2620 3986.00 3719.00 63.00
7529 47.2680 3936.00 3687.31 63.00
7530 47.2740 3739.00 3635.98 61.00
7531 47.2800 3634.00 3547.14 60.00
7532 47.2860 3513.00 3436.00 59.00
7533 47.2920 3364.00 3328.64 58.00
7534 47.2980 3242.00 3240.34 57.00
7535 47.3040 3087.00 3175.78 56.00
7536 47.3100 3086.00 3132.31 56.00
7537 47.3160 3150.00 3105.25 56.00
7538 47.3220 3138.00 3091.85 56.00
7539 47.3280 3160.00 3090.57 56.00
7540 47.3340 3185.00 3102.31 56.00
7541 47.3400 3192.00 3129.88 56.00
7542 47.3460 3204.00 3176.92 57.00
7543 47.3520 3236.00 3244.74 57.00
7544 47.3580 3495.00 3332.75 59.00
7545 47.3640 3664.00 3428.13 61.00
7546 47.3700 3704.00 3507.80 61.00
7547 47.3760 3598.00 3557.20 60.00
7548 47.3820 3544.00 3585.13 60.00
7549 47.3880 3706.00 3605.17 61.00
7550 47.3940 3783.00 3614.01 62.00
7551 47.4000 3735.00 3582.39 61.00
7552 47.4060 3573.00 3497.45 60.00
7553 47.4120 3425.00 3380.13 59.00
7554 47.4180 3254.00 3262.90 57.00
7555 47.4240 3078.00 3165.06 55.00
7556 47.4300 3012.00 3092.04 55.00
7557 47.4360 3117.00 3041.77 56.00
7558 47.4420 3137.00 3009.05 56.00
7559 47.4480 3041.00 2988.32 55.00
7560 47.4540 2962.00 2974.95 54.00
7561 47.4600 3025.00 2965.64 55.00
7562 47.4660 3066.00 2958.44 55.00
7563 47.4720 3018.00 2952.66 55.00
7564 47.4780 2997.00 2948.16 55.00
7565 47.4840 2999.00 2944.95 55.00
7566 47.4900 2987.00 2943.12 55.00
7567 47.4960 2991.00 2942.78 55.00
7568 47.5020 3113.00 2942.89 56.00
7569 47.5080 3174.00 2946.69 56.00
7570 47.5140 3153.00 2953.95 56.00
7571 47.5200 3154.00 2962.38 56.00
7572 47.5260 3165.00 2983.45 56.00
7573 47.5320 3177.00 3016.16 56.00
7574 47.5380 3260.00 3063.48 57.00
7575 47.5440 3281.00 3125.99 57.00
7576 47.5500 3330.00 3194.10 58.00
7577 47.5560 3461.00 3261.70 59.00
7578 47.5620 3555.00 3305.36 60.00
7579 47.5680 3538.00 3313.99 59.00
7580 47.5740 3386.00 3285.31 58.00
7581 47.5800 3310.00 3230.35 58.00
7582 47.5860 3258.00 3172.99 57.00
7583 47.5920 3197.00 3133.77 57.00
7584 47.5980 3276.00 3124.06 57.00
7585 47.6040 3348.00 3150.30 58.00
7586 47.6100 3372.00 3214.71 58.00
7587 47.6160 3403.00 3311.75 58.00
7588 47.6220 3450.00 3424.65 59.00
7589 47.6280 3521.00 3516.91 59.00
7590 47.6340 3420.00 3540.55 58.00
7591 47.6400 3344.00 3478.56 58.00
7592 47.6460 3353.00 3365.45 58.00
7593 47.6520 3310.00 3247.20 58.00
7594 47.6580 3219.00 3147.19 57.00
7595 47.6640 3107.00 3073.18 56.00
7596 47.6700 3043.00 3018.71 55.00
7597 47.6760 3071.00 2979.94 55.00
7598 47.6820 3081.00 2952.39 56.00
7599 47.6880 3066.00 2932.76 55.00
7600 47.6940 3057.00 2918.18 55.00
7601 47.7000 3031.00 2907.22 55.00
7602 47.7060 2948.00 2899.40 54.00
7603 47.7120 2823.00 2893.40 53.00
7604 47.7180 2858.00 2888.68 53.00
7605 47.7240 2958.00 2884.96 54.00
7606 47.7300 3012.00 2881.41 55.00
7607 47.7360 3050.00 2878.81 55.00
7608 47.7420 2977.00 2877.38 55.00
7609 47.7480 2992.00 2875.50 55.00
7610 47.7540 3004.00 2873.88 55.00
7611 47.7600 3005.00 2873.79 55.00
7612 47.7660 2997.00 2873.83 55.00
7613 47.7720 2970.00 2872.90 54.00
7614 47.7780 2996.00 2872.13 55.00
7615 47.7840 2956.00 2871.92 54.00
7616 47.7900 2926.00 2871.45 54.00
7617 47.7960 2980.00 2871.14 55.00
7618 47.8020 3031.00 2870.97 55.00
7619 47.8080 3041.00 2870.94 55.00
7620 47.8140 3008.00 2871.06 55.00
7621 47.8200 3005.00 2871.62 55.00
7622 47.8260 2982.00 2872.52 55.00
7623 47.8320 2981.00 2873.60 55.00
7624 47.8380 2980.00 2874.86 55.00
7625 47.8440 2900.00 2876.34 54.00
7626 47.8500 2954.00 2878.08 54.00
7627 47.8560 3038.00 2880.31 55.00
7628 47.8620 3007.00 2882.69 55.00
7629 47.8680 2967.00 2886.72 54.00
7630 47.8740 3003.00 2890.02 55.00
7631 47.8800 3020.00 2895.03 55.00
7632 47.8860 2964.00 2899.17 54.00
7633 47.8920 2939.00 2904.63 54.00
7634 47.8980 2971.00 2911.14 55.00
7635 47.9040 3035.00 2918.43 55.00
7636 47.9100 3025.00 2928.03 55.00
7637 47.9160 2941.00 2939.99 54.00
7638 47.9220 2989.00 2955.39 55.00
7639 47.9280 3020.00 2976.14 55.00
7640 47.9340 3094.00 3005.67 56.00
7641 47.9400 3128.00 3049.87 56.00
7642 47.9460 3217.00 3117.63 57.00
7643 47.9520 3333.00 3220.72 58.00
7644 47.9580 3485.00 3371.51 59.00
7645 47.9640 3672.00 3576.25 61.00
7646 47.9700 4042.00 3831.18 64.00
7647 47.9760 4493.00 4100.78 67.00
7648 47.9820 4808.00 4324.12 69.00
7649 47.9880 4787.00 4436.29 69.00
7650 47.9940 4528.00 4390.75 67.00
7651 48.0000 4171.00 4199.00 65.00
7652 48.0060 3834.00 3942.12 62.00
7653 48.0120 3557.00 3703.54 60.00
7654 48.0180 3460.00 3527.71 59.00
7655 48.0240 3381.00 3428.64 58.00
7656 48.0300 3345.00 3404.72 58.00
7657 48.0360 3555.00 3446.88 60.00
7658 48.0420 3736.00 3542.04 61.00
7659 48.0480 3959.00 3662.54 63.00
7660 48.0540 4043.00 3781.25 64.00
7661 48.0600 4001.00 3878.75 63.00
7662 48.0660 4092.00 3963.46 64.00
7663 48.0720 4205.00 4046.11 65.00
7664 48.0780 4227.00 4137.37 65.00
7665 48.0840 4287.00 4227.05 65.00
7666 48.0900 4099.00 4256.98 64.00
7667 48.0960 3964.00 4174.28 63.00
7668 48.1020 3745.00 3999.94 61.00
7669 48.1080 3536.00 3794.93 59.00
7670 48.1140 3454.00 3597.61 59.00
7671 48.1200 3339.00 3425.75 58.00
7672 48.1260 3339.00 3291.77 58.00
7673 48.1320 3239.00 3198.60 57.00
7674 48.1380 3194.00 3140.36 57.00
7675 48.1440 3272.00 3110.31 57.00
7676 48.1500 3233.00 3102.64 57.00
7677 48.1560 3260.00 3114.36 57.00
7678 48.1620 3230.00 3146.84 57.00
7679 48.1680 3321.00 3206.11 58.00
7680 48.1740 3598.00 3299.28 60.00
7681 48.1800 3705.00 3428.36 61.00
7682 48.1860 3775.00 3583.51 61.00
7683 48.1920 3953.00 3737.53 63.00
7684 48.1980 4088.00 3848.22 64.00
7685 48.2040 4022.00 3880.18 63.00
7686 48.2100 3877.00 3825.42 62.00
7687 48.2160 3669.00 3695.68 61.00
7688 48.2220 3493.00 3525.73 59.00
7689 48.2280 3330.00 3359.32 58.00
7690 48.2340 3183.00 3222.25 56.00
7691 48.2400 3146.00 3120.91 56.00
7692 48.2460 3220.00 3051.49 57.00
7693 48.2520 3123.00 3006.38 56.00
7694 48.2580 3096.00 2978.02 56.00
7695 48.2640 3105.00 2960.39 56.00
7696 48.2700 3156.00 2949.46 56.00
7697 48.2760 3141.00 2942.90 56.00
7698 48.2820 3148.00 2939.48 56.00
7699 48.2880 3095.00 2938.63 56.00
7700 48.2940 3068.00 2940.16 55.00
7701 48.3000 3117.00 2944.56 56.00
7702 48.3060 3052.00 2953.09 55.00
7703 48.3120 3007.00 2962.95 55.00
7704 48.3180 3171.00 2978.41 56.00
7705 48.3240 3175.00 3000.92 56.00
7706 48.3300 3120.00 3035.21 56.00
7707 48.3360 3241.00 3092.82 57.00
7708 48.3420 3248.00 3183.67 57.00
7709 48.3480 3437.00 3321.40 59.00
7710 48.3540 3609.00 3516.78 60.00
7711 48.3600 3844.00 3769.77 62.00
7712 48.3660 4194.00 4057.48 65.00
7713 48.3720 4533.00 4314.48 67.00
7714 48.3780 4606.00 4447.79 68.00
7715 48.3840 4364.00 4402.65 66.00
7716 48.3900 4050.00 4225.26 64.00
7717 48.3960 3830.00 4012.12 62.00
7718 48.4020 3675.00 3834.76 61.00
7719 48.4080 3675.00 3716.63 61.00
7720 48.4140 3735.00 3637.75 61.00
7721 48.4200 3668.00 3562.16 61.00
7722 48.4260 3568.00 3473.83 60.00
7723 48.4320 3389.00 3393.90 58.00
7724 48.4380 3414.00 3336.53 58.00
7725 48.4440 3472.00 3300.94 59.00
7726 48.4500 3468.00 3276.15 59.00
7727 48.4560 3399.00 3251.24 58.00
7728 48.4620 3324.00 3215.48 58.00
7729 48.4680 3224.00 3164.82 57.00
7730 48.4740 3192.00 3105.09 56.00
7731 48.4800 3168.00 3047.93 56.00
7732 48.4860 3056.00 3000.57 55.00
7733 48.4920 3041.00 2964.75 55.00
7734 48.4980 2896.00 2939.44 54.00
7735 48.5040 2969.00 2922.34 54.00
7736 48.5100 3028.00 2911.08 55.00
7737 48.5160 3033.00 2903.75 55.00
7738 48.5220 2999.00 2898.84 55.00
7739 48.5280 3064.00 2895.96 55.00
7740 48.5340 3039.00 2893.30 55.00
7741 48.5400 3051.00 2893.12 55.00
7742 48.5460 3022.00 2893.00 55.00
7743 48.5520 3029.00 2895.27 55.00
7744 48.5580 2908.00 2898.91 54.00
7745 48.5640 2936.00 2904.17 54.00
7746 48.5700 3002.00 2911.53 55.00
7747 48.5760 3078.00 2921.86 55.00
7748 48.5820 3180.00 2936.79 56.00
7749 48.5880 3113.00 2959.30 56.00
7750 48.5940 3127.00 2994.45 56.00
7751 48.6000 3039.00 3049.69 55.00
7752 48.6060 3287.00 3134.29 57.00
7753 48.6120 3456.00 3256.94 59.00
7754 48.6180 3551.00 3420.04 60.00
7755 48.6240 4020.00 3613.92 63.00
7756 48.6300 4374.00 3803.85 66.00
7757 48.6360 4309.00 3927.88 66.00
7758 48.6420 4102.00 3929.09 64.00
7759 48.6480 3858.00 3814.08 62.00
7760 48.6540 3547.00 3642.33 60.00
7761 48.6600 3355.00 3479.22 58.00
7762 48.6660 3322.00 3360.26 58.00
7763 48.6720 3333.00 3297.66 58.00
7764 48.6780 3388.00 3289.55 58.00
7765 48.6840 3483.00 3324.71 59.00
7766 48.6900 3589.00 3383.02 60.00
7767 48.6960 3566.00 3435.29 60.00
7768 48.7020 3496.00 3455.74 59.00
7769 48.7080 3464.00 3449.70 59.00
7770 48.7140 3501.00 3433.16 59.00
7771 48.7200 3616.00 3414.01 60.00
7772 48.7260 3372.00 3385.30 58.00
7773 48.7320 3318.00 3344.45 58.00
7774 48.7380 3309.00 3308.00 58.00
7775 48.7440 3304.00 3298.27 57.00
7776 48.7500 3351.00 3330.36 58.00
7777 48.7560 3534.00 3407.49 59.00
7778 48.7620 3727.00 3522.29 61.00
7779 48.7680 3827.00 3645.12 62.00
7780 48.7740 3669.00 3731.72 61.00
7781 48.7800 3572.00 3751.51 60.00
7782 48.7860 3520.00 3707.13 59.00
7783 48.7920 3496.00 3609.84 59.00
7784 48.7980 3353.00 3473.80 58.00
7785 48.8040 3368.00 3328.13 58.00
7786 48.8100 3133.00 3198.92 56.00
7787 48.8160 3092.00 3097.72 56.00
7788 48.8220 3066.00 3026.02 55.00
7789 48.8280 3019.00 2977.50 55.00
7790 48.8340 2986.00 2944.71 55.00
7791 48.8400 2976.00 2923.35 55.00
7792 48.8460 2949.00 2909.25 54.00
7793 48.8520 3069.00 2899.71 55.00
7794 48.8580 3044.00 2893.14 55.00
7795 48.8640 2928.00 2888.68 54.00
7796 48.8700 2927.00 2885.86 54.00
7797 48.8760 2920.00 2885.05 54.00
7798 48.8820 2859.00 2885.08 53.00
7799 48.8880 2960.00 2886.94 54.00
7800 48.8940 3012.00 2890.27 55.00
7801 48.9000 3019.00 2895.99 55.00
7802 48.9060 2998.00 2905.09 55.00
7803 48.9120 3131.00 2919.13 56.00
7804 48.9180 3042.00 2940.08 55.00
7805 48.9240 3141.00 2970.21 56.00
7806 48.9300 3086.00 3011.60 56.00
7807 48.9360 3154.00 3065.31 56.00
7808 48.9420 3236.00 3131.58 57.00
7809 48.9480 3382.00 3203.57 58.00
7810 48.9540 3416.00 3282.55 58.00
7811 48.9600 3433.00 3370.16 59.00
7812 48.9660 3759.00 3469.18 61.00
7813 48.9720 3901.00 3574.43 62.00
7814 48.9780 4015.00 3659.82 63.00
7815 48.9840 3821.00 3684.00 62.00
7816 48.9900 3706.00 3624.48 61.00
7817 48.9960 3529.00 3514.37 59.00
7818 49.0020 3372.00 3405.34 58.00
7819 49.0080 3360.00 3330.49 58.00
7820 49.0140 3445.00 3302.46 59.00
7821 49.0200 3548.00 3318.15 60.00
7822 49.0260 3533.00 3361.35 59.00
7823 49.0320 3656.00 3404.18 60.00
7824 49.0380 3660.00 3420.22 60.00
7825 49.0440 3549.00 3400.22 60.00
7826 49.0500 3527.00 3342.37 59.00
7827 49.0560 3350.00 3259.43 58.00
7828 49.0620 3196.00 3174.04 57.00
7829 49.0680 3141.00 3104.00 56.00
7830 49.0740 3194.00 3058.17 57.00
7831 49.0800 3114.00 3034.24 56.00
7832 49.0860 3006.00 3033.91 55.00
7833 49.0920 3161.00 3050.88 56.00
7834 49.0980 3361.00 3082.74 58.00
7835 49.1040 3374.00 3122.96 58.00
7836 49.1100 3456.00 3161.92 59.00
7837 49.1160 3417.00 3194.42 58.00
7838 49.1220 3348.00 3223.67 58.00
7839 49.1280 3410.00 3261.41 58.00
7840 49.1340 3515.00 3327.67 59.00
7841 49.1400 3669.00 3438.44 61.00
7842 49.1460 3942.00 3595.73 63.00
7843 49.1520 4315.00 3780.67 66.00
7844 49.1580 4716.00 3943.98 69.00
7845 49.1640 4364.00 4013.92 66.00
7846 49.1700 3973.00 3951.35 63.00
7847 49.1760 3606.00 3793.44 60.00
7848 49.1820 3393.00 3612.98 58.00
7849 49.1880 3210.00 3463.55 57.00
7850 49.1940 3383.00 3367.78 58.00
7851 49.2000 3402.00 3324.40 58.00
7852 49.2060 3416.00 3324.65 58.00
7853 49.2120 3401.00 3343.29 58.00
7854 49.2180 3434.00 3352.91 59.00
7855 49.2240 3414.00 3338.33 58.00
7856 49.2300 3286.00 3300.68 57.00
7857 49.2360 3279.00 3262.52 57.00
7858 49.2420 3253.00 3242.10 57.00
7859 49.2480 3317.00 3257.34 58.00
7860 49.2540 3429.00 3319.12 59.00
7861 49.2600 3496.00 3430.77 59.00
7862 49.2660 3673.00 3585.68 61.00
7863 49.2720 3828.00 3759.41 62.00
7864 49.2780 3981.00 3904.47 63.00
7865 49.2840 3935.00 3972.69 63.00
7866 49.2900 3844.00 3955.33 62.00
7867 49.2960 3914.00 3877.76 63.00
7868 49.3020 3736.00 3766.64 61.00
7869 49.3080 3462.00 3637.61 59.00
7870 49.3140 3237.00 3498.95 57.00
7871 49.3200 3268.00 3365.83 57.00
7872 49.3260 3223.00 3253.55 57.00
7873 49.3320 3166.00 3173.45 56.00
7874 49.3380 3184.00 3122.91 56.00
7875 49.3440 3206.00 3096.33 57.00
7876 49.3500 3192.00 3085.58 56.00
7877 49.3560 3240.00 3082.02 57.00
7878 49.3620 3188.00 3081.52 56.00
7879 49.3680 3078.00 3088.19 55.00
7880 49.3740 3215.00 3110.89 57.00
7881 49.3800 3185.00 3162.11 56.00
7882 49.3860 3354.00 3253.23 58.00
7883 49.3920 3524.00 3392.63 59.00
7884 49.3980 3747.00 3585.42 61.00
7885 49.4040 4070.00 3819.13 64.00
7886 49.4100 4428.00 4054.68 67.00
7887 49.4160 4551.00 4221.98 67.00
7888 49.4220 4377.00 4252.91 66.00
7889 49.4280 3968.00 4133.54 63.00
7890 49.4340 3680.00 3917.22 61.00
7891 49.4400 3482.00 3679.39 59.00
7892 49.4460 3430.00 3471.76 59.00
7893 49.4520 3178.00 3313.68 56.00
7894 49.4580 3226.00 3206.37 57.00
7895 49.4640 3172.00 3141.44 56.00
7896 49.4700 3149.00 3109.64 56.00
7897 49.4760 3211.00 3103.22 57.00
7898 49.4820 3192.00 3119.21 56.00
7899 49.4880 3324.00 3160.20 58.00
7900 49.4940 3372.00 3234.28 58.00
7901 49.5000 3627.00 3353.78 60.00
7902 49.5060 3760.00 3530.99 61.00
7903 49.5120 3923.00 3776.70 63.00
7904 49.5180 4448.00 4088.85 67.00
7905 49.5240 4829.00 4436.25 69.00
7906 49.5300 4995.00 4750.91 71.00
7907 49.5360 5221.00 4953.94 72.00
7908 49.5420 5087.00 5034.15 71.00
7909 49.5480 5122.00 5049.99 72.00
7910 49.5540 5056.00 5057.32 71.00
7911 49.5600 5100.00 5071.48 71.00
7912 49.5660 5289.00 5067.86 73.00
7913 49.5720 5125.00 4995.60 72.00
7914 49.5780 5000.00 4814.63 71.00
7915 49.5840 4451.00 4525.71 67.00
7916 49.5900 4103.00 4182.64 64.00
7917 49.5960 3625.00 3852.18 60.00
7918 49.6020 3483.00 3575.68 59.00
7919 49.6080 3384.00 3365.16 58.00
7920 49.6140 3254.00 3215.76 57.00
7921 49.6200 3167.00 3113.34 56.00
7922 49.6260 3177.00 3043.67 56.00
7923 49.6320 3153.00 2997.30 56.00
7924 49.6380 3074.00 2964.21 55.00
7925 49.6440 3004.00 2940.43 55.00
7926 49.6500 2986.00 2922.00 55.00
7927 49.6560 3009.00 2907.29 55.00
7928 49.6620 3068.00 2896.03 55.00
7929 49.6680 3063.00 2887.23 55.00
7930 49.6740 2988.00 2880.71 55.00
7931 49.6800 3054.00 2876.59 55.00
7932 49.6860 3029.00 2875.39 55.00
7933 49.6920 2986.00 2878.06 55.00
7934 49.6980 2989.00 2885.83 55.00
7935 49.7040 3013.00 2899.81 55.00
7936 49.7100 3009.00 2920.76 55.00
7937 49.7160 3093.00 2947.31 56.00
7938 49.7220 3201.00 2974.95 57.00
7939 49.7280 3211.00 2994.27 57.00
7940 49.7340 3163.00 2994.49 56.00
7941 49.7400 3056.00 2974.18 55.00
7942 49.7460 3062.00 2943.03 55.00
7943 49.7520 2991.00 2911.25 55.00
7944 49.7580 2911.00 2884.32 54.00
7945 49.7640 2851.00 2862.49 53.00
7946 49.7700 2989.00 2846.84 55.00
7947 49.7760 2941.00 2838.15 54.00
7948 49.7820 2902.00 2833.17 54.00
7949 49.7880 2931.00 2830.69 54.00
7950 49.7940 2899.00 2829.71 54.00
7951 49.8000 2883.00 2829.45 54.00
7952 49.8060 2899.00 2829.48 54.00
7953 49.8120 2902.00 2829.86 54.00
7954 49.8180 2938.00 2831.00 54.00
7955 49.8240 2862.00 2833.57 53.00
7956 49.8300 2910.00 2838.55 54.00
7957 49.8360 2959.00 2847.46 54.00
7958 49.8420 2974.00 2862.49 55.00
7959 49.8480 2857.00 2886.48 53.00
7960 49.8540 2949.00 2922.30 54.00
7961 49.8600 3047.00 2971.74 55.00
7962 49.8660 3106.00 3033.43 56.00
7963 49.8720 3201.00 3100.10 57.00
7964 49.8780 3243.00 3153.58 57.00
7965 49.8840 3147.00 3170.34 56.00
7966 49.8900 3007.00 3143.78 55.00
7967 49.8960 2918.00 3087.04 54.00
7968 49.9020 2970.00 3025.73 54.00
7969 49.9080 2926.00 2973.91 54.00
7970 49.9140 2983.00 2936.77 55.00
7971 49.9200 2963.00 2919.75 54.00
7972 49.9260 3005.00 2919.94 55.00
7973 49.9320 2927.00 2941.71 54.00
7974 49.9380 3035.00 2984.42 55.00
7975 49.9440 3119.00 3045.51 56.00
7976 49.9500 3033.00 3119.34 55.00
7977 49.9560 3179.00 3191.62 56.00
7978 49.9620 3206.00 3240.05 57.00
7979 49.9680 3318.00 3246.44 58.00
7980 49.9740 3219.00 3207.79 57.00
7981 49.9800 3115.00 3137.17 56.00
7982 49.9860 3001.00 3056.56 55.00
7983 49.9920 2911.00 2983.25 54.00
7984 49.9980 2972.00 2924.78 55.00
7985 50.0040 2855.00 2882.03 53.00
7986 50.0100 2810.00 2852.68 53.00
7987 50.0160 2755.00 2833.21 52.00
7988 50.0220 2782.00 2820.42 53.00
7989 50.0280 2828.00 2812.43 53.00
7990 50.0340 2896.00 2807.00 54.00
7991 50.0400 2847.00 2802.58 53.00
7992 50.0460 2841.00 2799.20 53.00
7993 50.0520 2783.00 2796.61 53.00
7994 50.0580 2819.00 2796.25 53.00
7995 50.0640 2840.00 2794.96 53.00
7996 50.0700 2765.00 2794.35 53.00
7997 50.0760 2879.00 2795.11 54.00
7998 50.0820 2927.00 2796.47 54.00
7999 50.0880 2842.00 2798.86 53.00
8000 50.0940 2819.00 2802.47 53.00
8001 50.1000 2761.00 2807.07 53.00
8002 50.1060 2839.00 2811.87 53.00
8003 50.1120 2838.00 2815.67 53.00
8004 50.1180 2841.00 2817.40 53.00
8005 50.1240 2871.00 2816.31 54.00
8006 50.1300 2885.00 2812.43 54.00
8007 50.1360 2870.00 2806.94 54.00
8008 50.1420 2773.00 2801.43 53.00
8009 50.1480 2752.00 2796.82 52.00
8010 50.1540 2818.00 2793.43 53.00
8011 50.1600 2865.00 2791.20 54.00
8012 50.1660 2820.00 2789.94 53.00
8013 50.1720 2729.00 2789.42 52.00
8014 50.1780 2800.00 2789.44 53.00
8015 50.1840 2775.00 2789.89 53.00
8016 50.1900 2839.00 2790.68 53.00
8017 50.1960 2833.00 2791.82 53.00
8018 50.2020 2843.00 2793.33 53.00
8019 50.2080 2825.00 2795.28 53.00
8020 50.2140 2742.00 2797.78 52.00
8021 50.2200 2780.00 2801.04 53.00
8022 50.2260 2778.00 2805.47 53.00
8023 50.2320 2770.00 2810.92 53.00
8024 50.2380 2776.00 2820.27 53.00
8025 50.2440 2844.00 2834.39 53.00
8026 50.2500 2801.00 2855.48 53.00
8027 50.2560 2874.00 2885.72 54.00
8028 50.2620 2976.00 2926.34 55.00
8029 50.2680 3002.00 2976.16 55.00
8030 50.2740 3047.00 3029.28 55.00
8031 50.2800 3096.00 3073.04 56.00
8032 50.2860 3088.00 3091.09 56.00
8033 50.2920 2973.00 3076.16 55.00
8034 50.2980 2914.00 3037.70 54.00
8035 50.3040 2926.00 2992.35 54.00
8036 50.3100 2920.00 2951.80 54.00
8037 50.3160 2869.00 2922.99 54.00
8038 50.3220 2916.00 2906.67 54.00
8039 50.3280 2924.00 2904.30 54.00
8040 50.3340 2928.00 2915.88 54.00
8041 50.3400 2920.00 2943.22 54.00
8042 50.3460 2959.00 2989.44 54.00
8043 50.3520 2990.00 3058.12 55.00
8044 50.3580 3197.00 3151.57 57.00
8045 50.3640 3345.00 3268.23 58.00
8046 50.3700 3390.00 3397.11 58.00
8047 50.3760 3463.00 3516.54 59.00
8048 50.3820 3448.00 3606.57 59.00
8049 50.3880 3604.00 3672.28 60.00
8050 50.3940 3811.00 3739.61 62.00
8051 50.4000 3793.00 3819.31 62.00
8052 50.4060 3813.00 3887.26 62.00
8053 50.4120 3749.00 3906.90 61.00
8054 50.4180 3670.00 3867.83 61.00
8055 50.4240 3553.00 3780.24 60.00
8056 50.4300 3468.00 3650.19 59.00
8057 50.4360 3282.00 3489.80 57.00
8058 50.4420 3023.00 3327.72 55.00
8059 50.4480 2987.00 3187.95 55.00
8060 50.4540 3052.00 3079.62 55.00
8061 50.4600 2974.00 3001.20 55.00
8062 50.4660 2913.00 2946.70 54.00
8063 50.4720 2917.00 2908.89 54.00
8064 50.4780 2863.00 2881.66 54.00
8065 50.4840 2863.00 2861.08 54.00
8066 50.4900 2890.00 2844.91 54.00
8067 50.4960 2916.00 2832.53 54.00
8068 50.5020 2955.00 2822.32 54.00
8069 50.5080 2877.00 2814.87 54.00
8070 50.5140 2881.00 2808.70 54.00
8071 50.5200 2805.00 2803.92 53.00
8072 50.5260 2759.00 2800.07 53.00
8073 50.5320 2802.00 2797.13 53.00
8074 50.5380 2808.00 2794.94 53.00
8075 50.5440 2840.00 2793.34 53.00
8076 50.5500 2885.00 2792.08 54.00
8077 50.5560 2861.00 2790.85 53.00
8078 50.5620 2807.00 2789.34 53.00
8079 50.5680 2809.00 2787.57 53.00
8080 50.5740 2818.00 2785.77 53.00
8081 50.5800 2850.00 2784.84 53.00
8082 50.5860 2855.00 2784.27 53.00
8083 50.5920 2768.00 2783.46 53.00
8084 50.5980 2768.00 2783.01 53.00
8085 50.6040 2773.00 2782.89 53.00
8086 50.6100 2746.00 2783.08 52.00
8087 50.6160 2776.00 2783.57 53.00
8088 50.6220 2838.00 2784.41 53.00
8089 50.6280 2819.00 2785.55 53.00
8090 50.6340 2817.00 2786.93 53.00
8091 50.6400 2835.00 2789.25 53.00
8092 50.6460 2883.00 2791.78 54.00
8093 50.6520 2838.00 2795.18 53.00
8094 50.6580 2794.00 2799.71 53.00
8095 50.6640 2798.00 2806.47 53.00
8096 50.6700 2827.00 2815.79 53.00
8097 50.6760 2812.00 2828.74 53.00
8098 50.6820 2891.00 2847.65 54.00
8099 50.6880 2916.00 2874.71 54.00
8100 50.6940 2957.00 2911.91 54.00
8101 50.7000 2925.00 2960.11 54.00
8102 50.7060 2983.00 3017.57 55.00
8103 50.7120 3162.00 3080.25 56.00
8104 50.7180 3197.00 3135.39 57.00
8105 50.7240 3192.00 3179.83 56.00
8106 50.7300 3199.00 3212.39 57.00
8107 50.7360 3249.00 3237.91 57.00
8108 50.7420 3230.00 3263.20 57.00
8109 50.7480 3257.00 3290.98 57.00
8110 50.7540 3349.00 3312.03 58.00
8111 50.7600 3333.00 3311.59 58.00
8112 50.7660 3201.00 3279.03 57.00
8113 50.7720 3102.00 3219.16 56.00
8114 50.7780 3005.00 3140.98 55.00
8115 50.7840 2940.00 3062.98 54.00
8116 50.7900 2948.00 2999.48 54.00
8117 50.7960 2967.00 2953.96 54.00
8118 50.8020 2939.00 2926.95 54.00
8119 50.8080 2890.00 2917.69 54.00
8120 50.8140 2872.00 2925.85 54.00
8121 50.8200 2975.00 2952.10 55.00
8122 50.8260 3051.00 2997.90 55.00
8123 50.8320 3073.00 3063.77 55.00
8124 50.8380 3220.00 3146.81 57.00
8125 50.8440 3381.00 3236.76 58.00
8126 50.8500 3463.00 3314.49 59.00
8127 50.8560 3536.00 3359.20 59.00
8128 50.8620 3479.00 3359.70 59.00
8129 50.8680 3318.00 3320.00 58.00
8130 50.8740 3181.00 3254.45 56.00
8131 50.8800 3160.00 3179.30 56.00
8132 50.8860 3082.00 3110.29 56.00
8133 50.8920 3002.00 3060.15 55.00
8134 50.8980 3001.00 3036.25 55.00
8135 50.9040 3021.00 3041.83 55.00
8136 50.9100 3059.00 3077.95 55.00
8137 50.9160 3166.00 3141.18 56.00
8138 50.9220 3354.00 3223.12 58.00
8139 50.9280 3504.00 3307.35 59.00
8140 50.9340 3558.00 3367.52 60.00
8141 50.9400 3462.00 3380.44 59.00
8142 50.9460 3263.00 3343.74 57.00
8143 50.9520 3102.00 3278.91 56.00
8144 50.9580 3077.00 3215.27 55.00
8145 50.9640 3048.00 3174.26 55.00
8146 50.9700 3142.00 3165.06 56.00
8147 50.9760 3268.00 3188.21 57.00
8148 50.9820 3380.00 3238.43 58.00
8149 50.9880 3395.00 3302.91 58.00
8150 50.9940 3343.00 3362.57 58.00
8151 51.0000 3352.00 3404.23 58.00
8152 51.0060 3347.00 3432.18 58.00
8153 51.0120 3439.00 3454.69 59.00
8154 51.0180 3461.00 3466.79 59.00
8155 51.0240 3365.00 3457.64 58.00
8156 51.0300 3188.00 3433.25 56.00
8157 51.0360 3115.00 3419.19 56.00
8158 51.0420 3269.00 3441.53 57.00
8159 51.0480 3483.00 3512.90 59.00
8160 51.0540 3694.00 3628.61 61.00
8161 51.0600 3833.00 3762.99 62.00
8162 51.0660 3816.00 3867.53 62.00
8163 51.0720 3651.00 3894.58 60.00
8164 51.0780 3472.00 3839.83 59.00
8165 51.0840 3328.00 3736.32 58.00
8166 51.0900 3238.00 3620.92 57.00
8167 51.0960 3305.00 3521.87 57.00
8168 51.1020 3412.00 3457.65 58.00
8169 51.1080 3401.00 3435.06 58.00
8170 51.1140 3434.00 3442.89 59.00
8171 51.1200 3481.00 3452.69 59.00
8172 51.1260 3288.00 3426.47 57.00
8173 51.1320 3115.00 3351.35 56.00
8174 51.1380 3051.00 3246.60 55.00
8175 51.1440 2986.00 3139.74 55.00
8176 51.1500 3005.00 3047.25 55.00
8177 51.1560 3014.00 2974.87 55.00
8178 51.1620 2985.00 2922.22 55.00
8179 51.1680 2898.00 2886.09 54.00
8180 51.1740 2817.00 2862.27 53.00
8181 51.1800 2813.00 2848.96 53.00
8182 51.1860 2861.00 2839.31 53.00
8183 51.1920 2781.00 2833.51 53.00
8184 51.1980 2767.00 2830.94 53.00
8185 51.2040 2827.00 2830.76 53.00
8186 51.2100 2783.00 2833.13 53.00
8187 51.2160 2815.00 2839.60 53.00
8188 51.2220 2897.00 2852.34 54.00
8189 51.2280 2917.00 2873.68 54.00
8190 51.2340 2938.00 2907.55 54.00
8191 51.2400 2951.00 2958.00 54.00
8192 51.2460 3060.00 3027.27 55.00
8193 51.2520 3154.00 3114.24 56.00
8194 51.2580 3372.00 3210.51 58.00
8195 51.2640 3492.00 3296.43 59.00
8196 51.2700 3418.00 3343.83 58.00
8197 51.2760 3331.00 3335.51 58.00
8198 51.2820 3186.00 3283.52 56.00
8199 51.2880 3078.00 3218.72 55.00
8200 51.2940 3064.00 3167.13 55.00
8201 51.3000 3171.00 3143.26 56.00
8202 51.3060 3138.00 3150.64 56.00
8203 51.3120 3168.00 3181.53 56.00
8204 51.3180 3146.00 3217.63 56.00
8205 51.3240 3140.00 3231.84 56.00
8206 51.3300 3124.00 3204.50 56.00
8207 51.3360 3055.00 3141.41 55.00
8208 51.3420 2978.00 3064.66 55.00
8209 51.3480 2928.00 2992.70 54.00
8210 51.3540 2939.00 2933.92 54.00
8211 51.3600 2885.00 2892.42 54.00
8212 51.3660 2915.00 2866.42 54.00
8213 51.3720 2928.00 2853.12 54.00
8214 51.3780 2896.00 2848.33 54.00
8215 51.3840 2865.00 2848.55 54.00
8216 51.3900 2817.00 2850.02 53.00
8217 51.3960 2830.00 2849.78 53.00
8218 51.4020 2898.00 2847.04 54.00
8219 51.4080 2909.00 2841.01 54.00
8220 51.4140 2883.00 2831.35 54.00
8221 51.4200 2868.00 2819.77 54.00
8222 51.4260 2860.00 2807.81 53.00
8223 51.4320 2784.00 2798.17 53.00
8224 51.4380 2823.00 2792.63 53.00
8225 51.4440 2685.00 2791.78 52.00
8226 51.4500 2826.00 2790.75 53.00
8227 51.4560 2877.00 2793.66 54.00
8228 51.4620 2799.00 2797.30 53.00
8229 51.4680 2893.00 2803.76 54.00
8230 51.4740 2831.00 2812.49 53.00
8231 51.4800 2774.00 2825.36 53.00
8232 51.4860 2839.00 2844.17 53.00
8233 51.4920 2817.00 2874.14 53.00
8234 51.4980 2893.00 2920.17 54.00
8235 51.5040 2883.00 2989.00 54.00
8236 51.5100 2985.00 3086.77 55.00
8237 51.5160 3170.00 3216.54 56.00
8238 51.5220 3391.00 3373.63 58.00
8239 51.5280 3705.00 3539.06 61.00
8240 51.5340 3763.00 3673.88 61.00
8241 51.5400 3652.00 3729.24 60.00
8242 51.5460 3422.00 3688.03 58.00
8243 51.5520 3240.00 3580.91 57.00
8244 51.5580 3247.00 3447.41 57.00
8245 51.5640 3163.00 3316.48 56.00
8246 51.5700 2953.00 3201.61 54.00
8247 51.5760 2949.00 3104.32 54.00
8248 51.5820 2871.00 3022.86 54.00
8249 51.5880 2860.00 2957.45 53.00
8250 51.5940 3049.00 2907.33 55.00
8251 51.6000 2993.00 2870.07 55.00
8252 51.6060 2928.00 2843.64 54.00
8253 51.6120 2874.00 2824.71 54.00
8254 51.6180 2894.00 2811.51 54.00
8255 51.6240 2853.00 2802.49 53.00
8256 51.6300 2816.00 2795.51 53.00
8257 51.6360 2783.00 2790.81 53.00
8258 51.6420 2814.00 2788.65 53.00
8259 51.6480 2847.00 2787.25 53.00
8260 51.6540 2822.00 2786.86 53.00
8261 51.6600 2802.00 2787.49 53.00
8262 51.6660 2809.00 2789.10 53.00
8263 51.6720 2762.00 2791.57 53.00
8264 51.6780 2790.00 2794.62 53.00
8265 51.6840 2800.00 2797.36 53.00
8266 51.6900 2874.00 2799.97 54.00
8267 51.6960 2898.00 2803.11 54.00
8268 51.7020 2794.00 2806.86 53.00
8269 51.7080 2849.00 2811.79 53.00
8270 51.7140 2835.00 2818.35 53.00
8271 51.7200 2844.00 2826.93 53.00
8272 51.7260 2836.00 2838.01 53.00
8273 51.7320 2957.00 2852.33 54.00
8274 51.7380 2959.00 2871.20 54.00
8275 51.7440 2897.00 2896.87 54.00
8276 51.7500 3032.00 2933.19 55.00
8277 51.7560 3068.00 2986.53 55.00
8278 51.7620 3070.00 3065.76 55.00
8279 51.7680 3224.00 3182.38 57.00
8280 51.7740 3417.00 3348.06 58.00
8281 51.7800 3669.00 3571.86 61.00
8282 51.7860 4016.00 3852.22 63.00
8283 51.7920 4182.00 4167.98 65.00
8284 51.7980 4619.00 4470.87 68.00
8285 51.8040 4874.00 4694.72 70.00
8286 51.8100 4676.00 4786.76 68.00
8287 51.8160 4414.00 4738.61 66.00
8288 51.8220 4282.00 4580.67 65.00
8289 51.8280 4113.00 4359.26 64.00
8290 51.8340 3818.00 4121.82 62.00
8291 51.8400 3778.00 3903.46 61.00
8292 51.8460 3523.00 3719.14 59.00
8293 51.8520 3388.00 3567.03 58.00
8294 51.8580 3335.00 3447.72 58.00
8295 51.8640 3311.00 3369.72 58.00
8296 51.8700 3331.00 3338.97 58.00
8297 51.8760 3384.00 3355.75 58.00
8298 51.8820 3283.00 3412.28 57.00
8299 51.8880 3576.00 3490.80 60.00
8300 51.8940 3599.00 3563.78 60.00
8301 51.9000 3614.00 3603.25 60.00
8302 51.9060 3497.00 3596.55 59.00
8303 51.9120 3510.00 3546.24 59.00
8304 51.9180 3391.00 3467.50 58.00
8305 51.9240 3358.00 3387.22 58.00
8306 51.9300 3291.00 3328.96 57.00
8307 51.9360 3358.00 3303.57 58.00
8308 51.9420 3337.00 3308.51 58.00
8309 51.9480 3477.00 3329.38 59.00
8310 51.9540 3537.00 3348.17 59.00
8311 51.9600 3339.00 3351.97 58.00
8312 51.9660 3363.00 3337.19 58.00
8313 51.9720 3319.00 3310.14 58.00
8314 51.9780 3308.00 3283.91 58.00
8315 51.9840 3222.00 3269.26 57.00
8316 51.9900 3334.00 3266.57 58.00
8317 51.9960 3356.00 3265.69 58.00
8318 52.0020 3323.00 3249.84 58.00
8319 52.0080 3216.00 3205.57 57.00
8320 52.0140 3068.00 3135.76 55.00
8321 52.0200 3056.00 3056.22 55.00
8322 52.0260 3000.00 2981.47 55.00
8323 52.0320 2953.00 2918.96 54.00
8324 52.0380 2900.00 2870.93 54.00
8325 52.0440 2895.00 2835.86 54.00
8326 52.0500 2826.00 2811.31 53.00
8327 52.0560 2803.00 2794.50 53.00
8328 52.0620 2808.00 2782.99 53.00
8329 52.0680 2811.00 2775.11 53.00
8330 52.0740 2795.00 2769.83 53.00
8331 52.0800 2772.00 2766.66 53.00
8332 52.0860 2792.00 2765.44 53.00
8333 52.0920 2803.00 2766.07 53.00
8334 52.0980 2817.00 2768.38 53.00
8335 52.1040 2880.00 2771.86 54.00
8336 52.1100 2930.00 2775.43 54.00
8337 52.1160 2835.00 2777.68 53.00
8338 52.1220 2815.00 2777.54 53.00
8339 52.1280 2890.00 2774.71 54.00
8340 52.1340 2909.00 2769.61 54.00
8341 52.1400 2894.00 2763.36 54.00
8342 52.1460 2849.00 2757.32 53.00
8343 52.1520 2860.00 2752.58 53.00
8344 52.1580 2898.00 2749.95 54.00
8345 52.1640 2808.00 2748.69 53.00
8346 52.1700 2778.00 2749.68 53.00
8347 52.1760 2843.00 2755.22 53.00
8348 52.1820 2916.00 2765.21 54.00
8349 52.1880 2799.00 2780.23 53.00
8350 52.1940 2893.00 2800.66 54.00
8351 52.2000 2821.00 2824.62 53.00
8352 52.2060 2811.00 2849.63 53.00
8353 52.2120 2825.00 2870.38 53.00
8354 52.2180 2987.00 2881.97 55.00
8355 52.2240 3018.00 2885.08 55.00
8356 52.2300 2972.00 2879.64 55.00
8357 52.2360 2903.00 2865.54 54.00
8358 52.2420 2941.00 2845.01 54.00
8359 52.2480 2908.00 2822.93 54.00
8360 52.2540 2815.00 2801.18 53.00
8361 52.2600 2734.00 2781.75 52.00
8362 52.2660 2767.00 2765.87 53.00
8363 52.2720 2737.00 2753.09 52.00
8364 52.2780 2800.00 2743.70 53.00
8365 52.2840 2791.00 2737.69 53.00
8366 52.2900 2743.00 2733.77 52.00
8367 52.2960 2752.00 2731.40 52.00
8368 52.3020 2732.00 2730.99 52.00
8369 52.3080 2736.00 2730.71 52.00
8370 52.3140 2711.00 2730.92 52.00
8371 52.3200 2733.00 2732.41 52.00
8372 52.3260 2771.00 2734.67 53.00
8373 52.3320 2772.00 2738.90 53.00
8374 52.3380 2837.00 2744.87 53.00
8375 52.3440 2830.00 2754.03 53.00
8376 52.3500 2825.00 2766.64 53.00
8377 52.3560 2860.00 2782.95 53.00
8378 52.3620 2893.00 2802.88 54.00
8379 52.3680 2908.00 2824.89 54.00
8380 52.3740 2943.00 2847.16 54.00
8381 52.3800 2901.00 2868.58 54.00
8382 52.3860 2944.00 2885.81 54.00
8383 52.3920 2937.00 2894.78 54.00
8384 52.3980 2920.00 2893.36 54.00
8385 52.4040 2804.00 2880.69 53.00
8386 52.4100 2827.00 2859.17 53.00
8387 52.4160 2762.00 2834.99 53.00
8388 52.4220 2827.00 2812.08 53.00
8389 52.4280 2787.00 2793.88 53.00
8390 52.4340 2825.00 2780.92 53.00
8391 52.4400 2763.00 2772.98 53.00
8392 52.4460 2707.00 2769.25 52.00
8393 52.4520 2748.00 2768.90 52.00
8394 52.4580 2784.00 2771.28 53.00
8395 52.4640 2646.00 2776.07 51.00
8396 52.4700 2773.00 2783.31 53.00
8397 52.4760 2917.00 2793.50 54.00
8398 52.4820 2920.00 2807.66 54.00
8399 52.4880 2845.00 2827.70 53.00
8400 52.4940 2875.00 2856.38 54.00
8401 52.5000 2854.00 2897.78 53.00
8402 52.5060 2927.00 2957.20 54.00
8403 52.5120 2974.00 3040.63 55.00
8404 52.5180 3128.00 3153.40 56.00
8405 52.5240 3287.00 3297.48 57.00
8406 52.5300 3408.00 3469.18 58.00
8407 52.5360 3744.00 3657.45 61.00
8408 52.5420 4085.00 3842.62 64.00
8409 52.5480 4357.00 3995.98 66.00
8410 52.5540 4425.00 4082.32 67.00
8411 52.5600 4180.00 4070.92 65.00
8412 52.5660 3784.00 3959.31 62.00
8413 52.5720 3449.00 3782.25 59.00
8414 52.5780 3282.00 3591.95 57.00
8415 52.5840 3236.00 3428.73 57.00
8416 52.5900 3142.00 3315.32 56.00
8417 52.5960 3150.00 3254.66 56.00
8418 52.6020 3203.00 3240.39 57.00
8419 52.6080 3285.00 3257.19 57.00
8420 52.6140 3330.00 3281.83 58.00
8421 52.6200 3280.00 3291.36 57.00
8422 52.6260 3275.00 3274.57 57.00
8423 52.6320 3254.00 3236.64 57.00
8424 52.6380 3139.00 3191.81 56.00
8425 52.6440 3089.00 3158.55 56.00
8426 52.6500 3056.00 3145.06 55.00
8427 52.6560 3125.00 3151.25 56.00
8428 52.6620 3169.00 3165.16 56.00
8429 52.6680 3125.00 3166.87 56.00
8430 52.6740 2955.00 3140.30 54.00
8431 52.6800 2903.00 3088.22 54.00
8432 52.6860 2864.00 3027.26 54.00
8433 52.6920 2889.00 2970.59 54.00
8434 52.6980 2893.00 2926.65 54.00
8435 52.7040 2850.00 2897.15 53.00
8436 52.7100 2901.00 2883.01 54.00
8437 52.7160 2964.00 2883.92 54.00
8438 52.7220 3002.00 2899.49 55.00
8439 52.7280 3120.00 2929.58 56.00
8440 52.7340 3074.00 2973.90 55.00
8441 52.7400 3048.00 3031.25 55.00
8442 52.7460 3102.00 3100.27 56.00
8443 52.7520 3241.00 3179.89 57.00
8444 52.7580 3332.00 3265.94 58.00
8445 52.7640 3386.00 3345.83 58.00
8446 52.7700 3383.00 3399.78 58.00
8447 52.7760 3299.00 3412.70 57.00
8448 52.7820 3207.00 3380.30 57.00
8449 52.7880 3148.00 3308.77 56.00
8450 52.7940 3141.00 3213.09 56.00
8451 52.8000 2986.00 3111.39 55.00
8452 52.8060 2921.00 3017.86 54.00
8453 52.8120 2982.00 2940.31 55.00
8454 52.8180 2994.00 2880.84 55.00
8455 52.8240 2905.00 2837.88 54.00
8456 52.8300 2793.00 2808.14 53.00
8457 52.8360 2814.00 2788.06 53.00
8458 52.8420 2778.00 2774.83 53.00
8459 52.8480 2793.00 2766.14 53.00
8460 52.8540 2873.00 2760.46 54.00
8461 52.8600 2863.00 2756.86 54.00
8462 52.8660 2827.00 2754.92 53.00
8463 52.8720 2784.00 2754.43 53.00
8464 52.8780 2752.00 2755.78 52.00
8465 52.8840 2876.00 2758.32 54.00
8466 52.8900 2887.00 2763.36 54.00
8467 52.8960 2833.00 2771.26 53.00
8468 52.9020 2879.00 2782.72 54.00
8469 52.9080 2864.00 2800.49 54.00
8470 52.9140 2926.00 2828.06 54.00
8471 52.9200 3031.00 2867.01 55.00
8472 52.9260 3160.00 2920.11 56.00
8473 52.9320 3066.00 2986.67 55.00
8474 52.9380 3263.00 3065.38 57.00
8475 52.9440 3342.00 3147.29 58.00
8476 52.9500 3346.00 3215.04 58.00
8477 52.9560 3359.00 3253.95 58.00
8478 52.9620 3282.00 3259.27 57.00
8479 52.9680 3215.00 3239.94 57.00
8480 52.9740 3121.00 3211.82 56.00
8481 52.9800 3118.00 3197.90 56.00
8482 52.9860 3221.00 3211.64 57.00
8483 52.9920 3268.00 3254.84 57.00
8484 52.9980 3389.00 3318.09 58.00
8485 53.0040 3355.00 3377.96 58.00
8486 53.0100 3330.00 3408.39 58.00
8487 53.0160 3237.00 3395.63 57.00
8488 53.0220 3210.00 3349.45 57.00
8489 53.0280 3091.00 3292.53 56.00
8490 53.0340 3196.00 3244.30 57.00
8491 53.0400 3282.00 3216.35 57.00
8492 53.0460 3252.00 3211.99 57.00
8493 53.0520 3318.00 3226.59 58.00
8494 53.0580 3240.00 3241.72 57.00
8495 53.0640 3220.00 3234.93 57.00
8496 53.0700 3158.00 3193.59 56.00
8497 53.0760 3013.00 3123.66 55.00
8498 53.0820 3026.00 3042.58 55.00
8499 53.0880 3035.00 2965.83 55.00
8500 53.0940 2931.00 2901.55 54.00
8501 53.1000 2795.00 2852.06 53.00
8502 53.1060 2831.00 2816.31 53.00
8503 53.1120 2928.00 2791.76 54.00
8504 53.1180 2818.00 2775.41 53.00
8505 53.1240 2819.00 2765.05 53.00
8506 53.1300 2804.00 2758.57 53.00
8507 53.1360 2875.00 2754.80 54.00
8508 53.1420 2750.00 2752.51 52.00
8509 53.1480 2851.00 2752.59 53.00
8510 53.1540 2776.00 2754.13 53.00
8511 53.1600 2770.00 2758.40 53.00
8512 53.1660 2813.00 2766.18 53.00
8513 53.1720 2851.00 2777.34 53.00
8514 53.1780 2851.00 2793.46 53.00
8515 53.1840 2922.00 2815.31 54.00
8516 53.1900 2969.00 2843.33 54.00
8517 53.1960 3065.00 2876.91 55.00
8518 53.2020 3073.00 2915.30 55.00
8519 53.2080 3152.00 2955.35 56.00
8520 53.2140 3167.00 2996.94 56.00
8521 53.2200 3194.00 3038.97 57.00
8522 53.2260 3170.00 3082.44 56.00
8523 53.2320 3256.00 3132.41 57.00
8524 53.2380 3316.00 3196.37 58.00
8525 53.2440 3310.00 3277.92 58.00
8526 53.2500 3594.00 3371.77 60.00
8527 53.2560 3595.00 3466.00 60.00
8528 53.2620 3511.00 3548.80 59.00
8529 53.2680 3635.00 3613.83 60.00
8530 53.2740 3479.00 3660.25 59.00
8531 53.2800 3780.00 3688.64 61.00
8532 53.2860 3565.00 3692.49 60.00
8533 53.2920 3533.00 3658.38 59.00
8534 53.2980 3434.00 3584.26 59.00
8535 53.3040 3253.00 3490.83 57.00
8536 53.3100 3169.00 3407.33 56.00
8537 53.3160 3198.00 3353.87 57.00
8538 53.3220 3281.00 3337.91 57.00
8539 53.3280 3357.00 3356.90 58.00
8540 53.3340 3556.00 3398.35 60.00
8541 53.3400 3654.00 3432.81 60.00
8542 53.3460 3457.00 3426.17 59.00
8543 53.3520 3297.00 3361.29 57.00
8544 53.3580 3200.00 3255.35 57.00
8545 53.3640 3113.00 3138.31 56.00
8546 53.3700 2909.00 3030.92 54.00
8547 53.3760 2866.00 2942.59 54.00
8548 53.3820 2805.00 2875.50 53.00
8549 53.3880 2791.00 2827.52 53.00
8550 53.3940 2823.00 2793.39 53.00
8551 53.4000 2776.00 2771.05 53.00
8552 53.4060 2817.00 2755.67 53.00
8553 53.4120 2791.00 2745.26 53.00
8554 53.4180 2884.00 2737.66 54.00
8555 53.4240 2792.00 2732.00 53.00
8556 53.4300 2745.00 2727.93 52.00
8557 53.4360 2807.00 2724.70 53.00
8558 53.4420 2771.00 2723.30 53.00
8559 53.4480 2730.00 2722.82 52.00
8560 53.4540 2763.00 2724.61 53.00
8561 53.4600 2847.00 2728.27 53.00
8562 53.4660 2703.00 2735.08 52.00
8563 53.4720 2772.00 2744.55 53.00
8564 53.4780 2727.00 2756.20 52.00
8565 53.4840 2937.00 2771.72 54.00
8566 53.4900 2876.00 2788.62 54.00
8567 53.4960 2918.00 2807.92 54.00
8568 53.5020 2848.00 2829.88 53.00
8569 53.5080 2950.00 2857.94 54.00
8570 53.5140 3010.00 2893.19 55.00
8571 53.5200 3004.00 2937.78 55.00
8572 53.5260 3149.00 2990.19 56.00
8573 53.5320 3193.00 3040.91 57.00
8574 53.5380 3131.00 3080.96 56.00
8575 53.5440 3080.00 3104.84 55.00
8576 53.5500 3164.00 3115.57 56.00
8577 53.5560 3032.00 3123.14 55.00
8578 53.5620 3129.00 3137.01 56.00
8579 53.5680 3278.00 3157.68 57.00
8580 53.5740 3187.00 3173.72 56.00
8581 53.5800 3145.00 3168.24 56.00
8582 53.5860 3059.00 3135.70 55.00
8583 53.5920 3091.00 3086.55 56.00
8584 53.5980 3103.00 3034.41 56.00
8585 53.6040 3102.00 2986.14 56.00
8586 53.6100 2964.00 2943.77 54.00
8587 53.6160 2960.00 2906.45 54.00
8588 53.6220 2955.00 2872.68 54.00
8589 53.6280 2889.00 2841.56 54.00
8590 53.6340 2873.00 2814.12 54.00
8591 53.6400 2851.00 2791.66 53.00
8592 53.6460 2811.00 2776.55 53.00
8593 53.6520 2850.00 2766.18 53.00
8594 53.6580 2882.00 2762.16 54.00
8595 53.6640 2820.00 2764.92 53.00
8596 53.6700 2843.00 2772.31 53.00
8597 53.6760 2815.00 2786.44 53.00
8598 53.6820 2832.00 2808.52 53.00
8599 53.6880 2857.00 2837.68 53.00
8600 53.6940 2881.00 2872.51 54.00
8601 53.7000 2997.00 2909.23 55.00
8602 53.7060 2978.00 2941.96 55.00
8603 53.7120 2984.00 2965.14 55.00
8604 53.7180 3019.00 2980.16 55.00
8605 53.7240 2969.00 2996.07 54.00
8606 53.7300 2986.00 3026.63 55.00
8607 53.7360 2868.00 3082.63 54.00
8608 53.7420 2937.00 3169.13 54.00
8609 53.7480 3301.00 3284.47 57.00
8610 53.7540 3580.00 3418.15 60.00
8611 53.7600 3608.00 3546.38 60.00
8612 53.7660 3586.00 3639.48 60.00
8613 53.7720 3625.00 3682.15 60.00
8614 53.7780 3548.00 3681.08 60.00
8615 53.7840 3537.00 3647.19 59.00
8616 53.7900 3470.00 3586.10 59.00
8617 53.7960 3394.00 3504.56 58.00
8618 53.8020 3436.00 3420.47 59.00
8619 53.8080 3251.00 3356.95 57.00
8620 53.8140 3345.00 3334.15 58.00
8621 53.8200 3422.00 3361.57 58.00
8622 53.8260 3528.00 3440.49 59.00
8623 53.8320 3707.00 3562.24 61.00
8624 53.8380 3815.00 3706.31 62.00
8625 53.8440 3934.00 3843.41 63.00
8626 53.8500 3914.00 3946.75 63.00
8627 53.8560 3816.00 4002.25 62.00
8628 53.8620 3825.00 4008.77 62.00
8629 53.8680 3719.00 3977.06 61.00
8630 53.8740 3694.00 3927.23 61.00
8631 53.8800 3821.00 3878.48 62.00
8632 53.8860 3903.00 3836.05 62.00
8633 53.8920 3857.00 3788.05 62.00
8634 53.8980 3741.00 3717.52 61.00
8635 53.9040 3442.00 3614.70 59.00
8636 53.9100 3290.00 3481.64 57.00
8637 53.9160 3105.00 3334.58 56.00
8638 53.9220 3008.00 3195.65 55.00
8639 53.9280 2957.00 3077.93 54.00
8640 53.9340 2917.00 2986.92 54.00
8641 53.9400 2918.00 2921.36 54.00
8642 53.9460 2887.00 2878.60 54.00
8643 53.9520 2883.00 2854.34 54.00
8644 53.9580 2884.00 2845.21 54.00
8645 53.9640 2902.00 2849.16 54.00
8646 53.9700 2904.00 2866.79 54.00
8647 53.9760 2932.00 2896.79 54.00
8648 53.9820 3017.00 2938.84 55.00
8649 53.9880 3065.00 2990.76 55.00
8650 53.9940 3126.00 3049.12 56.00
8651 54.0000 3178.00 3111.55 56.00
8652 54.0060 3226.00 3178.77 57.00
8653 54.0120 3344.00 3250.85 58.00
8654 54.0180 3479.00 3323.52 59.00
8655 54.0240 3430.00 3388.22 59.00
8656 54.0300 3381.00 3432.69 58.00
8657 54.0360 3448.00 3445.31 59.00
8658 54.0420 3319.00 3421.39 58.00
8659 54.0480 3191.00 3360.63 56.00
8660 54.0540 3134.00 3267.34 56.00
8661 54.0600 2991.00 3157.85 55.00
8662 54.0660 2968.00 3052.24 54.00
8663 54.0720 2911.00 2963.49 54.00
8664 54.0780 2869.00 2896.42 54.00
8665 54.0840 2857.00 2851.21 53.00
8666 54.0900 2841.00 2825.41 53.00
8667 54.0960 2890.00 2816.03 54.00
8668 54.1020 2903.00 2819.43 54.00
8669 54.1080 2957.00 2830.96 54.00
8670 54.1140 2953.00 2844.80 54.00
8671 54.1200 2976.00 2853.76 55.00
8672 54.1260 2919.00 2852.78 54.00
8673 54.1320 2887.00 2843.83 54.00
8674 54.1380 2947.00 2834.36 54.00
8675 54.1440 2861.00 2831.75 53.00
8676 54.1500 2927.00 2839.67 54.00
8677 54.1560 3036.00 2862.73 55.00
8678 54.1620 3007.00 2898.57 55.00
8679 54.1680 3118.00 2942.59 56.00
8680 54.1740 3240.00 2986.70 57.00
8681 54.1800 3236.00 3022.46 57.00
8682 54.1860 3229.00 3044.18 57.00
8683 54.1920 3175.00 3046.58 56.00
8684 54.1980 3058.00 3026.11 55.00
8685 54.2040 2976.00 2983.94 55.00
8686 54.2100 2901.00 2928.34 54.00
8687 54.2160 2820.00 2870.47 53.00
8688 54.2220 2793.00 2818.56 53.00
8689 54.2280 2821.00 2775.89 53.00
8690 54.2340 2791.00 2744.54 53.00
8691 54.2400 2745.00 2721.87 52.00
8692 54.2460 2756.00 2706.83 52.00
8693 54.2520 2767.00 2698.04 53.00
8694 54.2580 2793.00 2693.66 53.00
8695 54.2640 2771.00 2693.13 53.00
8696 54.2700 2721.00 2695.99 52.00
8697 54.2760 2719.00 2701.94 52.00
8698 54.2820 2722.00 2714.08 52.00
8699 54.2880 2846.00 2732.67 53.00
8700 54.2940 2872.00 2762.41 54.00
8701 54.3000 2822.00 2805.25 53.00
8702 54.3060 2934.00 2863.34 54.00
8703 54.3120 3039.00 2936.84 55.00
8704 54.3180 3158.00 3021.59 56.00
8705 54.3240 3286.00 3106.73 57.00
8706 54.3300 3350.00 3175.53 58.00
8707 54.3360 3313.00 3212.66 58.00
8708 54.3420 3242.00 3212.41 57.00
8709 54.3480 3166.00 3176.38 56.00
8710 54.3540 3045.00 3114.94 55.00
8711 54.3600 2975.00 3042.05 55.00
8712 54.3660 2995.00 2972.75 55.00
8713 54.3720 2935.00 2918.55 54.00
8714 54.3780 2931.00 2885.03 54.00
8715 54.3840 2987.00 2872.32 55.00
8716 54.3900 2932.00 2877.45 54.00
8717 54.3960 3009.00 2892.88 55.00
8718 54.4020 2997.00 2908.16 55.00
8719 54.4080 2939.00 2914.63 54.00
8720 54.4140 2929.00 2908.00 54.00
8721 54.4200 2864.00 2886.76 54.00
8722 54.4260 2816.00 2853.59 53.00
8723 54.4320 2788.00 2813.49 53.00
8724 54.4380 2809.00 2773.36 53.00
8725 54.4440 2764.00 2739.29 53.00
8726 54.4500 2699.00 2712.05 52.00
8727 54.4560 2711.00 2691.94 52.00
8728 54.4620 2709.00 2678.06 52.00
8729 54.4680 2690.00 2669.26 52.00
8730 54.4740 2683.00 2664.49 52.00
8731 54.4800 2740.00 2663.17 52.00
8732 54.4860 2792.00 2665.24 53.00
8733 54.4920 2752.00 2671.25 52.00
8734 54.4980 2757.00 2682.22 53.00
8735 54.5040 2835.00 2699.56 53.00
8736 54.5100 2879.00 2724.22 54.00
8737 54.5160 2911.00 2757.54 54.00
8738 54.5220 2897.00 2798.34 54.00
8739 54.5280 2935.00 2842.68 54.00
8740 54.5340 2960.00 2882.79 54.00
8741 54.5400 2936.00 2910.28 54.00
8742 54.5460 2930.00 2917.82 54.00
8743 54.5520 2836.00 2902.92 53.00
8744 54.5580 2717.00 2869.43 52.00
8745 54.5640 2767.00 2825.14 53.00
8746 54.5700 2816.00 2779.67 53.00
8747 54.5760 2749.00 2738.93 52.00
8748 54.5820 2735.00 2706.29 52.00
8749 54.5880 2705.00 2681.15 52.00
8750 54.5940 2709.00 2663.37 52.00
8751 54.6000 2742.00 2651.24 52.00
8752 54.6060 2688.00 2643.11 52.00
8753 54.6120 2710.00 2637.75 52.00
8754 54.6180 2670.00 2634.22 52.00
8755 54.6240 2658.00 2631.95 52.00
8756 54.6300 2669.00 2630.58 52.00
8757 54.6360 2701.00 2629.94 52.00
8758 54.6420 2713.00 2629.93 52.00
8759 54.6480 2699.00 2630.56 52.00
8760 54.6540 2738.00 2631.91 52.00
8761 54.6600 2708.00 2634.17 52.00
8762 54.6660 2663.00 2637.69 52.00
8763 54.6720 2653.00 2643.09 52.00
8764 54.6780 2697.00 2651.34 52.00
8765 54.6840 2731.00 2663.82 52.00
8766 54.6900 2736.00 2682.26 52.00
8767 54.6960 2812.00 2708.35 53.00
8768 54.7020 2854.00 2743.27 53.00
8769 54.7080 2862.00 2786.82 53.00
8770 54.7140 2862.00 2836.25 53.00
8771 54.7200 2911.00 2884.13 54.00
8772 54.7260 2961.00 2919.02 54.00
8773 54.7320 2849.00 2928.96 53.00
8774 54.7380 2802.00 2911.09 53.00
8775 54.7440 2778.00 2876.43 53.00
8776 54.7500 2731.00 2839.63 52.00
8777 54.7560 2706.00 2810.68 52.00
8778 54.7620 2708.00 2795.01 52.00
8779 54.7680 2704.00 2794.61 52.00
8780 54.7740 2812.00 2809.00 53.00
8781 54.7800 2917.00 2835.45 54.00
8782 54.7860 2926.00 2869.21 54.00
8783 54.7920 3006.00 2904.94 55.00
8784 54.7980 2973.00 2940.99 55.00
8785 54.8040 3022.00 2977.49 55.00
8786 54.8100 2999.00 3012.42 55.00
8787 54.8160 3096.00 3042.40 56.00
8788 54.8220 3142.00 3058.99 56.00
8789 54.8280 3087.00 3051.82 56.00
8790 54.8340 2955.00 3016.20 54.00
8791 54.8400 2863.00 2959.63 54.00
8792 54.8460 2812.00 2896.50 53.00
8793 54.8520 2810.00 2839.12 53.00
8794 54.8580 2834.00 2793.67 53.00
8795 54.8640 2834.00 2762.28 53.00
8796 54.8700 2793.00 2745.72 53.00
8797 54.8760 2758.00 2743.75 53.00
8798 54.8820 2746.00 2756.25 52.00
8799 54.8880 2852.00 2783.64 53.00
8800 54.8940 2826.00 2826.47 53.00
8801 54.9000 2908.00 2884.26 54.00
8802 54.9060 3091.00 2953.67 56.00
8803 54.9120 3145.00 3026.84 56.00
8804 54.9180 3108.00 3091.23 56.00
8805 54.9240 3184.00 3133.13 56.00
8806 54.9300 3111.00 3141.72 56.00
8807 54.9360 3004.00 3112.75 55.00
8808 54.9420 2950.00 3054.96 54.00
8809 54.9480 2889.00 2983.50 54.00
8810 54.9540 2863.00 2914.44 54.00
8811 54.9600 2886.00 2855.42 54.00
8812 54.9660 2824.00 2807.20 53.00
8813 54.9720 2718.00 2766.81 52.00
8814 54.9780 2682.00 2731.68 52.00
8815 54.9840 2714.00 2701.66 52.00
8816 54.9900 2755.00 2676.93 52.00
8817 54.9960 2735.00 2657.25 52.00
8818 55.0020 2694.00 2641.99 52.00
8819 55.0080 2716.00 2630.38 52.00
8820 55.0140 2729.00 2621.64 52.00
8821 55.0200 2695.00 2615.09 52.00
8822 55.0260 2765.00 2610.12 53.00
8823 55.0320 2702.00 2606.28 52.00
8824 55.0380 2680.00 2603.25 52.00
8825 55.0440 2636.00 2600.80 51.00
8826 55.0500 2683.00 2598.78 52.00
8827 55.0560 2612.00 2597.11 51.00
8828 55.0620 2627.00 2595.93 51.00
8829 55.0680 2719.00 2594.81 52.00
8830 55.0740 2657.00 2593.91 52.00
8831 55.0800 2575.00 2593.41 51.00
8832 55.0860 2668.00 2592.93 52.00
8833 55.0920 2651.00 2592.65 51.00
8834 55.0980 2729.00 2592.59 52.00
8835 55.1040 2666.00 2593.02 52.00
8836 55.1100 2723.00 2593.64 52.00
8837 55.1160 2658.00 2594.37 52.00
8838 55.1220 2605.00 2595.11 51.00
8839 55.1280 2710.00 2596.36 52.00
8840 55.1340 2701.00 2598.70 52.00
8841 55.1400 2619.00 2602.02 51.00
8842 55.1460 2643.00 2606.89 51.00
8843 55.1520 2641.00 2614.03 51.00
8844 55.1580 2695.00 2624.29 52.00
8845 55.1640 2664.00 2638.54 52.00
8846 55.1700 2747.00 2657.38 52.00
8847 55.1760 2743.00 2680.82 52.00
8848 55.1820 2814.00 2707.68 53.00
8849 55.1880 2842.00 2734.93 53.00
8850 55.1940 2851.00 2757.78 53.00
8851 55.2000 2822.00 2771.37 53.00
8852 55.2060 2858.00 2776.13 53.00
8853 55.2120 2857.00 2779.38 53.00
8854 55.2180 2855.00 2788.09 53.00
8855 55.2240 2926.00 2807.63 54.00
8856 55.2300 2922.00 2838.35 54.00
8857 55.2360 2980.00 2875.25 55.00
8858 55.2420 3012.00 2908.52 55.00
8859 55.2480 3070.00 2923.95 55.00
8860 55.2540 2937.00 2912.53 54.00
8861 55.2600 2888.00 2878.51 54.00
8862 55.2660 2806.00 2834.31 53.00
8863 55.2720 2839.00 2792.16 53.00
8864 55.2780 2909.00 2759.99 54.00
8865 55.2840 2794.00 2741.98 53.00
8866 55.2900 2765.00 2740.03 53.00
8867 55.2960 2846.00 2753.94 53.00
8868 55.3020 2893.00 2782.18 54.00
8869 55.3080 2917.00 2821.09 54.00
8870 55.3140 3016.00 2863.40 55.00
8871 55.3200 3006.00 2899.48 55.00
8872 55.3260 3003.00 2919.06 55.00
8873 55.3320 3054.00 2919.29 55.00
8874 55.3380 2915.00 2899.41 54.00
8875 55.3440 2806.00 2867.39 53.00
8876 55.3500 2824.00 2833.01 53.00
8877 55.3560 2862.00 2803.07 53.00
8878 55.3620 2861.00 2779.44 53.00
8879 55.3680 2890.00 2760.31 54.00
8880 55.3740 2848.00 2743.31 53.00
8881 55.3800 2866.00 2725.88 54.00
8882 55.3860 2809.00 2706.73 53.00
8883 55.3920 2708.00 2686.81 52.00
8884 55.3980 2668.00 2668.49 52.00
8885 55.4040 2663.00 2653.86 52.00
8886 55.4100 2741.00 2644.65 52.00
8887 55.4160 2760.00 2640.45 53.00
8888 55.4220 2713.00 2642.14 52.00
8889 55.4280 2613.00 2649.98 51.00
8890 55.4340 2683.00 2664.01 52.00
8891 55.4400 2701.00 2683.90 52.00
8892 55.4460 2750.00 2708.43 52.00
8893 55.4520 2825.00 2734.90 53.00
8894 55.4580 2797.00 2759.56 53.00
8895 55.4640 2875.00 2779.85 54.00
8896 55.4700 2686.00 2795.75 52.00
8897 55.4760 2743.00 2808.33 52.00
8898 55.4820 2820.00 2819.12 53.00
8899 55.4880 2882.00 2829.91 54.00
8900 55.4940 2874.00 2840.37 54.00
8901 55.5000 2914.00 2843.96 54.00
8902 55.5060 2908.00 2834.26 54.00
8903 55.5120 2821.00 2810.20 53.00
8904 55.5180 2836.00 2777.75 53.00
8905 55.5240 2846.00 2744.03 53.00
8906 55.5300 2652.00 2713.03 51.00
8907 55.5360 2672.00 2686.58 52.00
8908 55.5420 2648.00 2665.31 51.00
8909 55.5480 2656.00 2649.39 52.00
8910 55.5540 2679.00 2639.01 52.00
8911 55.5600 2722.00 2633.80 52.00
8912 55.5660 2739.00 2633.49 52.00
8913 55.5720 2741.00 2638.12 52.00
8914 55.5780 2720.00 2648.21 52.00
8915 55.5840 2755.00 2664.72 52.00
8916 55.5900 2812.00 2688.98 53.00
8917 55.5960 2770.00 2722.01 53.00
8918 55.6020 2756.00 2765.32 52.00
8919 55.6080 2825.00 2818.01 53.00
8920 55.6140 3002.00 2878.06 55.00
8921 55.6200 3026.00 2942.98 55.00
8922 55.6260 3134.00 3009.51 56.00
8923 55.6320 3289.00 3070.61 57.00
8924 55.6380 3305.00 3113.12 57.00
8925 55.6440 3209.00 3120.61 57.00
8926 55.6500 3114.00 3089.50 56.00
8927 55.6560 3086.00 3034.22 56.00
8928 55.6620 2928.00 2973.65 54.00
8929 55.6680 2898.00 2921.90 54.00
8930 55.6740 2947.00 2886.37 54.00
8931 55.6800 2858.00 2869.02 53.00
8932 55.6860 2969.00 2868.97 54.00
8933 55.6920 2865.00 2885.32 54.00
8934 55.6980 2964.00 2917.84 54.00
8935 55.7040 2997.00 2965.42 55.00
8936 55.7100 2922.00 3025.60 54.00
8937 55.7160 3146.00 3092.88 56.00
8938 55.7220 3177.00 3154.03 56.00
8939 55.7280 3208.00 3187.81 57.00
8940 55.7340 3153.00 3174.08 56.00
8941 55.7400 2890.00 3113.59 54.00
8942 55.7460 2878.00 3027.46 54.00
8943 55.7520 2752.00 2939.07 52.00
8944 55.7580 2823.00 2862.14 53.00
8945 55.7640 2814.00 2804.23 53.00
8946 55.7700 2808.00 2767.73 53.00
8947 55.7760 2779.00 2751.98 53.00
8948 55.7820 2741.00 2754.15 52.00
8949 55.7880 2825.00 2770.45 53.00
8950 55.7940 3082.00 2794.71 56.00
8951 55.8000 3014.00 2818.01 55.00
8952 55.8060 2912.00 2829.14 54.00
8953 55.8120 2956.00 2820.33 54.00
8954 55.8180 2831.00 2793.40 53.00
8955 55.8240 2812.00 2757.45 53.00
8956 55.8300 2808.00 2722.20 53.00
8957 55.8360 2638.00 2692.10 51.00
8958 55.8420 2677.00 2670.71 52.00
8959 55.8480 2670.00 2658.57 52.00
8960 55.8540 2694.00 2656.36 52.00
8961 55.8600 2811.00 2663.87 53.00
8962 55.8660 2741.00 2681.14 52.00
8963 55.8720 2740.00 2707.06 52.00
8964 55.8780 2812.00 2739.42 53.00
8965 55.8840 2919.00 2774.74 54.00
8966 55.8900 2899.00 2805.23 54.00
8967 55.8960 2901.00 2823.22 54.00
8968 55.9020 2898.00 2825.35 54.00
8969 55.9080 2848.00 2818.09 53.00
8970 55.9140 2783.00 2810.84 53.00
8971 55.9200 2876.00 2808.75 54.00
8972 55.9260 2834.00 2811.92 53.00
8973 55.9320 2917.00 2815.23 54.00
8974 55.9380 2801.00 2811.35 53.00
8975 55.9440 2728.00 2795.39 52.00
8976 55.9500 2886.00 2768.80 54.00
8977 55.9560 2691.00 2737.73 52.00
8978 55.9620 2823.00 2708.48 53.00
8979 55.9680 2840.00 2685.12 53.00
8980 55.9740 2731.00 2669.76 52.00
8981 55.9800 2719.00 2663.67 52.00
8982 55.9860 2717.00 2668.05 52.00
8983 55.9920 2750.00 2684.61 52.00
8984 55.9980 2826.00 2715.80 53.00
8985 56.0040 2755.00 2764.45 52.00
8986 56.0100 2958.00 2832.88 54.00
8987 56.0160 3030.00 2921.39 55.00
8988 56.0220 3209.00 3026.32 57.00
8989 56.0280 3375.00 3136.62 58.00
8990 56.0340 3459.00 3231.15 59.00
8991 56.0400 3362.00 3281.98 58.00
8992 56.0460 3285.00 3270.66 57.00
8993 56.0520 2998.00 3205.24 55.00
8994 56.0580 2959.00 3109.51 54.00
8995 56.0640 2861.00 3006.36 53.00
8996 56.0700 2903.00 2910.67 54.00
8997 56.0760 2796.00 2831.02 53.00
8998 56.0820 2793.00 2771.24 53.00
8999 56.0880 2769.00 2731.61 53.00
9000 56.0940 2848.00 2711.12 53.00
9001 56.1000 2903.00 2707.99 54.00
9002 56.1060 2843.00 2720.70 53.00
9003 56.1120 2906.00 2748.36 54.00
9004 56.1180 2884.00 2789.10 54.00
9005 56.1240 3021.00 2839.29 55.00
9006 56.1300 3061.00 2891.80 55.00
9007 56.1360 3234.00 2935.06 57.00
9008 56.1420 3119.00 2962.46 56.00
9009 56.1480 3138.00 2968.65 56.00
9010 56.1540 3038.00 2953.06 55.00
9011 56.1600 2997.00 2918.98 55.00
9012 56.1660 2876.00 2875.51 54.00
9013 56.1720 2906.00 2833.34 54.00
9014 56.1780 2900.00 2800.22 54.00
9015 56.1840 2922.00 2781.18 54.00
9016 56.1900 2960.00 2778.81 54.00
9017 56.1960 2778.00 2794.84 53.00
9018 56.2020 3021.00 2828.48 55.00
9019 56.2080 3096.00 2875.92 56.00
9020 56.2140 3124.00 2929.52 56.00
9021 56.2200 3160.00 2980.82 56.00
9022 56.2260 3227.00 3019.12 57.00
9023 56.2320 3152.00 3035.78 56.00
9024 56.2380 3112.00 3027.49 56.00
9025 56.2440 3049.00 2998.07 55.00
9026 56.2500 2975.00 2955.36 55.00
9027 56.2560 3007.00 2908.82 55.00
9028 56.2620 3087.00 2868.36 56.00
9029 56.2680 2933.00 2840.87 54.00
9030 56.2740 3057.00 2827.91 55.00
9031 56.2800 2965.00 2825.79 54.00
9032 56.2860 2893.00 2827.68 54.00
9033 56.2920 2964.00 2826.94 54.00
9034 56.2980 2970.00 2818.03 54.00
9035 56.3040 2892.00 2799.27 54.00
9036 56.3100 2827.00 2770.59 53.00
9037 56.3160 2801.00 2735.54 53.00
9038 56.3220 2837.00 2698.12 53.00
9039 56.3280 2742.00 2661.91 52.00
9040 56.3340 2752.00 2629.84 52.00
9041 56.3400 2733.00 2603.21 52.00
9042 56.3460 2711.00 2582.31 52.00
9043 56.3520 2654.00 2566.80 52.00
9044 56.3580 2710.00 2555.44 52.00
9045 56.3640 2699.00 2547.24 52.00
9046 56.3700 2701.00 2541.32 52.00
9047 56.3760 2756.00 2537.03 52.00
9048 56.3820 2660.00 2533.85 52.00
9049 56.3880 2695.00 2531.43 52.00
9050 56.3940 2703.00 2529.49 52.00
9051 56.4000 2640.00 2527.91 51.00
9052 56.4060 2672.00 2526.68 52.00
9053 56.4120 2633.00 2525.93 51.00
9054 56.4180 2649.00 2525.72 51.00
9055 56.4240 2699.00 2526.16 52.00
9056 56.4300 2684.00 2526.85 52.00
9057 56.4360 2665.00 2527.60 52.00
9058 56.4420 2536.00 2527.92 50.00
9059 56.4480 2673.00 2526.79 52.00
9060 56.4540 2680.00 2525.94 52.00
9061 56.4600 2655.00 2523.67 52.00
9062 56.4660 2596.00 2520.80 51.00
9063 56.4720 2662.00 2518.03 52.00
9064 56.4780 2656.00 2515.56 52.00
9065 56.4840 2715.00 2513.53 52.00
9066 56.4900 2654.00 2511.99 52.00
9067 56.4960 2600.00 2511.00 51.00
9068 56.5020 2650.00 2510.65 51.00
9069 56.5080 2718.00 2510.44 52.00
9070 56.5140 2635.00 2510.55 51.00
9071 56.5200 2702.00 2511.54 52.00
9072 56.5260 2632.00 2512.89 51.00
9073 56.5320 2535.00 2515.02 50.00
9074 56.5380 2604.00 2518.94 51.00
9075 56.5440 2599.00 2523.99 51.00
9076 56.5500 2654.00 2531.11 52.00
9077 56.5560 2631.00 2541.09 51.00
9078 56.5620 2603.00 2553.35 51.00
9079 56.5680 2578.00 2568.31 51.00
9080 56.5740 2646.00 2584.38 51.00
9081 56.5800 2656.00 2598.89 52.00
9082 56.5860 2701.00 2607.67 52.00
9083 56.5920 2651.00 2607.43 51.00
9084 56.5980 2708.00 2598.39 52.00
9085 56.6040 2660.00 2584.24 52.00
9086 56.6100 2680.00 2568.97 52.00
9087 56.6160 2698.00 2555.14 52.00
9088 56.6220 2648.00 2543.78 51.00
9089 56.6280 2682.00 2535.59 52.00
9090 56.6340 2658.00 2530.07 52.00
9091 56.6400 2662.00 2526.75 52.00
9092 56.6460 2679.00 2526.15 52.00
9093 56.6520 2699.00 2527.81 52.00
9094 56.6580 2740.00 2530.64 52.00
9095 56.6640 2671.00 2535.86 52.00
9096 56.6700 2722.00 2542.44 52.00
9097 56.6760 2721.00 2550.54 52.00
9098 56.6820 2704.00 2559.82 52.00
9099 56.6880 2650.00 2569.52 51.00
9100 56.6940 2752.00 2578.02 52.00
9101 56.7000 2662.00 2584.07 52.00
9102 56.7060 2588.00 2586.06 51.00
9103 56.7120 2702.00 2584.10 52.00
9104 56.7180 2648.00 2578.63 51.00
9105 56.7240 2622.00 2570.83 51.00
9106 56.7300 2740.00 2562.80 52.00
9107 56.7360 2724.00 2555.90 52.00
9108 56.7420 2702.00 2550.91 52.00
9109 56.7480 2683.00 2548.06 52.00
9110 56.7540 2668.00 2547.31 52.00
9111 56.7600 2672.00 2548.53 52.00
9112 56.7660 2633.00 2551.63 51.00
9113 56.7720 2654.00 2556.66 52.00
9114 56.7780 2645.00 2563.90 51.00
9115 56.7840 2696.00 2574.53 52.00
9116 56.7900 2711.00 2589.03 52.00
9117 56.7960 2748.00 2608.51 52.00
9118 56.8020 2685.00 2636.20 52.00
9119 56.8080 2664.00 2673.86 52.00
9120 56.8140 2739.00 2725.02 52.00
9121 56.8200 2842.00 2792.20 53.00
9122 56.8260 2991.00 2876.41 55.00
9123 56.8320 3118.00 2976.15 56.00
9124 56.8380 3256.00 3086.70 57.00
9125 56.8440 3446.00 3198.38 59.00
9126 56.8500 3580.00 3295.25 60.00
9127 56.8560 3578.00 3357.61 60.00
9128 56.8620 3495.00 3367.90 59.00
9129 56.8680 3298.00 3323.63 57.00
9130 56.8740 3244.00 3243.25 57.00
9131 56.8800 3075.00 3154.49 55.00
9132 56.8860 3055.00 3080.04 55.00
9133 56.8920 3060.00 3032.59 55.00
9134 56.8980 3090.00 3016.20 56.00
9135 56.9040 3097.00 3027.80 56.00
9136 56.9100 3166.00 3060.11 56.00
9137 56.9160 3164.00 3104.83 56.00
9138 56.9220 3134.00 3156.68 56.00
9139 56.9280 3241.00 3212.65 57.00
9140 56.9340 3231.00 3268.24 57.00
9141 56.9400 3402.00 3315.08 58.00
9142 56.9460 3411.00 3339.31 58.00
9143 56.9520 3245.00 3327.19 57.00
9144 56.9580 3186.00 3275.94 56.00
9145 56.9640 3069.00 3194.66 55.00
9146 56.9700 2972.00 3096.01 55.00
9147 56.9760 2848.00 2992.42 53.00
9148 56.9820 2856.00 2895.23 53.00
9149 56.9880 2831.00 2812.15 53.00
9150 56.9940 2745.00 2746.45 52.00
9151 57.0000 2612.00 2697.75 51.00
9152 57.0060 2633.00 2664.71 51.00
9153 57.0120 2756.00 2644.93 52.00
9154 57.0180 2833.00 2636.93 53.00
9155 57.0240 2725.00 2639.19 52.00
9156 57.0300 2682.00 2650.64 52.00
9157 57.0360 2765.00 2670.89 53.00
9158 57.0420 2787.00 2698.60 53.00
9159 57.0480 2868.00 2730.79 54.00
9160 57.0540 2820.00 2762.00 53.00
9161 57.0600 2837.00 2784.91 53.00
9162 57.0660 2850.00 2793.58 53.00
9163 57.0720 2801.00 2785.89 53.00
9164 57.0780 2837.00 2762.98 53.00
9165 57.0840 2757.00 2729.70 53.00
9166 57.0900 2724.00 2693.08 52.00
9167 57.0960 2731.00 2659.16 52.00
9168 57.1020 2707.00 2630.80 52.00
9169 57.1080 2779.00 2609.57 53.00
9170 57.1140 2793.00 2594.63 53.00
9171 57.1200 2770.00 2585.99 53.00
9172 57.1260 2765.00 2582.16 53.00
9173 57.1320 2797.00 2583.13 53.00
9174 57.1380 2801.00 2589.53 53.00
9175 57.1440 2768.00 2601.66 53.00
9176 57.1500 2706.00 2620.75 52.00
9177 57.1560 2753.00 2649.69 52.00
9178 57.1620 2813.00 2691.39 53.00
9179 57.1680 2915.00 2748.27 54.00
9180 57.1740 2997.00 2821.50 55.00
9181 57.1800 3094.00 2909.29 56.00
9182 57.1860 3212.00 3004.80 57.00
9183 57.1920 3323.00 3095.07 58.00
9184 57.1980 3344.00 3160.87 58.00
9185 57.2040 3303.00 3187.67 57.00
9186 57.2100 3196.00 3170.07 57.00
9187 57.2160 3148.00 3114.15 56.00
9188 57.2220 3041.00 3035.23 55.00
9189 57.2280 2948.00 2952.40 54.00
9190 57.2340 2917.00 2880.83 54.00
9191 57.2400 2865.00 2828.88 54.00
9192 57.2460 2875.00 2798.95 54.00
9193 57.2520 2917.00 2789.40 54.00
9194 57.2580 2850.00 2794.76 53.00
9195 57.2640 2848.00 2806.29 53.00
9196 57.2700 2960.00 2813.78 54.00
9197 57.2760 2912.00 2808.68 54.00
9198 57.2820 2829.00 2790.00 53.00
9199 57.2880 2873.00 2763.55 54.00
9200 57.2940 2831.00 2735.28 53.00
9201 57.3000 2769.00 2709.00 53.00
9202 57.3060 2813.00 2684.89 53.00
9203 57.3120 2778.00 2661.29 53.00
9204 57.3180 2698.00 2637.71 52.00
9205 57.3240 2689.00 2615.55 52.00
9206 57.3300 2708.00 2596.00 52.00
9207 57.3360 2666.00 2580.03 52.00
9208 57.3420 2653.00 2567.49 52.00
9209 57.3480 2651.00 2558.66 51.00
9210 57.3540 2608.00 2552.80 51.00
9211 57.3600 2585.00 2548.94 51.00
9212 57.3660 2655.00 2547.72 52.00
9213 57.3720 2661.00 2549.19 52.00
9214 57.3780 2662.00 2553.08 52.00
9215 57.3840 2654.00 2560.56 52.00
9216 57.3900 2712.00 2572.42 52.00
9217 57.3960 2758.00 2589.80 53.00
9218 57.4020 2767.00 2613.81 53.00
9219 57.4080 2754.00 2645.11 52.00
9220 57.4140 2813.00 2682.81 53.00
9221 57.4200 2958.00 2723.85 54.00
9222 57.4260 2968.00 2762.63 54.00
9223 57.4320 2947.00 2790.09 54.00
9224 57.4380 2942.00 2797.81 54.00
9225 57.4440 2880.00 2784.76 54.00
9226 57.4500 2843.00 2758.67 53.00
9227 57.4560 2811.00 2729.94 53.00
9228 57.4620 2784.00 2706.35 53.00
9229 57.4680 2786.00 2692.22 53.00
9230 57.4740 2844.00 2689.17 53.00
9231 57.4800 2903.00 2698.29 54.00
9232 57.4860 2875.00 2718.20 54.00
9233 57.4920 2819.00 2748.38 53.00
9234 57.4980 2956.00 2789.14 54.00
9235 57.5040 3018.00 2839.76 55.00
9236 57.5100 3070.00 2897.52 55.00
9237 57.5160 3110.00 2957.59 56.00
9238 57.5220 3113.00 3015.24 56.00
9239 57.5280 3160.00 3068.33 56.00
9240 57.5340 3226.00 3116.30 57.00
9241 57.5400 3284.00 3156.95 57.00
9242 57.5460 3254.00 3185.23 57.00
9243 57.5520 3162.00 3192.13 56.00
9244 57.5580 3085.00 3168.83 56.00
9245 57.5640 3042.00 3116.48 55.00
9246 57.5700 3025.00 3049.29 55.00
9247 57.5760 2990.00 2984.85 55.00
9248 57.5820 2958.00 2935.53 54.00
9249 57.5880 2976.00 2906.08 55.00
9250 57.5940 3046.00 2894.26 55.00
9251 57.6000 3087.00 2891.08 56.00
9252 57.6060 3010.00 2884.71 55.00
9253 57.6120 2887.00 2864.56 54.00
9254 57.6180 2865.00 2830.69 54.00
9255 57.6240 2855.00 2788.39 53.00
9256 57.6300 2848.00 2744.59 53.00
9257 57.6360 2756.00 2703.47 52.00
9258 57.6420 2726.00 2666.42 52.00
9259 57.6480 2707.00 2634.91 52.00
9260 57.6540 2671.00 2609.79 52.00
9261 57.6600 2663.00 2591.49 52.00
9262 57.6660 2666.00 2578.28 52.00
9263 57.6720 2661.00 2569.89 52.00
9264 57.6780 2632.00 2566.13 51.00
9265 57.6840 2696.00 2565.92 52.00
9266 57.6900 2712.00 2569.62 52.00
9267 57.6960 2728.00 2578.12 52.00
9268 57.7020 2740.00 2592.56 52.00
9269 57.7080 2747.00 2614.12 52.00
9270 57.7140 2820.00 2642.17 53.00
9271 57.7200 2844.00 2677.43 53.00
9272 57.7260 2876.00 2716.42 54.00
9273 57.7320 2990.00 2755.68 55.00
9274 57.7380 3002.00 2787.17 55.00
9275 57.7440 2866.00 2804.13 54.00
9276 57.7500 2825.00 2804.76 53.00
9277 57.7560 2870.00 2794.23 54.00
9278 57.7620 2857.00 2781.18 53.00
9279 57.7680 2847.00 2772.68 53.00
9280 57.7740 2877.00 2771.78 54.00
9281 57.7800 2923.00 2777.66 54.00
9282 57.7860 2904.00 2787.15 54.00
9283 57.7920 2913.00 2797.44 54.00
9284 57.7980 2969.00 2807.20 54.00
9285 57.8040 2911.00 2816.04 54.00
9286 57.8100 2834.00 2824.58 53.00
9287 57.8160 2897.00 2834.15 54.00
9288 57.8220 2969.00 2842.05 54.00
9289 57.8280 2940.00 2842.19 54.00
9290 57.8340 2843.00 2830.81 53.00
9291 57.8400 2869.00 2809.72 54.00
9292 57.8460 2916.00 2786.44 54.00
9293 57.8520 2839.00 2763.50 53.00
9294 57.8580 2837.00 2743.65 53.00
9295 57.8640 2903.00 2727.50 54.00
9296 57.8700 2926.00 2715.05 54.00
9297 57.8760 2886.00 2708.43 54.00
9298 57.8820 2805.00 2708.62 53.00
9299 57.8880 2877.00 2714.21 54.00
9300 57.8940 2928.00 2721.22 54.00
9301 57.9000 2968.00 2724.35 54.00
9302 57.9060 2915.00 2719.55 54.00
9303 57.9120 2784.00 2705.62 53.00
9304 57.9180 2801.00 2684.26 53.00
9305 57.9240 2785.00 2659.53 53.00
9306 57.9300 2719.00 2635.53 52.00
9307 57.9360 2713.00 2615.17 52.00
9308 57.9420 2699.00 2600.13 52.00
9309 57.9480 2673.00 2591.52 52.00
9310 57.9540 2714.00 2589.45 52.00
9311 57.9600 2702.00 2594.11 52.00
9312 57.9660 2648.00 2606.94 51.00
9313 57.9720 2691.00 2628.03 52.00
9314 57.9780 2700.00 2658.04 52.00
9315 57.9840 2768.00 2697.72 53.00
9316 57.9900 2781.00 2745.32 53.00
9317 57.9960 2953.00 2796.32 54.00
9318 58.0020 3003.00 2843.00 55.00
9319 58.0080 2960.00 2874.21 54.00
9320 58.0140 2877.00 2881.40 54.00
9321 58.0200 2884.00 2864.86 54.00
9322 58.0260 2850.00 2833.86 53.00
9323 58.0320 2860.00 2801.39 53.00
9324 58.0380 2875.00 2777.58 54.00
9325 58.0440 2892.00 2768.26 54.00
9326 58.0500 2914.00 2776.42 54.00
9327 58.0560 2929.00 2802.42 54.00
9328 58.0620 2981.00 2844.48 55.00
9329 58.0680 3041.00 2898.26 55.00
9330 58.0740 3122.00 2956.47 56.00
9331 58.0800 3084.00 3009.96 56.00
9332 58.0860 3194.00 3050.87 57.00
9333 58.0920 3177.00 3077.15 56.00
9334 58.0980 3095.00 3092.00 56.00
9335 58.1040 3155.00 3102.23 56.00
9336 58.1100 3208.00 3116.31 57.00
9337 58.1160 3295.00 3139.39 57.00
9338 58.1220 3309.00 3168.36 58.00
9339 58.1280 3241.00 3191.38 57.00
9340 58.1340 3225.00 3194.72 57.00
9341 58.1400 3234.00 3171.09 57.00
9342 58.1460 3065.00 3121.74 55.00
9343 58.1520 2964.00 3054.63 54.00
9344 58.1580 2936.00 2977.74 54.00
9345 58.1640 2879.00 2901.37 54.00
9346 58.1700 2826.00 2834.26 53.00
9347 58.1760 2850.00 2781.98 53.00
9348 58.1820 2841.00 2746.80 53.00
9349 58.1880 2836.00 2729.52 53.00
9350 58.1940 2856.00 2730.86 53.00
9351 58.2000 2863.00 2751.51 54.00
9352 58.2060 2951.00 2792.30 54.00
9353 58.2120 3079.00 2855.31 55.00
9354 58.2180 3190.00 2940.71 56.00
9355 58.2240 3273.00 3046.48 57.00
9356 58.2300 3318.00 3166.54 58.00
9357 58.2360 3422.00 3287.37 58.00
9358 58.2420 3469.00 3392.18 59.00
9359 58.2480 3505.00 3469.48 59.00
9360 58.2540 3596.00 3516.50 60.00
9361 58.2600 3571.00 3534.95 60.00
9362 58.2660 3526.00 3518.81 59.00
9363 58.2720 3304.00 3460.94 57.00
9364 58.2780 3345.00 3364.37 58.00
9365 58.2840 3190.00 3243.54 56.00
9366 58.2900 2991.00 3115.74 55.00
9367 58.2960 2897.00 2995.27 54.00
9368 58.3020 2884.00 2891.43 54.00
9369 58.3080 2866.00 2808.48 54.00
9370 58.3140 2685.00 2746.99 52.00
9371 58.3200 2752.00 2704.11 52.00
9372 58.3260 2815.00 2676.98 53.00
9373 58.3320 2719.00 2661.53 52.00
9374 58.3380 2773.00 2653.23 53.00
9375 58.3440 2789.00 2648.72 53.00
9376 58.3500 2789.00 2645.41 53.00
9377 58.3560 2713.00 2643.26 52.00
9378 58.3620 2700.00 2644.05 52.00
9379 58.3680 2740.00 2649.52 52.00
9380 58.3740 2824.00 2660.25 53.00
9381 58.3800 2807.00 2675.08 53.00
9382 58.3860 2879.00 2690.98 54.00
9383 58.3920 2852.00 2703.81 53.00
9384 58.3980 2768.00 2709.93 53.00
9385 58.4040 2665.00 2707.53 52.00
9386 58.4100 2782.00 2696.94 53.00
9387 58.4160 2682.00 2679.97 52.00
9388 58.4220 2720.00 2658.81 52.00
9389 58.4280 2645.00 2635.75 51.00
9390 58.4340 2633.00 2612.55 51.00
9391 58.4400 2663.00 2591.10 52.00
9392 58.4460 2655.00 2573.43 52.00
9393 58.4520 2732.00 2559.54 52.00
9394 58.4580 2590.00 2549.37 51.00
9395 58.4640 2589.00 2542.52 51.00
9396 58.4700 2524.00 2538.57 50.00
9397 58.4760 2692.00 2537.19 52.00
9398 58.4820 2651.00 2538.41 51.00
9399 58.4880 2647.00 2542.30 51.00
9400 58.4940 2598.00 2549.31 51.00
9401 58.5000 2658.00 2560.52 52.00
9402 58.5060 2663.00 2576.68 52.00
9403 58.5120 2641.00 2599.96 51.00
9404 58.5180 2647.00 2630.97 51.00
9405 58.5240 2698.00 2669.82 52.00
9406 58.5300 2931.00 2716.62 54.00
9407 58.5360 2970.00 2767.74 54.00
9408 58.5420 2893.00 2817.37 54.00
9409 58.5480 2936.00 2858.29 54.00
9410 58.5540 2898.00 2886.01 54.00
9411 58.5600 2862.00 2902.30 53.00
9412 58.5660 2911.00 2907.73 54.00
9413 58.5720 2845.00 2901.56 53.00
9414 58.5780 2952.00 2880.07 54.00
9415 58.5840 2788.00 2846.55 53.00
9416 58.5900 2839.00 2809.36 53.00
9417 58.5960 2778.00 2777.03 53.00
9418 58.6020 2778.00 2754.45 53.00
9419 58.6080 2808.00 2741.03 53.00
9420 58.6140 2738.00 2732.31 52.00
9421 58.6200 2686.00 2721.93 52.00
9422 58.6260 2704.00 2704.18 52.00
9423 58.6320 2667.00 2678.30 52.00
9424 58.6380 2605.00 2647.92 51.00
9425 58.6440 2674.00 2617.68 52.00
9426 58.6500 2708.00 2590.56 52.00
9427 58.6560 2691.00 2568.20 52.00
9428 58.6620 2687.00 2550.55 52.00
9429 58.6680 2680.00 2536.89 52.00
9430 58.6740 2591.00 2527.23 51.00
9431 58.6800 2606.00 2521.52 51.00
9432 58.6860 2574.00 2518.63 51.00
9433 58.6920 2654.00 2517.79 52.00
9434 58.6980 2622.00 2519.33 51.00
9435 58.7040 2588.00 2524.14 51.00
9436 58.7100 2724.00 2532.24 52.00
9437 58.7160 2579.00 2543.37 51.00
9438 58.7220 2592.00 2557.85 51.00
9439 58.7280 2757.00 2574.58 53.00
9440 58.7340 2761.00 2591.44 53.00
9441 58.7400 2646.00 2605.53 51.00
9442 58.7460 2726.00 2613.71 52.00
9443 58.7520 2657.00 2614.14 52.00
9444 58.7580 2621.00 2606.60 51.00
9445 58.7640 2645.00 2592.62 51.00
9446 58.7700 2577.00 2575.04 51.00
9447 58.7760 2595.00 2556.78 51.00
9448 58.7820 2571.00 2540.22 51.00
9449 58.7880 2522.00 2526.37 50.00
9450 58.7940 2574.00 2515.49 51.00
9451 58.8000 2643.00 2507.37 51.00
9452 58.8060 2512.00 2501.59 50.00
9453 58.8120 2585.00 2497.66 51.00
9454 58.8180 2580.00 2494.95 51.00
9455 58.8240 2510.00 2493.41 50.00
9456 58.8300 2567.00 2492.46 51.00
9457 58.8360 2653.00 2492.34 52.00
9458 58.8420 2583.00 2492.76 51.00
9459 58.8480 2575.00 2494.01 51.00
9460 58.8540 2624.00 2496.20 51.00
9461 58.8600 2598.00 2499.61 51.00
9462 58.8660 2561.00 2505.10 51.00
9463 58.8720 2660.00 2512.84 52.00
9464 58.8780 2566.00 2522.98 51.00
9465 58.8840 2577.00 2536.13 51.00
9466 58.8900 2641.00 2552.21 51.00
9467 58.8960 2713.00 2570.39 52.00
9468 58.9020 2543.00 2588.82 50.00
9469 58.9080 2652.00 2604.66 51.00
9470 58.9140 2616.00 2614.52 51.00
9471 58.9200 2747.00 2616.91 52.00
9472 58.9260 2590.00 2612.43 51.00
9473 58.9320 2622.00 2602.82 51.00
9474 58.9380 2659.00 2589.42 52.00
9475 58.9440 2607.00 2574.21 51.00
9476 58.9500 2554.00 2559.38 51.00
9477 58.9560 2568.00 2546.91 51.00
9478 58.9620 2574.00 2537.60 51.00
9479 58.9680 2543.00 2532.11 50.00
9480 58.9740 2518.00 2530.51 50.00
9481 58.9800 2670.00 2533.66 52.00
9482 58.9860 2633.00 2542.23 51.00
9483 58.9920 2586.00 2557.09 51.00
9484 58.9980 2526.00 2579.08 50.00
9485 59.0040 2692.00 2608.47 52.00
9486 59.0100 2659.00 2646.21 52.00
9487 59.0160 2695.00 2690.05 52.00
9488 59.0220 2827.00 2735.99 53.00
9489 59.0280 2726.00 2776.36 52.00
9490 59.0340 2743.00 2801.08 52.00
9491 59.0400 2695.00 2802.51 52.00
9492 59.0460 2688.00 2781.80 52.00
9493 59.0520 2739.00 2747.90 52.00
9494 59.0580 2646.00 2711.48 51.00
9495 59.0640 2728.00 2679.35 52.00
9496 59.0700 2633.00 2654.05 51.00
9497 59.0760 2659.00 2635.56 52.00
9498 59.0820 2629.00 2621.44 51.00
9499 59.0880 2667.00 2608.35 52.00
9500 59.0940 2596.00 2594.25 51.00
9501 59.1000 2623.00 2579.27 51.00
9502 59.1060 2604.00 2565.25 51.00
9503 59.1120 2487.00 2553.82 50.00
9504 59.1180 2587.00 2546.01 51.00
9505 59.1240 2575.00 2542.16 51.00
9506 59.1300 2565.00 2542.17 51.00
9507 59.1360 2615.00 2545.09 51.00
9508 59.1420 2642.00 2549.66 51.00
9509 59.1480 2684.00 2553.65 52.00
9510 59.1540 2709.00 2554.76 52.00
9511 59.1600 2593.00 2551.54 51.00
9512 59.1660 2530.00 2544.40 50.00
9513 59.1720 2580.00 2535.31 51.00
9514 59.1780 2612.00 2525.81 51.00
9515 59.1840 2591.00 2517.56 51.00
9516 59.1900 2540.00 2510.60 50.00
9517 59.1960 2633.00 2505.49 51.00
9518 59.2020 2609.00 2501.93 51.00
9519 59.2080 2536.00 2499.81 50.00
9520 59.2140 2603.00 2498.98 51.00
9521 59.2200 2648.00 2499.27 51.00
9522 59.2260 2624.00 2500.92 51.00
9523 59.2320 2641.00 2503.71 51.00
9524 59.2380 2553.00 2507.90 51.00
9525 59.2440 2601.00 2514.23 51.00
9526 59.2500 2632.00 2523.53 51.00
9527 59.2560 2633.00 2536.90 51.00
9528 59.2620 2640.00 2555.34 51.00
9529 59.2680 2743.00 2579.83 52.00
9530 59.2740 2753.00 2610.66 52.00
9531 59.2800 2713.00 2647.15 52.00
9532 59.2860 2758.00 2686.94 53.00
9533 59.2920 2865.00 2725.06 54.00
9534 59.2980 2871.00 2754.42 54.00
9535 59.3040 2837.00 2768.20 53.00
9536 59.3100 2806.00 2764.59 53.00
9537 59.3160 2771.00 2748.25 53.00
9538 59.3220 2787.00 2726.97 53.00
9539 59.3280 2742.00 2706.99 52.00
9540 59.3340 2695.00 2691.04 52.00
9541 59.3400 2715.00 2678.78 52.00
9542 59.3460 2680.00 2669.12 52.00
9543 59.3520 2769.00 2661.47 53.00
9544 59.3580 2813.00 2655.73 53.00
9545 59.3640 2688.00 2650.95 52.00
9546 59.3700 2704.00 2646.38 52.00
9547 59.3760 2663.00 2642.85 52.00
9548 59.3820 2659.00 2641.15 52.00
9549 59.3880 2679.00 2641.26 52.00
9550 59.3940 2695.00 2642.40 52.00
9551 59.4000 2703.00 2644.17 52.00
9552 59.4060 2697.00 2646.56 52.00
9553 59.4120 2772.00 2648.94 53.00
9554 59.4180 2712.00 2650.09 52.00
9555 59.4240 2710.00 2649.23 52.00
9556 59.4300 2815.00 2646.28 53.00
9557 59.4360 2855.00 2641.48 53.00
9558 59.4420 2802.00 2636.28 53.00
9559 59.4480 2702.00 2630.66 52.00
9560 59.4540 2627.00 2627.75 51.00
9561 59.4600 2650.00 2630.16 51.00
9562 59.4660 2672.00 2639.57 52.00
9563 59.4720 2689.00 2655.50 52.00
9564 59.4780 2801.00 2677.85 53.00
9565 59.4840 2894.00 2702.10 54.00
9566 59.4900 2889.00 2722.51 54.00
9567 59.4960 2872.00 2733.83 54.00
9568 59.5020 2843.00 2733.86 53.00
9569 59.5080 2788.00 2725.02 53.00
9570 59.5140 2745.00 2711.38 52.00
9571 59.5200 2786.00 2697.74 53.00
9572 59.5260 2773.00 2684.99 53.00
9573 59.5320 2757.00 2673.54 53.00
9574 59.5380 2750.00 2663.10 52.00
9575 59.5440 2690.00 2654.69 52.00
9576 59.5500 2654.00 2649.85 52.00
9577 59.5560 2655.00 2649.50 52.00
9578 59.5620 2702.00 2653.48 52.00
9579 59.5680 2686.00 2661.23 52.00
9580 59.5740 2715.00 2672.90 52.00
9581 59.5800 2751.00 2689.57 52.00
9582 59.5860 2674.00 2712.62 52.00
9583 59.5920 2744.00 2743.06 52.00
9584 59.5980 2841.00 2778.84 53.00
9585 59.6040 2879.00 2815.69 54.00
9586 59.6100 2884.00 2845.77 54.00
9587 59.6160 2911.00 2862.41 54.00
9588 59.6220 2810.00 2863.01 53.00
9589 59.6280 2751.00 2850.79 52.00
9590 59.6340 2789.00 2831.56 53.00
9591 59.6400 2848.00 2811.35 53.00
9592 59.6460 2866.00 2795.11 54.00
9593 59.6520 2824.00 2783.03 53.00
9594 59.6580 2738.00 2771.40 52.00
9595 59.6640 2713.00 2754.57 52.00
9596 59.6700 2774.00 2729.15 53.00
9597 59.6760 2754.00 2696.88 52.00
9598 59.6820 2638.00 2662.03 51.00
9599 59.6880 2569.00 2628.39 51.00
9600 59.6940 2574.00 2597.96 51.00
9601 59.7000 2597.00 2571.89 51.00
9602 59.7060 2617.00 2550.44 51.00
9603 59.7120 2636.00 2533.65 51.00
9604 59.7180 2542.00 2520.96 50.00
9605 59.7240 2504.00 2511.70 50.00
9606 59.7300 2568.00 2505.32 51.00
9607 59.7360 2593.00 2500.36 51.00
9608 59.7420 2591.00 2497.21 51.00
9609 59.7480 2615.00 2495.17 51.00
9610 59.7540 2560.00 2494.34 51.00
9611 59.7600 2536.00 2494.21 50.00
9612 59.7660 2566.00 2494.86 51.00
9613 59.7720 2590.00 2496.28 51.00
9614 59.7780 2579.00 2498.29 51.00
9615 59.7840 2582.00 2501.12 51.00
9616 59.7900 2627.00 2504.50 51.00
9617 59.7960 2608.00 2508.34 51.00
9618 59.8020 2561.00 2512.48 51.00
9619 59.8080 2571.00 2517.39 51.00
9620 59.8140 2593.00 2523.26 51.00
9621 59.8200 2577.00 2530.83 51.00
9622 59.8260 2506.00 2541.33 50.00
9623 59.8320 2568.00 2556.59 51.00
9624 59.8380 2619.00 2578.52 51.00
9625 59.8440 2599.00 2608.34 51.00
9626 59.8500 2688.00 2647.45 52.00
9627 59.8560 2714.00 2696.16 52.00
9628 59.8620 2786.00 2752.22 53.00
9629 59.8680 2887.00 2810.09 54.00
9630 59.8740 2874.00 2861.60 54.00
9631 59.8800 2927.00 2895.61 54.00
9632 59.8860 2871.00 2905.08 54.00
9633 59.8920 2808.00 2893.82 53.00
9634 59.8980 2823.00 2871.05 53.00
9635 59.9040 2854.00 2845.59 53.00
9636 59.9100 2791.00 2822.76 53.00
9637 59.9160 2770.00 2806.10 53.00
9638 59.9220 2767.00 2796.97 53.00
9639 59.9280 2814.00 2796.06 53.00
9640 59.9340 2831.00 2802.45 53.00
9641 59.9400 2841.00 2813.35 53.00
9642 59.9460 2947.00 2822.90 54.00
9643 59.9520 2962.00 2823.76 54.00
9644 59.9580 2845.00 2811.36 53.00
9645 59.9640 2816.00 2785.97 53.00
9646 59.9700 2743.00 2752.40 52.00
9647 59.9760 2699.00 2718.06 52.00
9648 59.9820 2636.00 2689.24 51.00
9649 59.9880 2563.00 2670.33 51.00
9650 59.9940 2573.00 2664.08 51.00
9651 60.0000 2683.00 2672.14 52.00
9652 60.0060 2731.00 2695.32 52.00
9653 60.0120 2855.00 2733.77 53.00
9654 60.0180 2976.00 2785.65 55.00
9655 60.0240 3037.00 2847.63 55.00
9656 60.0300 3048.00 2913.37 55.00
9657 60.0360 3106.00 2974.33 56.00
9658 60.0420 3080.00 3022.87 55.00
9659 60.0480 3068.00 3053.92 55.00
9660 60.0540 3157.00 3066.89 56.00
9661 60.0600 3137.00 3062.34 56.00
9662 60.0660 3148.00 3042.31 56.00
9663 60.0720 3048.00 3007.75 55.00
9664 60.0780 2994.00 2960.95 55.00
9665 60.0840 2952.00 2906.42 54.00
9666 60.0900 2853.00 2849.99 53.00
9667 60.0960 2838.00 2796.88 53.00
9668 60.1020 2705.00 2750.12 52.00
9669 60.1080 2638.00 2711.74 51.00
9670 60.1140 2691.00 2682.59 52.00
9671 60.1200 2612.00 2663.21 51.00
9672 60.1260 2625.00 2654.05 51.00
9673 60.1320 2733.00 2654.71 52.00
9674 60.1380 2773.00 2664.14 53.00
9675 60.1440 2792.00 2680.96 53.00
9676 60.1500 2770.00 2703.61 53.00
9677 60.1560 2836.00 2730.17 53.00
9678 60.1620 2874.00 2757.39 54.00
9679 60.1680 2944.00 2779.79 54.00
9680 60.1740 2857.00 2792.86 53.00
9681 60.1800 2766.00 2795.24 53.00
9682 60.1860 2771.00 2787.03 53.00
9683 60.1920 2859.00 2768.80 53.00
9684 60.1980 2768.00 2742.55 53.00
9685 60.2040 2746.00 2712.03 52.00
9686 60.2100 2679.00 2681.99 52.00
9687 60.2160 2740.00 2657.26 52.00
9688 60.2220 2704.00 2640.98 52.00
9689 60.2280 2662.00 2635.09 52.00
9690 60.2340 2766.00 2641.22 53.00
9691 60.2400 2791.00 2660.56 53.00
9692 60.2460 2879.00 2694.07 54.00
9693 60.2520 2879.00 2742.47 54.00
9694 60.2580 2952.00 2805.09 54.00
9695 60.2640 3012.00 2879.66 55.00
9696 60.2700 3028.00 2960.71 55.00
9697 60.2760 3108.00 3040.94 56.00
9698 60.2820 3169.00 3114.22 56.00
9699 60.2880 3304.00 3178.28 57.00
9700 60.2940 3353.00 3230.79 58.00
9701 60.3000 3369.00 3265.49 58.00
9702 60.3060 3373.00 3275.06 58.00
9703 60.3120 3326.00 3255.61 58.00
9704 60.3180 3159.00 3207.75 56.00
9705 60.3240 3031.00 3136.00 55.00
9706 60.3300 2905.00 3051.81 54.00
9707 60.3360 2929.00 2966.10 54.00
9708 60.3420 2780.00 2886.68 53.00
9709 60.3480 2855.00 2816.63 53.00
9710 60.3540 2894.00 2756.27 54.00
9711 60.3600 2831.00 2704.20 53.00
9712 60.3660 2756.00 2659.68 52.00
9713 60.3720 2676.00 2622.35 52.00
9714 60.3780 2632.00 2592.12 51.00
9715 60.3840 2574.00 2568.61 51.00
9716 60.3900 2677.00 2551.31 52.00
9717 60.3960 2635.00 2539.37 51.00
9718 60.4020 2575.00 2532.70 51.00
9719 60.4080 2606.00 2531.39 51.00
9720 60.4140 2538.00 2534.95 50.00
9721 60.4200 2569.00 2543.16 51.00
9722 60.4260 2621.00 2555.58 51.00
9723 60.4320 2618.00 2571.13 51.00
9724 60.4380 2652.00 2587.85 51.00
9725 60.4440 2742.00 2602.50 52.00
9726 60.4500 2724.00 2611.22 52.00
9727 60.4560 2742.00 2610.97 52.00
9728 60.4620 2652.00 2601.28 51.00
9729 60.4680 2654.00 2584.56 52.00
9730 60.4740 2670.00 2564.57 52.00
9731 60.4800 2615.00 2544.34 51.00
9732 60.4860 2522.00 2526.40 50.00
9733 60.4920 2529.00 2511.88 50.00
9734 60.4980 2591.00 2500.51 51.00
9735 60.5040 2528.00 2492.58 50.00
9736 60.5100 2647.00 2487.23 51.00
9737 60.5160 2605.00 2484.25 51.00
9738 60.5220 2491.00 2483.40 50.00
9739 60.5280 2586.00 2484.31 51.00
9740 60.5340 2636.00 2486.87 51.00
9741 60.5400 2651.00 2491.71 51.00
9742 60.5460 2593.00 2499.22 51.00
9743 60.5520 2627.00 2510.21 51.00
9744 60.5580 2495.00 2525.99 50.00
9745 60.5640 2593.00 2547.69 51.00
9746 60.5700 2714.00 2576.88 52.00
9747 60.5760 2613.00 2613.35 51.00
9748 60.5820 2629.00 2657.22 51.00
9749 60.5880 2772.00 2706.69 53.00
9750 60.5940 2895.00 2758.91 54.00
9751 60.6000 3051.00 2808.41 55.00
9752 60.6060 2921.00 2847.27 54.00
9753 60.6120 2797.00 2867.55 53.00
9754 60.6180 2750.00 2867.36 52.00
9755 60.6240 2724.00 2853.94 52.00
9756 60.6300 2715.00 2836.72 52.00
9757 60.6360 2890.00 2821.95 54.00
9758 60.6420 2815.00 2811.29 53.00
9759 60.6480 2843.00 2801.90 53.00
9760 60.6540 2808.00 2790.22 53.00
9761 60.6600 2721.00 2773.65 52.00
9762 60.6660 2689.00 2751.07 52.00
9763 60.6720 2714.00 2723.41 52.00
9764 60.6780 2646.00 2693.24 51.00
9765 60.6840 2672.00 2663.49 52.00
9766 60.6900 2650.00 2636.20 51.00
9767 60.6960 2540.00 2611.30 50.00
9768 60.7020 2598.00 2587.67 51.00
9769 60.7080 2643.00 2564.50 51.00
9770 60.7140 2563.00 2542.40 51.00
9771 60.7200 2526.00 2522.18 50.00
9772 60.7260 2466.00 2505.08 50.00
9773 60.7320 2489.00 2491.04 50.00
9774 60.7380 2541.00 2479.81 50.00
9775 60.7440 2511.00 2470.64 50.00
9776 60.7500 2535.00 2463.48 50.00
9777 60.7560 2517.00 2458.30 50.00
9778 60.7620 2572.00 2453.99 51.00
9779 60.7680 2534.00 2450.58 50.00
9780 60.7740 2516.00 2448.23 50.00
9781 60.7800 2436.00 2446.36 49.00
9782 60.7860 2504.00 2444.85 50.00
9783 60.7920 2620.00 2443.50 51.00
9784 60.7980 2480.00 2442.50 50.00
9785 60.8040 2458.00 2441.68 50.00
9786 60.8100 2540.00 2440.93 50.00
9787 60.8160 2546.00 2440.46 50.00
9788 60.8220 2501.00 2440.15 50.00
9789 60.8280 2534.00 2439.98 50.00
9790 60.8340 2608.00 2440.30 51.00
9791 60.8400 2442.00 2440.48 49.00
9792 60.8460 2490.00 2441.16 50.00
9793 60.8520 2454.00 2441.75 50.00
9794 60.8580 2435.00 2442.62 49.00
9795 60.8640 2617.00 2443.84 51.00
9796 60.8700 2458.00 2445.56 50.00
9797 60.8760 2442.00 2447.97 49.00
9798 60.8820 2489.00 2451.38 50.00
9799 60.8880 2597.00 2456.21 51.00
9800 60.8940 2530.00 2462.95 50.00
9801 60.9000 2551.00 2472.09 51.00
9802 60.9060 2599.00 2484.48 51.00
9803 60.9120 2575.00 2500.25 51.00
9804 60.9180 2662.00 2519.61 52.00
9805 60.9240 2584.00 2541.88 51.00
9806 60.9300 2655.00 2565.75 52.00
9807 60.9360 2681.00 2588.17 52.00
9808 60.9420 2698.00 2606.09 52.00
9809 60.9480 2691.00 2616.69 52.00
9810 60.9540 2663.00 2618.90 52.00
9811 60.9600 2574.00 2613.76 51.00
9812 60.9660 2592.00 2603.01 51.00
9813 60.9720 2600.00 2590.10 51.00
9814 60.9780 2593.00 2579.09 51.00
9815 60.9840 2613.00 2572.74 51.00
9816 60.9900 2600.00 2572.97 51.00
9817 60.9960 2578.00 2579.83 51.00
9818 61.0020 2693.00 2591.82 52.00
9819 61.0080 2613.00 2605.61 51.00
9820 61.0140 2696.00 2616.13 52.00
9821 61.0200 2662.00 2618.14 52.00
9822 61.0260 2681.00 2609.16 52.00
9823 61.0320 2616.00 2591.19 51.00
9824 61.0380 2531.00 2568.79 50.00
9825 61.0440 2601.00 2546.39 51.00
9826 61.0500 2557.00 2526.82 51.00
9827 61.0560 2561.00 2511.46 51.00
9828 61.0620 2559.00 2500.37 51.00
9829 61.0680 2547.00 2495.37 50.00
9830 61.0740 2540.00 2495.62 50.00
9831 61.0800 2482.00 2501.18 50.00
9832 61.0860 2610.00 2511.99 51.00
9833 61.0920 2629.00 2527.83 51.00
9834 61.0980 2633.00 2548.25 51.00
9835 61.1040 2633.00 2572.42 51.00
9836 61.1100 2688.00 2598.72 52.00
9837 61.1160 2749.00 2623.74 52.00
9838 61.1220 2669.00 2643.70 52.00
9839 61.1280 2636.00 2655.46 51.00
9840 61.1340 2638.00 2658.20 51.00
9841 61.1400 2707.00 2654.80 52.00
9842 61.1460 2647.00 2648.69 51.00
9843 61.1520 2660.00 2642.34 52.00
9844 61.1580 2623.00 2636.83 51.00
9845 61.1640 2714.00 2631.93 52.00
9846 61.1700 2725.00 2626.00 52.00
9847 61.1760 2685.00 2616.94 52.00
9848 61.1820 2601.00 2602.58 51.00
9849 61.1880 2639.00 2583.14 51.00
9850 61.1940 2625.00 2561.33 51.00
9851 61.2000 2511.00 2540.13 50.00
9852 61.2060 2506.00 2521.57 50.00
9853 61.2120 2456.00 2506.92 50.00
9854 61.2180 2517.00 2496.68 50.00
9855 61.2240 2526.00 2491.10 50.00
9856 61.2300 2539.00 2490.34 50.00
9857 61.2360 2487.00 2494.69 50.00
9858 61.2420 2565.00 2504.52 51.00
9859 61.2480 2629.00 2520.27 51.00
9860 61.2540 2559.00 2542.26 51.00
9861 61.2600 2508.00 2570.31 50.00
9862 61.2660 2617.00 2603.35 51.00
9863 61.2720 2687.00 2638.80 52.00
9864 61.2780 2736.00 2671.96 52.00
9865 61.2840 2789.00 2697.00 53.00
9866 61.2900 2822.00 2708.94 53.00
9867 61.2960 2705.00 2705.86 52.00
9868 61.3020 2699.00 2689.28 52.00
9869 61.3080 2597.00 2663.87 51.00
9870 61.3140 2635.00 2636.04 51.00
9871 61.3200 2673.00 2611.53 52.00
9872 61.3260 2629.00 2594.15 51.00
9873 61.3320 2600.00 2585.91 51.00
9874 61.3380 2603.00 2587.33 51.00
9875 61.3440 2581.00 2597.81 51.00
9876 61.3500 2650.00 2614.93 51.00
9877 61.3560 2740.00 2635.72 52.00
9878 61.3620 2784.00 2655.87 53.00
9879 61.3680 2726.00 2672.78 52.00
9880 61.3740 2706.00 2685.35 52.00
9881 61.3800 2787.00 2693.19 53.00
9882 61.3860 2676.00 2695.67 52.00
9883 61.3920 2711.00 2693.39 52.00
9884 61.3980 2708.00 2688.36 52.00
9885 61.4040 2735.00 2681.43 52.00
9886 61.4100 2726.00 2673.10 52.00
9887 61.4160 2710.00 2662.13 52.00
9888 61.4220 2686.00 2648.45 52.00
9889 61.4280 2649.00 2631.96 51.00
9890 61.4340 2658.00 2612.03 52.00
9891 61.4400 2575.00 2588.87 51.00
9892 61.4460 2534.00 2564.93 50.00
9893 61.4520 2603.00 2542.91 51.00
9894 61.4580 2515.00 2524.75 50.00
9895 61.4640 2467.00 2511.51 50.00
9896 61.4700 2501.00 2503.49 50.00
9897 61.4760 2580.00 2500.23 51.00
9898 61.4820 2595.00 2502.02 51.00
9899 61.4880 2632.00 2507.72 51.00
9900 61.4940 2580.00 2516.16 51.00
9901 61.5000 2583.00 2525.80 51.00
9902 61.5060 2575.00 2535.05 51.00
9903 61.5120 2585.00 2542.94 51.00
9904 61.5180 2632.00 2549.23 51.00
9905 61.5240 2659.00 2554.20 52.00
9906 61.5300 2656.00 2558.66 52.00
9907 61.5360 2612.00 2563.63 51.00
9908 61.5420 2668.00 2569.79 52.00
9909 61.5480 2653.00 2576.81 52.00
9910 61.5540 2677.00 2584.46 52.00
9911 61.5600 2680.00 2592.50 52.00
9912 61.5660 2638.00 2601.00 51.00
9913 61.5720 2608.00 2609.98 51.00
9914 61.5780 2749.00 2618.50 52.00
9915 61.5840 2734.00 2625.59 52.00
9916 61.5900 2695.00 2630.81 52.00
9917 61.5960 2686.00 2635.40 52.00
9918 61.6020 2671.00 2640.68 52.00
9919 61.6080 2728.00 2648.26 52.00
9920 61.6140 2636.00 2657.17 51.00
9921 61.6200 2632.00 2665.30 51.00
9922 61.6260 2663.00 2669.10 52.00
9923 61.6320 2666.00 2666.07 52.00
9924 61.6380 2665.00 2655.91 52.00
9925 61.6440 2680.00 2639.39 52.00
9926 61.6500 2588.00 2617.56 51.00
9927 61.6560 2603.00 2591.70 51.00
9928 61.6620 2580.00 2564.12 51.00
9929 61.6680 2519.00 2537.34 50.00
9930 61.6740 2507.00 2513.37 50.00
9931 61.6800 2489.00 2493.28 50.00
9932 61.6860 2571.00 2477.42 51.00
9933 61.6920 2540.00 2465.26 50.00
9934 61.6980 2562.00 2456.42 51.00
9935 61.7040 2508.00 2450.40 50.00
9936 61.7100 2462.00 2446.79 50.00
9937 61.7160 2473.00 2444.63 50.00
9938 61.7220 2458.00 2443.99 50.00
9939 61.7280 2449.00 2445.08 49.00
9940 61.7340 2478.00 2447.31 50.00
9941 61.7400 2531.00 2451.19 50.00
9942 61.7460 2480.00 2457.07 50.00
9943 61.7520 2537.00 2465.34 50.00
9944 61.7580 2474.00 2476.09 50.00
9945 61.7640 2480.00 2490.26 50.00
9946 61.7700 2548.00 2507.61 50.00
9947 61.7760 2582.00 2528.10 51.00
9948 61.7820 2586.00 2551.28 51.00
9949 61.7880 2670.00 2576.02 52.00
9950 61.7940 2655.00 2600.01 52.00
9951 61.8000 2633.00 2619.98 51.00
9952 61.8060 2680.00 2633.43 52.00
9953 61.8120 2725.00 2639.26 52.00
9954 61.8180 2670.00 2638.55 52.00
9955 61.8240 2680.00 2635.73 52.00
9956 61.8300 2699.00 2634.44 52.00
9957 61.8360 2742.00 2637.60 52.00
9958 61.8420 2726.00 2646.48 52.00
9959 61.8480 2655.00 2660.60 52.00
9960 61.8540 2645.00 2677.07 51.00
9961 61.8600 2760.00 2693.76 53.00
9962 61.8660 2790.00 2710.37 53.00
9963 61.8720 2752.00 2726.59 52.00
9964 61.8780 2752.00 2741.28 52.00
9965 61.8840 2793.00 2749.31 53.00
9966 61.8900 2706.00 2744.16 52.00
9967 61.8960 2713.00 2722.96 52.00
9968 61.9020 2649.00 2688.26 51.00
9969 61.9080 2579.00 2646.67 51.00
9970 61.9140 2542.00 2604.80 50.00
9971 61.9200 2533.00 2566.89 50.00
9972 61.9260 2575.00 2535.05 51.00
9973 61.9320 2495.00 2509.96 50.00
9974 61.9380 2488.00 2491.38 50.00
9975 61.9440 2520.00 2478.72 50.00
9976 61.9500 2566.00 2471.15 51.00
9977 61.9560 2563.00 2468.00 51.00
9978 61.9620 2562.00 2468.65 51.00
9979 61.9680 2615.00 2472.96 51.00
9980 61.9740 2577.00 2480.64 51.00
9981 61.9800 2606.00 2491.32 51.00
9982 61.9860 2583.00 2504.78 51.00
9983 61.9920 2505.00 2520.02 50.00
9984 61.9980 2498.00 2535.56 50.00
9985 62.0040 2509.00 2549.54 50.00
9986 62.0100 2522.00 2560.73 50.00
9987 62.0160 2541.00 2569.16 50.00
9988 62.0220 2494.00 2576.05 50.00
9989 62.0280 2522.00 2583.84 50.00
9990 62.0340 2566.00 2594.84 51.00
9991 62.0400 2667.00 2610.25 52.00
9992 62.0460 2750.00 2629.94 52.00
9993 62.0520 2786.00 2651.22 53.00
9994 62.0580 2811.00 2670.60 53.00
9995 62.0640 2754.00 2684.62 52.00
9996 62.0700 2749.00 2691.96 52.00
9997 62.0760 2738.00 2692.96 52.00
9998 62.0820 2639.00 2688.12 51.00
9999 62.0880 2615.00 2678.64 51.00
10000 62.0940 2666.00 2666.18 52.00
10001 62.1000 2677.00 2653.86 52.00
10002 62.1060 2742.00 2644.32 52.00
10003 62.1120 2747.00 2638.65 52.00
10004 62.1180 2724.00 2637.37 52.00
10005 62.1240 2768.00 2640.61 53.00
10006 62.1300 2714.00 2648.88 52.00
10007 62.1360 2621.00 2662.98 51.00
10008 62.1420 2660.00 2683.44 52.00
10009 62.1480 2742.00 2710.22 52.00
10010 62.1540 2801.00 2742.70 53.00
10011 62.1600 2857.00 2779.52 53.00
10012 62.1660 2863.00 2816.95 54.00
10013 62.1720 2920.00 2849.62 54.00
10014 62.1780 2958.00 2872.25 54.00
10015 62.1840 2936.00 2881.50 54.00
10016 62.1900 2933.00 2875.37 54.00
10017 62.1960 2904.00 2853.15 54.00
10018 62.2020 2745.00 2816.76 52.00
10019 62.2080 2644.00 2771.79 51.00
10020 62.2140 2649.00 2725.77 51.00
10021 62.2200 2686.00 2685.98 52.00
10022 62.2260 2750.00 2657.38 52.00
10023 62.2320 2692.00 2642.88 52.00
10024 62.2380 2674.00 2643.61 52.00
10025 62.2440 2721.00 2659.30 52.00
10026 62.2500 2722.00 2688.21 52.00
10027 62.2560 2766.00 2726.69 53.00
10028 62.2620 2817.00 2769.06 53.00
10029 62.2680 2875.00 2807.39 54.00
10030 62.2740 2871.00 2834.91 54.00
10031 62.2800 2838.00 2846.67 53.00
10032 62.2860 2922.00 2841.66 54.00
10033 62.2920 2931.00 2821.46 54.00
10034 62.2980 2823.00 2790.67 53.00
10035 62.3040 2764.00 2754.85 53.00
10036 62.3100 2679.00 2718.06 52.00
10037 62.3160 2623.00 2681.55 51.00
10038 62.3220 2628.00 2645.63 51.00
10039 62.3280 2571.00 2610.43 51.00
10040 62.3340 2540.00 2576.36 50.00
10041 62.3400 2526.00 2544.79 50.00
10042 62.3460 2544.00 2516.94 50.00
10043 62.3520 2579.00 2493.29 51.00
10044 62.3580 2574.00 2474.15 51.00
10045 62.3640 2508.00 2459.49 50.00
10046 62.3700 2522.00 2448.33 50.00
10047 62.3760 2493.00 2439.98 50.00
10048 62.3820 2463.00 2433.69 50.00
10049 62.3880 2503.00 2428.84 50.00
10050 62.3940 2526.00 2425.00 50.00
10051 62.4000 2491.00 2422.03 50.00
10052 62.4060 2472.00 2419.96 50.00
10053 62.4120 2457.00 2418.88 50.00
10054 62.4180 2443.00 2418.86 49.00
10055 62.4240 2518.00 2419.93 50.00
10056 62.4300 2555.00 2422.01 51.00
10057 62.4360 2569.00 2424.89 51.00
10058 62.4420 2502.00 2428.11 50.00
10059 62.4480 2466.00 2431.00 50.00
10060 62.4540 2480.00 2432.65 50.00
10061 62.4600 2420.00 2432.42 49.00
10062 62.4660 2453.00 2430.10 50.00
10063 62.4720 2487.00 2426.35 50.00
10064 62.4780 2454.00 2421.81 50.00
10065 62.4840 2441.00 2417.31 49.00
10066 62.4900 2510.00 2413.43 50.00
10067 62.4960 2513.00 2410.35 50.00
10068 62.5020 2491.00 2408.18 50.00
10069 62.5080 2506.00 2406.93 50.00
10070 62.5140 2447.00 2406.62 49.00
10071 62.5200 2468.00 2407.14 50.00
10072 62.5260 2491.00 2409.17 50.00
10073 62.5320 2461.00 2412.42 50.00
10074 62.5380 2438.00 2417.42 49.00
10075 62.5440 2466.00 2424.87 50.00
10076 62.5500 2501.00 2434.96 50.00
10077 62.5560 2455.00 2448.67 50.00
10078 62.5620 2509.00 2466.59 50.00
10079 62.5680 2627.00 2488.32 51.00
10080 62.5740 2605.00 2513.47 51.00
10081 62.5800 2576.00 2540.52 51.00
10082 62.5860 2644.00 2567.31 51.00
10083 62.5920 2705.00 2591.18 52.00
10084 62.5980 2750.00 2609.18 52.00
10085 62.6040 2752.00 2617.65 52.00
10086 62.6100 2706.00 2613.56 52.00
10087 62.6160 2628.00 2596.73 51.00
10088 62.6220 2577.00 2570.69 51.00
10089 62.6280 2511.00 2540.58 50.00
10090 62.6340 2458.00 2510.26 50.00
10091 62.6400 2470.00 2482.48 50.00
10092 62.6460 2478.00 2459.38 50.00
10093 62.6520 2430.00 2440.69 49.00
10094 62.6580 2462.00 2425.90 50.00
10095 62.6640 2507.00 2414.94 50.00
10096 62.6700 2464.00 2407.04 50.00
10097 62.6760 2473.00 2401.31 50.00
10098 62.6820 2479.00 2397.16 50.00
10099 62.6880 2413.00 2394.09 49.00
10100 62.6940 2450.00 2391.75 49.00
10101 62.7000 2442.00 2389.95 49.00
10102 62.7060 2375.00 2388.53 49.00
10103 62.7120 2418.00 2387.42 49.00
10104 62.7180 2445.00 2386.57 49.00
10105 62.7240 2408.00 2385.99 49.00
10106 62.7300 2451.00 2385.69 50.00
10107 62.7360 2438.00 2385.44 49.00
10108 62.7420 2361.00 2385.64 49.00
10109 62.7480 2373.00 2386.27 49.00
10110 62.7540 2426.00 2386.97 49.00
10111 62.7600 2455.00 2387.90 50.00
10112 62.7660 2476.00 2389.17 50.00
10113 62.7720 2467.00 2390.29 50.00
10114 62.7780 2403.00 2390.96 49.00
10115 62.7840 2409.00 2390.77 49.00
10116 62.7900 2453.00 2389.96 50.00
10117 62.7960 2414.00 2388.48 49.00
10118 62.8020 2445.00 2386.91 49.00
10119 62.8080 2500.00 2385.39 50.00
10120 62.8140 2461.00 2384.05 50.00
10121 62.8200 2446.00 2382.99 49.00
10122 62.8260 2512.00 2382.24 50.00
10123 62.8320 2490.00 2381.78 50.00
10124 62.8380 2477.00 2381.59 50.00
10125 62.8440 2490.00 2381.65 50.00
10126 62.8500 2504.00 2381.94 50.00
10127 62.8560 2466.00 2382.52 50.00
10128 62.8620 2492.00 2383.29 50.00
10129 62.8680 2443.00 2384.35 49.00
10130 62.8740 2357.00 2385.80 49.00
10131 62.8800 2419.00 2387.77 49.00
10132 62.8860 2494.00 2390.00 50.00
10133 62.8920 2479.00 2392.72 50.00
10134 62.8980 2442.00 2395.97 49.00
10135 62.9040 2462.00 2399.66 50.00
10136 62.9100 2454.00 2403.65 50.00
10137 62.9160 2414.00 2407.79 49.00
10138 62.9220 2539.00 2411.92 50.00
10139 62.9280 2527.00 2416.41 50.00
10140 62.9340 2474.00 2421.22 50.00
10141 62.9400 2504.00 2427.42 50.00
10142 62.9460 2481.00 2435.79 50.00
10143 62.9520 2459.00 2447.54 50.00
10144 62.9580 2467.00 2463.68 50.00
10145 62.9640 2571.00 2485.50 51.00
10146 62.9700 2587.00 2513.78 51.00
10147 62.9760 2596.00 2548.60 51.00
10148 62.9820 2695.00 2588.94 52.00
10149 62.9880 2744.00 2632.27 52.00
10150 62.9940 2786.00 2674.22 53.00
10151 63.0000 2823.00 2709.43 53.00
10152 63.0060 2763.00 2733.78 53.00
10153 63.0120 2770.00 2745.42 53.00
10154 63.0180 2801.00 2744.01 53.00
10155 63.0240 2789.00 2731.07 53.00
10156 63.0300 2748.00 2708.32 52.00
10157 63.0360 2686.00 2678.52 52.00
10158 63.0420 2606.00 2645.45 51.00
10159 63.0480 2510.00 2613.82 50.00
10160 63.0540 2561.00 2588.16 51.00
10161 63.0600 2530.00 2571.89 50.00
10162 63.0660 2498.00 2566.59 50.00
10163 63.0720 2507.00 2572.68 50.00
10164 63.0780 2619.00 2589.04 51.00
10165 63.0840 2622.00 2614.16 51.00
10166 63.0900 2676.00 2644.11 52.00
10167 63.0960 2724.00 2673.55 52.00
10168 63.1020 2678.00 2696.34 52.00
10169 63.1080 2678.00 2707.95 52.00
10170 63.1140 2654.00 2706.64 52.00
10171 63.1200 2715.00 2693.38 52.00
10172 63.1260 2726.00 2671.04 52.00
10173 63.1320 2719.00 2642.55 52.00
10174 63.1380 2667.00 2610.81 52.00
10175 63.1440 2610.00 2577.53 51.00
10176 63.1500 2541.00 2544.94 50.00
10177 63.1560 2493.00 2515.42 50.00
10178 63.1620 2480.00 2490.64 50.00
10179 63.1680 2506.00 2471.41 50.00
10180 63.1740 2500.00 2458.00 50.00
10181 63.1800 2440.00 2449.72 49.00
10182 63.1860 2445.00 2445.72 49.00
10183 63.1920 2529.00 2445.13 50.00
10184 63.1980 2583.00 2446.66 51.00
10185 63.2040 2494.00 2448.60 50.00
10186 63.2100 2497.00 2449.08 50.00
10187 63.2160 2472.00 2446.66 50.00
10188 63.2220 2523.00 2441.13 50.00
10189 63.2280 2473.00 2433.56 50.00
10190 63.2340 2432.00 2425.32 49.00
10191 63.2400 2423.00 2417.54 49.00
10192 63.2460 2447.00 2410.90 49.00
10193 63.2520 2471.00 2405.72 50.00
10194 63.2580 2431.00 2402.13 49.00
10195 63.2640 2452.00 2400.18 50.00
10196 63.2700 2457.00 2399.86 50.00
10197 63.2760 2480.00 2401.05 50.00
10198 63.2820 2479.00 2403.83 50.00
10199 63.2880 2527.00 2408.31 50.00
10200 63.2940 2485.00 2414.59 50.00
10201 63.3000 2508.00 2423.13 50.00
10202 63.3060 2470.00 2434.01 50.00
10203 63.3120 2487.00 2447.29 50.00
10204 63.3180 2549.00 2462.91 50.00
10205 63.3240 2546.00 2480.36 50.00
10206 63.3300 2580.00 2498.82 51.00
10207 63.3360 2540.00 2517.55 50.00
10208 63.3420 2505.00 2535.75 50.00
10209 63.3480 2511.00 2551.41 50.00
10210 63.3540 2588.00 2563.30 51.00
10211 63.3600 2628.00 2571.09 51.00
10212 63.3660 2706.00 2576.47 52.00
10213 63.3720 2634.00 2582.33 51.00
10214 63.3780 2629.00 2591.22 51.00
10215 63.3840 2658.00 2604.86 52.00
10216 63.3900 2681.00 2623.57 52.00
10217 63.3960 2670.00 2645.66 52.00
10218 63.4020 2670.00 2667.69 52.00
10219 63.4080 2806.00 2685.04 53.00
10220 63.4140 2842.00 2693.87 53.00
10221 63.4200 2724.00 2691.89 52.00
10222 63.4260 2651.00 2678.60 51.00
10223 63.4320 2645.00 2655.90 51.00
10224 63.4380 2620.00 2627.66 51.00
10225 63.4440 2605.00 2598.47 51.00
10226 63.4500 2607.00 2572.42 51.00
10227 63.4560 2569.00 2552.17 51.00
10228 63.4620 2553.00 2539.03 51.00
10229 63.4680 2632.00 2532.71 51.00
10230 63.4740 2631.00 2531.39 51.00
10231 63.4800 2537.00 2532.48 50.00
10232 63.4860 2545.00 2532.98 50.00
10233 63.4920 2551.00 2530.06 51.00
10234 63.4980 2564.00 2522.64 51.00
10235 63.5040 2513.00 2511.01 50.00
10236 63.5100 2446.00 2496.18 49.00
10237 63.5160 2487.00 2480.86 50.00
10238 63.5220 2483.00 2466.81 50.00
10239 63.5280 2398.00 2455.27 49.00
10240 63.5340 2504.00 2447.07 50.00
10241 63.5400 2461.00 2441.58 50.00
10242 63.5460 2456.00 2439.05 50.00
10243 63.5520 2468.00 2439.22 50.00
10244 63.5580 2521.00 2442.52 50.00
10245 63.5640 2495.00 2449.59 50.00
10246 63.5700 2532.00 2460.61 50.00
10247 63.5760 2545.00 2475.36 50.00
10248 63.5820 2525.00 2493.49 50.00
10249 63.5880 2581.00 2513.46 51.00
10250 63.5940 2673.00 2532.74 52.00
10251 63.6000 2603.00 2548.65 51.00
10252 63.6060 2489.00 2559.02 50.00
10253 63.6120 2508.00 2563.44 50.00
10254 63.6180 2577.00 2563.42 51.00
10255 63.6240 2597.00 2562.12 51.00
10256 63.6300 2539.00 2561.95 50.00
10257 63.6360 2576.00 2563.88 51.00
10258 63.6420 2534.00 2566.85 50.00
10259 63.6480 2633.00 2567.59 51.00
10260 63.6540 2612.00 2562.63 51.00
10261 63.6600 2468.00 2550.02 50.00
10262 63.6660 2443.00 2531.05 49.00
10263 63.6720 2432.00 2508.69 49.00
10264 63.6780 2396.00 2486.07 49.00
10265 63.6840 2446.00 2465.53 49.00
10266 63.6900 2461.00 2448.11 50.00
10267 63.6960 2477.00 2434.45 50.00
10268 63.7020 2417.00 2424.76 49.00
10269 63.7080 2428.00 2419.44 49.00
10270 63.7140 2405.00 2417.36 49.00
10271 63.7200 2491.00 2418.90 50.00
10272 63.7260 2455.00 2423.95 50.00
10273 63.7320 2584.00 2432.44 51.00
10274 63.7380 2562.00 2444.20 51.00
10275 63.7440 2476.00 2458.93 50.00
10276 63.7500 2583.00 2476.29 51.00
10277 63.7560 2577.00 2496.05 51.00
10278 63.7620 2626.00 2517.24 51.00
10279 63.7680 2629.00 2538.58 51.00
10280 63.7740 2624.00 2557.85 51.00
10281 63.7800 2569.00 2572.71 51.00
10282 63.7860 2568.00 2581.71 51.00
10283 63.7920 2666.00 2585.48 52.00
10284 63.7980 2565.00 2586.96 51.00
10285 63.8040 2465.00 2588.80 50.00
10286 63.8100 2517.00 2591.30 50.00
10287 63.8160 2674.00 2593.35 52.00
10288 63.8220 2729.00 2592.53 52.00
10289 63.8280 2683.00 2586.63 52.00
10290 63.8340 2628.00 2574.60 51.00
10291 63.8400 2677.00 2556.99 52.00
10292 63.8460 2604.00 2535.50 51.00
10293 63.8520 2523.00 2512.63 50.00
10294 63.8580 2435.00 2491.18 49.00
10295 63.8640 2568.00 2472.91 51.00
10296 63.8700 2506.00 2458.45 50.00
10297 63.8760 2593.00 2447.49 51.00
10298 63.8820 2435.00 2438.94 49.00
10299 63.8880 2371.00 2432.12 49.00
10300 63.8940 2441.00 2425.94 49.00
10301 63.9000 2497.00 2419.88 50.00
10302 63.9060 2447.00 2413.49 49.00
10303 63.9120 2534.00 2407.30 50.00
10304 63.9180 2477.00 2401.46 50.00
10305 63.9240 2372.00 2396.31 49.00
10306 63.9300 2471.00 2392.44 50.00
10307 63.9360 2461.00 2390.02 50.00
10308 63.9420 2487.00 2389.30 50.00
10309 63.9480 2398.00 2390.51 49.00
10310 63.9540 2451.00 2393.97 50.00
10311 63.9600 2474.00 2400.16 50.00
10312 63.9660 2451.00 2409.45 50.00
10313 63.9720 2444.00 2422.78 49.00
10314 63.9780 2520.00 2440.39 50.00
10315 63.9840 2539.00 2462.99 50.00
10316 63.9900 2506.00 2490.29 50.00
10317 63.9960 2559.00 2521.48 51.00
10318 64.0020 2553.00 2554.62 51.00
10319 64.0080 2639.00 2586.33 51.00
10320 64.0140 2661.00 2612.62 52.00
10321 64.0200 2610.00 2630.56 51.00
10322 64.0260 2670.00 2639.41 52.00
10323 64.0320 2636.00 2640.36 51.00
10324 64.0380 2652.00 2634.95 51.00
10325 64.0440 2640.00 2623.88 51.00
10326 64.0500 2626.00 2606.97 51.00
10327 64.0560 2527.00 2584.62 50.00
10328 64.0620 2505.00 2558.53 50.00
10329 64.0680 2504.00 2531.59 50.00
10330 64.0740 2562.00 2506.60 51.00
10331 64.0800 2474.00 2485.90 50.00
10332 64.0860 2531.00 2470.87 50.00
10333 64.0920 2534.00 2461.65 50.00
10334 64.0980 2472.00 2458.81 50.00
10335 64.1040 2518.00 2461.88 50.00
10336 64.1100 2517.00 2470.31 50.00
10337 64.1160 2630.00 2483.31 51.00
10338 64.1220 2541.00 2499.64 50.00
10339 64.1280 2561.00 2518.35 51.00
10340 64.1340 2596.00 2538.86 51.00
10341 64.1400 2642.00 2560.96 51.00
10342 64.1460 2616.00 2584.80 51.00
10343 64.1520 2715.00 2609.85 52.00
10344 64.1580 2717.00 2635.28 52.00
10345 64.1640 2772.00 2659.44 53.00
10346 64.1700 2691.00 2680.04 52.00
10347 64.1760 2723.00 2695.34 52.00
10348 64.1820 2735.00 2703.84 52.00
10349 64.1880 2739.00 2703.53 52.00
10350 64.1940 2554.00 2692.63 51.00
10351 64.2000 2658.00 2672.26 52.00
10352 64.2060 2586.00 2647.20 51.00
10353 64.2120 2548.00 2623.61 50.00
10354 64.2180 2574.00 2606.27 51.00
10355 64.2240 2597.00 2597.83 51.00
10356 64.2300 2657.00 2598.74 52.00
10357 64.2360 2668.00 2607.84 52.00
10358 64.2420 2689.00 2622.69 52.00
10359 64.2480 2626.00 2640.56 51.00
10360 64.2540 2801.00 2658.68 53.00
10361 64.2600 2675.00 2673.68 52.00
10362 64.2660 2746.00 2681.50 52.00
10363 64.2720 2723.00 2680.40 52.00
10364 64.2780 2657.00 2670.17 52.00
10365 64.2840 2689.00 2652.50 52.00
10366 64.2900 2637.00 2629.72 51.00
10367 64.2960 2696.00 2605.02 52.00
10368 64.3020 2625.00 2581.85 51.00
10369 64.3080 2565.00 2563.15 51.00
10370 64.3140 2610.00 2550.06 51.00
10371 64.3200 2566.00 2541.68 51.00
10372 64.3260 2605.00 2536.11 51.00
10373 64.3320 2521.00 2531.17 50.00
10374 64.3380 2606.00 2525.54 51.00
10375 64.3440 2569.00 2519.70 51.00
10376 64.3500 2550.00 2515.34 50.00
10377 64.3560 2563.00 2514.07 51.00
10378 64.3620 2506.00 2516.52 50.00
10379 64.3680 2555.00 2521.93 51.00
10380 64.3740 2570.00 2528.42 51.00
10381 64.3800 2533.00 2533.30 50.00
10382 64.3860 2598.00 2534.13 51.00
10383 64.3920 2625.00 2529.38 51.00
10384 64.3980 2545.00 2518.61 50.00
10385 64.4040 2591.00 2502.67 51.00
10386 64.4100 2553.00 2483.50 51.00
10387 64.4160 2546.00 2463.01 50.00
10388 64.4220 2516.00 2442.92 50.00
10389 64.4280 2499.00 2424.94 50.00
10390 64.4340 2448.00 2409.22 49.00
10391 64.4400 2411.00 2396.20 49.00
10392 64.4460 2498.00 2385.85 50.00
10393 64.4520 2455.00 2377.96 50.00
10394 64.4580 2464.00 2372.20 50.00
10395 64.4640 2426.00 2368.23 49.00
10396 64.4700 2426.00 2365.74 49.00
10397 64.4760 2388.00 2364.53 49.00
10398 64.4820 2370.00 2364.51 49.00
10399 64.4880 2434.00 2365.83 49.00
10400 64.4940 2405.00 2368.43 49.00
10401 64.5000 2398.00 2372.65 49.00
10402 64.5060 2450.00 2378.88 49.00
10403 64.5120 2474.00 2387.86 50.00
10404 64.5180 2435.00 2399.78 49.00
10405 64.5240 2385.00 2415.12 49.00
10406 64.5300 2447.00 2433.95 49.00
10407 64.5360 2501.00 2456.44 50.00
10408 64.5420 2531.00 2481.95 50.00
10409 64.5480 2583.00 2508.66 51.00
10410 64.5540 2589.00 2534.03 51.00
10411 64.5600 2580.00 2554.33 51.00
10412 64.5660 2690.00 2566.32 52.00
10413 64.5720 2621.00 2568.30 51.00
10414 64.5780 2516.00 2561.17 50.00
10415 64.5840 2476.00 2547.90 50.00
10416 64.5900 2435.00 2532.14 49.00
10417 64.5960 2480.00 2515.91 50.00
10418 64.6020 2554.00 2500.37 51.00
10419 64.6080 2553.00 2485.39 51.00
10420 64.6140 2520.00 2470.60 50.00
10421 64.6200 2427.00 2456.01 49.00
10422 64.6260 2462.00 2441.38 50.00
10423 64.6320 2501.00 2426.97 50.00
10424 64.6380 2482.00 2413.48 50.00
10425 64.6440 2409.00 2401.27 49.00
10426 64.6500 2393.00 2390.30 49.00
10427 64.6560 2387.00 2380.59 49.00
10428 64.6620 2392.00 2372.25 49.00
10429 64.6680 2418.00 2365.34 49.00
10430 64.6740 2375.00 2359.72 49.00
10431 64.6800 2358.00 2354.86 49.00
10432 64.6860 2387.00 2351.83 49.00
10433 64.6920 2400.00 2350.09 49.00
10434 64.6980 2439.00 2349.58 49.00
10435 64.7040 2419.00 2350.24 49.00
10436 64.7100 2364.00 2351.99 49.00
10437 64.7160 2414.00 2354.70 49.00
10438 64.7220 2456.00 2358.14 50.00
10439 64.7280 2433.00 2361.85 49.00
10440 64.7340 2355.00 2365.76 49.00
10441 64.7400 2340.00 2369.35 48.00
10442 64.7460 2374.00 2372.24 49.00
10443 64.7520 2390.00 2373.96 49.00
10444 64.7580 2433.00 2374.07 49.00
10445 64.7640 2427.00 2372.79 49.00
10446 64.7700 2386.00 2370.13 49.00
10447 64.7760 2371.00 2366.24 49.00
10448 64.7820 2426.00 2362.47 49.00
10449 64.7880 2423.00 2358.98 49.00
10450 64.7940 2444.00 2356.30 49.00
10451 64.8000 2501.00 2354.79 50.00
10452 64.8060 2428.00 2354.41 49.00
10453 64.8120 2429.00 2355.38 49.00
10454 64.8180 2432.00 2357.80 49.00
10455 64.8240 2408.00 2362.06 49.00
10456 64.8300 2423.00 2368.76 49.00
10457 64.8360 2423.00 2378.44 49.00
10458 64.8420 2441.00 2392.00 49.00
10459 64.8480 2472.00 2410.45 50.00
10460 64.8540 2498.00 2434.87 50.00
10461 64.8600 2494.00 2466.19 50.00
10462 64.8660 2510.00 2504.64 50.00
10463 64.8720 2581.00 2549.92 51.00
10464 64.8780 2639.00 2600.39 51.00
10465 64.8840 2682.00 2652.60 52.00
10466 64.8900 2729.00 2701.03 52.00
10467 64.8960 2805.00 2738.53 53.00
10468 64.9020 2822.00 2757.83 53.00
10469 64.9080 2775.00 2755.31 53.00
10470 64.9140 2691.00 2732.06 52.00
10471 64.9200 2627.00 2693.48 51.00
10472 64.9260 2552.00 2647.02 51.00
10473 64.9320 2507.00 2600.18 50.00
10474 64.9380 2494.00 2558.47 50.00
10475 64.9440 2449.00 2525.38 49.00
10476 64.9500 2473.00 2502.38 50.00
10477 64.9560 2459.00 2489.60 50.00
10478 64.9620 2458.00 2486.14 50.00
10479 64.9680 2480.00 2490.20 50.00
10480 64.9740 2511.00 2499.07 50.00
10481 64.9800 2546.00 2509.68 50.00
10482 64.9860 2486.00 2518.74 50.00
10483 64.9920 2516.00 2523.73 50.00
10484 64.9980 2545.00 2522.95 50.00
10485 65.0040 2537.00 2516.04 50.00
10486 65.0100 2579.00 2504.31 51.00
10487 65.0160 2624.00 2490.67 51.00
10488 65.0220 2581.00 2478.44 51.00
10489 65.0280 2547.00 2470.02 50.00
10490 65.0340 2521.00 2467.24 50.00
10491 65.0400 2484.00 2470.46 50.00
10492 65.0460 2576.00 2479.80 51.00
10493 65.0520 2504.00 2493.81 50.00
10494 65.0580 2525.00 2509.98 50.00
10495 65.0640 2559.00 2526.54 51.00
10496 65.0700 2576.00 2540.78 51.00
10497 65.0760 2603.00 2550.95 51.00
10498 65.0820 2580.00 2555.24 51.00
10499 65.0880 2550.00 2552.77 50.00
10500 65.0940 2497.00 2543.46 50.00
10501 65.1000 2500.00 2528.38 50.00
10502 65.1060 2503.00 2509.71 50.00
10503 65.1120 2508.00 2490.37 50.00
10504 65.1180 2509.00 2473.62 50.00
10505 65.1240 2488.00 2461.59 50.00
10506 65.1300 2571.00 2455.36 51.00
10507 65.1360 2567.00 2454.95 51.00
10508 65.1420 2500.00 2459.39 50.00
10509 65.1480 2488.00 2466.70 50.00
10510 65.1540 2524.00 2473.79 50.00
10511 65.1600 2487.00 2477.00 50.00
10512 65.1660 2447.00 2473.47 49.00
10513 65.1720 2439.00 2462.87 49.00
10514 65.1780 2454.00 2447.32 50.00
10515 65.1840 2483.00 2429.97 50.00
10516 65.1900 2465.00 2413.38 50.00
10517 65.1960 2422.00 2399.30 49.00
10518 65.2020 2402.00 2388.73 49.00
10519 65.2080 2364.00 2382.09 49.00
10520 65.2140 2413.00 2379.53 49.00
10521 65.2200 2494.00 2381.00 50.00
10522 65.2260 2454.00 2385.98 50.00
10523 65.2320 2410.00 2393.70 49.00
10524 65.2380 2399.00 2403.26 49.00
10525 65.2440 2432.00 2413.59 49.00
10526 65.2500 2463.00 2423.71 50.00
10527 65.2560 2464.00 2433.03 50.00
10528 65.2620 2503.00 2440.79 50.00
10529 65.2680 2549.00 2446.07 50.00
10530 65.2740 2546.00 2447.85 50.00
10531 65.2800 2482.00 2445.70 50.00
10532 65.2860 2438.00 2439.84 49.00
10533 65.2920 2433.00 2430.78 49.00
10534 65.2980 2406.00 2419.10 49.00
10535 65.3040 2391.00 2405.69 49.00
10536 65.3100 2399.00 2391.11 49.00
10537 65.3160 2419.00 2376.82 49.00
10538 65.3220 2368.00 2363.92 49.00
10539 65.3280 2302.00 2352.88 48.00
10540 65.3340 2349.00 2343.87 48.00
10541 65.3400 2376.00 2336.76 49.00
10542 65.3460 2365.00 2331.33 49.00
10543 65.3520 2373.00 2327.29 49.00
10544 65.3580 2360.00 2324.38 49.00
10545 65.3640 2340.00 2322.34 48.00
10546 65.3700 2361.00 2321.11 49.00
10547 65.3760 2336.00 2320.44 48.00
10548 65.3820 2332.00 2320.05 48.00
10549 65.3880 2370.00 2320.00 49.00
10550 65.3940 2396.00 2319.89 49.00
10551 65.4000 2364.00 2320.41 49.00
10552 65.4060 2334.00 2321.62 48.00
10553 65.4120 2344.00 2323.16 48.00
10554 65.4180 2410.00 2325.52 49.00
10555 65.4240 2383.00 2328.66 49.00
10556 65.4300 2390.00 2332.62 49.00
10557 65.4360 2441.00 2337.55 49.00
10558 65.4420 2454.00 2343.55 50.00
10559 65.4480 2510.00 2350.66 50.00
10560 65.4540 2474.00 2358.89 50.00
10561 65.4600 2485.00 2368.17 50.00
10562 65.4660 2400.00 2378.66 49.00
10563 65.4720 2473.00 2390.46 50.00
10564 65.4780 2487.00 2404.09 50.00
10565 65.4840 2505.00 2420.98 50.00
10566 65.4900 2565.00 2442.33 51.00
10567 65.4960 2549.00 2469.69 50.00
10568 65.5020 2550.00 2503.24 50.00
10569 65.5080 2558.00 2542.94 51.00
10570 65.5140 2618.00 2586.67 51.00
10571 65.5200 2627.00 2631.10 51.00
10572 65.5260 2728.00 2672.33 52.00
10573 65.5320 2771.00 2706.16 53.00
10574 65.5380 2705.00 2728.70 52.00
10575 65.5440 2632.00 2735.92 51.00
10576 65.5500 2568.00 2725.94 51.00
10577 65.5560 2579.00 2701.02 51.00
10578 65.5620 2533.00 2666.85 50.00
10579 65.5680 2528.00 2629.37 50.00
10580 65.5740 2488.00 2593.39 50.00
10581 65.5800 2563.00 2561.23 51.00
10582 65.5860 2492.00 2533.54 50.00
10583 65.5920 2564.00 2508.91 51.00
10584 65.5980 2523.00 2486.31 50.00
10585 65.6040 2493.00 2464.83 50.00
10586 65.6100 2449.00 2444.31 49.00
10587 65.6160 2458.00 2425.39 50.00
10588 65.6220 2435.00 2408.68 49.00
10589 65.6280 2436.00 2394.56 49.00
10590 65.6340 2427.00 2383.08 49.00
10591 65.6400 2385.00 2374.13 49.00
10592 65.6460 2399.00 2367.49 49.00
10593 65.6520 2362.00 2363.04 49.00
10594 65.6580 2322.00 2360.80 48.00
10595 65.6640 2355.00 2360.83 49.00
10596 65.6700 2414.00 2363.89 49.00
10597 65.6760 2422.00 2369.51 49.00
10598 65.6820 2390.00 2378.06 49.00
10599 65.6880 2363.00 2389.00 49.00
10600 65.6940 2468.00 2402.15 50.00
10601 65.7000 2505.00 2416.16 50.00
10602 65.7060 2489.00 2430.10 50.00
10603 65.7120 2500.00 2442.37 50.00
10604 65.7180 2453.00 2451.15 50.00
10605 65.7240 2531.00 2454.99 50.00
10606 65.7300 2445.00 2453.74 49.00
10607 65.7360 2484.00 2448.91 50.00
10608 65.7420 2440.00 2443.03 49.00
10609 65.7480 2421.00 2439.03 49.00
10610 65.7540 2513.00 2439.19 50.00
10611 65.7600 2494.00 2445.17 50.00
10612 65.7660 2453.00 2457.80 50.00
10613 65.7720 2498.00 2477.31 50.00
10614 65.7780 2597.00 2502.45 51.00
10615 65.7840 2546.00 2531.13 50.00
10616 65.7900 2553.00 2559.28 51.00
10617 65.7960 2508.00 2581.22 50.00
10618 65.8020 2493.00 2591.69 50.00
10619 65.8080 2595.00 2587.83 51.00
10620 65.8140 2572.00 2571.60 51.00
10621 65.8200 2504.00 2548.46 50.00
10622 65.8260 2399.00 2524.16 49.00
10623 65.8320 2463.00 2503.10 50.00
10624 65.8380 2517.00 2487.93 50.00
10625 65.8440 2517.00 2479.53 50.00
10626 65.8500 2501.00 2477.57 50.00
10627 65.8560 2555.00 2480.39 51.00
10628 65.8620 2503.00 2485.21 50.00
10629 65.8680 2556.00 2488.56 51.00
10630 65.8740 2624.00 2487.48 51.00
10631 65.8800 2505.00 2480.96 50.00
10632 65.8860 2473.00 2470.24 50.00
10633 65.8920 2454.00 2457.85 50.00
10634 65.8980 2419.00 2446.04 49.00
10635 65.9040 2462.00 2436.19 50.00
10636 65.9100 2474.00 2428.75 50.00
10637 65.9160 2459.00 2423.67 50.00
10638 65.9220 2428.00 2420.83 49.00
10639 65.9280 2439.00 2420.27 49.00
10640 65.9340 2469.00 2422.26 50.00
10641 65.9400 2414.00 2427.09 49.00
10642 65.9460 2476.00 2434.70 50.00
10643 65.9520 2440.00 2444.42 49.00
10644 65.9580 2630.00 2454.80 51.00
10645 65.9640 2522.00 2463.61 50.00
10646 65.9700 2503.00 2469.11 50.00
10647 65.9760 2497.00 2470.63 50.00
10648 65.9820 2534.00 2469.42 50.00
10649 65.9880 2408.00 2467.52 49.00
10650 65.9940 2488.00 2466.42 50.00
10651 66.0000 2524.00 2467.61 50.00
10652 66.0060 2561.00 2471.92 51.00
10653 66.0120 2570.00 2479.72 51.00
10654 66.0180 2485.00 2490.98 50.00
10655 66.0240 2511.00 2505.16 50.00
10656 66.0300 2545.00 2521.30 50.00
10657 66.0360 2486.00 2537.74 50.00
10658 66.0420 2597.00 2551.77 51.00
10659 66.0480 2671.00 2561.73 52.00
10660 66.0540 2604.00 2567.93 51.00
10661 66.0600 2625.00 2571.87 51.00
10662 66.0660 2591.00 2574.77 51.00
10663 66.0720 2628.00 2576.44 51.00
10664 66.0780 2630.00 2574.59 51.00
10665 66.0840 2595.00 2566.24 51.00
10666 66.0900 2594.00 2549.71 51.00
10667 66.0960 2509.00 2526.35 50.00
10668 66.1020 2460.00 2500.11 50.00
10669 66.1080 2379.00 2475.07 49.00
10670 66.1140 2492.00 2454.35 50.00
10671 66.1200 2508.00 2439.97 50.00
10672 66.1260 2526.00 2433.26 50.00
10673 66.1320 2493.00 2434.95 50.00
10674 66.1380 2473.00 2445.24 50.00
10675 66.1440 2472.00 2463.87 50.00
10676 66.1500 2632.00 2489.77 51.00
10677 66.1560 2479.00 2520.85 50.00
10678 66.1620 2634.00 2553.90 51.00
10679 66.1680 2623.00 2584.33 51.00
10680 66.1740 2620.00 2607.33 51.00
10681 66.1800 2695.00 2619.08 52.00
10682 66.1860 2627.00 2617.81 51.00
10683 66.1920 2527.00 2603.53 50.00
10684 66.1980 2531.00 2577.91 50.00
10685 66.2040 2410.00 2544.03 49.00
10686 66.2100 2399.00 2506.30 49.00
10687 66.2160 2453.00 2468.74 50.00
10688 66.2220 2384.00 2434.29 49.00
10689 66.2280 2454.00 2404.78 50.00
10690 66.2340 2349.00 2380.47 48.00
10691 66.2400 2439.00 2361.54 49.00
10692 66.2460 2379.00 2347.28 49.00
10693 66.2520 2392.00 2337.07 49.00
10694 66.2580 2447.00 2330.15 49.00
10695 66.2640 2496.00 2325.85 50.00
10696 66.2700 2429.00 2323.61 49.00
10697 66.2760 2414.00 2322.98 49.00
10698 66.2820 2452.00 2323.67 50.00
10699 66.2880 2449.00 2325.55 49.00
10700 66.2940 2440.00 2328.62 49.00
10701 66.3000 2415.00 2332.96 49.00
10702 66.3060 2410.00 2338.03 49.00
10703 66.3120 2380.00 2343.58 49.00
10704 66.3180 2460.00 2349.32 50.00
10705 66.3240 2407.00 2353.96 49.00
10706 66.3300 2431.00 2356.68 49.00
10707 66.3360 2443.00 2357.28 49.00
10708 66.3420 2380.00 2355.85 49.00
10709 66.3480 2422.00 2352.61 49.00
10710 66.3540 2430.00 2347.80 49.00
10711 66.3600 2440.00 2341.75 49.00
10712 66.3660 2395.00 2335.10 49.00
10713 66.3720 2340.00 2328.34 48.00
10714 66.3780 2290.00 2322.07 48.00
10715 66.3840 2316.00 2317.07 48.00
10716 66.3900 2305.00 2313.78 48.00
10717 66.3960 2259.00 2312.00 48.00
10718 66.4020 2326.00 2312.26 48.00
10719 66.4080 2380.00 2314.52 49.00
10720 66.4140 2335.00 2319.06 48.00
10721 66.4200 2351.00 2326.30 48.00
10722 66.4260 2468.00 2336.54 50.00
10723 66.4320 2466.00 2349.97 50.00
10724 66.4380 2524.00 2366.72 50.00
10725 66.4440 2418.00 2386.37 49.00
10726 66.4500 2478.00 2407.95 50.00
10727 66.4560 2527.00 2429.76 50.00
10728 66.4620 2498.00 2449.45 50.00
10729 66.4680 2543.00 2464.44 50.00
10730 66.4740 2477.00 2472.83 50.00
10731 66.4800 2549.00 2474.07 50.00
10732 66.4860 2498.00 2468.43 50.00
10733 66.4920 2412.00 2456.43 49.00
10734 66.4980 2372.00 2439.16 49.00
10735 66.5040 2480.00 2418.25 50.00
10736 66.5100 2445.00 2395.92 49.00
10737 66.5160 2373.00 2374.25 49.00
10738 66.5220 2370.00 2354.70 49.00
10739 66.5280 2343.00 2337.93 48.00
10740 66.5340 2366.00 2324.18 49.00
10741 66.5400 2326.00 2313.24 48.00
10742 66.5460 2336.00 2304.66 48.00
10743 66.5520 2389.00 2298.33 49.00
10744 66.5580 2295.00 2293.50 48.00
10745 66.5640 2350.00 2290.13 48.00
10746 66.5700 2372.00 2287.96 49.00
10747 66.5760 2358.00 2286.39 49.00
10748 66.5820 2278.00 2285.48 48.00
10749 66.5880 2344.00 2285.20 48.00
10750 66.5940 2422.00 2285.14 49.00
10751 66.6000 2410.00 2286.23 49.00
10752 66.6060 2432.00 2288.13 49.00
10753 66.6120 2359.00 2290.94 49.00
10754 66.6180 2474.00 2294.72 50.00
10755 66.6240 2424.00 2299.46 49.00
10756 66.6300 2352.00 2305.01 48.00
10757 66.6360 2315.00 2311.05 48.00
10758 66.6420 2273.00 2316.95 48.00
10759 66.6480 2316.00 2321.96 48.00
10760 66.6540 2344.00 2324.81 48.00
10761 66.6600 2407.00 2324.92 49.00
10762 66.6660 2299.00 2322.23 48.00
10763 66.6720 2295.00 2317.56 48.00
10764 66.6780 2282.00 2311.50 48.00
10765 66.6840 2347.00 2305.14 48.00
10766 66.6900 2356.00 2299.56 49.00
10767 66.6960 2330.00 2294.67 48.00
10768 66.7020 2316.00 2290.78 48.00
10769 66.7080 2378.00 2287.66 49.00
10770 66.7140 2366.00 2285.85 49.00
10771 66.7200 2454.00 2284.79 50.00
10772 66.7260 2415.00 2284.53 49.00
10773 66.7320 2344.00 2285.02 48.00
10774 66.7380 2358.00 2286.29 49.00
10775 66.7440 2333.00 2288.54 48.00
10776 66.7500 2364.00 2291.72 49.00
10777 66.7560 2365.00 2296.22 49.00
10778 66.7620 2345.00 2302.60 48.00
10779 66.7680 2394.00 2310.78 49.00
10780 66.7740 2346.00 2321.47 48.00
10781 66.7800 2413.00 2334.66 49.00
10782 66.7860 2422.00 2350.54 49.00
10783 66.7920 2408.00 2368.77 49.00
10784 66.7980 2407.00 2388.57 49.00
10785 66.8040 2511.00 2408.47 50.00
10786 66.8100 2525.00 2426.37 50.00
10787 66.8160 2471.00 2440.25 50.00
10788 66.8220 2406.00 2448.66 49.00
10789 66.8280 2440.00 2451.46 49.00
10790 66.8340 2502.00 2449.70 50.00
10791 66.8400 2365.00 2445.54 49.00
10792 66.8460 2424.00 2441.48 49.00
10793 66.8520 2493.00 2440.24 50.00
10794 66.8580 2530.00 2443.46 50.00
10795 66.8640 2494.00 2451.74 50.00
10796 66.8700 2542.00 2464.74 50.00
10797 66.8760 2576.00 2481.11 51.00
10798 66.8820 2542.00 2499.45 50.00
10799 66.8880 2523.00 2517.99 50.00
10800 66.8940 2533.00 2534.67 50.00
10801 66.9000 2553.00 2547.01 51.00
10802 66.9060 2557.00 2552.66 51.00
10803 66.9120 2576.00 2550.04 51.00
10804 66.9180 2571.00 2538.93 51.00
10805 66.9240 2507.00 2520.73 50.00
10806 66.9300 2410.00 2497.97 49.00
10807 66.9360 2393.00 2473.55 49.00
10808 66.9420 2431.00 2450.19 49.00
10809 66.9480 2441.00 2429.76 49.00
10810 66.9540 2386.00 2413.07 49.00
10811 66.9600 2360.00 2400.23 49.00
10812 66.9660 2406.00 2390.28 49.00
10813 66.9720 2474.00 2381.74 50.00
10814 66.9780 2486.00 2373.61 50.00
10815 66.9840 2362.00 2365.21 49.00
10816 66.9900 2358.00 2357.06 49.00
10817 66.9960 2320.00 2349.99 48.00
10818 67.0020 2368.00 2344.62 49.00
10819 67.0080 2403.00 2341.22 49.00
10820 67.0140 2392.00 2340.05 49.00
10821 67.0200 2367.00 2340.86 49.00
10822 67.0260 2352.00 2343.03 48.00
10823 67.0320 2416.00 2345.79 49.00
10824 67.0380 2388.00 2348.59 49.00
10825 67.0440 2356.00 2351.37 49.00
10826 67.0500 2389.00 2354.56 49.00
10827 67.0560 2421.00 2358.67 49.00
10828 67.0620 2380.00 2363.77 49.00
10829 67.0680 2426.00 2369.30 49.00
10830 67.0740 2463.00 2373.98 50.00
10831 67.0800 2485.00 2376.14 50.00
10832 67.0860 2521.00 2374.50 50.00
10833 67.0920 2483.00 2369.07 50.00
10834 67.0980 2366.00 2361.23 49.00
10835 67.1040 2350.00 2352.85 48.00
10836 67.1100 2448.00 2345.64 49.00
10837 67.1160 2439.00 2340.74 49.00
10838 67.1220 2402.00 2339.00 49.00
10839 67.1280 2393.00 2340.80 49.00
10840 67.1340 2437.00 2346.36 49.00
10841 67.1400 2534.00 2355.61 50.00
10842 67.1460 2584.00 2368.13 51.00
10843 67.1520 2524.00 2383.14 50.00
10844 67.1580 2530.00 2399.26 50.00
10845 67.1640 2543.00 2415.21 50.00
10846 67.1700 2544.00 2429.92 50.00
10847 67.1760 2510.00 2442.84 50.00
10848 67.1820 2559.00 2453.92 51.00
10849 67.1880 2579.00 2463.22 51.00
10850 67.1940 2542.00 2470.65 50.00
10851 67.2000 2529.00 2476.11 50.00
10852 67.2060 2556.00 2479.51 51.00
10853 67.2120 2493.00 2480.48 50.00
10854 67.2180 2433.00 2479.18 49.00
10855 67.2240 2447.00 2476.39 49.00
10856 67.2300 2465.00 2473.25 50.00
10857 67.2360 2459.00 2471.06 50.00
10858 67.2420 2485.00 2470.93 50.00
10859 67.2480 2509.00 2473.40 50.00
10860 67.2540 2526.00 2477.91 50.00
10861 67.2600 2544.00 2482.97 50.00
10862 67.2660 2588.00 2486.57 51.00
10863 67.2720 2579.00 2486.73 51.00
10864 67.2780 2538.00 2481.89 50.00
10865 67.2840 2494.00 2471.56 50.00
10866 67.2900 2455.00 2456.57 50.00
10867 67.2960 2468.00 2438.83 50.00
10868 67.3020 2467.00 2420.69 50.00
10869 67.3080 2452.00 2404.49 50.00
10870 67.3140 2453.00 2391.89 50.00
10871 67.3200 2465.00 2383.87 50.00
10872 67.3260 2517.00 2380.50 50.00
10873 67.3320 2524.00 2381.39 50.00
10874 67.3380 2456.00 2385.49 50.00
10875 67.3440 2532.00 2390.88 50.00
10876 67.3500 2552.00 2395.42 51.00
10877 67.3560 2447.00 2397.51 49.00
10878 67.3620 2464.00 2396.58 50.00
10879 67.3680 2487.00 2393.55 50.00
10880 67.3740 2475.00 2389.67 50.00
10881 67.3800 2457.00 2385.96 50.00
10882 67.3860 2456.00 2382.99 50.00
10883 67.3920 2468.00 2380.72 50.00
10884 67.3980 2444.00 2379.69 49.00
10885 67.4040 2459.00 2379.90 50.00
10886 67.4100 2488.00 2381.10 50.00
10887 67.4160 2447.00 2383.12 49.00
10888 67.4220 2387.00 2385.03 49.00
10889 67.4280 2421.00 2386.73 49.00
10890 67.4340 2420.00 2387.92 49.00
10891 67.4400 2362.00 2389.26 49.00
10892 67.4460 2359.00 2390.55 49.00
10893 67.4520 2420.00 2391.04 49.00
10894 67.4580 2458.00 2389.58 50.00
10895 67.4640 2440.00 2384.57 49.00
10896 67.4700 2431.00 2375.21 49.00
10897 67.4760 2456.00 2362.78 50.00
10898 67.4820 2363.00 2348.22 49.00
10899 67.4880 2283.00 2333.42 48.00
10900 67.4940 2362.00 2319.30 49.00
10901 67.5000 2416.00 2306.95 49.00
10902 67.5060 2377.00 2296.91 49.00
10903 67.5120 2342.00 2288.88 48.00
10904 67.5180 2337.00 2282.61 48.00
10905 67.5240 2318.00 2278.06 48.00
10906 67.5300 2315.00 2274.96 48.00
10907 67.5360 2328.00 2273.01 48.00
10908 67.5420 2355.00 2271.95 49.00
10909 67.5480 2340.00 2271.52 48.00
10910 67.5540 2306.00 2271.40 48.00
10911 67.5600 2298.00 2271.65 48.00
10912 67.5660 2326.00 2272.33 48.00
10913 67.5720 2326.00 2273.19 48.00
10914 67.5780 2309.00 2274.74 48.00
10915 67.5840 2313.00 2277.05 48.00
10916 67.5900 2351.00 2280.38 48.00
10917 67.5960 2373.00 2284.89 49.00
10918 67.6020 2360.00 2290.50 49.00
10919 67.6080 2322.00 2297.39 48.00
10920 67.6140 2329.00 2305.19 48.00
10921 67.6200 2373.00 2313.49 49.00
10922 67.6260 2453.00 2321.79 50.00
10923 67.6320 2425.00 2329.72 49.00
10924 67.6380 2441.00 2336.95 49.00
10925 67.6440 2440.00 2343.82 49.00
10926 67.6500 2330.00 2350.80 48.00
10927 67.6560 2315.00 2358.56 48.00
10928 67.6620 2376.00 2367.43 49.00
10929 67.6680 2370.00 2377.50 49.00
10930 67.6740 2386.00 2388.70 49.00
10931 67.6800 2424.00 2400.50 49.00
10932 67.6860 2469.00 2412.39 50.00
10933 67.6920 2500.00 2423.91 50.00
10934 67.6980 2455.00 2433.82 50.00
10935 67.7040 2520.00 2440.38 50.00
10936 67.7100 2446.00 2441.72 49.00
10937 67.7160 2413.00 2436.26 49.00
10938 67.7220 2425.00 2424.08 49.00
10939 67.7280 2396.00 2406.85 49.00
10940 67.7340 2342.00 2386.98 48.00
10941 67.7400 2351.00 2367.00 48.00
10942 67.7460 2381.00 2348.27 49.00
10943 67.7520 2373.00 2331.52 49.00
10944 67.7580 2328.00 2317.21 48.00
10945 67.7640 2272.00 2305.27 48.00
10946 67.7700 2243.00 2295.59 47.00
10947 67.7760 2289.00 2288.01 48.00
10948 67.7820 2297.00 2282.21 48.00
10949 67.7880 2286.00 2278.13 48.00
10950 67.7940 2324.00 2275.32 48.00
10951 67.8000 2323.00 2273.72 48.00
10952 67.8060 2318.00 2273.30 48.00
10953 67.8120 2353.00 2273.81 49.00
10954 67.8180 2283.00 2275.49 48.00
10955 67.8240 2273.00 2278.31 48.00
10956 67.8300 2308.00 2282.39 48.00
10957 67.8360 2388.00 2287.88 49.00
10958 67.8420 2398.00 2294.96 49.00
10959 67.8480 2357.00 2303.74 49.00
10960 67.8540 2395.00 2314.09 49.00
10961 67.8600 2396.00 2325.89 49.00
10962 67.8660 2411.00 2338.82 49.00
10963 67.8720 2404.00 2352.33 49.00
10964 67.8780 2482.00 2366.10 50.00
10965 67.8840 2530.00 2379.67 50.00
10966 67.8900 2442.00 2392.27 49.00
10967 67.8960 2429.00 2403.21 49.00
10968 67.9020 2401.00 2412.08 49.00
10969 67.9080 2414.00 2419.07 49.00
10970 67.9140 2458.00 2425.05 50.00
10971 67.9200 2487.00 2430.96 50.00
10972 67.9260 2533.00 2438.22 50.00
10973 67.9320 2545.00 2448.45 50.00
10974 67.9380 2474.00 2463.70 50.00
10975 67.9440 2529.00 2485.81 50.00
10976 67.9500 2561.00 2515.99 51.00
10977 67.9560 2591.00 2554.57 51.00
10978 67.9620 2685.00 2600.28 52.00
10979 67.9680 2715.00 2651.29 52.00
10980 67.9740 2750.00 2703.76 52.00
10981 67.9800 2797.00 2753.02 53.00
10982 67.9860 2828.00 2794.38 53.00
10983 67.9920 2810.00 2823.97 53.00
10984 67.9980 2765.00 2839.94 53.00
10985 68.0040 2811.00 2841.49 53.00
10986 68.0100 2823.00 2829.53 53.00
10987 68.0160 2688.00 2806.47 52.00
10988 68.0220 2600.00 2775.06 51.00
10989 68.0280 2689.00 2737.39 52.00
10990 68.0340 2563.00 2694.60 51.00
10991 68.0400 2494.00 2648.54 50.00
10992 68.0460 2498.00 2602.76 50.00
10993 68.0520 2466.00 2561.08 50.00
10994 68.0580 2497.00 2526.73 50.00
10995 68.0640 2508.00 2501.16 50.00
10996 68.0700 2520.00 2484.53 50.00
10997 68.0760 2534.00 2475.62 50.00
10998 68.0820 2539.00 2472.21 50.00
10999 68.0880 2537.00 2471.42 50.00
11000 68.0940 2519.00 2470.33 50.00
11001 68.1000 2544.00 2467.12 50.00
11002 68.1060 2566.00 2461.53 51.00
11003 68.1120 2493.00 2454.51 50.00
11004 68.1180 2548.00 2447.27 50.00
11005 68.1240 2514.00 2440.65 50.00
11006 68.1300 2440.00 2435.01 49.00
11007 68.1360 2411.00 2430.46 49.00
11008 68.1420 2374.00 2426.82 49.00
11009 68.1480 2403.00 2423.59 49.00
11010 68.1540 2477.00 2419.95 50.00
11011 68.1600 2445.00 2415.55 49.00
11012 68.1660 2522.00 2410.59 50.00
11013 68.1720 2454.00 2405.96 50.00
11014 68.1780 2431.00 2402.22 49.00
11015 68.1840 2384.00 2399.74 49.00
11016 68.1900 2408.00 2398.79 49.00
11017 68.1960 2454.00 2398.98 50.00
11018 68.2020 2426.00 2400.65 49.00
11019 68.2080 2466.00 2402.98 50.00
11020 68.2140 2483.00 2405.32 50.00
11021 68.2200 2402.00 2406.56 49.00
11022 68.2260 2452.00 2405.03 50.00
11023 68.2320 2481.00 2399.45 50.00
11024 68.2380 2408.00 2389.46 49.00
11025 68.2440 2428.00 2376.12 49.00
11026 68.2500 2420.00 2361.02 49.00
11027 68.2560 2411.00 2345.14 49.00
11028 68.2620 2378.00 2329.33 49.00
11029 68.2680 2381.00 2314.37 49.00
11030 68.2740 2353.00 2300.84 49.00
11031 68.2800 2365.00 2289.29 49.00
11032 68.2860 2350.00 2279.67 48.00
11033 68.2920 2314.00 2272.20 48.00
11034 68.2980 2363.00 2266.49 49.00
11035 68.3040 2339.00 2262.49 48.00
11036 68.3100 2353.00 2260.05 49.00
11037 68.3160 2335.00 2259.04 48.00
11038 68.3220 2366.00 2259.41 49.00
11039 68.3280 2327.00 2261.15 48.00
11040 68.3340 2335.00 2264.30 48.00
11041 68.3400 2332.00 2268.93 48.00
11042 68.3460 2465.00 2275.06 50.00
11043 68.3520 2389.00 2282.81 49.00
11044 68.3580 2308.00 2291.90 48.00
11045 68.3640 2385.00 2302.14 49.00
11046 68.3700 2324.00 2312.83 48.00
11047 68.3760 2374.00 2322.96 49.00
11048 68.3820 2393.00 2331.68 49.00
11049 68.3880 2446.00 2338.27 49.00
11050 68.3940 2418.00 2341.78 49.00
11051 68.4000 2515.00 2341.99 50.00
11052 68.4060 2382.00 2338.77 49.00
11053 68.4120 2375.00 2332.68 49.00
11054 68.4180 2407.00 2324.64 49.00
11055 68.4240 2328.00 2315.74 48.00
11056 68.4300 2274.00 2306.86 48.00
11057 68.4360 2287.00 2298.47 48.00
11058 68.4420 2418.00 2291.03 49.00
11059 68.4480 2356.00 2284.81 49.00
11060 68.4540 2399.00 2279.14 49.00
11061 68.4600 2365.00 2274.16 49.00
11062 68.4660 2365.00 2269.63 49.00
11063 68.4720 2376.00 2265.42 49.00
11064 68.4780 2344.00 2261.35 48.00
11065 68.4840 2330.00 2257.32 48.00
11066 68.4900 2324.00 2253.28 48.00
11067 68.4960 2272.00 2249.61 48.00
11068 68.5020 2292.00 2246.28 48.00
11069 68.5080 2311.00 2243.26 48.00
11070 68.5140 2292.00 2240.86 48.00
11071 68.5200 2213.00 2239.34 47.00
11072 68.5260 2249.00 2238.41 47.00
11073 68.5320 2236.00 2238.24 47.00
11074 68.5380 2246.00 2238.59 47.00
11075 68.5440 2244.00 2239.62 47.00
11076 68.5500 2261.00 2241.06 48.00
11077 68.5560 2333.00 2242.68 48.00
11078 68.5620 2354.00 2243.81 49.00
11079 68.5680 2315.00 2245.10 48.00
11080 68.5740 2295.00 2245.91 48.00
11081 68.5800 2327.00 2246.16 48.00
11082 68.5860 2314.00 2245.88 48.00
11083 68.5920 2331.00 2245.18 48.00
11084 68.5980 2324.00 2244.11 48.00
11085 68.6040 2403.00 2242.75 49.00
11086 68.6100 2292.00 2241.22 48.00
11087 68.6160 2291.00 2239.73 48.00
11088 68.6220 2320.00 2238.33 48.00
11089 68.6280 2331.00 2237.57 48.00
11090 68.6340 2306.00 2237.36 48.00
11091 68.6400 2312.00 2238.00 48.00
11092 68.6460 2211.00 2239.57 47.00
11093 68.6520 2238.00 2242.30 47.00
11094 68.6580 2296.00 2246.49 48.00
11095 68.6640 2270.00 2252.59 48.00
11096 68.6700 2258.00 2260.62 48.00
11097 68.6760 2317.00 2270.86 48.00
11098 68.6820 2361.00 2283.36 49.00
11099 68.6880 2333.00 2298.05 48.00
11100 68.6940 2326.00 2314.79 48.00
11101 68.7000 2412.00 2332.60 49.00
11102 68.7060 2343.00 2350.17 48.00
11103 68.7120 2331.00 2365.92 48.00
11104 68.7180 2458.00 2378.04 50.00
11105 68.7240 2443.00 2384.65 49.00
11106 68.7300 2369.00 2384.95 49.00
11107 68.7360 2355.00 2379.08 49.00
11108 68.7420 2373.00 2368.68 49.00
11109 68.7480 2305.00 2355.80 48.00
11110 68.7540 2370.00 2342.79 49.00
11111 68.7600 2387.00 2331.22 49.00
11112 68.7660 2320.00 2322.69 48.00
11113 68.7720 2316.00 2317.62 48.00
11114 68.7780 2356.00 2316.51 49.00
11115 68.7840 2330.00 2319.04 48.00
11116 68.7900 2344.00 2324.89 48.00
11117 68.7960 2390.00 2333.43 49.00
11118 68.8020 2310.00 2343.56 48.00
11119 68.8080 2385.00 2353.68 49.00
11120 68.8140 2383.00 2361.67 49.00
11121 68.8200 2520.00 2366.11 50.00
11122 68.8260 2383.00 2366.32 49.00
11123 68.8320 2436.00 2363.00 49.00
11124 68.8380 2362.00 2357.88 49.00
11125 68.8440 2389.00 2352.95 49.00
11126 68.8500 2291.00 2350.00 48.00
11127 68.8560 2492.00 2350.27 50.00
11128 68.8620 2441.00 2354.13 49.00
11129 68.8680 2408.00 2361.59 49.00
11130 68.8740 2389.00 2371.84 49.00
11131 68.8800 2359.00 2383.65 49.00
11132 68.8860 2409.00 2395.42 49.00
11133 68.8920 2463.00 2405.40 50.00
11134 68.8980 2403.00 2412.22 49.00
11135 68.9040 2492.00 2415.23 50.00
11136 68.9100 2435.00 2414.49 49.00
11137 68.9160 2389.00 2410.87 49.00
11138 68.9220 2382.00 2405.09 49.00
11139 68.9280 2374.00 2397.87 49.00
11140 68.9340 2334.00 2390.31 48.00
11141 68.9400 2368.00 2383.70 49.00
11142 68.9460 2348.00 2379.50 48.00
11143 68.9520 2393.00 2378.61 49.00
11144 68.9580 2315.00 2381.43 48.00
11145 68.9640 2382.00 2387.67 49.00
11146 68.9700 2435.00 2396.18 49.00
11147 68.9760 2421.00 2404.84 49.00
11148 68.9820 2382.00 2411.49 49.00
11149 68.9880 2390.00 2414.65 49.00
11150 68.9940 2347.00 2414.30 48.00
11151 69.0000 2413.00 2412.11 49.00
11152 69.0060 2380.00 2410.04 49.00
11153 69.0120 2418.00 2409.38 49.00
11154 69.0180 2408.00 2410.38 49.00
11155 69.0240 2439.00 2412.14 49.00
11156 69.0300 2478.00 2413.02 50.00
11157 69.0360 2444.00 2411.35 49.00
11158 69.0420 2501.00 2406.28 50.00
11159 69.0480 2380.00 2398.01 49.00
11160 69.0540 2455.00 2387.32 50.00
11161 69.0600 2327.00 2374.89 48.00
11162 69.0660 2392.00 2361.07 49.00
11163 69.0720 2339.00 2346.30 48.00
11164 69.0780 2308.00 2331.22 48.00
11165 69.0840 2278.00 2316.89 48.00
11166 69.0900 2259.00 2303.94 48.00
11167 69.0960 2161.00 2292.92 46.00
11168 69.1020 2342.00 2283.91 48.00
11169 69.1080 2218.00 2276.79 47.00
11170 69.1140 2290.00 2271.42 48.00
11171 69.1200 2284.00 2267.43 48.00
11172 69.1260 2315.00 2264.50 48.00
11173 69.1320 2397.00 2262.32 49.00
11174 69.1380 2357.00 2260.71 49.00
11175 69.1440 2281.00 2259.65 48.00
11176 69.1500 2382.00 2259.16 49.00
11177 69.1560 2439.00 2259.35 49.00
11178 69.1620 2337.00 2260.36 48.00
11179 69.1680 2263.00 2262.39 48.00
11180 69.1740 2209.00 2265.66 47.00
11181 69.1800 2255.00 2270.47 47.00
11182 69.1860 2309.00 2277.11 48.00
11183 69.1920 2367.00 2285.89 49.00
11184 69.1980 2311.00 2297.01 48.00
11185 69.2040 2351.00 2310.58 48.00
11186 69.2100 2416.00 2326.50 49.00
11187 69.2160 2464.00 2344.12 50.00
11188 69.2220 2402.00 2362.61 49.00
11189 69.2280 2474.00 2380.12 50.00
11190 69.2340 2471.00 2395.01 50.00
11191 69.2400 2385.00 2405.41 49.00
11192 69.2460 2403.00 2410.52 49.00
11193 69.2520 2355.00 2410.30 49.00
11194 69.2580 2410.00 2405.51 49.00
11195 69.2640 2378.00 2398.10 49.00
11196 69.2700 2360.00 2389.63 49.00
11197 69.2760 2376.00 2382.15 49.00
11198 69.2820 2355.00 2376.57 49.00
11199 69.2880 2365.00 2373.96 49.00
11200 69.2940 2372.00 2374.96 49.00
11201 69.3000 2416.00 2379.80 49.00
11202 69.3060 2344.00 2387.80 48.00
11203 69.3120 2412.00 2398.18 49.00
11204 69.3180 2483.00 2409.92 50.00
11205 69.3240 2434.00 2421.96 49.00
11206 69.3300 2484.00 2433.19 50.00
11207 69.3360 2441.00 2441.91 49.00
11208 69.3420 2471.00 2446.32 50.00
11209 69.3480 2401.00 2445.03 49.00
11210 69.3540 2460.00 2437.94 50.00
11211 69.3600 2443.00 2426.88 49.00
11212 69.3660 2344.00 2413.63 48.00
11213 69.3720 2364.00 2400.17 49.00
11214 69.3780 2337.00 2387.49 48.00
11215 69.3840 2283.00 2375.93 48.00
11216 69.3900 2398.00 2365.34 49.00
11217 69.3960 2377.00 2355.21 49.00
11218 69.4020 2358.00 2345.24 49.00
11219 69.4080 2370.00 2335.43 49.00
11220 69.4140 2323.00 2325.97 48.00
11221 69.4200 2331.00 2317.41 48.00
11222 69.4260 2314.00 2310.03 48.00
11223 69.4320 2262.00 2304.27 48.00
11224 69.4380 2339.00 2299.93 48.00
11225 69.4440 2247.00 2296.89 47.00
11226 69.4500 2257.00 2295.19 48.00
11227 69.4560 2293.00 2294.54 48.00
11228 69.4620 2310.00 2295.40 48.00
11229 69.4680 2341.00 2297.78 48.00
11230 69.4740 2323.00 2301.78 48.00
11231 69.4800 2277.00 2307.37 48.00
11232 69.4860 2267.00 2314.17 48.00
11233 69.4920 2293.00 2321.66 48.00
11234 69.4980 2360.00 2329.18 49.00
11235 69.5040 2402.00 2335.82 49.00
11236 69.5100 2330.00 2340.62 48.00
11237 69.5160 2387.00 2342.69 49.00
11238 69.5220 2338.00 2341.40 48.00
11239 69.5280 2407.00 2336.90 49.00
11240 69.5340 2412.00 2329.87 49.00
11241 69.5400 2277.00 2321.11 48.00
11242 69.5460 2326.00 2311.77 48.00
11243 69.5520 2253.00 2302.85 47.00
11244 69.5580 2268.00 2295.10 48.00
11245 69.5640 2384.00 2288.89 49.00
11246 69.5700 2331.00 2284.40 48.00
11247 69.5760 2264.00 2282.02 48.00
11248 69.5820 2369.00 2281.34 49.00
11249 69.5880 2316.00 2282.48 48.00
11250 69.5940 2305.00 2285.04 48.00
11251 69.6000 2279.00 2288.63 48.00
11252 69.6060 2300.00 2292.63 48.00
11253 69.6120 2267.00 2296.59 48.00
11254 69.6180 2299.00 2299.71 48.00
11255 69.6240 2347.00 2301.38 48.00
11256 69.6300 2342.00 2301.28 48.00
11257 69.6360 2313.00 2299.39 48.00
11258 69.6420 2291.00 2296.06 48.00
11259 69.6480 2351.00 2291.81 48.00
11260 69.6540 2262.00 2287.28 48.00
11261 69.6600 2248.00 2282.99 47.00
11262 69.6660 2292.00 2279.38 48.00
11263 69.6720 2237.00 2276.68 47.00
11264 69.6780 2305.00 2275.11 48.00
11265 69.6840 2313.00 2274.80 48.00
11266 69.6900 2296.00 2275.86 48.00
11267 69.6960 2254.00 2278.52 47.00
11268 69.7020 2337.00 2282.81 48.00
11269 69.7080 2312.00 2289.04 48.00
11270 69.7140 2240.00 2297.24 47.00
11271 69.7200 2317.00 2307.69 48.00
11272 69.7260 2321.00 2320.25 48.00
11273 69.7320 2352.00 2334.87 48.00
11274 69.7380 2429.00 2350.67 49.00
11275 69.7440 2370.00 2366.92 49.00
11276 69.7500 2319.00 2382.26 48.00
11277 69.7560 2393.00 2395.31 49.00
11278 69.7620 2526.00 2404.84 50.00
11279 69.7680 2390.00 2410.26 49.00
11280 69.7740 2412.00 2411.73 49.00
11281 69.7800 2319.00 2410.56 48.00
11282 69.7860 2384.00 2408.28 49.00
11283 69.7920 2403.00 2406.37 49.00
11284 69.7980 2449.00 2405.97 49.00
11285 69.8040 2402.00 2407.47 49.00
11286 69.8100 2437.00 2410.28 49.00
11287 69.8160 2401.00 2413.24 49.00
11288 69.8220 2393.00 2415.21 49.00
11289 69.8280 2409.00 2415.57 49.00
11290 69.8340 2396.00 2414.31 49.00
11291 69.8400 2374.00 2411.76 49.00
11292 69.8460 2367.00 2408.23 49.00
11293 69.8520 2357.00 2404.08 49.00
11294 69.8580 2375.00 2399.84 49.00
11295 69.8640 2284.00 2396.47 48.00
11296 69.8700 2400.00 2394.19 49.00
11297 69.8760 2428.00 2392.83 49.00
11298 69.8820 2422.00 2391.43 49.00
11299 69.8880 2357.00 2388.91 49.00
11300 69.8940 2414.00 2384.81 49.00
11301 69.9000 2443.00 2379.07 49.00
11302 69.9060 2380.00 2372.69 49.00
11303 69.9120 2369.00 2367.18 49.00
11304 69.9180 2405.00 2363.87 49.00
11305 69.9240 2441.00 2363.81 49.00
11306 69.9300 2460.00 2367.79 50.00
11307 69.9360 2350.00 2376.19 48.00
11308 69.9420 2389.00 2389.32 49.00
11309 69.9480 2399.00 2406.92 49.00
11310 69.9540 2403.00 2428.81 49.00
11311 69.9600 2458.00 2454.23 50.00
11312 69.9660 2494.00 2482.30 50.00
11313 69.9720 2553.00 2511.06 51.00
11314 69.9780 2592.00 2537.85 51.00
11315 69.9840 2568.00 2559.43 51.00
11316 69.9900 2524.00 2572.55 50.00
11317 69.9960 2530.00 2574.92 50.00
11318 70.0020 2494.00 2565.60 50.00
11319 70.0080 2392.00 2545.55 49.00
11320 70.0140 2356.00 2517.57 49.00
11321 70.0200 2453.00 2485.31 50.00
11322 70.0260 2320.00 2452.31 48.00
11323 70.0320 2315.00 2421.50 48.00
11324 70.0380 2313.00 2394.44 48.00
11325 70.0440 2292.00 2372.13 48.00
11326 70.0500 2353.00 2354.83 49.00
11327 70.0560 2319.00 2342.36 48.00
11328 70.0620 2246.00 2334.24 47.00
11329 70.0680 2252.00 2330.12 47.00
11330 70.0740 2239.00 2329.22 47.00
11331 70.0800 2284.00 2331.11 48.00
11332 70.0860 2332.00 2334.97 48.00
11333 70.0920 2304.00 2339.85 48.00
11334 70.0980 2211.00 2344.80 47.00
11335 70.1040 2282.00 2348.82 48.00
11336 70.1100 2339.00 2351.15 48.00
11337 70.1160 2319.00 2351.27 48.00
11338 70.1220 2296.00 2349.10 48.00
11339 70.1280 2267.00 2344.70 48.00
11340 70.1340 2317.00 2338.49 48.00
11341 70.1400 2301.00 2331.15 48.00
11342 70.1460 2273.00 2323.48 48.00
11343 70.1520 2267.00 2316.22 48.00
11344 70.1580 2290.00 2309.92 48.00
11345 70.1640 2309.00 2304.87 48.00
11346 70.1700 2241.00 2301.31 47.00
11347 70.1760 2229.00 2299.33 47.00
11348 70.1820 2251.00 2299.08 47.00
11349 70.1880 2251.00 2300.56 47.00
11350 70.1940 2294.00 2303.88 48.00
11351 70.2000 2244.00 2309.21 47.00
11352 70.2060 2259.00 2316.72 48.00
11353 70.2120 2283.00 2326.62 48.00
11354 70.2180 2229.00 2339.05 47.00
11355 70.2240 2269.00 2353.96 48.00
11356 70.2300 2302.00 2371.12 48.00
11357 70.2360 2319.00 2389.93 48.00
11358 70.2420 2317.00 2409.48 48.00
11359 70.2480 2329.00 2428.98 48.00
11360 70.2540 2348.00 2447.31 48.00
11361 70.2600 2450.00 2463.75 49.00
11362 70.2660 2470.00 2477.15 50.00
11363 70.2720 2439.00 2486.32 49.00
11364 70.2780 2416.00 2490.26 49.00
11365 70.2840 2390.00 2488.74 49.00
11366 70.2900 2385.00 2482.67 49.00
11367 70.2960 2356.00 2473.61 49.00
11368 70.3020 2423.00 2462.03 49.00
11369 70.3080 2452.00 2449.04 50.00
11370 70.3140 2390.00 2434.53 49.00
11371 70.3200 2330.00 2418.86 48.00
11372 70.3260 2318.00 2402.07 48.00
11373 70.3320 2320.00 2384.90 48.00
11374 70.3380 2334.00 2368.11 48.00
11375 70.3440 2368.00 2352.48 49.00
11376 70.3500 2298.00 2338.69 48.00
11377 70.3560 2278.00 2327.04 48.00
11378 70.3620 2262.00 2317.67 48.00
11379 70.3680 2210.00 2310.43 47.00
11380 70.3740 2239.00 2305.40 47.00
11381 70.3800 2247.00 2302.23 47.00
11382 70.3860 2272.00 2300.69 48.00
11383 70.3920 2288.00 2300.47 48.00
11384 70.3980 2268.00 2301.20 48.00
11385 70.4040 2243.00 2302.63 47.00
11386 70.4100 2275.00 2304.27 48.00
11387 70.4160 2268.00 2305.74 48.00
11388 70.4220 2195.00 2306.60 47.00
11389 70.4280 2197.00 2306.73 47.00
11390 70.4340 2172.00 2306.12 47.00
11391 70.4400 2174.00 2304.62 47.00
11392 70.4460 2244.00 2302.33 47.00
11393 70.4520 2239.00 2299.47 47.00
11394 70.4580 2259.00 2296.23 48.00
11395 70.4640 2309.00 2292.95 48.00
11396 70.4700 2273.00 2289.91 48.00
11397 70.4760 2222.00 2287.32 47.00
11398 70.4820 2238.00 2285.29 47.00
11399 70.4880 2200.00 2283.88 47.00
11400 70.4940 2156.00 2283.15 46.00
11401 70.5000 2154.00 2283.07 46.00
11402 70.5060 2160.00 2283.75 46.00
11403 70.5120 2224.00 2285.24 47.00
11404 70.5180 2231.00 2287.62 47.00
11405 70.5240 2205.00 2291.01 47.00
11406 70.5300 2219.00 2295.46 47.00
11407 70.5360 2268.00 2301.05 48.00
11408 70.5420 2283.00 2307.85 48.00
11409 70.5480 2277.00 2315.72 48.00
11410 70.5540 2226.00 2324.74 47.00
11411 70.5600 2247.00 2334.01 47.00
11412 70.5660 2273.00 2343.27 48.00
11413 70.5720 2296.00 2351.52 48.00
11414 70.5780 2351.00 2357.97 48.00
11415 70.5840 2272.00 2362.06 48.00
11416 70.5900 2229.00 2363.64 47.00
11417 70.5960 2311.00 2362.94 48.00
11418 70.6020 2307.00 2360.51 48.00
11419 70.6080 2271.00 2357.04 48.00
11420 70.6140 2280.00 2353.30 48.00
11421 70.6200 2295.00 2349.88 48.00
11422 70.6260 2267.00 2347.08 48.00
11423 70.6320 2219.00 2344.81 47.00
11424 70.6380 2269.00 2342.79 48.00
11425 70.6440 2267.00 2340.76 48.00
11426 70.6500 2251.00 2338.63 47.00
11427 70.6560 2275.00 2336.29 48.00
11428 70.6620 2313.00 2333.88 48.00
11429 70.6680 2314.00 2331.50 48.00
11430 70.6740 2247.00 2329.44 47.00
11431 70.6800 2203.00 2328.21 47.00
11432 70.6860 2246.00 2328.33 47.00
11433 70.6920 2242.00 2330.27 47.00
11434 70.6980 2255.00 2334.32 47.00
11435 70.7040 2203.00 2340.51 47.00
11436 70.7100 2252.00 2348.65 47.00
11437 70.7160 2251.00 2358.43 47.00
11438 70.7220 2317.00 2369.14 48.00
11439 70.7280 2349.00 2379.78 48.00
11440 70.7340 2383.00 2389.13 49.00
11441 70.7400 2346.00 2396.06 48.00
11442 70.7460 2343.00 2399.96 48.00
11443 70.7520 2331.00 2400.89 48.00
11444 70.7580 2314.00 2399.62 48.00
11445 70.7640 2344.00 2397.40 48.00
11446 70.7700 2373.00 2395.50 49.00
11447 70.7760 2328.00 2394.93 48.00
11448 70.7820 2310.00 2396.25 48.00
11449 70.7880 2374.00 2399.59 49.00
11450 70.7940 2388.00 2404.66 49.00
11451 70.8000 2311.00 2411.41 48.00
11452 70.8060 2248.00 2419.76 47.00
11453 70.8120 2244.00 2429.95 47.00
11454 70.8180 2364.00 2442.47 49.00
11455 70.8240 2417.00 2457.08 49.00
11456 70.8300 2391.00 2473.21 49.00
11457 70.8360 2397.00 2488.86 49.00
11458 70.8420 2401.00 2501.66 49.00
11459 70.8480 2377.00 2508.24 49.00
11460 70.8540 2339.00 2506.17 48.00
11461 70.8600 2355.00 2494.82 49.00
11462 70.8660 2318.00 2476.07 48.00
11463 70.8720 2296.00 2452.81 48.00
11464 70.8780 2344.00 2428.38 48.00
11465 70.8840 2268.00 2404.87 48.00
11466 70.8900 2262.00 2384.04 48.00
11467 70.8960 2271.00 2366.40 48.00
11468 70.9020 2245.00 2352.54 47.00
11469 70.9080 2222.00 2342.27 47.00
11470 70.9140 2202.00 2335.46 47.00
11471 70.9200 2229.00 2331.82 47.00
11472 70.9260 2224.00 2330.84 47.00
11473 70.9320 2184.00 2332.07 47.00
11474 70.9380 2203.00 2334.85 47.00
11475 70.9440 2296.00 2338.51 48.00
11476 70.9500 2291.00 2342.22 48.00
11477 70.9560 2295.00 2345.20 48.00
11478 70.9620 2241.00 2346.65 47.00
11479 70.9680 2198.00 2346.23 47.00
11480 70.9740 2282.00 2343.89 48.00
11481 70.9800 2271.00 2339.93 48.00
11482 70.9860 2237.00 2334.90 47.00
11483 70.9920 2286.00 2329.43 48.00
11484 70.9980 2262.00 2324.00 48.00
11485 71.0040 2200.00 2319.12 47.00
11486 71.0100 2202.00 2315.01 47.00
11487 71.0160 2128.00 2311.82 46.00
11488 71.0220 2224.00 2309.61 47.00
11489 71.0280 2250.00 2308.32 47.00
11490 71.0340 2238.00 2307.86 47.00
11491 71.0400 2155.00 2307.90 46.00
11492 71.0460 2232.00 2308.12 47.00
11493 71.0520 2258.00 2308.16 48.00
11494 71.0580 2177.00 2307.71 47.00
11495 71.0640 2211.00 2306.80 47.00
11496 71.0700 2164.00 2305.43 47.00
11497 71.0760 2229.00 2303.99 47.00
11498 71.0820 2176.00 2302.53 47.00
11499 71.0880 2214.00 2301.34 47.00
11500 71.0940 2190.00 2300.55 47.00
11501 71.1000 2198.00 2300.23 47.00
11502 71.1060 2243.00 2300.42 47.00
11503 71.1120 2230.00 2301.10 47.00
11504 71.1180 2156.00 2302.22 46.00
11505 71.1240 2143.00 2303.71 46.00
11506 71.1300 2151.00 2305.50 46.00
11507 71.1360 2108.00 2307.59 46.00
11508 71.1420 2176.00 2309.90 47.00
11509 71.1480 2118.00 2312.70 46.00
11510 71.1540 2208.00 2316.26 47.00
11511 71.1600 2212.00 2320.60 47.00
11512 71.1660 2185.00 2326.29 47.00
11513 71.1720 2204.00 2333.70 47.00
11514 71.1780 2352.00 2342.83 48.00
11515 71.1840 2292.00 2353.82 48.00
11516 71.1900 2228.00 2366.48 47.00
11517 71.1960 2307.00 2380.22 48.00
11518 71.2020 2319.00 2394.28 48.00
11519 71.2080 2285.00 2407.49 48.00
11520 71.2140 2373.00 2418.32 49.00
11521 71.2200 2233.00 2425.82 47.00
11522 71.2260 2266.00 2429.33 48.00
11523 71.2320 2418.00 2428.92 49.00
11524 71.2380 2243.00 2425.16 47.00
11525 71.2440 2309.00 2419.05 48.00
11526 71.2500 2169.00 2411.27 47.00
11527 71.2560 2289.00 2402.72 48.00
11528 71.2620 2294.00 2393.08 48.00
11529 71.2680 2212.00 2383.12 47.00
11530 71.2740 2295.00 2372.83 48.00
11531 71.2800 2148.00 2363.10 46.00
11532 71.2860 2231.00 2354.21 47.00
11533 71.2920 2250.00 2346.55 47.00
11534 71.2980 2248.00 2340.05 47.00
11535 71.3040 2215.00 2334.47 47.00
11536 71.3100 2213.00 2329.70 47.00
11537 71.3160 2198.00 2325.40 47.00
11538 71.3220 2150.00 2321.60 46.00
11539 71.3280 2254.00 2318.32 47.00
11540 71.3340 2276.00 2315.57 48.00
11541 71.3400 2156.00 2313.38 46.00
11542 71.3460 2187.00 2311.88 47.00
11543 71.3520 2242.00 2310.94 47.00
11544 71.3580 2228.00 2310.74 47.00
11545 71.3640 2238.00 2311.19 47.00
11546 71.3700 2206.00 2312.52 47.00
11547 71.3760 2230.00 2314.63 47.00
11548 71.3820 2145.00 2317.67 46.00
11549 71.3880 2166.00 2321.77 47.00
11550 71.3940 2183.00 2327.09 47.00
11551 71.4000 2222.00 2333.46 47.00
11552 71.4060 2160.00 2340.99 46.00
11553 71.4120 2296.00 2349.48 48.00
11554 71.4180 2275.00 2359.13 48.00
11555 71.4240 2245.00 2369.95 47.00
11556 71.4300 2263.00 2381.58 48.00
11557 71.4360 2311.00 2393.59 48.00
11558 71.4420 2296.00 2405.28 48.00
11559 71.4480 2308.00 2415.57 48.00
11560 71.4540 2216.00 2423.36 47.00
11561 71.4600 2269.00 2427.70 48.00
11562 71.4660 2307.00 2428.26 48.00
11563 71.4720 2389.00 2425.38 49.00
11564 71.4780 2244.00 2419.98 47.00
11565 71.4840 2229.00 2413.15 47.00
11566 71.4900 2220.00 2405.90 47.00
11567 71.4960 2204.00 2398.94 47.00
11568 71.5020 2371.00 2392.73 49.00
11569 71.5080 2322.00 2387.47 48.00
11570 71.5140 2304.00 2383.15 48.00
11571 71.5200 2280.00 2379.58 48.00
11572 71.5260 2304.00 2376.80 48.00
11573 71.5320 2288.00 2374.74 48.00
11574 71.5380 2299.00 2373.42 48.00
11575 71.5440 2220.00 2373.23 47.00
11576 71.5500 2193.00 2374.50 47.00
11577 71.5560 2177.00 2377.79 47.00
11578 71.5620 2222.00 2383.50 47.00
11579 71.5680 2264.00 2391.86 48.00
11580 71.5740 2218.00 2402.90 47.00
11581 71.5800 2197.00 2416.32 47.00
11582 71.5860 2261.00 2431.24 48.00
11583 71.5920 2305.00 2446.56 48.00
11584 71.5980 2355.00 2460.70 49.00
11585 71.6040 2231.00 2472.28 47.00
11586 71.6100 2413.00 2480.15 49.00
11587 71.6160 2408.00 2483.73 49.00
11588 71.6220 2346.00 2483.01 48.00
11589 71.6280 2275.00 2478.31 48.00
11590 71.6340 2319.00 2470.07 48.00
11591 71.6400 2270.00 2458.95 48.00
11592 71.6460 2287.00 2445.83 48.00
11593 71.6520 2321.00 2431.99 48.00
11594 71.6580 2219.00 2418.77 47.00
11595 71.6640 2241.00 2407.37 47.00
11596 71.6700 2223.00 2398.70 47.00
11597 71.6760 2172.00 2393.25 47.00
11598 71.6820 2236.00 2391.30 47.00
11599 71.6880 2293.00 2392.84 48.00
11600 71.6940 2237.00 2397.68 47.00
11601 71.7000 2304.00 2405.42 48.00
11602 71.7060 2439.00 2415.46 49.00
11603 71.7120 2355.00 2426.82 49.00
11604 71.7180 2212.00 2438.41 47.00
11605 71.7240 2264.00 2449.05 48.00
11606 71.7300 2317.00 2457.97 48.00
11607 71.7360 2329.00 2464.80 48.00
11608 71.7420 2364.00 2469.76 49.00
11609 71.7480 2309.00 2473.55 48.00
11610 71.7540 2336.00 2477.17 48.00
11611 71.7600 2331.00 2481.65 48.00
11612 71.7660 2350.00 2487.74 48.00
11613 71.7720 2368.00 2495.93 49.00
11614 71.7780 2404.00 2506.63 49.00
11615 71.7840 2274.00 2520.65 48.00
11616 71.7900 2442.00 2538.48 49.00
11617 71.7960 2405.00 2560.24 49.00
11618 71.8020 2438.00 2585.14 49.00
11619 71.8080 2428.00 2611.17 49.00
11620 71.8140 2426.00 2635.76 49.00
11621 71.8200 2589.00 2655.91 51.00
11622 71.8260 2584.00 2669.09 51.00
11623 71.8320 2579.00 2673.89 51.00
11624 71.8380 2446.00 2670.00 49.00
11625 71.8440 2442.00 2658.07 49.00
11626 71.8500 2425.00 2639.68 49.00
11627 71.8560 2488.00 2616.83 50.00
11628 71.8620 2308.00 2591.82 48.00
11629 71.8680 2295.00 2566.72 48.00
11630 71.8740 2397.00 2543.23 49.00
11631 71.8800 2337.00 2522.55 48.00
11632 71.8860 2385.00 2505.23 49.00
11633 71.8920 2313.00 2491.33 48.00
11634 71.8980 2380.00 2480.58 49.00
11635 71.9040 2366.00 2472.70 49.00
11636 71.9100 2405.00 2467.37 49.00
11637 71.9160 2349.00 2464.45 48.00
11638 71.9220 2348.00 2463.63 48.00
11639 71.9280 2302.00 2464.85 48.00
11640 71.9340 2369.00 2467.54 49.00
11641 71.9400 2308.00 2471.28 48.00
11642 71.9460 2340.00 2475.11 48.00
11643 71.9520 2353.00 2477.84 49.00
11644 71.9580 2337.00 2478.05 48.00
11645 71.9640 2329.00 2474.79 48.00
11646 71.9700 2381.00 2467.67 49.00
11647 71.9760 2286.00 2457.13 48.00
11648 71.9820 2306.00 2444.05 48.00
11649 71.9880 2261.00 2429.58 48.00
11650 71.9940 2255.00 2414.67 47.00
11651 72.0000 2219.00 2400.18 47.00
11652 72.0060 2257.00 2386.72 48.00
11653 72.0120 2236.00 2374.65 47.00
11654 72.0180 2230.00 2364.32 47.00
11655 72.0240 2213.00 2355.62 47.00
11656 72.0300 2197.00 2348.74 47.00
11657 72.0360 2163.00 2343.32 47.00
11658 72.0420 2200.00 2339.47 47.00
11659 72.0480 2170.00 2336.78 47.00
11660 72.0540 2178.00 2335.19 47.00
11661 72.0600 2202.00 2334.56 47.00
11662 72.0660 2261.00 2334.85 48.00
11663 72.0720 2283.00 2335.93 48.00
11664 72.0780 2221.00 2337.82 47.00
11665 72.0840 2234.00 2340.48 47.00
11666 72.0900 2247.00 2344.00 47.00
11667 72.0960 2266.00 2348.34 48.00
11668 72.1020 2224.00 2353.41 47.00
11669 72.1080 2230.00 2359.02 47.00
11670 72.1140 2286.00 2365.04 48.00
11671 72.1200 2296.00 2370.93 48.00
11672 72.1260 2261.00 2376.32 48.00
11673 72.1320 2297.00 2380.71 48.00
11674 72.1380 2319.00 2384.12 48.00
11675 72.1440 2234.00 2386.55 47.00
11676 72.1500 2263.00 2387.99 48.00
11677 72.1560 2315.00 2388.29 48.00
11678 72.1620 2271.00 2387.39 48.00
11679 72.1680 2212.00 2384.93 47.00
11680 72.1740 2268.00 2381.13 48.00
11681 72.1800 2194.00 2376.24 47.00
11682 72.1860 2134.00 2370.72 46.00
11683 72.1920 2181.00 2364.90 47.00
11684 72.1980 2210.00 2359.27 47.00
11685 72.2040 2203.00 2353.81 47.00
11686 72.2100 2176.00 2348.89 47.00
11687 72.2160 2235.00 2344.37 47.00
11688 72.2220 2252.00 2340.43 47.00
11689 72.2280 2232.00 2337.06 47.00
11690 72.2340 2199.00 2334.26 47.00
11691 72.2400 2202.00 2332.04 47.00
11692 72.2460 2183.00 2330.35 47.00
11693 72.2520 2159.00 2329.15 46.00
11694 72.2580 2147.00 2328.42 46.00
11695 72.2640 2133.00 2328.12 46.00
11696 72.2700 2202.00 2328.22 47.00
11697 72.2760 2166.00 2328.64 47.00
11698 72.2820 2194.00 2329.29 47.00
11699 72.2880 2199.00 2330.07 47.00
11700 72.2940 2173.00 2330.74 47.00
11701 72.3000 2237.00 2331.39 47.00
11702 72.3060 2229.00 2331.80 47.00
11703 72.3120 2163.00 2331.78 47.00
11704 72.3180 2188.00 2331.56 47.00
11705 72.3240 2206.00 2331.04 47.00
11706 72.3300 2183.00 2330.26 47.00
11707 72.3360 2159.00 2329.32 46.00
11708 72.3420 2177.00 2328.20 47.00
11709 72.3480 2135.00 2327.27 46.00
11710 72.3540 2120.00 2326.48 46.00
11711 72.3600 2138.00 2325.90 46.00
11712 72.3660 2148.00 2325.60 46.00
11713 72.3720 2164.00 2325.49 47.00
11714 72.3780 2203.00 2325.39 47.00
11715 72.3840 2192.00 2325.28 47.00
11716 72.3900 2142.00 2325.36 46.00
11717 72.3960 2166.00 2325.61 47.00
11718 72.4020 2214.00 2326.37 47.00
11719 72.4080 2252.00 2327.28 47.00
11720 72.4140 2249.00 2328.90 47.00
11721 72.4200 2198.00 2331.01 47.00
11722 72.4260 2181.00 2334.00 47.00
11723 72.4320 2212.00 2337.92 47.00
11724 72.4380 2207.00 2343.21 47.00
11725 72.4440 2199.00 2350.11 47.00
11726 72.4500 2176.00 2358.75 47.00
11727 72.4560 2195.00 2369.47 47.00
11728 72.4620 2222.00 2382.37 47.00
11729 72.4680 2270.00 2397.53 48.00
11730 72.4740 2281.00 2414.40 48.00
11731 72.4800 2256.00 2432.50 47.00
11732 72.4860 2308.00 2450.61 48.00
11733 72.4920 2381.00 2467.39 49.00
11734 72.4980 2373.00 2481.48 49.00
11735 72.5040 2310.00 2491.57 48.00
11736 72.5100 2342.00 2496.83 48.00
11737 72.5160 2322.00 2496.87 48.00
11738 72.5220 2257.00 2491.59 48.00
11739 72.5280 2225.00 2481.35 47.00
11740 72.5340 2250.00 2466.95 47.00
11741 72.5400 2243.00 2450.16 47.00
11742 72.5460 2265.00 2432.79 48.00
11743 72.5520 2302.00 2416.12 48.00
11744 72.5580 2267.00 2401.44 48.00
11745 72.5640 2247.00 2389.27 47.00
11746 72.5700 2238.00 2379.90 47.00
11747 72.5760 2213.00 2373.30 47.00
11748 72.5820 2238.00 2369.32 47.00
11749 72.5880 2256.00 2367.66 47.00
11750 72.5940 2239.00 2367.93 47.00
11751 72.6000 2256.00 2369.72 47.00
11752 72.6060 2224.00 2372.57 47.00
11753 72.6120 2183.00 2375.98 47.00
11754 72.6180 2209.00 2379.52 47.00
11755 72.6240 2223.00 2382.92 47.00
11756 72.6300 2255.00 2386.13 47.00
11757 72.6360 2270.00 2389.31 48.00
11758 72.6420 2257.00 2392.82 48.00
11759 72.6480 2236.00 2396.78 47.00
11760 72.6540 2190.00 2401.78 47.00
11761 72.6600 2231.00 2408.31 47.00
11762 72.6660 2259.00 2416.61 48.00
11763 72.6720 2278.00 2426.64 48.00
11764 72.6780 2327.00 2437.72 48.00
11765 72.6840 2335.00 2448.79 48.00
11766 72.6900 2327.00 2458.34 48.00
11767 72.6960 2299.00 2464.89 48.00
11768 72.7020 2246.00 2467.58 47.00
11769 72.7080 2275.00 2466.77 48.00
11770 72.7140 2372.00 2463.74 49.00
11771 72.7200 2349.00 2459.80 48.00
11772 72.7260 2366.00 2455.99 49.00
11773 72.7320 2374.00 2453.00 49.00
11774 72.7380 2322.00 2450.84 48.00
11775 72.7440 2254.00 2449.41 47.00
11776 72.7500 2294.00 2448.42 48.00
11777 72.7560 2316.00 2447.44 48.00
11778 72.7620 2325.00 2445.88 48.00
11779 72.7680 2311.00 2442.88 48.00
11780 72.7740 2242.00 2437.85 47.00
11781 72.7800 2207.00 2430.41 47.00
11782 72.7860 2238.00 2420.75 47.00
11783 72.7920 2355.00 2409.46 49.00
11784 72.7980 2297.00 2397.10 48.00
11785 72.8040 2206.00 2384.55 47.00
11786 72.8100 2274.00 2372.60 48.00
11787 72.8160 2292.00 2361.76 48.00
11788 72.8220 2262.00 2352.38 48.00
11789 72.8280 2233.00 2344.42 47.00
11790 72.8340 2222.00 2337.85 47.00
11791 72.8400 2216.00 2332.38 47.00
11792 72.8460 2222.00 2327.82 47.00
11793 72.8520 2217.00 2324.01 47.00
11794 72.8580 2185.00 2320.87 47.00
11795 72.8640 2201.00 2318.43 47.00
11796 72.8700 2254.00 2316.58 47.00
11797 72.8760 2254.00 2315.46 47.00
11798 72.8820 2220.00 2315.05 47.00
11799 72.8880 2182.00 2315.46 47.00
11800 72.8940 2165.00 2316.65 47.00
11801 72.9000 2179.00 2318.79 47.00
11802 72.9060 2206.00 2321.89 47.00
11803 72.9120 2236.00 2325.95 47.00
11804 72.9180 2205.00 2331.01 47.00
11805 72.9240 2202.00 2336.91 47.00
11806 72.9300 2237.00 2343.41 47.00
11807 72.9360 2224.00 2350.27 47.00
11808 72.9420 2254.00 2356.88 47.00
11809 72.9480 2267.00 2362.80 48.00
11810 72.9540 2309.00 2367.75 48.00
11811 72.9600 2282.00 2371.72 48.00
11812 72.9660 2249.00 2374.71 47.00
11813 72.9720 2300.00 2377.13 48.00
11814 72.9780 2300.00 2379.56 48.00
11815 72.9840 2296.00 2382.59 48.00
11816 72.9900 2316.00 2386.79 48.00
11817 72.9960 2314.00 2392.70 48.00
11818 73.0020 2324.00 2400.47 48.00
11819 73.0080 2275.00 2410.31 48.00
11820 73.0140 2236.00 2421.85 47.00
11821 73.0200 2248.00 2434.65 47.00
11822 73.0260 2229.00 2448.01 47.00
11823 73.0320 2279.00 2461.05 48.00
11824 73.0380 2320.00 2472.86 48.00
11825 73.0440 2345.00 2482.23 48.00
11826 73.0500 2337.00 2487.93 48.00
11827 73.0560 2327.00 2488.92 48.00
11828 73.0620 2294.00 2484.87 48.00
11829 73.0680 2255.00 2476.25 47.00
11830 73.0740 2274.00 2464.14 48.00
11831 73.0800 2231.00 2449.88 47.00
11832 73.0860 2203.00 2434.67 47.00
11833 73.0920 2271.00 2419.54 48.00
11834 73.0980 2265.00 2404.99 48.00
11835 73.1040 2283.00 2391.11 48.00
11836 73.1100 2234.00 2377.96 47.00
11837 73.1160 2199.00 2365.76 47.00
11838 73.1220 2165.00 2354.53 47.00
11839 73.1280 2181.00 2344.48 47.00
11840 73.1340 2276.00 2335.80 48.00
11841 73.1400 2319.00 2328.63 48.00
11842 73.1460 2245.00 2322.98 47.00
11843 73.1520 2189.00 2318.86 47.00
11844 73.1580 2231.00 2316.23 47.00
11845 73.1640 2182.00 2315.07 47.00
11846 73.1700 2157.00 2315.39 46.00
11847 73.1760 2184.00 2317.20 47.00
11848 73.1820 2211.00 2320.51 47.00
11849 73.1880 2207.00 2325.31 47.00
11850 73.1940 2253.00 2331.55 47.00
11851 73.2000 2263.00 2339.05 48.00
11852 73.2060 2271.00 2347.72 48.00
11853 73.2120 2268.00 2357.07 48.00
11854 73.2180 2238.00 2366.39 47.00
11855 73.2240 2233.00 2375.03 47.00
11856 73.2300 2268.00 2382.73 48.00
11857 73.2360 2228.00 2389.51 47.00
11858 73.2420 2235.00 2395.72 47.00
11859 73.2480 2294.00 2401.82 48.00
11860 73.2540 2328.00 2407.96 48.00
11861 73.2600 2317.00 2413.96 48.00
11862 73.2660 2349.00 2419.41 48.00
11863 73.2720 2321.00 2423.87 48.00
11864 73.2780 2322.00 2426.88 48.00
11865 73.2840 2306.00 2428.35 48.00
11866 73.2900 2196.00 2428.16 47.00
11867 73.2960 2274.00 2425.82 48.00
11868 73.3020 2290.00 2421.03 48.00
11869 73.3080 2252.00 2413.90 47.00
11870 73.3140 2220.00 2405.14 47.00
11871 73.3200 2254.00 2395.84 47.00
11872 73.3260 2184.00 2387.33 47.00
11873 73.3320 2304.00 2380.37 48.00
11874 73.3380 2313.00 2375.35 48.00
11875 73.3440 2289.00 2372.24 48.00
11876 73.3500 2215.00 2370.57 47.00
11877 73.3560 2304.00 2369.81 48.00
11878 73.3620 2242.00 2369.40 47.00
11879 73.3680 2170.00 2368.76 47.00
11880 73.3740 2192.00 2367.57 47.00
11881 73.3800 2231.00 2365.95 47.00
11882 73.3860 2245.00 2364.06 47.00
11883 73.3920 2248.00 2362.40 47.00
11884 73.3980 2224.00 2361.38 47.00
11885 73.4040 2256.00 2361.44 47.00
11886 73.4100 2259.00 2362.84 48.00
11887 73.4160 2259.00 2365.73 48.00
11888 73.4220 2259.00 2370.27 48.00
11889 73.4280 2247.00 2376.64 47.00
11890 73.4340 2276.00 2384.86 48.00
11891 73.4400 2287.00 2394.71 48.00
11892 73.4460 2307.00 2405.57 48.00
11893 73.4520 2378.00 2416.52 49.00
11894 73.4580 2270.00 2426.51 48.00
11895 73.4640 2311.00 2434.62 48.00
11896 73.4700 2212.00 2440.27 47.00
11897 73.4760 2382.00 2443.28 49.00
11898 73.4820 2379.00 2443.88 49.00
11899 73.4880 2261.00 2442.56 48.00
11900 73.4940 2348.00 2439.84 48.00
11901 73.5000 2287.00 2436.25 48.00
11902 73.5060 2254.00 2432.11 47.00
11903 73.5120 2306.00 2427.57 48.00
11904 73.5180 2308.00 2422.49 48.00
11905 73.5240 2292.00 2416.74 48.00
11906 73.5300 2274.00 2410.28 48.00
11907 73.5360 2275.00 2403.39 48.00
11908 73.5420 2297.00 2396.20 48.00
11909 73.5480 2299.00 2388.93 48.00
11910 73.5540 2321.00 2382.06 48.00
11911 73.5600 2227.00 2375.93 47.00
11912 73.5660 2255.00 2370.74 47.00
11913 73.5720 2344.00 2366.45 48.00
11914 73.5780 2269.00 2362.64 48.00
11915 73.5840 2184.00 2358.79 47.00
11916 73.5900 2270.00 2354.47 48.00
11917 73.5960 2312.00 2349.54 48.00
11918 73.6020 2310.00 2344.33 48.00
11919 73.6080 2244.00 2339.44 47.00
11920 73.6140 2224.00 2335.45 47.00
11921 73.6200 2262.00 2332.98 48.00
11922 73.6260 2231.00 2332.29 47.00
11923 73.6320 2252.00 2333.35 47.00
11924 73.6380 2310.00 2335.73 48.00
11925 73.6440 2319.00 2339.11 48.00
11926 73.6500 2251.00 2342.78 47.00
11927 73.6560 2224.00 2345.76 47.00
11928 73.6620 2303.00 2347.41 48.00
11929 73.6680 2259.00 2347.34 48.00
11930 73.6740 2269.00 2345.50 48.00
11931 73.6800 2204.00 2342.08 47.00
11932 73.6860 2189.00 2337.43 47.00
11933 73.6920 2219.00 2331.86 47.00
11934 73.6980 2236.00 2325.75 47.00
11935 73.7040 2235.00 2319.41 47.00
11936 73.7100 2234.00 2312.98 47.00
11937 73.7160 2237.00 2306.64 47.00
11938 73.7220 2278.00 2300.67 48.00
11939 73.7280 2169.00 2295.41 47.00
11940 73.7340 2136.00 2291.30 46.00
11941 73.7400 2126.00 2288.53 46.00
11942 73.7460 2147.00 2287.40 46.00
11943 73.7520 2201.00 2287.94 47.00
11944 73.7580 2186.00 2290.21 47.00
11945 73.7640 2222.00 2294.13 47.00
11946 73.7700 2257.00 2299.50 48.00
11947 73.7760 2202.00 2306.02 47.00
11948 73.7820 2253.00 2313.05 47.00
11949 73.7880 2255.00 2319.67 47.00
11950 73.7940 2243.00 2324.96 47.00
11951 73.8000 2254.00 2327.93 47.00
11952 73.8060 2215.00 2327.96 47.00
11953 73.8120 2170.00 2324.90 47.00
11954 73.8180 2133.00 2319.31 46.00
11955 73.8240 2290.00 2311.92 48.00
11956 73.8300 2170.00 2303.36 47.00
11957 73.8360 2147.00 2294.39 46.00
11958 73.8420 2148.00 2285.57 46.00
11959 73.8480 2109.00 2277.33 46.00
11960 73.8540 2178.00 2269.97 47.00
11961 73.8600 2193.00 2263.52 47.00
11962 73.8660 2139.00 2258.18 46.00
11963 73.8720 2132.00 2253.73 46.00
11964 73.8780 2146.00 2250.18 46.00
11965 73.8840 2156.00 2247.36 46.00
11966 73.8900 2113.00 2245.05 46.00
11967 73.8960 2160.00 2243.25 46.00
11968 73.9020 2103.00 2241.95 46.00
11969 73.9080 2146.00 2241.00 46.00
11970 73.9140 2139.00 2240.37 46.00
11971 73.9200 2201.00 2240.04 47.00
11972 73.9260 2070.00 2240.00 45.00
11973 73.9320 2222.00 2240.45 47.00
11974 73.9380 2133.00 2241.01 46.00
11975 73.9440 2226.00 2241.89 47.00
11976 73.9500 2110.00 2242.97 46.00
11977 73.9560 2242.00 2244.37 47.00
11978 73.9620 2169.00 2245.91 47.00
11979 73.9680 2101.00 2247.39 46.00
11980 73.9740 2140.00 2248.73 46.00
11981 73.9800 2122.00 2249.62 46.00
11982 73.9860 2169.00 2249.81 47.00
11983 73.9920 2208.00 2249.19 47.00
11984 73.9980 2139.00 2247.82 46.00
11985 74.0040 2217.00 2245.90 47.00
11986 74.0100 2112.00 2243.73 46.00
11987 74.0160 2094.00 2241.56 46.00
11988 74.0220 2159.00 2239.55 46.00
11989 74.0280 2162.00 2237.82 46.00
11990 74.0340 2272.00 2236.46 48.00
11991 74.0400 2099.00 2235.52 46.00
11992 74.0460 2138.00 2234.99 46.00
11993 74.0520 2209.00 2234.94 47.00
11994 74.0580 2169.00 2235.40 47.00
11995 74.0640 2193.00 2236.38 47.00
11996 74.0700 2178.00 2237.86 47.00
11997 74.0760 2204.00 2239.84 47.00
11998 74.0820 2127.00 2242.13 46.00
11999 74.0880 2180.00 2244.77 47.00
12000 74.0940 2136.00 2247.48 46.00
12001 74.1000 2088.00 2249.97 46.00
12002 74.1060 2121.00 2252.01 46.00
12003 74.1120 2180.00 2253.35 47.00
12004 74.1180 2309.00 2253.90 48.00
12005 74.1240 2153.00 2253.44 46.00
12006 74.1300 2181.00 2252.04 47.00
12007 74.1360 2242.00 2249.73 47.00
12008 74.1420 2165.00 2246.91 47.00
12009 74.1480 2155.00 2243.78 46.00
12010 74.1540 2209.00 2240.63 47.00
12011 74.1600 2091.00 2237.69 46.00
12012 74.1660 2143.00 2235.11 46.00
12013 74.1720 2132.00 2232.97 46.00
12014 74.1780 2076.00 2231.29 46.00
12015 74.1840 2271.00 2230.18 48.00
12016 74.1900 2174.00 2229.55 47.00
12017 74.1960 2155.00 2229.54 46.00
12018 74.2020 2047.00 2230.07 45.00
12019 74.2080 2117.00 2231.15 46.00
12020 74.2140 2095.00 2232.79 46.00
12021 74.2200 2061.00 2234.96 45.00
12022 74.2260 2129.00 2237.63 46.00
12023 74.2320 2147.00 2240.73 46.00
12024 74.2380 2117.00 2244.17 46.00
12025 74.2440 2149.00 2247.72 46.00
12026 74.2500 2164.00 2251.08 47.00
12027 74.2560 2233.00 2254.23 47.00
12028 74.2620 2145.00 2256.81 46.00
12029 74.2680 2173.00 2259.00 47.00
12030 74.2740 2134.00 2260.89 46.00
12031 74.2800 2095.00 2262.73 46.00
12032 74.2860 2139.00 2264.83 46.00
12033 74.2920 2180.00 2267.46 47.00
12034 74.2980 2120.00 2270.63 46.00
12035 74.3040 2155.00 2274.61 46.00
12036 74.3100 2217.00 2279.55 47.00
12037 74.3160 2174.00 2285.28 47.00
12038 74.3220 2258.00 2291.48 48.00
12039 74.3280 2289.00 2297.69 48.00
12040 74.3340 2291.00 2303.52 48.00
12041 74.3400 2298.00 2308.72 48.00
12042 74.3460 2190.00 2313.25 47.00
12043 74.3520 2221.00 2317.14 47.00
12044 74.3580 2216.00 2320.40 47.00
12045 74.3640 2239.00 2322.78 47.00
12046 74.3700 2278.00 2323.90 48.00
12047 74.3760 2222.00 2323.49 47.00
12048 74.3820 2236.00 2321.59 47.00
12049 74.3880 2146.00 2318.72 46.00
12050 74.3940 2269.00 2315.49 48.00
12051 74.4000 2188.00 2312.34 47.00
12052 74.4060 2221.00 2309.46 47.00
12053 74.4120 2201.00 2306.54 47.00
12054 74.4180 2204.00 2303.09 47.00
12055 74.4240 2160.00 2298.73 46.00
12056 74.4300 2239.00 2293.43 47.00
12057 74.4360 2240.00 2287.37 47.00
12058 74.4420 2257.00 2280.81 48.00
12059 74.4480 2291.00 2274.09 48.00
12060 74.4540 2098.00 2267.78 46.00
12061 74.4600 2125.00 2262.17 46.00
12062 74.4660 2126.00 2257.77 46.00
12063 74.4720 2153.00 2254.96 46.00
12064 74.4780 2248.00 2253.92 47.00
12065 74.4840 2132.00 2254.82 46.00
12066 74.4900 2107.00 2257.56 46.00
12067 74.4960 2168.00 2262.06 47.00
12068 74.5020 2169.00 2267.92 47.00
12069 74.5080 2163.00 2274.69 47.00
12070 74.5140 2166.00 2281.66 47.00
12071 74.5200 2185.00 2287.67 47.00
12072 74.5260 2158.00 2291.68 46.00
12073 74.5320 2197.00 2292.48 47.00
12074 74.5380 2185.00 2289.74 47.00
12075 74.5440 2214.00 2283.80 47.00
12076 74.5500 2161.00 2275.60 46.00
12077 74.5560 2165.00 2266.29 47.00
12078 74.5620 2132.00 2256.76 46.00
12079 74.5680 2155.00 2247.66 46.00
12080 74.5740 2140.00 2239.41 46.00
12081 74.5800 2142.00 2232.20 46.00
12082 74.5860 2127.00 2226.14 46.00
12083 74.5920 2207.00 2221.16 47.00
12084 74.5980 2200.00 2217.18 47.00
12085 74.6040 2179.00 2214.10 47.00
12086 74.6100 2123.00 2211.77 46.00
12087 74.6160 2144.00 2210.10 46.00
12088 74.6220 2100.00 2208.99 46.00
12089 74.6280 2119.00 2208.39 46.00
12090 74.6340 2107.00 2208.29 46.00
12091 74.6400 2157.00 2208.86 46.00
12092 74.6460 2082.00 2210.16 46.00
12093 74.6520 2168.00 2212.14 47.00
12094 74.6580 2067.00 2214.77 45.00
12095 74.6640 2138.00 2218.24 46.00
12096 74.6700 2152.00 2222.52 46.00
12097 74.6760 2147.00 2227.58 46.00
12098 74.6820 2150.00 2233.36 46.00
12099 74.6880 2161.00 2239.73 46.00
12100 74.6940 2202.00 2246.24 47.00
12101 74.7000 2205.00 2252.44 47.00
12102 74.7060 2170.00 2257.60 47.00
12103 74.7120 2164.00 2261.06 47.00
12104 74.7180 2156.00 2262.25 46.00
12105 74.7240 2267.00 2261.08 48.00
12106 74.7300 2047.00 2257.81 45.00
12107 74.7360 2194.00 2253.15 47.00
12108 74.7420 2145.00 2247.72 46.00
12109 74.7480 2174.00 2242.04 47.00
12110 74.7540 2182.00 2236.57 47.00
12111 74.7600 2212.00 2231.61 47.00
12112 74.7660 2144.00 2227.43 46.00
12113 74.7720 2206.00 2224.21 47.00
12114 74.7780 2197.00 2221.94 47.00
12115 74.7840 2209.00 2220.68 47.00
12116 74.7900 2149.00 2220.41 46.00
12117 74.7960 2092.00 2221.25 46.00
12118 74.8020 2237.00 2223.07 47.00
12119 74.8080 2169.00 2225.87 47.00
12120 74.8140 2094.00 2229.74 46.00
12121 74.8200 2265.00 2234.75 48.00
12122 74.8260 2166.00 2240.82 47.00
12123 74.8320 2165.00 2247.86 47.00
12124 74.8380 2151.00 2255.85 46.00
12125 74.8440 2133.00 2264.70 46.00
12126 74.8500 2201.00 2274.31 47.00
12127 74.8560 2161.00 2284.57 46.00
12128 74.8620 2141.00 2295.28 46.00
12129 74.8680 2205.00 2306.13 47.00
12130 74.8740 2253.00 2316.53 47.00
12131 74.8800 2117.00 2325.59 46.00
12132 74.8860 2150.00 2332.21 46.00
12133 74.8920 2180.00 2335.38 47.00
12134 74.8980 2129.00 2334.41 46.00
12135 74.9040 2240.00 2329.52 47.00
12136 74.9100 2223.00 2321.67 47.00
12137 74.9160 2125.00 2311.94 46.00
12138 74.9220 2213.00 2301.56 47.00
12139 74.9280 2224.00 2291.34 47.00
12140 74.9340 2172.00 2281.96 47.00
12141 74.9400 2140.00 2273.69 46.00
12142 74.9460 2073.00 2266.72 46.00
12143 74.9520 2086.00 2261.22 46.00
12144 74.9580 2133.00 2257.10 46.00
12145 74.9640 2161.00 2254.30 46.00
12146 74.9700 2190.00 2252.65 47.00
12147 74.9760 2244.00 2251.88 47.00
12148 74.9820 2194.00 2251.95 47.00
12149 74.9880 2200.00 2252.97 47.00
12150 74.9940 2150.00 2255.06 46.00
12151 75.0000 2193.00 2258.41 47.00
12152 75.0060 2258.00 2263.22 48.00
12153 75.0120 2185.00 2269.62 47.00
12154 75.0180 2153.00 2277.45 46.00
12155 75.0240 2159.00 2286.51 46.00
12156 75.0300 2274.00 2296.28 48.00
12157 75.0360 2197.00 2305.98 47.00
12158 75.0420 2250.00 2314.71 47.00
12159 75.0480 2244.00 2321.62 47.00
12160 75.0540 2205.00 2326.31 47.00
12161 75.0600 2158.00 2328.65 46.00
12162 75.0660 2202.00 2329.04 47.00
12163 75.0720 2174.00 2328.13 47.00
12164 75.0780 2163.00 2326.69 47.00
12165 75.0840 2309.00 2325.31 48.00
12166 75.0900 2330.00 2324.31 48.00
12167 75.0960 2247.00 2323.76 47.00
12168 75.1020 2272.00 2323.60 48.00
12169 75.1080 2297.00 2323.59 48.00
12170 75.1140 2231.00 2323.36 47.00
12171 75.1200 2243.00 2322.38 47.00
12172 75.1260 2162.00 2320.14 46.00
12173 75.1320 2199.00 2316.33 47.00
12174 75.1380 2184.00 2310.86 47.00
12175 75.1440 2139.00 2304.56 46.00
12176 75.1500 2159.00 2297.85 46.00
12177 75.1560 2188.00 2291.26 47.00
12178 75.1620 2181.00 2285.19 47.00
12179 75.1680 2141.00 2279.77 46.00
12180 75.1740 2183.00 2275.14 47.00
12181 75.1800 2196.00 2271.09 47.00
12182 75.1860 2181.00 2267.50 47.00
12183 75.1920 2140.00 2264.36 46.00
12184 75.1980 2151.00 2261.32 46.00
12185 75.2040 2146.00 2258.61 46.00
12186 75.2100 2121.00 2256.55 46.00
12187 75.2160 2152.00 2255.53 46.00
12188 75.2220 2145.00 2255.75 46.00
12189 75.2280 2136.00 2257.41 46.00
12190 75.2340 2157.00 2260.54 46.00
12191 75.2400 2253.00 2265.02 47.00
12192 75.2460 2162.00 2270.55 46.00
12193 75.2520 2159.00 2276.66 46.00
12194 75.2580 2239.00 2282.71 47.00
12195 75.2640 2182.00 2288.00 47.00
12196 75.2700 2208.00 2291.90 47.00
12197 75.2760 2222.00 2293.99 47.00
12198 75.2820 2184.00 2294.20 47.00
12199 75.2880 2195.00 2292.73 47.00
12200 75.2940 2194.00 2290.00 47.00
12201 75.3000 2210.00 2286.49 47.00
12202 75.3060 2160.00 2282.68 46.00
12203 75.3120 2125.00 2279.09 46.00
12204 75.3180 2185.00 2276.09 47.00
12205 75.3240 2249.00 2274.11 47.00
12206 75.3300 2219.00 2273.50 47.00
12207 75.3360 2226.00 2274.43 47.00
12208 75.3420 2221.00 2277.05 47.00
12209 75.3480 2164.00 2281.52 47.00
12210 75.3540 2218.00 2287.89 47.00
12211 75.3600 2188.00 2296.09 47.00
12212 75.3660 2228.00 2305.88 47.00
12213 75.3720 2239.00 2316.82 47.00
12214 75.3780 2283.00 2328.27 48.00
12215 75.3840 2261.00 2339.52 48.00
12216 75.3900 2248.00 2349.85 47.00
12217 75.3960 2269.00 2358.64 48.00
12218 75.4020 2260.00 2365.19 48.00
12219 75.4080 2343.00 2368.94 48.00
12220 75.4140 2300.00 2369.51 48.00
12221 75.4200 2255.00 2366.83 47.00
12222 75.4260 2196.00 2361.08 47.00
12223 75.4320 2233.00 2352.67 47.00
12224 75.4380 2337.00 2342.23 48.00
12225 75.4440 2201.00 2330.67 47.00
12226 75.4500 2152.00 2319.03 46.00
12227 75.4560 2180.00 2308.41 47.00
12228 75.4620 2252.00 2299.62 47.00
12229 75.4680 2210.00 2293.08 47.00
12230 75.4740 2137.00 2289.07 46.00
12231 75.4800 2140.00 2287.26 46.00
12232 75.4860 2233.00 2287.49 47.00
12233 75.4920 2254.00 2288.92 47.00
12234 75.4980 2191.00 2290.83 47.00
12235 75.5040 2208.00 2292.73 47.00
12236 75.5100 2286.00 2293.81 48.00
12237 75.5160 2251.00 2294.03 47.00
12238 75.5220 2272.00 2293.03 48.00
12239 75.5280 2240.00 2290.83 47.00
12240 75.5340 2182.00 2287.60 47.00
12241 75.5400 2186.00 2283.65 47.00
12242 75.5460 2198.00 2279.27 47.00
12243 75.5520 2156.00 2274.62 46.00
12244 75.5580 2144.00 2269.80 46.00
12245 75.5640 2170.00 2264.81 47.00
12246 75.5700 2181.00 2259.75 47.00
12247 75.5760 2162.00 2254.80 46.00
12248 75.5820 2221.00 2250.17 47.00
12249 75.5880 2211.00 2246.02 47.00
12250 75.5940 2122.00 2242.42 46.00
12251 75.6000 2113.00 2239.25 46.00
12252 75.6060 2128.00 2236.33 46.00
12253 75.6120 2125.00 2233.54 46.00
12254 75.6180 2139.00 2230.81 46.00
12255 75.6240 2105.00 2228.13 46.00
12256 75.6300 2073.00 2225.60 46.00
12257 75.6360 2121.00 2223.28 46.00
12258 75.6420 2151.00 2221.08 46.00
12259 75.6480 2061.00 2219.05 45.00
12260 75.6540 2062.00 2217.18 45.00
12261 75.6600 2109.00 2215.45 46.00
12262 75.6660 2103.00 2213.98 46.00
12263 75.6720 2103.00 2212.72 46.00
12264 75.6780 2156.00 2211.87 46.00
12265 75.6840 2151.00 2211.33 46.00
12266 75.6900 2129.00 2211.18 46.00
12267 75.6960 2139.00 2211.48 46.00
12268 75.7020 2143.00 2212.25 46.00
12269 75.7080 2124.00 2213.66 46.00
12270 75.7140 2133.00 2215.73 46.00
12271 75.7200 2104.00 2218.75 46.00
12272 75.7260 2177.00 2222.72 47.00
12273 75.7320 2188.00 2227.69 47.00
12274 75.7380 2119.00 2233.99 46.00
12275 75.7440 2100.00 2241.62 46.00
12276 75.7500 2116.00 2250.77 46.00
12277 75.7560 2180.00 2261.32 47.00
12278 75.7620 2191.00 2273.19 47.00
12279 75.7680 2201.00 2285.82 47.00
12280 75.7740 2237.00 2298.69 47.00
12281 75.7800 2293.00 2310.93 48.00
12282 75.7860 2241.00 2321.70 47.00
12283 75.7920 2204.00 2329.88 47.00
12284 75.7980 2224.00 2334.66 47.00
12285 75.8040 2183.00 2335.34 47.00
12286 75.8100 2181.00 2331.92 47.00
12287 75.8160 2163.00 2324.76 47.00
12288 75.8220 2113.00 2314.79 46.00
12289 75.8280 2118.00 2303.11 46.00
12290 75.8340 2169.00 2290.66 47.00
12291 75.8400 2153.00 2278.27 46.00
12292 75.8460 2097.00 2266.43 46.00
12293 75.8520 2112.00 2255.70 46.00
12294 75.8580 2131.00 2246.23 46.00
12295 75.8640 2130.00 2238.18 46.00
12296 75.8700 2137.00 2231.53 46.00
12297 75.8760 2096.00 2226.17 46.00
12298 75.8820 2082.00 2222.02 46.00
12299 75.8880 2130.00 2218.75 46.00
12300 75.8940 2147.00 2216.30 46.00
12301 75.9000 2131.00 2214.46 46.00
12302 75.9060 2142.00 2213.14 46.00
12303 75.9120 2133.00 2212.16 46.00
12304 75.9180 2131.00 2211.55 46.00
12305 75.9240 2125.00 2211.21 46.00
12306 75.9300 2105.00 2211.08 46.00
12307 75.9360 2153.00 2211.05 46.00
12308 75.9420 2210.00 2211.10 47.00
12309 75.9480 2184.00 2211.13 47.00
12310 75.9540 2175.00 2211.12 47.00
12311 75.9600 2189.00 2211.05 47.00
12312 75.9660 2152.00 2210.88 46.00
12313 75.9720 2101.00 2210.67 46.00
12314 75.9780 2089.00 2210.49 46.00
12315 75.9840 2071.00 2210.47 46.00
12316 75.9900 2086.00 2210.65 46.00
12317 75.9960 2122.00 2211.15 46.00
12318 76.0020 2132.00 2212.15 46.00
12319 76.0080 2095.00 2213.75 46.00
12320 76.0140 2078.00 2216.14 46.00
12321 76.0200 2154.00 2219.41 46.00
12322 76.0260 2170.00 2223.75 47.00
12323 76.0320 2181.00 2229.48 47.00
12324 76.0380 2190.00 2236.71 47.00
12325 76.0440 2186.00 2245.37 47.00
12326 76.0500 2201.00 2255.71 47.00
12327 76.0560 2162.00 2267.50 46.00
12328 76.0620 2177.00 2280.55 47.00
12329 76.0680 2197.00 2294.20 47.00
12330 76.0740 2191.00 2307.48 47.00
12331 76.0800 2265.00 2319.45 48.00
12332 76.0860 2295.00 2328.80 48.00
12333 76.0920 2260.00 2334.32 48.00
12334 76.0980 2242.00 2335.28 47.00
12335 76.1040 2282.00 2331.55 48.00
12336 76.1100 2244.00 2323.81 47.00
12337 76.1160 2200.00 2313.15 47.00
12338 76.1220 2194.00 2301.06 47.00
12339 76.1280 2189.00 2288.59 47.00
12340 76.1340 2156.00 2276.56 46.00
12341 76.1400 2133.00 2265.41 46.00
12342 76.1460 2167.00 2255.55 47.00
12343 76.1520 2179.00 2247.03 47.00
12344 76.1580 2193.00 2239.93 47.00
12345 76.1640 2146.00 2234.21 46.00
12346 76.1700 2084.00 2229.80 46.00
12347 76.1760 2112.00 2226.62 46.00
12348 76.1820 2161.00 2224.62 46.00
12349 76.1880 2144.00 2223.75 46.00
12350 76.1940 2173.00 2223.95 47.00
12351 76.2000 2141.00 2225.16 46.00
12352 76.2060 2106.00 2227.36 46.00
12353 76.2120 2089.00 2230.54 46.00
12354 76.2180 2183.00 2234.66 47.00
12355 76.2240 2182.00 2239.62 47.00
12356 76.2300 2184.00 2245.38 47.00
12357 76.2360 2177.00 2251.73 47.00
12358 76.2420 2148.00 2258.43 46.00
12359 76.2480 2194.00 2265.17 47.00
12360 76.2540 2135.00 2271.59 46.00
12361 76.2600 2138.00 2277.39 46.00
12362 76.2660 2224.00 2282.32 47.00
12363 76.2720 2166.00 2286.25 47.00
12364 76.2780 2188.00 2289.17 47.00
12365 76.2840 2156.00 2291.10 46.00
12366 76.2900 2191.00 2292.16 47.00
12367 76.2960 2184.00 2292.56 47.00
12368 76.3020 2184.00 2292.75 47.00
12369 76.3080 2161.00 2293.13 46.00
12370 76.3140 2207.00 2294.19 47.00
12371 76.3200 2204.00 2296.12 47.00
12372 76.3260 2234.00 2298.83 47.00
12373 76.3320 2194.00 2301.94 47.00
12374 76.3380 2218.00 2304.80 47.00
12375 76.3440 2210.00 2306.73 47.00
12376 76.3500 2198.00 2307.29 47.00
12377 76.3560 2189.00 2306.45 47.00
12378 76.3620 2234.00 2304.59 47.00
12379 76.3680 2208.00 2302.17 47.00
12380 76.3740 2143.00 2299.51 46.00
12381 76.3800 2213.00 2296.73 47.00
12382 76.3860 2238.00 2293.84 47.00
12383 76.3920 2232.00 2290.85 47.00
12384 76.3980 2191.00 2287.77 47.00
12385 76.4040 2170.00 2284.79 47.00
12386 76.4100 2208.00 2281.93 47.00
12387 76.4160 2208.00 2279.62 47.00
12388 76.4220 2195.00 2278.10 47.00
12389 76.4280 2176.00 2277.62 47.00
12390 76.4340 2147.00 2278.53 46.00
12391 76.4400 2154.00 2280.76 46.00
12392 76.4460 2191.00 2284.08 47.00
12393 76.4520 2162.00 2288.15 46.00
12394 76.4580 2196.00 2292.39 47.00
12395 76.4640 2203.00 2296.41 47.00
12396 76.4700 2196.00 2299.77 47.00
12397 76.4760 2197.00 2302.22 47.00
12398 76.4820 2169.00 2303.77 47.00
12399 76.4880 2210.00 2304.40 47.00
12400 76.4940 2203.00 2304.06 47.00
12401 76.5000 2234.00 2302.74 47.00
12402 76.5060 2142.00 2300.25 46.00
12403 76.5120 2211.00 2296.51 47.00
12404 76.5180 2171.00 2291.49 47.00
12405 76.5240 2290.00 2285.45 48.00
12406 76.5300 2170.00 2278.89 47.00
12407 76.5360 2147.00 2272.09 46.00
12408 76.5420 2249.00 2265.72 47.00
12409 76.5480 2237.00 2260.13 47.00
12410 76.5540 2192.00 2255.67 47.00
12411 76.5600 2155.00 2252.39 46.00
12412 76.5660 2248.00 2250.42 47.00
12413 76.5720 2201.00 2249.64 47.00
12414 76.5780 2175.00 2249.97 47.00
12415 76.5840 2139.00 2251.10 46.00
12416 76.5900 2197.00 2253.13 47.00
12417 76.5960 2221.00 2255.91 47.00
12418 76.6020 2215.00 2259.45 47.00
12419 76.6080 2162.00 2263.76 46.00
12420 76.6140 2107.00 2268.88 46.00
12421 76.6200 2218.00 2274.84 47.00
12422 76.6260 2127.00 2281.77 46.00
12423 76.6320 2117.00 2289.86 46.00
12424 76.6380 2127.00 2299.27 46.00
12425 76.6440 2170.00 2310.19 47.00
12426 76.6500 2167.00 2322.55 47.00
12427 76.6560 2240.00 2336.18 47.00
12428 76.6620 2187.00 2350.67 47.00
12429 76.6680 2291.00 2365.40 48.00
12430 76.6740 2260.00 2379.22 48.00
12431 76.6800 2276.00 2391.06 48.00
12432 76.6860 2191.00 2399.56 47.00
12433 76.6920 2235.00 2403.58 47.00
12434 76.6980 2219.00 2402.51 47.00
12435 76.7040 2302.00 2396.31 48.00
12436 76.7100 2329.00 2385.82 48.00
12437 76.7160 2247.00 2372.29 47.00
12438 76.7220 2235.00 2357.06 47.00
12439 76.7280 2263.00 2341.23 48.00
12440 76.7340 2295.00 2325.78 48.00
12441 76.7400 2145.00 2311.14 46.00
12442 76.7460 2122.00 2297.60 46.00
12443 76.7520 2137.00 2285.36 46.00
12444 76.7580 2147.00 2274.47 46.00
12445 76.7640 2161.00 2265.02 46.00
12446 76.7700 2143.00 2256.95 46.00
12447 76.7760 2201.00 2250.10 47.00
12448 76.7820 2121.00 2244.32 46.00
12449 76.7880 2124.00 2239.46 46.00
12450 76.7940 2200.00 2235.12 47.00
12451 76.8000 2041.00 2231.26 45.00
12452 76.8060 2078.00 2227.81 46.00
12453 76.8120 2112.00 2224.80 46.00
12454 76.8180 2129.00 2222.25 46.00
12455 76.8240 2182.00 2220.19 47.00
12456 76.8300 2118.00 2218.59 46.00
12457 76.8360 2116.00 2217.46 46.00
12458 76.8420 2083.00 2216.76 46.00
12459 76.8480 2185.00 2216.46 47.00
12460 76.8540 2163.00 2216.51 47.00
12461 76.8600 2153.00 2216.87 46.00
12462 76.8660 2125.00 2217.50 46.00
12463 76.8720 2041.00 2218.40 45.00
12464 76.8780 2104.00 2219.58 46.00
12465 76.8840 2069.00 2221.00 45.00
12466 76.8900 2041.00 2222.82 45.00
12467 76.8960 2139.00 2225.02 46.00
12468 76.9020 2122.00 2227.55 46.00
12469 76.9080 2133.00 2230.44 46.00
12470 76.9140 2172.00 2233.47 47.00
12471 76.9200 2091.00 2236.46 46.00
12472 76.9260 2164.00 2239.15 47.00
12473 76.9320 2060.00 2241.26 45.00
12474 76.9380 2192.00 2242.47 47.00
12475 76.9440 2100.00 2242.79 46.00
12476 76.9500 2208.00 2242.24 47.00
12477 76.9560 2184.00 2240.95 47.00
12478 76.9620 2161.00 2239.24 46.00
12479 76.9680 2156.00 2237.27 46.00
12480 76.9740 2163.00 2235.50 47.00
12481 76.9800 2199.00 2233.93 47.00
12482 76.9860 2184.00 2232.73 47.00
12483 76.9920 2159.00 2232.05 46.00
12484 76.9980 2101.00 2232.03 46.00
12485 77.0040 2065.00 2232.81 45.00
12486 77.0100 2186.00 2234.37 47.00
12487 77.0160 2128.00 2236.88 46.00
12488 77.0220 2114.00 2240.29 46.00
12489 77.0280 2144.00 2244.56 46.00
12490 77.0340 2229.00 2249.62 47.00
12491 77.0400 2219.00 2255.58 47.00
12492 77.0460 2120.00 2262.36 46.00
12493 77.0520 2070.00 2269.96 45.00
12494 77.0580 2152.00 2278.29 46.00
12495 77.0640 2156.00 2287.17 46.00
12496 77.0700 2168.00 2296.30 47.00
12497 77.0760 2248.00 2305.34 47.00
12498 77.0820 2202.00 2313.85 47.00
12499 77.0880 2278.00 2321.52 48.00
12500 77.0940 2247.00 2328.07 47.00
12501 77.1000 2169.00 2333.53 47.00
12502 77.1060 2199.00 2338.02 47.00
12503 77.1120 2250.00 2341.71 47.00
12504 77.1180 2227.00 2345.03 47.00
12505 77.1240 2244.00 2348.36 47.00
12506 77.1300 2352.00 2352.20 48.00
12507 77.1360 2279.00 2356.89 48.00
12508 77.1420 2264.00 2362.79 48.00
12509 77.1480 2231.00 2369.90 47.00
12510 77.1540 2248.00 2378.16 47.00
12511 77.1600 2340.00 2387.15 48.00
12512 77.1660 2321.00 2396.42 48.00
12513 77.1720 2324.00 2405.46 48.00
12514 77.1780 2302.00 2413.74 48.00
12515 77.1840 2215.00 2420.59 47.00
12516 77.1900 2205.00 2425.25 47.00
12517 77.1960 2204.00 2426.92 47.00
12518 77.2020 2203.00 2425.03 47.00
12519 77.2080 2272.00 2419.35 48.00
12520 77.2140 2364.00 2410.12 49.00
12521 77.2200 2298.00 2398.11 48.00
12522 77.2260 2266.00 2384.47 48.00
12523 77.2320 2219.00 2370.44 47.00
12524 77.2380 2257.00 2357.25 48.00
12525 77.2440 2240.00 2345.80 47.00
12526 77.2500 2271.00 2336.63 48.00
12527 77.2560 2228.00 2330.02 47.00
12528 77.2620 2129.00 2325.97 46.00
12529 77.2680 2191.00 2324.26 47.00
12530 77.2740 2156.00 2324.45 46.00
12531 77.2800 2137.00 2325.94 46.00
12532 77.2860 2146.00 2328.08 46.00
12533 77.2920 2190.00 2330.12 47.00
12534 77.2980 2203.00 2331.49 47.00
12535 77.3040 2194.00 2331.51 47.00
12536 77.3100 2185.00 2330.03 47.00
12537 77.3160 2197.00 2326.98 47.00
12538 77.3220 2172.00 2322.44 47.00
12539 77.3280 2195.00 2316.53 47.00
12540 77.3340 2196.00 2309.54 47.00
12541 77.3400 2187.00 2301.71 47.00
12542 77.3460 2129.00 2293.56 46.00
12543 77.3520 2103.00 2285.62 46.00
12544 77.3580 2103.00 2278.55 46.00
12545 77.3640 2194.00 2272.87 47.00
12546 77.3700 2213.00 2268.85 47.00
12547 77.3760 2161.00 2266.72 46.00
12548 77.3820 2078.00 2266.43 46.00
12549 77.3880 2062.00 2267.90 45.00
12550 77.3940 2115.00 2270.85 46.00
12551 77.4000 2121.00 2274.85 46.00
12552 77.4060 2169.00 2279.25 47.00
12553 77.4120 2200.00 2283.38 47.00
12554 77.4180 2147.00 2286.22 46.00
12555 77.4240 2124.00 2287.11 46.00
12556 77.4300 2203.00 2285.58 47.00
12557 77.4360 2180.00 2281.72 47.00
12558 77.4420 2166.00 2275.99 47.00
12559 77.4480 2151.00 2269.11 46.00
12560 77.4540 2114.00 2261.77 46.00
12561 77.4600 2103.00 2254.61 46.00
12562 77.4660 2055.00 2248.05 45.00
12563 77.4720 2062.00 2242.44 45.00
12564 77.4780 2077.00 2237.97 46.00
12565 77.4840 2127.00 2234.76 46.00
12566 77.4900 2134.00 2232.93 46.00
12567 77.4960 2108.00 2232.55 46.00
12568 77.5020 2105.00 2233.62 46.00
12569 77.5080 2104.00 2236.21 46.00
12570 77.5140 2123.00 2240.36 46.00
12571 77.5200 2159.00 2246.09 46.00
12572 77.5260 2080.00 2253.42 46.00
12573 77.5320 2070.00 2262.24 45.00
12574 77.5380 2175.00 2272.43 47.00
12575 77.5440 2165.00 2283.62 47.00
12576 77.5500 2203.00 2295.37 47.00
12577 77.5560 2241.00 2307.01 47.00
12578 77.5620 2223.00 2317.79 47.00
12579 77.5680 2234.00 2327.13 47.00
12580 77.5740 2196.00 2334.45 47.00
12581 77.5800 2151.00 2339.37 46.00
12582 77.5860 2157.00 2341.76 46.00
12583 77.5920 2187.00 2341.50 47.00
12584 77.5980 2173.00 2338.62 47.00
12585 77.6040 2208.00 2333.29 47.00
12586 77.6100 2198.00 2325.65 47.00
12587 77.6160 2190.00 2316.20 47.00
12588 77.6220 2155.00 2305.56 46.00
12589 77.6280 2131.00 2294.44 46.00
12590 77.6340 2128.00 2283.47 46.00
12591 77.6400 2141.00 2273.00 46.00
12592 77.6460 2150.00 2263.32 46.00
12593 77.6520 2113.00 2254.63 46.00
12594 77.6580 2077.00 2246.98 46.00
12595 77.6640 2133.00 2240.45 46.00
12596 77.6700 2143.00 2235.09 46.00
12597 77.6760 2065.00 2230.75 45.00
12598 77.6820 2045.00 2227.42 45.00
12599 77.6880 2080.00 2224.81 46.00
12600 77.6940 2131.00 2222.82 46.00
12601 77.7000 2116.00 2221.23 46.00
12602 77.7060 2102.00 2219.95 46.00
12603 77.7120 2117.00 2218.88 46.00
12604 77.7180 2138.00 2217.88 46.00
12605 77.7240 2139.00 2217.03 46.00
12606 77.7300 2103.00 2216.16 46.00
12607 77.7360 2111.00 2215.19 46.00
12608 77.7420 2110.00 2214.07 46.00
12609 77.7480 2111.00 2212.79 46.00
12610 77.7540 2108.00 2211.43 46.00
12611 77.7600 2093.00 2210.08 46.00
12612 77.7660 2116.00 2208.80 46.00
12613 77.7720 2131.00 2207.70 46.00
12614 77.7780 2136.00 2206.79 46.00
12615 77.7840 2160.00 2206.14 46.00
12616 77.7900 2161.00 2205.75 46.00
12617 77.7960 2085.00 2205.61 46.00
12618 77.8020 2032.00 2205.79 45.00
12619 77.8080 2091.00 2206.37 46.00
12620 77.8140 2138.00 2207.36 46.00
12621 77.8200 2159.00 2208.76 46.00
12622 77.8260 2157.00 2210.58 46.00
12623 77.8320 2160.00 2212.95 46.00
12624 77.8380 2129.00 2215.71 46.00
12625 77.8440 2063.00 2219.11 45.00
12626 77.8500 2059.00 2222.84 45.00
12627 77.8560 2127.00 2227.12 46.00
12628 77.8620 2119.00 2231.53 46.00
12629 77.8680 2140.00 2235.94 46.00
12630 77.8740 2129.00 2240.13 46.00
12631 77.8800 2126.00 2243.84 46.00
12632 77.8860 2143.00 2246.88 46.00
12633 77.8920 2164.00 2249.22 47.00
12634 77.8980 2122.00 2250.89 46.00
12635 77.9040 2142.00 2252.09 46.00
12636 77.9100 2088.00 2253.11 46.00
12637 77.9160 2117.00 2254.17 46.00
12638 77.9220 2120.00 2255.56 46.00
12639 77.9280 2138.00 2257.29 46.00
12640 77.9340 2144.00 2259.23 46.00
12641 77.9400 2108.00 2261.06 46.00
12642 77.9460 2117.00 2262.73 46.00
12643 77.9520 2177.00 2263.84 47.00
12644 77.9580 2147.00 2264.25 46.00
12645 77.9640 2173.00 2263.82 47.00
12646 77.9700 2112.00 2262.52 46.00
12647 77.9760 2144.00 2260.60 46.00
12648 77.9820 2166.00 2258.39 47.00
12649 77.9880 2158.00 2256.18 46.00
12650 77.9940 2114.00 2254.32 46.00
12651 78.0000 2087.00 2253.18 46.00
12652 78.0060 2141.00 2252.94 46.00
12653 78.0120 2083.00 2253.80 46.00
12654 78.0180 2104.00 2255.80 46.00
12655 78.0240 2059.00 2258.74 45.00
12656 78.0300 2083.00 2262.36 46.00
12657 78.0360 2137.00 2266.21 46.00
12658 78.0420 2142.00 2269.79 46.00
12659 78.0480 2183.00 2272.49 47.00
12660 78.0540 2103.00 2273.82 46.00
12661 78.0600 2053.00 2273.43 45.00
12662 78.0660 2069.00 2271.21 45.00
12663 78.0720 2159.00 2267.51 46.00
12664 78.0780 2094.00 2262.59 46.00
12665 78.0840 2028.00 2257.07 45.00
12666 78.0900 2114.00 2251.48 46.00
12667 78.0960 2038.00 2246.13 45.00
12668 78.1020 2005.00 2241.37 45.00
12669 78.1080 2017.00 2237.35 45.00
12670 78.1140 2121.00 2234.10 46.00
12671 78.1200 2106.00 2231.52 46.00
12672 78.1260 2163.00 2229.46 47.00
12673 78.1320 2079.00 2227.68 46.00
12674 78.1380 2016.00 2225.99 45.00
12675 78.1440 2071.00 2224.19 46.00
12676 78.1500 2072.00 2222.33 46.00
12677 78.1560 2095.00 2220.41 46.00
12678 78.1620 2158.00 2218.60 46.00
12679 78.1680 2035.00 2217.03 45.00
12680 78.1740 2156.00 2215.79 46.00
12681 78.1800 2059.00 2214.97 45.00
12682 78.1860 2124.00 2214.64 46.00
12683 78.1920 2122.00 2214.84 46.00
12684 78.1980 2194.00 2215.59 47.00
12685 78.2040 2134.00 2216.98 46.00
12686 78.2100 2106.00 2219.01 46.00
12687 78.2160 2064.00 2221.72 45.00
