#------------------------------------------------------------------------------
#$Date: 2019-11-07 23:03:24 +0200 (Thu, 07 Nov 2019) $
#$Revision: 223921 $
#$URL: file:///home/coder/svn-repositories/cod/cif/7/70/06/7700633.cif $
#------------------------------------------------------------------------------
#
# This file is available in the Crystallography Open Database (COD),
# http://www.crystallography.net/
#
# All data on this site have been placed in the public domain by the
# contributors.
#
data_7700633
loop_
_publ_author_name
'Ito, Hiroaki'
'Miura, Akira'
'Goto, Yosuke'
'Mizuguchi, Yoshikazu'
'Moriyoshi, Chikako'
'Kuroiwa, Yoshihiro'
'Azuma, Masaki'
'Liu, Jinjia'
'Wen, Xiao-Dong'
'Nishioka, Shunta'
'Maeda, Kazuhiko'
'Masubuchi, Yuji'
'Rosero-Navarro, Nataly Carolina'
'Tadanaga, Kiyoharu'
_publ_section_title
;
 An electronic structure governed by the displacement of the indium site
 in In-S<sub>6</sub> octahedra: LnOInS<sub>2</sub> (Ln = La, Ce, and Pr).
;
_journal_issue                   32
_journal_name_full
'Dalton transactions (Cambridge, England : 2003)'
_journal_page_first              12272
_journal_page_last               12278
_journal_paper_doi               10.1039/c9dt01562k
_journal_volume                  48
_journal_year                    2019
_chemical_formula_sum            'In La O S2'
_chemical_formula_weight         333.8
_space_group_IT_number           11
_space_group_name_Hall           '-P 2yb'
_space_group_name_H-M_alt        'P 1 21/m 1'
_symmetry_cell_setting           monoclinic
_symmetry_Int_Tables_number      11
_symmetry_space_group_name_Hall  '-P 2yb'
_symmetry_space_group_name_H-M   'P 1 21/m 1'
_audit_update_record
;
2019-01-16 deposited with the CCDC.    2019-07-24 downloaded from the CCDC.
;
_cell_angle_alpha                90
_cell_angle_beta                 90
_cell_angle_gamma                90
_cell_formula_units_Z            2
_cell_length_a                   4.07503(3)
_cell_length_b                   4.05771(3)
_cell_length_c                   12.66236(9)
_cell_measurement_temperature    150
_cell_volume                     209.376(3)
_diffrn_ambient_temperature      150
_diffrn_detector_type
'multiple MYTHEN system (Rev. Sci. Instrum. 88, 85111 (2017))'
_diffrn_measurement_device_type  SPring-8_BL02B2
_diffrn_radiation_probe          x-ray
_diffrn_radiation_type           synchrotron
_diffrn_radiation_wavelength     0.49527
_diffrn_source                   synchrotron
_exptl_absorpt_coefficient_mu    6.07
_exptl_crystal_density_diffrn    5.2954
_exptl_crystal_F_000             292
_pd_instr_location               ' ?'
_pd_meas_2theta_range_inc        0.006
_pd_meas_2theta_range_max        78.216
_pd_meas_2theta_range_min        2.100
_pd_meas_number_of_points        12687
_pd_proc_2theta_range_inc        0.006
_pd_proc_2theta_range_max        69.996
_pd_proc_2theta_range_min        2.1
_pd_proc_ls_background_function  'Manual background'
_pd_proc_ls_pref_orient_corr     none
_pd_proc_ls_profile_function     Pseudo-Voigt
_pd_proc_ls_prof_R_factor        0.0594
_pd_proc_ls_prof_wR_expected     0.0142
_pd_proc_ls_prof_wR_factor       0.0916
_refine_ls_goodness_of_fit_all   6.47
_refine_ls_number_constraints    0
_refine_ls_number_parameters     23
_refine_ls_number_restraints     0
_refine_ls_R_factor_all          0.1721
_refine_ls_R_factor_gt           0.1325
_refine_ls_shift/su_max          0.0194
_refine_ls_shift/su_mean         0.0017
_refine_ls_weighting_scheme      sigma
_refine_ls_wR_factor_all         0.1394
_refine_ls_wR_factor_gt          0.1357
_cod_data_source_file            c9dt01562k2.cif
_cod_data_source_block           I_CCDC4
_cod_depositor_comments
;
The following automatic conversions were performed:

'_diffrn_radiation_probe' value 'X-ray' changed to 'x-ray' according
to
/home/data/users/saulius/crontab/automatic-downloads/rss-feeds/RSC/lib/dictionaries/cif_core.dic
dictionary named 'cif_core.dic' version 2.4.2 from 2011-04-26.

Automatic conversion script
Id: cif_fix_values 4973 2017-02-22 13:04:09Z antanas 

 Adding full bibliography for 7700629--7700637.cif.
;
_cod_original_formula_sum        'In1 La1 O1 S2'
_cod_database_code               7700633
loop_
_space_group_symop_id
_space_group_symop_operation_xyz
1 x,y,z
2 -x,y+1/2,-z
3 -x,-y,-z
4 x,-y+1/2,z
loop_
_atom_site_label
_atom_site_type_symbol
_atom_site_fract_x
_atom_site_fract_y
_atom_site_fract_z
_atom_site_adp_type
_atom_site_U_iso_or_equiv
_atom_site_site_symmetry_multiplicity
_atom_site_occupancy
_atom_site_calc_flag
La1 La 0.25 0.25 0.09810(10) Uiso 0.0075(2) 2 1 d
In1 In 0.25 0.25 0.60770(15) Uani 0.0834(12) 2 1 d
S1 S 0.25 0.25 0.4118(4) Uiso 0.0090(11) 2 1 d
S2 S 0.25 0.25 0.7903(3) Uiso 0.0006(9) 2 1 d
O1 O 0.75 0.25 0 Uiso 0.035(4) 2 1 d
loop_
_atom_site_aniso_label
_atom_site_aniso_type_symbol
_atom_site_aniso_U_11
_atom_site_aniso_U_22
_atom_site_aniso_U_33
_atom_site_aniso_U_12
_atom_site_aniso_U_13
_atom_site_aniso_U_23
In1 In 0.191(3) 0.0508(18) 0.0085(12) 0 0 0
loop_
_atom_type_symbol
_atom_type_scat_dispersion_real
_atom_type_scat_dispersion_imag
_atom_type_scat_source
In -1.8303 0.6928 'International Tables Vol C tables 4.2.6.8 and 6.1.1.1'
La -0.8127 1.3121 'International Tables Vol C tables 4.2.6.8 and 6.1.1.1'
O 0.0041 0.0028 'International Tables Vol C tables 4.2.6.8 and 6.1.1.1'
S 0.0661 0.0600 'International Tables Vol C tables 4.2.6.8 and 6.1.1.1'
loop_
_geom_angle_atom_site_label_1
_geom_angle_atom_site_label_2
_geom_angle_atom_site_label_3
_geom_angle_site_symmetry_1
_geom_angle_site_symmetry_3
_geom_angle
O1 La1 O1 1_455 . 117.26(5)
O1 La1 O1 1_455 2_645 74.23(2)
O1 La1 O1 1_455 2_655 74.23(2)
O1 La1 O1 . 2_645 74.23(2)
O1 La1 O1 . 2_655 74.23(2)
O1 La1 O1 2_645 2_655 117.04(5)
S1 In1 S1 . 2_546 85.10(10)
S1 In1 S1 . 2_556 85.10(10)
S1 In1 S1 . 2_646 85.10(10)
S1 In1 S1 . 2_656 85.10(10)
S1 In1 S2 . . 180.0(5)
S1 In1 S1 2_546 2_556 89.340(13)
S1 In1 S1 2_546 2_646 89.824(13)
S1 In1 S1 2_546 2_656 170.20(15)
S1 In1 S2 2_546 . 94.90(10)
S1 In1 S1 2_556 2_646 170.20(15)
S1 In1 S1 2_556 2_656 89.824(13)
S1 In1 S2 2_556 . 94.90(10)
S1 In1 S1 2_646 2_656 89.340(13)
S1 In1 S2 2_646 . 94.90(10)
S1 In1 S2 2_656 . 94.90(10)
In1 S1 In1 . 2_546 94.90(10)
In1 S1 In1 . 2_556 94.90(10)
In1 S1 In1 . 2_646 94.90(10)
In1 S1 In1 . 2_656 94.90(10)
In1 S1 In1 2_546 2_556 89.340(17)
In1 S1 In1 2_546 2_646 89.824(17)
In1 S1 In1 2_546 2_656 170.2(2)
In1 S1 In1 2_556 2_646 170.2(2)
In1 S1 In1 2_556 2_656 89.824(17)
In1 S1 In1 2_646 2_656 89.340(17)
La1 O1 La1 . 1_655 117.26(4)
La1 O1 La1 . 2_645 105.773(17)
La1 O1 La1 . 2_655 105.773(17)
La1 O1 O1 . 2_645 52.769(12)
La1 O1 O1 . 2_655 52.769(12)
La1 O1 O1 . 2_745 127.231(12)
La1 O1 O1 . 2_755 127.231(12)
La1 O1 La1 1_655 2_645 105.773(17)
La1 O1 La1 1_655 2_655 105.773(17)
La1 O1 O1 1_655 2_645 127.231(12)
La1 O1 O1 1_655 2_655 127.231(12)
La1 O1 O1 1_655 2_745 52.769(12)
La1 O1 O1 1_655 2_755 52.769(12)
La1 O1 La1 2_645 2_655 117.04(4)
La1 O1 O1 2_645 2_645 53.004(12)
La1 O1 O1 2_645 2_655 126.996(12)
La1 O1 O1 2_645 2_745 53.004(12)
La1 O1 O1 2_645 2_755 126.996(12)
La1 O1 O1 2_655 2_645 126.996(12)
La1 O1 O1 2_655 2_655 53.004(12)
La1 O1 O1 2_655 2_745 126.996(12)
La1 O1 O1 2_655 2_755 53.004(12)
O1 O1 O1 2_645 2_655 89.7559(6)
O1 O1 O1 2_645 2_745 90.2441(6)
O1 O1 O1 2_645 2_755 180.0(5)
O1 O1 O1 2_655 2_745 180.0(5)
O1 O1 O1 2_655 2_755 90.2441(6)
O1 O1 O1 2_745 2_755 89.7559(6)
loop_
_geom_bond_atom_site_label_1
_geom_bond_atom_site_label_2
_geom_bond_site_symmetry_2
_geom_bond_distance
La1 O1 1_455 2.3863(7)
La1 O1 . 2.3863(7)
La1 O1 2_645 2.3789(7)
La1 O1 2_655 2.3789(7)
In1 S1 . 2.481(5)
In1 S1 2_546 2.8859(4)
In1 S1 2_556 2.8859(4)
In1 S1 2_646 2.8859(4)
In1 S1 2_656 2.8859(4)
In1 S2 . 2.312(5)
O1 O1 2_645 2.87537(3)
O1 O1 2_655 2.87537(3)
O1 O1 2_745 2.87537(3)
O1 O1 2_755 2.87537(3)
loop_
_pd_proc_point_id
_pd_proc_2theta_corrected
_pd_proc_intensity_net
_pd_calc_intensity_net
_pd_proc_ls_weight
1 2.1000 6910.00 6982.20 83.00
2 2.1060 6981.00 6991.16 84.00
3 2.1120 6958.00 7000.12 83.00
4 2.1180 6784.00 7009.08 82.00
5 2.1240 6677.00 7018.04 82.00
6 2.1300 6711.00 7075.21 82.00
7 2.1360 6805.00 7089.80 82.00
8 2.1420 6894.00 7105.44 83.00
9 2.1480 6927.00 7122.39 83.00
10 2.1540 6959.00 7141.04 83.00
11 2.1600 7063.00 7161.89 84.00
12 2.1660 7102.00 7185.66 84.00
13 2.1720 7022.00 7213.40 84.00
14 2.1780 7016.00 7246.64 84.00
15 2.1840 7143.00 7287.76 85.00
16 2.1900 7128.00 7340.54 84.00
17 2.1960 7160.00 7411.33 85.00
18 2.2020 7279.00 7511.37 85.00
19 2.2080 7475.00 7662.15 86.00
20 2.2140 7672.00 7909.14 88.00
21 2.2200 8524.00 8388.77 92.00
22 2.2260 10995.00 9881.21 105.00
23 2.2320 18404.00 15633.80 136.00
24 2.2380 31181.00 27552.20 177.00
25 2.2440 37412.00 28231.20 193.00
26 2.2500 27774.00 16257.40 167.00
27 2.2560 14863.00 10106.20 122.00
28 2.2620 9340.00 8497.35 97.00
29 2.2680 7939.00 8009.58 89.00
30 2.2740 7587.00 7771.92 87.00
31 2.2800 7323.00 7634.82 86.00
32 2.2860 7237.00 7550.33 85.00
33 2.2920 7324.00 7496.06 86.00
34 2.2980 7273.00 7460.30 85.00
35 2.3040 7255.00 7436.51 85.00
36 2.3100 7281.00 7420.78 85.00
37 2.3160 7271.00 7410.67 85.00
38 2.3220 7297.00 7404.60 85.00
39 2.3280 7217.00 7400.02 85.00
40 2.3340 7249.00 7390.21 85.00
41 2.3400 7231.00 7382.13 85.00
42 2.3460 7335.00 7375.38 86.00
43 2.3520 7322.00 7369.69 86.00
44 2.3580 7364.00 7321.16 86.00
45 2.3640 7372.00 7321.16 86.00
46 2.3700 7378.00 7321.16 86.00
47 2.3760 7236.00 7321.16 85.00
48 2.3820 7142.00 7321.16 85.00
49 2.3880 7187.00 7321.16 85.00
50 2.3940 7201.00 7321.16 85.00
51 2.4000 7289.00 7321.16 85.00
52 2.4060 7194.00 7321.16 85.00
53 2.4120 7100.00 7321.16 84.00
54 2.4180 7207.00 7321.16 85.00
55 2.4240 7079.00 7321.16 84.00
56 2.4300 7061.00 7321.16 84.00
57 2.4360 7229.00 7321.16 85.00
58 2.4420 7207.00 7321.16 85.00
59 2.4480 7199.00 7321.16 85.00
60 2.4540 7161.00 7321.16 85.00
61 2.4600 7195.00 7321.16 85.00
62 2.4660 7263.00 7321.16 85.00
63 2.4720 7401.00 7321.16 86.00
64 2.4780 7291.00 7321.16 85.00
65 2.4840 7392.00 7321.16 86.00
66 2.4900 7249.00 7321.16 85.00
67 2.4960 7312.00 7321.16 86.00
68 2.5020 7213.00 7321.16 85.00
69 2.5080 7231.00 7321.16 85.00
70 2.5140 7306.00 7321.16 85.00
71 2.5200 7223.00 7321.16 85.00
72 2.5260 7137.00 7321.16 84.00
73 2.5320 7227.00 7321.16 85.00
74 2.5380 7247.00 7321.16 85.00
75 2.5440 7330.00 7321.16 86.00
76 2.5500 7188.00 7321.16 85.00
77 2.5560 7307.00 7321.16 85.00
78 2.5620 7491.00 7321.16 87.00
79 2.5680 7234.00 7321.16 85.00
80 2.5740 7193.00 7321.16 85.00
81 2.5800 7276.00 7321.16 85.00
82 2.5860 7406.00 7321.16 86.00
83 2.5920 7176.00 7321.16 85.00
84 2.5980 7470.00 7321.16 86.00
85 2.6040 7532.00 7328.39 87.00
86 2.6100 7423.00 7339.25 86.00
87 2.6160 7324.00 7350.11 86.00
88 2.6220 7425.00 7360.97 86.00
89 2.6280 7316.00 7371.83 86.00
90 2.6340 7364.00 7382.68 86.00
91 2.6400 7502.00 7393.54 87.00
92 2.6460 7193.00 7404.40 85.00
93 2.6520 7367.00 7415.26 86.00
94 2.6580 7565.00 7426.12 87.00
95 2.6640 7488.00 7436.97 87.00
96 2.6700 7372.00 7447.83 86.00
97 2.6760 7371.00 7458.69 86.00
98 2.6820 7527.00 7469.55 87.00
99 2.6880 7369.00 7480.41 86.00
100 2.6940 7439.00 7491.26 86.00
101 2.7000 7390.00 7502.12 86.00
102 2.7060 7305.00 7512.98 85.00
103 2.7120 7449.00 7523.84 86.00
104 2.7180 7480.00 7534.70 86.00
105 2.7240 7521.00 7545.55 87.00
106 2.7300 7393.00 7556.41 86.00
107 2.7360 7520.00 7567.27 87.00
108 2.7420 7618.00 7578.13 87.00
109 2.7480 7698.00 7588.99 88.00
110 2.7540 7479.00 7599.84 86.00
111 2.7600 7486.00 7610.70 87.00
112 2.7660 7475.00 7621.56 86.00
113 2.7720 7548.00 7632.42 87.00
114 2.7780 7503.00 7643.28 87.00
115 2.7840 7513.00 7654.13 87.00
116 2.7900 7687.00 7664.99 88.00
117 2.7960 7433.00 7675.85 86.00
118 2.8020 7591.00 7686.71 87.00
119 2.8080 7443.00 7697.57 86.00
120 2.8140 7507.00 7708.42 87.00
121 2.8200 7622.00 7719.28 87.00
122 2.8260 7472.00 7730.14 86.00
123 2.8320 7426.00 7741.00 86.00
124 2.8380 7434.00 7751.86 86.00
125 2.8440 7456.00 7762.71 86.00
126 2.8500 7550.00 7773.57 87.00
127 2.8560 7537.00 7784.43 87.00
128 2.8620 7548.00 7795.29 87.00
129 2.8680 7635.00 7799.47 87.00
130 2.8740 7537.00 7800.31 87.00
131 2.8800 7720.00 7801.16 88.00
132 2.8860 7591.00 7802.00 87.00
133 2.8920 7679.00 7802.84 88.00
134 2.8980 7615.00 7803.69 87.00
135 2.9040 7672.00 7804.53 88.00
136 2.9100 7636.00 7805.37 87.00
137 2.9160 7664.00 7806.22 88.00
138 2.9220 7644.00 7807.06 87.00
139 2.9280 7566.00 7807.90 87.00
140 2.9340 7707.00 7808.75 88.00
141 2.9400 7624.00 7809.59 87.00
142 2.9460 7665.00 7810.43 88.00
143 2.9520 7597.00 7811.27 87.00
144 2.9580 7599.00 7812.12 87.00
145 2.9640 7705.00 7812.96 88.00
146 2.9700 7766.00 7813.80 88.00
147 2.9760 7571.00 7814.65 87.00
148 2.9820 7585.00 7815.49 87.00
149 2.9880 7603.00 7816.33 87.00
150 2.9940 7511.00 7817.18 87.00
151 3.0000 7531.00 7818.02 87.00
152 3.0060 7528.00 7818.86 87.00
153 3.0120 7639.00 7819.71 87.00
154 3.0180 7667.00 7820.55 88.00
155 3.0240 7794.00 7821.39 88.00
156 3.0300 7698.00 7822.24 88.00
157 3.0360 7678.00 7823.08 88.00
158 3.0420 7620.00 7823.92 87.00
159 3.0480 7789.00 7824.77 88.00
160 3.0540 7651.00 7825.61 87.00
161 3.0600 7700.00 7826.45 88.00
162 3.0660 7901.00 7827.30 89.00
163 3.0720 7771.00 7828.14 88.00
164 3.0780 7727.00 7828.98 88.00
165 3.0840 7736.00 7829.83 88.00
166 3.0900 7737.00 7830.67 88.00
167 3.0960 7852.00 7833.30 89.00
168 3.1020 7777.00 7837.71 88.00
169 3.1080 7664.00 7842.12 88.00
170 3.1140 7758.00 7846.53 88.00
171 3.1200 7613.00 7850.94 87.00
172 3.1260 7566.00 7855.36 87.00
173 3.1320 7731.00 7859.77 88.00
174 3.1380 7830.00 7864.18 88.00
175 3.1440 7784.00 7868.59 88.00
176 3.1500 7719.00 7873.00 88.00
177 3.1560 7809.00 7877.41 88.00
178 3.1620 7818.00 7881.83 88.00
179 3.1680 7637.00 7886.24 87.00
180 3.1740 7728.00 7890.65 88.00
181 3.1800 7809.00 7895.06 88.00
182 3.1860 7860.00 7899.47 89.00
183 3.1920 7712.00 7903.88 88.00
184 3.1980 7773.00 7908.30 88.00
185 3.2040 7845.00 7912.71 89.00
186 3.2100 7976.00 7917.12 89.00
187 3.2160 8209.00 7921.53 91.00
188 3.2220 8499.00 7925.94 92.00
189 3.2280 8590.00 7930.35 93.00
190 3.2340 8129.00 7934.76 90.00
191 3.2400 7761.00 7939.18 88.00
192 3.2460 7653.00 7943.59 87.00
193 3.2520 7721.00 7948.00 88.00
194 3.2580 7804.00 7952.41 88.00
195 3.2640 7953.00 7956.82 89.00
196 3.2700 7946.00 7961.23 89.00
197 3.2760 7797.00 7965.65 88.00
198 3.2820 7846.00 7970.06 89.00
199 3.2880 7932.00 7974.47 89.00
200 3.2940 7866.00 7978.88 89.00
201 3.3000 7854.00 7983.29 89.00
202 3.3060 8003.00 7987.70 89.00
203 3.3120 8034.00 7992.12 90.00
204 3.3180 7975.00 7996.53 89.00
205 3.3240 7916.00 8000.94 89.00
206 3.3300 7842.00 8005.35 89.00
207 3.3360 7928.00 8009.76 89.00
208 3.3420 7956.00 8014.17 89.00
209 3.3480 8019.00 8018.59 90.00
210 3.3540 8033.00 8023.00 90.00
211 3.3600 8097.00 8027.41 90.00
212 3.3660 8042.00 8031.82 90.00
213 3.3720 7916.00 8036.23 89.00
214 3.3780 7967.00 8040.64 89.00
215 3.3840 8009.00 8045.06 89.00
216 3.3900 7990.00 8049.47 89.00
217 3.3960 8109.00 8053.88 90.00
218 3.4020 8438.00 8058.29 92.00
219 3.4080 8879.00 8062.70 94.00
220 3.4140 8897.00 8067.11 94.00
221 3.4200 8447.00 8071.52 92.00
222 3.4260 8147.00 8075.94 90.00
223 3.4320 8014.00 8080.35 90.00
224 3.4380 7944.00 8084.76 89.00
225 3.4440 7943.00 8089.17 89.00
226 3.4500 8035.00 8093.58 90.00
227 3.4560 7998.00 8097.99 89.00
228 3.4620 8004.00 8102.41 89.00
229 3.4680 8093.00 8106.82 90.00
230 3.4740 8100.00 8111.23 90.00
231 3.4800 8001.00 8115.64 89.00
232 3.4860 7986.00 8120.05 89.00
233 3.4920 8037.00 8124.46 90.00
234 3.4980 7972.00 8128.88 89.00
235 3.5040 8026.00 8133.29 90.00
236 3.5100 8073.00 8137.70 90.00
237 3.5160 8045.00 8142.11 90.00
238 3.5220 8025.00 8146.52 90.00
239 3.5280 8145.00 8150.93 90.00
240 3.5340 8138.00 8155.35 90.00
241 3.5400 8072.00 8159.76 90.00
242 3.5460 8063.00 8164.17 90.00
243 3.5520 8045.00 8168.58 90.00
244 3.5580 7981.00 8172.99 89.00
245 3.5640 8022.00 8177.40 90.00
246 3.5700 8095.00 8181.81 90.00
247 3.5760 7959.00 8186.23 89.00
248 3.5820 8024.00 8190.64 90.00
249 3.5880 8082.00 8195.05 90.00
250 3.5940 8035.00 8199.46 90.00
251 3.6000 8079.00 8203.87 90.00
252 3.6060 8097.00 8208.28 90.00
253 3.6120 8170.00 8212.70 90.00
254 3.6180 8188.00 8217.11 90.00
255 3.6240 8029.00 8221.52 90.00
256 3.6300 7941.00 8225.93 89.00
257 3.6360 8005.00 8230.34 89.00
258 3.6420 7997.00 8234.75 89.00
259 3.6480 8036.00 8239.17 90.00
260 3.6540 8099.00 8243.58 90.00
261 3.6600 8092.00 8247.99 90.00
262 3.6660 8057.00 8252.40 90.00
263 3.6720 8039.00 8256.81 90.00
264 3.6780 8067.00 8261.22 90.00
265 3.6840 8165.00 8265.64 90.00
266 3.6900 8264.00 8270.05 91.00
267 3.6960 8054.00 8274.46 90.00
268 3.7020 8063.00 8278.87 90.00
269 3.7080 8029.00 8283.28 90.00
270 3.7140 8013.00 8287.69 90.00
271 3.7200 8184.00 8292.11 90.00
272 3.7260 8122.00 8296.52 90.00
273 3.7320 8083.00 8300.93 90.00
274 3.7380 8071.00 8305.34 90.00
275 3.7440 8181.00 8309.75 90.00
276 3.7500 8287.00 8314.16 91.00
277 3.7560 8140.00 8318.58 90.00
278 3.7620 8095.00 8322.99 90.00
279 3.7680 8121.00 8327.40 90.00
280 3.7740 8204.00 8331.81 91.00
281 3.7800 8075.00 8336.22 90.00
282 3.7860 8137.00 8340.63 90.00
283 3.7920 8135.00 8345.04 90.00
284 3.7980 8142.00 8349.46 90.00
285 3.8040 8121.00 8353.87 90.00
286 3.8100 8067.00 8358.28 90.00
287 3.8160 8083.00 8362.69 90.00
288 3.8220 8083.00 8365.91 90.00
289 3.8280 8180.00 8368.53 90.00
290 3.8340 8214.00 8371.15 91.00
291 3.8400 8268.00 8373.77 91.00
292 3.8460 8248.00 8376.39 91.00
293 3.8520 8148.00 8379.01 90.00
294 3.8580 8188.00 8381.63 90.00
295 3.8640 8208.00 8384.25 91.00
296 3.8700 8128.00 8386.88 90.00
297 3.8760 8149.00 8389.50 90.00
298 3.8820 8231.00 8392.12 91.00
299 3.8880 8081.00 8394.74 90.00
300 3.8940 8055.00 8397.36 90.00
301 3.9000 8057.00 8399.98 90.00
302 3.9060 8197.00 8402.60 91.00
303 3.9120 8256.00 8405.22 91.00
304 3.9180 8105.00 8407.84 90.00
305 3.9240 8247.00 8410.46 91.00
306 3.9300 8090.00 8413.08 90.00
307 3.9360 8114.00 8415.71 90.00
308 3.9420 8102.00 8418.33 90.00
309 3.9480 8190.00 8420.95 90.00
310 3.9540 8102.00 8423.57 90.00
311 3.9600 8280.00 8426.19 91.00
312 3.9660 8360.00 8428.81 91.00
313 3.9720 8220.00 8431.43 91.00
314 3.9780 8174.00 8434.05 90.00
315 3.9840 8273.00 8436.67 91.00
316 3.9900 8235.00 8439.29 91.00
317 3.9960 8249.00 8441.91 91.00
318 4.0020 8358.00 8444.54 91.00
319 4.0080 8366.00 8447.16 91.00
320 4.0140 8340.00 8449.78 91.00
321 4.0200 8361.00 8452.40 91.00
322 4.0260 8384.00 8455.02 92.00
323 4.0320 8407.00 8457.64 92.00
324 4.0380 8408.00 8460.26 92.00
325 4.0440 8460.00 8462.88 92.00
326 4.0500 8449.00 8465.50 92.00
327 4.0560 8573.00 8468.12 93.00
328 4.0620 8731.00 8470.74 93.00
329 4.0680 8858.00 8473.37 94.00
330 4.0740 8831.00 8475.99 94.00
331 4.0800 8660.00 8478.61 93.00
332 4.0860 8666.00 8481.23 93.00
333 4.0920 8614.00 8483.85 93.00
334 4.0980 8462.00 8486.47 92.00
335 4.1040 8488.00 8489.09 92.00
336 4.1100 8816.00 8491.71 94.00
337 4.1160 9437.00 8494.33 97.00
338 4.1220 10687.00 8496.95 103.00
339 4.1280 12664.00 8499.57 113.00
340 4.1340 13052.00 8502.19 114.00
341 4.1400 11382.00 8504.82 107.00
342 4.1460 9618.00 8507.44 98.00
343 4.1520 8953.00 8510.06 95.00
344 4.1580 8741.00 8512.68 93.00
345 4.1640 8650.00 8515.30 93.00
346 4.1700 8356.00 8517.92 91.00
347 4.1760 8554.00 8520.54 92.00
348 4.1820 8502.00 8523.16 92.00
349 4.1880 8275.00 8525.78 91.00
350 4.1940 8364.00 8528.40 91.00
351 4.2000 8353.00 8531.02 91.00
352 4.2060 8661.00 8533.65 93.00
353 4.2120 8365.00 8536.27 91.00
354 4.2180 8386.00 8538.89 92.00
355 4.2240 8373.00 8541.51 92.00
356 4.2300 8497.00 8544.13 92.00
357 4.2360 8492.00 8546.75 92.00
358 4.2420 8400.00 8549.37 92.00
359 4.2480 8498.00 8551.99 92.00
360 4.2540 8685.00 8554.61 93.00
361 4.2600 8781.00 8557.23 94.00
362 4.2660 8791.00 8559.85 94.00
363 4.2720 8591.00 8562.47 93.00
364 4.2780 8855.00 8565.10 94.00
365 4.2840 9587.00 8567.72 98.00
366 4.2900 10111.00 8570.34 101.00
367 4.2960 9799.00 8572.96 99.00
368 4.3020 9135.00 8575.58 96.00
369 4.3080 9014.00 8578.20 95.00
370 4.3140 8740.00 8580.82 93.00
371 4.3200 8741.00 8583.44 93.00
372 4.3260 8419.00 8586.06 92.00
373 4.3320 8548.00 8588.68 92.00
374 4.3380 8490.00 8591.30 92.00
375 4.3440 8582.00 8593.93 93.00
376 4.3500 8482.00 8596.55 92.00
377 4.3560 8550.00 8758.20 92.00
378 4.3620 8592.00 8776.88 93.00
379 4.3680 8679.00 8798.12 93.00
380 4.3740 8781.00 8822.49 94.00
381 4.3800 8619.00 8850.74 93.00
382 4.3860 8648.00 8883.83 93.00
383 4.3920 8602.00 8923.06 93.00
384 4.3980 8806.00 8970.21 94.00
385 4.4040 8737.00 9027.71 93.00
386 4.4100 8527.00 9099.05 92.00
387 4.4160 8824.00 9189.25 94.00
388 4.4220 8868.00 9305.87 94.00
389 4.4280 8946.00 9460.62 95.00
390 4.4340 9251.00 9672.40 96.00
391 4.4400 9269.00 9973.36 96.00
392 4.4460 9635.00 10421.50 98.00
393 4.4520 10055.00 11130.10 100.00
394 4.4580 10743.00 12376.50 104.00
395 4.4640 12696.00 15360.80 113.00
396 4.4700 18517.00 25754.50 136.00
397 4.4760 42441.00 54900.20 206.00
398 4.4820 92803.00 90013.40 305.00
399 4.4880 93645.00 71609.20 306.00
400 4.4940 43953.00 34983.80 210.00
401 4.5000 19076.00 18122.60 138.00
402 4.5060 12929.00 13252.20 114.00
403 4.5120 11146.00 11571.70 106.00
404 4.5180 10272.00 10700.70 101.00
405 4.5240 10202.00 10170.00 101.00
406 4.5300 10480.00 9823.19 102.00
407 4.5360 10718.00 9585.09 104.00
408 4.5420 10346.00 9415.09 102.00
409 4.5480 9655.00 9289.85 98.00
410 4.5540 9380.00 9195.17 97.00
411 4.5600 9010.00 9122.08 95.00
412 4.5660 8737.00 9064.64 93.00
413 4.5720 8846.00 9018.84 94.00
414 4.5780 9032.00 8981.85 95.00
415 4.5840 8715.00 8951.67 93.00
416 4.5900 8659.00 8926.82 93.00
417 4.5960 8935.00 8906.20 95.00
418 4.6020 8824.00 8889.00 94.00
419 4.6080 8766.00 8874.57 94.00
420 4.6140 8757.00 8711.87 94.00
421 4.6200 8775.00 8714.49 94.00
422 4.6260 8683.00 8717.11 93.00
423 4.6320 8793.00 8719.73 94.00
424 4.6380 8830.00 8722.35 94.00
425 4.6440 8758.00 8724.97 94.00
426 4.6500 8806.00 8727.59 94.00
427 4.6560 8767.00 8730.21 94.00
428 4.6620 8446.00 8732.83 92.00
429 4.6680 8705.00 8735.45 93.00
430 4.6740 8860.00 8738.07 94.00
431 4.6800 8948.00 8740.69 95.00
432 4.6860 8900.00 8743.32 94.00
433 4.6920 9003.00 8745.94 95.00
434 4.6980 9037.00 8748.56 95.00
435 4.7040 9202.00 8751.18 96.00
436 4.7100 9213.00 8753.80 96.00
437 4.7160 9168.00 8756.42 96.00
438 4.7220 9139.00 8762.51 96.00
439 4.7280 9146.00 8768.59 96.00
440 4.7340 9080.00 8774.68 95.00
441 4.7400 8959.00 8780.77 95.00
442 4.7460 9010.00 8786.86 95.00
443 4.7520 8846.00 8792.94 94.00
444 4.7580 8812.00 8799.03 94.00
445 4.7640 8927.00 8805.12 94.00
446 4.7700 8679.00 8811.21 93.00
447 4.7760 8819.00 8817.29 94.00
448 4.7820 8770.00 8823.38 94.00
449 4.7880 8755.00 8829.47 94.00
450 4.7940 8795.00 8835.56 94.00
451 4.8000 8776.00 8841.64 94.00
452 4.8060 8765.00 8847.73 94.00
453 4.8120 8771.00 8853.82 94.00
454 4.8180 8857.00 8859.91 94.00
455 4.8240 8645.00 8865.99 93.00
456 4.8300 8817.00 8872.08 94.00
457 4.8360 8826.00 8878.17 94.00
458 4.8420 8910.00 8884.26 94.00
459 4.8480 8592.00 8890.34 93.00
460 4.8540 8695.00 8896.43 93.00
461 4.8600 8617.00 8902.52 93.00
462 4.8660 8752.00 8908.61 94.00
463 4.8720 8620.00 8914.69 93.00
464 4.8780 8854.00 8920.78 94.00
465 4.8840 8673.00 8926.87 93.00
466 4.8900 8889.00 8932.96 94.00
467 4.8960 9162.00 8939.04 96.00
468 4.9020 8968.00 8945.13 95.00
469 4.9080 8782.00 8951.22 94.00
470 4.9140 8819.00 8957.30 94.00
471 4.9200 8829.00 8963.39 94.00
472 4.9260 8830.00 8969.48 94.00
473 4.9320 8920.00 8975.57 94.00
474 4.9380 8813.00 8981.65 94.00
475 4.9440 9033.00 8987.74 95.00
476 4.9500 9093.00 8993.83 95.00
477 4.9560 8804.00 8999.92 94.00
478 4.9620 8818.00 9006.00 94.00
479 4.9680 9105.00 9012.09 95.00
480 4.9740 9074.00 9018.18 95.00
481 4.9800 8980.00 9024.27 95.00
482 4.9860 8884.00 9030.35 94.00
483 4.9920 8936.00 9036.44 95.00
484 4.9980 9045.00 9042.53 95.00
485 5.0040 9129.00 9048.62 96.00
486 5.0100 8917.00 9054.70 94.00
487 5.0160 8906.00 9060.79 94.00
488 5.0220 9058.00 9066.88 95.00
489 5.0280 8922.00 9072.96 94.00
490 5.0340 9096.00 9079.05 95.00
491 5.0400 8836.00 9085.14 94.00
492 5.0460 9205.00 9091.23 96.00
493 5.0520 8886.00 9097.32 94.00
494 5.0580 8879.00 9103.40 94.00
495 5.0640 8926.00 9109.49 94.00
496 5.0700 8901.00 9115.58 94.00
497 5.0760 8903.00 9121.67 94.00
498 5.0820 9056.00 9127.75 95.00
499 5.0880 8885.00 9133.84 94.00
500 5.0940 9078.00 9139.93 95.00
501 5.1000 9185.00 9146.01 96.00
502 5.1060 9353.00 9152.10 97.00
503 5.1120 9489.00 9158.19 97.00
504 5.1180 9427.00 9164.28 97.00
505 5.1240 9333.00 9170.36 97.00
506 5.1300 9194.00 9176.45 96.00
507 5.1360 9078.00 9182.54 95.00
508 5.1420 9001.00 9188.63 95.00
509 5.1480 9049.00 9194.71 95.00
510 5.1540 9193.00 9200.80 96.00
511 5.1600 9244.00 9206.89 96.00
512 5.1660 9427.00 9212.98 97.00
513 5.1720 9385.00 9219.06 97.00
514 5.1780 9265.00 9225.15 96.00
515 5.1840 9228.00 9231.24 96.00
516 5.1900 9087.00 9237.33 95.00
517 5.1960 9039.00 9243.41 95.00
518 5.2020 9073.00 9249.50 95.00
519 5.2080 8970.00 9255.59 95.00
520 5.2140 9193.00 9261.67 96.00
521 5.2200 9111.00 9267.76 95.00
522 5.2260 9152.00 9273.85 96.00
523 5.2320 9226.00 9279.94 96.00
524 5.2380 9236.00 9286.02 96.00
525 5.2440 9314.00 9292.11 97.00
526 5.2500 9289.00 9298.20 96.00
527 5.2560 9285.00 9304.29 96.00
528 5.2620 9160.00 9310.37 96.00
529 5.2680 9073.00 9316.46 95.00
530 5.2740 9394.00 9322.55 97.00
531 5.2800 9486.00 9328.64 97.00
532 5.2860 9355.00 9334.72 97.00
533 5.2920 9323.00 9342.77 97.00
534 5.2980 9246.00 9352.77 96.00
535 5.3040 9382.00 9362.78 97.00
536 5.3100 9411.00 9372.78 97.00
537 5.3160 9407.00 9382.79 97.00
538 5.3220 9427.00 9392.79 97.00
539 5.3280 9266.00 9402.80 96.00
540 5.3340 9381.00 9412.80 97.00
541 5.3400 9371.00 9422.81 97.00
542 5.3460 9404.00 9432.81 97.00
543 5.3520 9301.00 9442.81 96.00
544 5.3580 9372.00 9452.82 97.00
545 5.3640 9494.00 9462.82 97.00
546 5.3700 9317.00 9472.83 97.00
547 5.3760 9453.00 9482.83 97.00
548 5.3820 9569.00 9492.84 98.00
549 5.3880 9416.00 9502.84 97.00
550 5.3940 9483.00 9512.85 97.00
551 5.4000 9538.00 9522.85 98.00
552 5.4060 9633.00 9532.85 98.00
553 5.4120 9573.00 9542.86 98.00
554 5.4180 9633.00 9552.86 98.00
555 5.4240 9611.00 9562.87 98.00
556 5.4300 9642.00 9572.87 98.00
557 5.4360 10039.00 9582.88 100.00
558 5.4420 9918.00 9592.88 100.00
559 5.4480 9563.00 9602.89 98.00
560 5.4540 9710.00 9612.89 99.00
561 5.4600 9716.00 9622.89 99.00
562 5.4660 9693.00 9632.90 98.00
563 5.4720 9588.00 9642.90 98.00
564 5.4780 9494.00 9652.91 97.00
565 5.4840 9691.00 9662.91 98.00
566 5.4900 9771.00 9672.92 99.00
567 5.4960 9810.00 9682.92 99.00
568 5.5020 9784.00 9692.92 99.00
569 5.5080 9627.00 9702.93 98.00
570 5.5140 9756.00 9712.93 99.00
571 5.5200 9701.00 9722.94 98.00
572 5.5260 9813.00 9732.94 99.00
573 5.5320 9788.00 9742.95 99.00
574 5.5380 9790.00 9752.95 99.00
575 5.5440 9823.00 9762.96 99.00
576 5.5500 9750.00 9772.96 99.00
577 5.5560 9776.00 9782.97 99.00
578 5.5620 9785.00 9792.97 99.00
579 5.5680 9771.00 9802.97 99.00
580 5.5740 9770.00 9812.98 99.00
581 5.5800 9820.00 9822.98 99.00
582 5.5860 9939.00 9832.99 100.00
583 5.5920 9905.00 9846.94 100.00
584 5.5980 9922.00 9868.80 100.00
585 5.6040 9743.00 9890.67 99.00
586 5.6100 9707.00 9912.53 99.00
587 5.6160 9940.00 9934.39 100.00
588 5.6220 10012.00 9956.25 100.00
589 5.6280 10097.00 9978.11 100.00
590 5.6340 10168.00 9999.97 101.00
591 5.6400 10166.00 10021.80 101.00
592 5.6460 10118.00 10043.70 101.00
593 5.6520 10050.00 10065.50 100.00
594 5.6580 10136.00 10087.40 101.00
595 5.6640 10229.00 10109.30 101.00
596 5.6700 10288.00 10131.10 101.00
597 5.6760 10216.00 10153.00 101.00
598 5.6820 10300.00 10174.80 101.00
599 5.6880 10353.00 10196.70 102.00
600 5.6940 10215.00 10218.60 101.00
601 5.7000 10111.00 10240.40 101.00
602 5.7060 10132.00 10262.30 101.00
603 5.7120 10477.00 10284.20 102.00
604 5.7180 10366.00 10306.00 102.00
605 5.7240 10264.00 10327.90 101.00
606 5.7300 10485.00 10349.70 102.00
607 5.7360 10404.00 10371.60 102.00
608 5.7420 10403.00 10393.50 102.00
609 5.7480 10424.00 10415.30 102.00
610 5.7540 10412.00 10437.20 102.00
611 5.7600 10393.00 10459.00 102.00
612 5.7660 10605.00 10480.90 103.00
613 5.7720 10582.00 10502.80 103.00
614 5.7780 10534.00 10524.60 103.00
615 5.7840 10651.00 10546.50 103.00
616 5.7900 10712.00 10568.30 103.00
617 5.7960 10513.00 10590.20 103.00
618 5.8020 10469.00 10612.10 102.00
619 5.8080 10529.00 10633.90 103.00
620 5.8140 10622.00 10655.80 103.00
621 5.8200 10615.00 10677.60 103.00
622 5.8260 10420.00 10699.50 102.00
623 5.8320 10351.00 10719.60 102.00
624 5.8380 10624.00 10730.70 103.00
625 5.8440 10666.00 10741.80 103.00
626 5.8500 10743.00 10752.90 104.00
627 5.8560 10655.00 10764.00 103.00
628 5.8620 10577.00 10775.10 103.00
629 5.8680 10595.00 10786.20 103.00
630 5.8740 10625.00 10797.30 103.00
631 5.8800 10668.00 10808.50 103.00
632 5.8860 10741.00 10819.60 104.00
633 5.8920 10828.00 10830.70 104.00
634 5.8980 10835.00 10841.80 104.00
635 5.9040 10738.00 10852.90 104.00
636 5.9100 10736.00 10864.00 104.00
637 5.9160 10905.00 10875.10 104.00
638 5.9220 10945.00 10886.20 105.00
639 5.9280 10827.00 10897.40 104.00
640 5.9340 10751.00 10908.50 104.00
641 5.9400 10779.00 10919.60 104.00
642 5.9460 10930.00 10930.70 105.00
643 5.9520 11034.00 10941.80 105.00
644 5.9580 10869.00 10952.90 104.00
645 5.9640 10866.00 10964.00 104.00
646 5.9700 10878.00 10975.10 104.00
647 5.9760 10847.00 10986.30 104.00
648 5.9820 10908.00 10997.40 104.00
649 5.9880 11059.00 11008.50 105.00
650 5.9940 11140.00 11019.60 106.00
651 6.0000 11073.00 11030.70 105.00
652 6.0060 11084.00 11041.80 105.00
653 6.0120 10918.00 11052.90 104.00
654 6.0180 10975.00 11064.00 105.00
655 6.0240 11093.00 11075.10 105.00
656 6.0300 10993.00 11086.30 105.00
657 6.0360 11201.00 11097.40 106.00
658 6.0420 11194.00 11108.50 106.00
659 6.0480 11094.00 11119.60 105.00
660 6.0540 11158.00 11130.70 106.00
661 6.0600 11155.00 11141.80 106.00
662 6.0660 11107.00 11152.90 105.00
663 6.0720 11196.00 11164.00 106.00
664 6.0780 11351.00 11175.20 107.00
665 6.0840 11363.00 11186.30 107.00
666 6.0900 11308.00 11197.40 106.00
667 6.0960 11291.00 11208.50 106.00
668 6.1020 11368.00 11219.60 107.00
669 6.1080 11419.00 11235.60 107.00
670 6.1140 11454.00 11251.70 107.00
671 6.1200 11470.00 11267.70 107.00
672 6.1260 11325.00 11283.70 106.00
673 6.1320 11233.00 11299.80 106.00
674 6.1380 11277.00 11315.80 106.00
675 6.1440 11195.00 11331.80 106.00
676 6.1500 11292.00 11347.90 106.00
677 6.1560 11583.00 11363.90 108.00
678 6.1620 11620.00 11379.90 108.00
679 6.1680 11476.00 11396.00 107.00
680 6.1740 11290.00 11412.00 106.00
681 6.1800 11372.00 11428.00 107.00
682 6.1860 11553.00 11444.10 107.00
683 6.1920 11606.00 11460.10 108.00
684 6.1980 11704.00 11476.10 108.00
685 6.2040 11619.00 11492.20 108.00
686 6.2100 11567.00 11508.20 108.00
687 6.2160 11661.00 11524.20 108.00
688 6.2220 11619.00 11540.30 108.00
689 6.2280 11594.00 11556.30 108.00
690 6.2340 11620.00 11572.30 108.00
691 6.2400 11666.00 11588.40 108.00
692 6.2460 11631.00 11604.40 108.00
693 6.2520 11535.00 11620.40 107.00
694 6.2580 11660.00 11636.50 108.00
695 6.2640 11869.00 11652.50 109.00
696 6.2700 11894.00 11668.50 109.00
697 6.2760 11805.00 11684.60 109.00
698 6.2820 11873.00 11700.60 109.00
699 6.2880 11897.00 11716.70 109.00
700 6.2940 11822.00 11732.70 109.00
701 6.3000 11951.00 11748.70 109.00
702 6.3060 12016.00 11764.80 110.00
703 6.3120 12037.00 11780.80 110.00
704 6.3180 12001.00 11796.80 110.00
705 6.3240 12031.00 11812.90 110.00
706 6.3300 12104.00 11828.90 110.00
707 6.3360 12035.00 11844.90 110.00
708 6.3420 11905.00 11861.00 109.00
709 6.3480 11759.00 11877.00 108.00
710 6.3540 11995.00 11893.00 110.00
711 6.3600 11971.00 11909.10 109.00
712 6.3660 12015.00 11925.10 110.00
713 6.3720 12285.00 11941.10 111.00
714 6.3780 12184.00 11957.20 110.00
715 6.3840 11939.00 11973.20 109.00
716 6.3900 12215.00 11989.20 111.00
717 6.3960 12121.00 12005.30 110.00
718 6.4020 11939.00 12021.30 109.00
719 6.4080 11978.00 12037.30 109.00
720 6.4140 12007.00 12053.40 110.00
721 6.4200 12146.00 12069.40 110.00
722 6.4260 12194.00 12085.40 110.00
723 6.4320 12067.00 12101.50 110.00
724 6.4380 12059.00 12117.50 110.00
725 6.4440 12210.00 12133.50 110.00
726 6.4500 12142.00 12149.60 110.00
727 6.4560 12183.00 12165.60 110.00
728 6.4620 12230.00 12181.60 111.00
729 6.4680 12115.00 12197.70 110.00
730 6.4740 11978.00 12213.70 109.00
731 6.4800 12136.00 12226.50 110.00
732 6.4860 12227.00 12232.60 111.00
733 6.4920 12294.00 12238.80 111.00
734 6.4980 12442.00 12245.00 112.00
735 6.5040 12236.00 12251.20 111.00
736 6.5100 12044.00 12257.40 110.00
737 6.5160 12067.00 12263.60 110.00
738 6.5220 12285.00 12269.70 111.00
739 6.5280 12337.00 12275.90 111.00
740 6.5340 12349.00 12282.10 111.00
741 6.5400 12339.00 12288.30 111.00
742 6.5460 12312.00 12294.50 111.00
743 6.5520 12145.00 12300.70 110.00
744 6.5580 12338.00 12306.80 111.00
745 6.5640 12149.00 12313.00 110.00
746 6.5700 12265.00 12319.20 111.00
747 6.5760 12417.00 12325.40 111.00
748 6.5820 12189.00 12331.60 110.00
749 6.5880 12380.00 12338.90 111.00
750 6.5940 12582.00 12345.20 112.00
751 6.6000 12817.00 12351.50 113.00
752 6.6060 12771.00 12357.80 113.00
753 6.6120 12792.00 12364.20 113.00
754 6.6180 12510.00 12370.50 112.00
755 6.6240 12465.00 12376.90 112.00
756 6.6300 12376.00 12383.40 111.00
757 6.6360 12336.00 12389.90 111.00
758 6.6420 12478.00 12396.50 112.00
759 6.6480 12595.00 12403.10 112.00
760 6.6540 12561.00 12409.90 112.00
761 6.6600 12360.00 12416.80 111.00
762 6.6660 12335.00 12424.00 111.00
763 6.6720 12473.00 12431.50 112.00
764 6.6780 12378.00 12439.50 111.00
765 6.6840 12419.00 12448.20 111.00
766 6.6900 12431.00 12458.30 111.00
767 6.6960 12447.00 12470.50 112.00
768 6.7020 12407.00 12488.20 111.00
769 6.7080 12569.00 12525.20 112.00
770 6.7140 12462.00 12626.20 112.00
771 6.7200 12398.00 12840.10 111.00
772 6.7260 12445.00 13046.40 112.00
773 6.7320 12625.00 12935.20 112.00
774 6.7380 12603.00 12706.90 112.00
775 6.7440 12592.00 12583.30 112.00
776 6.7500 12673.00 12544.30 113.00
777 6.7560 12433.00 12535.30 112.00
778 6.7620 12387.00 12534.10 111.00
779 6.7680 12527.00 12535.90 112.00
780 6.7740 12601.00 12539.20 112.00
781 6.7800 12481.00 12543.30 112.00
782 6.7860 12389.00 12548.10 111.00
783 6.7920 12386.00 12553.20 111.00
784 6.7980 12383.00 12558.50 111.00
785 6.8040 12448.00 12564.10 112.00
786 6.8100 12427.00 12569.70 111.00
787 6.8160 12372.00 12575.50 111.00
788 6.8220 12485.00 12581.40 112.00
789 6.8280 12413.00 12587.30 111.00
790 6.8340 12346.00 12593.20 111.00
791 6.8400 12324.00 12599.20 111.00
792 6.8460 12365.00 12605.20 111.00
793 6.8520 12514.00 12611.30 112.00
794 6.8580 12474.00 12617.30 112.00
795 6.8640 12548.00 12623.40 112.00
796 6.8700 12319.00 12629.50 111.00
797 6.8760 12359.00 12634.60 111.00
798 6.8820 12303.00 12640.80 111.00
799 6.8880 12458.00 12646.90 112.00
800 6.8940 12717.00 12653.10 113.00
801 6.9000 12639.00 12659.30 112.00
802 6.9060 12566.00 12665.50 112.00
803 6.9120 12549.00 12671.70 112.00
804 6.9180 12604.00 12677.90 112.00
805 6.9240 12533.00 12684.00 112.00
806 6.9300 12613.00 12690.20 112.00
807 6.9360 12539.00 12696.40 112.00
808 6.9420 12474.00 12702.60 112.00
809 6.9480 12607.00 12708.80 112.00
810 6.9540 12406.00 12715.00 111.00
811 6.9600 12612.00 12721.10 112.00
812 6.9660 12397.00 12727.30 111.00
813 6.9720 12326.00 12733.50 111.00
814 6.9780 12417.00 12739.70 111.00
815 6.9840 12303.00 12745.90 111.00
816 6.9900 12269.00 12752.10 111.00
817 6.9960 12388.00 12758.20 111.00
818 7.0020 12307.00 12764.40 111.00
819 7.0080 12390.00 12761.40 111.00
820 7.0140 12452.00 12749.10 112.00
821 7.0200 12597.00 12736.80 112.00
822 7.0260 12491.00 12724.50 112.00
823 7.0320 12606.00 12712.20 112.00
824 7.0380 12593.00 12699.90 112.00
825 7.0440 12409.00 12687.60 111.00
826 7.0500 12699.00 12675.30 113.00
827 7.0560 12372.00 12663.00 111.00
828 7.0620 12733.00 12650.70 113.00
829 7.0680 12949.00 12638.40 114.00
830 7.0740 12829.00 12626.10 113.00
831 7.0800 12755.00 12613.80 113.00
832 7.0860 12589.00 12601.50 112.00
833 7.0920 12765.00 12589.20 113.00
834 7.0980 12604.00 12576.90 112.00
835 7.1040 12715.00 12564.60 113.00
836 7.1100 12584.00 12552.30 112.00
837 7.1160 12594.00 12540.00 112.00
838 7.1220 12419.00 12527.70 111.00
839 7.1280 12337.00 12515.40 111.00
840 7.1340 12475.00 12503.10 112.00
841 7.1400 12422.00 12490.90 111.00
842 7.1460 12511.00 12478.60 112.00
843 7.1520 12349.00 12466.30 111.00
844 7.1580 12292.00 12454.00 111.00
845 7.1640 12396.00 12441.70 111.00
846 7.1700 12424.00 12429.40 111.00
847 7.1760 12432.00 12417.70 111.00
848 7.1820 12260.00 12405.50 111.00
849 7.1880 11938.00 12393.20 109.00
850 7.1940 12068.00 12381.00 110.00
851 7.2000 12152.00 12369.60 110.00
852 7.2060 12344.00 12357.50 111.00
853 7.2120 12256.00 12345.40 111.00
854 7.2180 12259.00 12333.30 111.00
855 7.2240 12041.00 12321.30 110.00
856 7.2300 12104.00 12309.30 110.00
857 7.2360 11979.00 12297.40 109.00
858 7.2420 12185.00 12285.50 110.00
859 7.2480 12303.00 12273.80 111.00
860 7.2540 12308.00 12262.20 111.00
861 7.2600 12299.00 12250.80 111.00
862 7.2660 11987.00 12239.60 109.00
863 7.2720 12128.00 12228.80 110.00
864 7.2780 12047.00 12218.70 110.00
865 7.2840 12257.00 12209.40 111.00
866 7.2900 12232.00 12201.80 111.00
867 7.2960 12044.00 12198.40 110.00
868 7.3020 12334.00 12209.20 111.00
869 7.3080 12765.00 12260.90 113.00
870 7.3140 12429.00 12371.90 111.00
871 7.3200 12938.00 12458.40 114.00
872 7.3260 12517.00 12380.90 112.00
873 7.3320 12227.00 12286.50 111.00
874 7.3380 12140.00 12317.30 110.00
875 7.3440 12421.00 12462.30 111.00
876 7.3500 12134.00 12514.60 110.00
877 7.3560 12034.00 12340.90 110.00
878 7.3620 12005.00 12167.60 110.00
879 7.3680 12182.00 12078.50 110.00
880 7.3740 12083.00 12039.10 110.00
881 7.3800 11730.00 12015.70 108.00
882 7.3860 11935.00 11997.00 109.00
883 7.3920 11816.00 11980.30 109.00
884 7.3980 12057.00 11964.60 110.00
885 7.4040 12124.00 11949.70 110.00
886 7.4100 12268.00 11935.20 111.00
887 7.4160 12135.00 11921.00 110.00
888 7.4220 12117.00 11907.00 110.00
889 7.4280 11983.00 11893.20 109.00
890 7.4340 11665.00 11879.50 108.00
891 7.4400 11432.00 11865.90 107.00
892 7.4460 11775.00 11852.40 109.00
893 7.4520 11624.00 11838.90 108.00
894 7.4580 11533.00 11825.40 107.00
895 7.4640 11777.00 11812.00 109.00
896 7.4700 11589.00 11798.10 108.00
897 7.4760 11579.00 11784.80 108.00
898 7.4820 11665.00 11771.50 108.00
899 7.4880 11601.00 11758.20 108.00
900 7.4940 11619.00 11744.90 108.00
901 7.5000 11347.00 11730.90 107.00
902 7.5060 11533.00 11717.70 107.00
903 7.5120 11669.00 11704.50 108.00
904 7.5180 11442.00 11691.30 107.00
905 7.5240 11495.00 11678.10 107.00
906 7.5300 11491.00 11664.90 107.00
907 7.5360 11368.00 11651.70 107.00
908 7.5420 11295.00 11638.50 106.00
909 7.5480 11169.00 11625.40 106.00
910 7.5540 11410.00 11612.20 107.00
911 7.5600 11404.00 11599.00 107.00
912 7.5660 11582.00 11580.80 108.00
913 7.5720 11413.00 11561.50 107.00
914 7.5780 11642.00 11542.30 108.00
915 7.5840 11642.00 11523.10 108.00
916 7.5900 11674.00 11503.90 108.00
917 7.5960 11545.00 11484.70 107.00
918 7.6020 11571.00 11465.50 108.00
919 7.6080 11377.00 11446.30 107.00
920 7.6140 11178.00 11427.00 106.00
921 7.6200 11398.00 11407.80 107.00
922 7.6260 11212.00 11388.60 106.00
923 7.6320 11555.00 11369.40 107.00
924 7.6380 11292.00 11350.20 106.00
925 7.6440 11413.00 11331.00 107.00
926 7.6500 11333.00 11311.70 106.00
927 7.6560 11426.00 11292.50 107.00
928 7.6620 11332.00 11273.30 106.00
929 7.6680 11383.00 11254.10 107.00
930 7.6740 11248.00 11234.90 106.00
931 7.6800 11227.00 11215.70 106.00
932 7.6860 11221.00 11196.50 106.00
933 7.6920 11327.00 11177.20 106.00
934 7.6980 11244.00 11158.00 106.00
935 7.7040 11207.00 11138.80 106.00
936 7.7100 11033.00 11119.60 105.00
937 7.7160 11109.00 11100.40 105.00
938 7.7220 11071.00 11081.20 105.00
939 7.7280 11265.00 11061.90 106.00
940 7.7340 11115.00 11042.70 105.00
941 7.7400 11253.00 11023.50 106.00
942 7.7460 10950.00 11004.30 105.00
943 7.7520 11076.00 10985.10 105.00
944 7.7580 11168.00 10965.90 106.00
945 7.7640 11031.00 10946.70 105.00
946 7.7700 10969.00 10927.40 105.00
947 7.7760 10905.00 10908.20 104.00
948 7.7820 10936.00 10889.00 105.00
949 7.7880 10975.00 10869.80 105.00
950 7.7940 10817.00 10850.60 104.00
951 7.8000 10824.00 10831.40 104.00
952 7.8060 10762.00 10812.10 104.00
953 7.8120 10666.00 10792.90 103.00
954 7.8180 10919.00 10773.70 104.00
955 7.8240 10607.00 10754.50 103.00
956 7.8300 10636.00 10735.30 103.00
957 7.8360 10773.00 10716.10 104.00
958 7.8420 10551.00 10696.80 103.00
959 7.8480 10601.00 10677.60 103.00
960 7.8540 10693.00 10658.40 103.00
961 7.8600 10629.00 10639.20 103.00
962 7.8660 10562.00 10620.00 103.00
963 7.8720 10535.00 10600.80 103.00
964 7.8780 10651.00 10581.60 103.00
965 7.8840 10429.00 10562.30 102.00
966 7.8900 10460.00 10543.10 102.00
967 7.8960 10405.00 10523.90 102.00
968 7.9020 10384.00 10504.70 102.00
969 7.9080 10642.00 10485.50 103.00
970 7.9140 10435.00 10466.30 102.00
971 7.9200 10494.00 10447.00 102.00
972 7.9260 10493.00 10427.80 102.00
973 7.9320 10432.00 10408.60 102.00
974 7.9380 10262.00 10389.40 101.00
975 7.9440 10273.00 10370.20 101.00
976 7.9500 10367.00 10351.00 102.00
977 7.9560 10458.00 10338.40 102.00
978 7.9620 10267.00 10329.00 101.00
979 7.9680 10329.00 10319.70 102.00
980 7.9740 10363.00 10310.40 102.00
981 7.9800 10373.00 10301.10 102.00
982 7.9860 10306.00 10291.80 102.00
983 7.9920 10395.00 10282.50 102.00
984 7.9980 10441.00 10273.20 102.00
985 8.0040 10697.00 10263.80 103.00
986 8.0100 10824.00 10254.50 104.00
987 8.0160 11072.00 10245.20 105.00
988 8.0220 12003.00 10235.90 110.00
989 8.0280 13844.00 10226.60 118.00
990 8.0340 17373.00 10217.30 132.00
991 8.0400 20496.00 10208.00 143.00
992 8.0460 20782.00 10198.60 144.00
993 8.0520 17814.00 10189.30 133.00
994 8.0580 14116.00 10180.00 119.00
995 8.0640 11757.00 10170.70 108.00
996 8.0700 10985.00 10161.40 105.00
997 8.0760 10731.00 10152.10 104.00
998 8.0820 10790.00 10142.80 104.00
999 8.0880 10776.00 10133.40 104.00
1000 8.0940 10981.00 10124.10 105.00
1001 8.1000 11428.00 10114.80 107.00
1002 8.1060 11569.00 10105.50 108.00
1003 8.1120 11189.00 10096.20 106.00
1004 8.1180 10987.00 10086.90 105.00
1005 8.1240 10858.00 10077.50 104.00
1006 8.1300 10966.00 10068.20 105.00
1007 8.1360 11403.00 10385.50 107.00
1008 8.1420 11578.00 10403.40 108.00
1009 8.1480 11267.00 10424.80 106.00
1010 8.1540 10886.00 10450.30 104.00
1011 8.1600 10705.00 10884.40 103.00
1012 8.1660 10774.00 10954.20 104.00
1013 8.1720 10797.00 11035.40 104.00
1014 8.1780 10779.00 11130.50 104.00
1015 8.1840 11119.00 11242.40 105.00
1016 8.1900 11670.00 11374.90 108.00
1017 8.1960 11807.00 11533.10 109.00
1018 8.2020 11717.00 11723.70 108.00
1019 8.2080 11827.00 11955.70 109.00
1020 8.2140 12247.00 12241.50 111.00
1021 8.2200 12847.00 12598.50 113.00
1022 8.2260 13442.00 13052.10 116.00
1023 8.2320 13914.00 13640.30 118.00
1024 8.2380 14356.00 14421.30 120.00
1025 8.2440 15171.00 15490.40 123.00
1026 8.2500 16691.00 17010.20 129.00
1027 8.2560 19308.00 19309.60 139.00
1028 8.2620 23835.00 23382.40 154.00
1029 8.2680 33517.00 33109.60 183.00
1030 8.2740 57994.00 59424.80 241.00
1031 8.2800 105001.00 114693.00 324.00
1032 8.2860 151632.00 180041.00 389.00
1033 8.2920 165717.00 182581.00 407.00
1034 8.2980 162698.00 144625.00 403.00
1035 8.3040 173647.00 155532.00 417.00
1036 8.3100 200139.00 214431.00 447.00
1037 8.3160 204936.00 219424.00 453.00
1038 8.3220 151237.00 140733.00 389.00
1039 8.3280 79438.00 71205.70 282.00
1040 8.3340 40571.00 37662.70 201.00
1041 8.3400 26165.00 25381.90 162.00
1042 8.3460 19643.00 20416.30 140.00
1043 8.3520 16672.00 17686.70 129.00
1044 8.3580 15061.00 15905.50 123.00
1045 8.3640 13900.00 14661.10 118.00
1046 8.3700 12865.00 13755.60 113.00
1047 8.3760 12196.00 13074.70 110.00
1048 8.3820 11949.00 12549.10 109.00
1049 8.3880 11348.00 12134.00 107.00
1050 8.3940 10843.00 11799.70 104.00
1051 8.4000 10598.00 11526.20 103.00
1052 8.4060 10522.00 11299.00 103.00
1053 8.4120 10380.00 11107.90 102.00
1054 8.4180 10178.00 10945.30 101.00
1055 8.4240 10171.00 10805.50 101.00
1056 8.4300 10162.00 10684.20 101.00
1057 8.4360 10073.00 10578.00 100.00
1058 8.4420 10053.00 10484.30 100.00
1059 8.4480 9927.00 10101.90 100.00
1060 8.4540 9656.00 10048.60 98.00
1061 8.4600 9441.00 10000.70 97.00
1062 8.4660 9478.00 9957.16 97.00
1063 8.4720 9653.00 9537.31 98.00
1064 8.4780 9660.00 9527.99 98.00
1065 8.4840 9747.00 9518.68 99.00
1066 8.4900 9587.00 9509.36 98.00
1067 8.4960 9427.00 9500.05 97.00
1068 8.5020 9403.00 9490.74 97.00
1069 8.5080 9366.00 9488.26 97.00
1070 8.5140 9391.00 9489.21 97.00
1071 8.5200 9514.00 9490.16 98.00
1072 8.5260 9505.00 9491.11 97.00
1073 8.5320 9527.00 9492.06 98.00
1074 8.5380 9659.00 9493.00 98.00
1075 8.5440 9807.00 9493.95 99.00
1076 8.5500 10050.00 9494.90 100.00
1077 8.5560 10415.00 9495.85 102.00
1078 8.5620 10676.00 9496.80 103.00
1079 8.5680 10695.00 9497.75 103.00
1080 8.5740 10664.00 9498.69 103.00
1081 8.5800 10623.00 9499.64 103.00
1082 8.5860 10226.00 9500.59 101.00
1083 8.5920 9689.00 9501.54 98.00
1084 8.5980 9569.00 9502.49 98.00
1085 8.6040 9503.00 9503.44 97.00
1086 8.6100 9393.00 9504.38 97.00
1087 8.6160 9192.00 9505.33 96.00
1088 8.6220 9123.00 9506.28 96.00
1089 8.6280 9065.00 9507.23 95.00
1090 8.6340 9066.00 9508.18 95.00
1091 8.6400 9322.00 9509.13 97.00
1092 8.6460 9363.00 9500.16 97.00
1093 8.6520 9314.00 9471.36 97.00
1094 8.6580 9574.00 9442.57 98.00
1095 8.6640 9903.00 9413.77 100.00
1096 8.6700 10210.00 9384.97 101.00
1097 8.6760 10808.00 9356.18 104.00
1098 8.6820 11690.00 9327.38 108.00
1099 8.6880 12797.00 9298.59 113.00
1100 8.6940 13383.00 9269.79 116.00
1101 8.7000 13596.00 9240.99 117.00
1102 8.7060 13500.00 9212.20 116.00
1103 8.7120 12758.00 9183.40 113.00
1104 8.7180 11939.00 9154.60 109.00
1105 8.7240 11229.00 9125.81 106.00
1106 8.7300 10425.00 9097.01 102.00
1107 8.7360 10043.00 9068.22 100.00
1108 8.7420 9777.00 9039.42 99.00
1109 8.7480 9858.00 9010.62 99.00
1110 8.7540 9691.00 8981.83 98.00
1111 8.7600 9581.00 8953.03 98.00
1112 8.7660 9084.00 8924.24 95.00
1113 8.7720 8819.00 8895.44 94.00
1114 8.7780 8739.00 8866.64 93.00
1115 8.7840 8646.00 8837.84 93.00
1116 8.7900 8654.00 8809.05 93.00
1117 8.7960 8642.00 8780.26 93.00
1118 8.8020 8704.00 8751.46 93.00
1119 8.8080 8559.00 8722.66 93.00
1120 8.8140 8592.00 8871.47 93.00
1121 8.8200 8559.00 8856.78 93.00
1122 8.8260 8428.00 8843.84 92.00
1123 8.8320 8321.00 8864.12 91.00
1124 8.8380 8414.00 8902.42 92.00
1125 8.8440 8463.00 8943.57 92.00
1126 8.8500 8454.00 8988.17 92.00
1127 8.8560 8393.00 9036.91 92.00
1128 8.8620 8405.00 9090.70 92.00
1129 8.8680 8612.00 9150.71 93.00
1130 8.8740 8549.00 9218.46 92.00
1131 8.8800 8560.00 9295.97 93.00
1132 8.8860 8541.00 9385.94 92.00
1133 8.8920 8762.00 9492.12 94.00
1134 8.8980 8824.00 9619.68 94.00
1135 8.9040 8918.00 9776.11 94.00
1136 8.9100 9030.00 9972.37 95.00
1137 8.9160 9144.00 10225.20 96.00
1138 8.9220 9366.00 10561.00 97.00
1139 8.9280 10012.00 11023.10 100.00
1140 8.9340 10714.00 11687.70 104.00
1141 8.9400 11728.00 12717.50 108.00
1142 8.9460 13734.00 14636.40 117.00
1143 8.9520 17547.00 19463.60 132.00
1144 8.9580 27835.00 32663.60 167.00
1145 8.9640 54758.00 60408.10 234.00
1146 8.9700 93564.00 94420.80 306.00
1147 8.9760 103432.00 97132.40 322.00
1148 8.9820 69151.00 64402.90 263.00
1149 8.9880 35591.00 35090.30 189.00
1150 8.9940 20802.00 20513.40 144.00
1151 9.0000 15098.00 15128.20 123.00
1152 9.0060 12572.00 13067.10 112.00
1153 9.0120 11259.00 12012.10 106.00
1154 9.0180 10558.00 11353.20 103.00
1155 9.0240 10195.00 10909.00 101.00
1156 9.0300 9767.00 10597.60 99.00
1157 9.0360 9462.00 10372.90 97.00
1158 9.0420 9399.00 10207.10 97.00
1159 9.0480 9203.00 10082.80 96.00
1160 9.0540 9087.00 9907.99 95.00
1161 9.0600 9081.00 9739.17 95.00
1162 9.0660 9429.00 9587.07 97.00
1163 9.0720 9854.00 9447.78 99.00
1164 9.0780 10617.00 9318.51 103.00
1165 9.0840 11431.00 9197.19 107.00
1166 9.0900 11476.00 9082.22 107.00
1167 9.0960 10963.00 8972.44 105.00
1168 9.1020 10234.00 8866.88 101.00
1169 9.1080 9795.00 8764.85 99.00
1170 9.1140 9721.00 8665.73 99.00
1171 9.1200 9401.00 8569.08 97.00
1172 9.1260 9029.00 8474.51 95.00
1173 9.1320 8779.00 8381.73 94.00
1174 9.1380 8472.00 8124.13 92.00
1175 9.1440 8362.00 8045.62 91.00
1176 9.1500 8256.00 7967.13 91.00
1177 9.1560 8133.00 7888.63 90.00
1178 9.1620 7981.00 7810.14 89.00
1179 9.1680 7982.00 7731.63 89.00
1180 9.1740 8043.00 7653.14 90.00
1181 9.1800 7853.00 7574.64 89.00
1182 9.1860 7762.00 7514.03 88.00
1183 9.1920 7861.00 7489.19 89.00
1184 9.1980 7878.00 7464.34 89.00
1185 9.2040 7746.00 7439.50 88.00
1186 9.2100 7708.00 7414.65 88.00
1187 9.2160 7752.00 7389.81 88.00
1188 9.2220 7764.00 7364.97 88.00
1189 9.2280 7608.00 7340.12 87.00
1190 9.2340 7419.00 7315.28 86.00
1191 9.2400 7412.00 7290.43 86.00
1192 9.2460 7444.00 7265.59 86.00
1193 9.2520 7522.00 7240.74 87.00
1194 9.2580 7564.00 7215.90 87.00
1195 9.2640 7550.00 7207.66 87.00
1196 9.2700 7608.00 7216.03 87.00
1197 9.2760 7565.00 7224.40 87.00
1198 9.2820 7427.00 7232.77 86.00
1199 9.2880 7485.00 7241.14 87.00
1200 9.2940 7643.00 7249.50 87.00
1201 9.3000 7643.00 7257.87 87.00
1202 9.3060 7329.00 7266.24 86.00
1203 9.3120 7306.00 7274.61 85.00
1204 9.3180 7473.00 7282.98 86.00
1205 9.3240 7454.00 7291.35 86.00
1206 9.3300 7460.00 7299.72 86.00
1207 9.3360 7448.00 7308.08 86.00
1208 9.3420 7503.00 7316.45 87.00
1209 9.3480 7610.00 7324.82 87.00
1210 9.3540 7705.00 7333.19 88.00
1211 9.3600 8157.00 7341.56 90.00
1212 9.3660 9108.00 7349.93 95.00
1213 9.3720 9393.00 7358.29 97.00
1214 9.3780 8854.00 7366.66 94.00
1215 9.3840 8329.00 7375.03 91.00
1216 9.3900 8092.00 7383.40 90.00
1217 9.3960 7890.00 7391.77 89.00
1218 9.4020 7644.00 7400.14 87.00
1219 9.4080 7558.00 7408.50 87.00
1220 9.4140 7408.00 7416.87 86.00
1221 9.4200 7410.00 7425.24 86.00
1222 9.4260 7602.00 7433.61 87.00
1223 9.4320 7677.00 7441.98 88.00
1224 9.4380 7673.00 7450.35 88.00
1225 9.4440 7514.00 7458.72 87.00
1226 9.4500 7444.00 7467.08 86.00
1227 9.4560 7528.00 7475.45 87.00
1228 9.4620 7562.00 7483.82 87.00
1229 9.4680 7357.00 7492.19 86.00
1230 9.4740 7377.00 7500.56 86.00
1231 9.4800 7297.00 7508.93 85.00
1232 9.4860 7208.00 7517.29 85.00
1233 9.4920 7192.00 7525.66 85.00
1234 9.4980 7322.00 7534.03 86.00
1235 9.5040 7300.00 7542.40 85.00
1236 9.5100 7234.00 7550.77 85.00
1237 9.5160 7414.00 7559.14 86.00
1238 9.5220 7369.00 7654.35 86.00
1239 9.5280 7418.00 7669.20 86.00
1240 9.5340 7449.00 7684.80 86.00
1241 9.5400 7554.00 7701.28 87.00
1242 9.5460 7733.00 7780.55 88.00
1243 9.5520 7659.00 7803.93 88.00
1244 9.5580 7596.00 7829.28 87.00
1245 9.5640 7492.00 7856.96 87.00
1246 9.5700 7492.00 7887.42 87.00
1247 9.5760 7454.00 7921.23 86.00
1248 9.5820 7577.00 7959.08 87.00
1249 9.5880 7458.00 8001.91 86.00
1250 9.5940 7454.00 8051.41 86.00
1251 9.6000 7611.00 8109.71 87.00
1252 9.6060 7682.00 8177.81 88.00
1253 9.6120 7631.00 8258.58 87.00
1254 9.6180 7619.00 8355.99 87.00
1255 9.6240 7857.00 8475.72 89.00
1256 9.6300 8090.00 8626.15 90.00
1257 9.6360 8200.00 8819.85 91.00
1258 9.6420 8478.00 9076.80 92.00
1259 9.6480 9114.00 9429.74 95.00
1260 9.6540 9575.00 9939.97 98.00
1261 9.6600 10604.00 10764.00 103.00
1262 9.6660 12061.00 12461.90 110.00
1263 9.6720 16227.00 16803.40 127.00
1264 9.6780 26482.00 27026.70 163.00
1265 9.6840 47674.00 44171.00 218.00
1266 9.6900 64490.00 58852.70 254.00
1267 9.6960 62697.00 55793.60 250.00
1268 9.7020 56798.00 47438.50 238.00
1269 9.7080 54734.00 46965.10 234.00
1270 9.7140 51957.00 45669.10 228.00
1271 9.7200 38685.00 33896.80 197.00
1272 9.7260 23682.00 21969.80 154.00
1273 9.7320 16040.00 15132.80 127.00
1274 9.7380 13770.00 12260.10 117.00
1275 9.7440 14209.00 11127.90 119.00
1276 9.7500 15410.00 10588.20 124.00
1277 9.7560 17715.00 10282.80 133.00
1278 9.7620 18206.00 10108.30 135.00
1279 9.7680 17016.00 10023.30 130.00
1280 9.7740 14274.00 10006.50 119.00
1281 9.7800 12367.00 10047.30 111.00
1282 9.7860 11151.00 10141.80 106.00
1283 9.7920 11234.00 10291.10 106.00
1284 9.7980 11451.00 10501.40 107.00
1285 9.8040 12266.00 10784.20 111.00
1286 9.8100 12940.00 11158.00 114.00
1287 9.8160 14237.00 11651.60 119.00
1288 9.8220 14723.00 12309.60 121.00
1289 9.8280 15561.00 13201.90 125.00
1290 9.8340 16329.00 14442.50 128.00
1291 9.8400 17803.00 16229.70 133.00
1292 9.8460 20593.00 18975.20 144.00
1293 9.8520 25496.00 23943.60 160.00
1294 9.8580 36378.00 35788.10 191.00
1295 9.8640 59508.00 67203.60 244.00
1296 9.8700 121866.00 135653.00 349.00
1297 9.8760 239900.00 232992.00 490.00
1298 9.8820 300991.00 279474.00 549.00
1299 9.8880 214774.00 210301.00 463.00
1300 9.8940 113482.00 115823.00 337.00
1301 9.9000 58242.00 57028.10 241.00
1302 9.9060 36326.00 31792.00 191.00
1303 9.9120 26602.00 22345.00 163.00
1304 9.9180 22044.00 18124.20 148.00
1305 9.9240 19251.00 15666.60 139.00
1306 9.9300 17428.00 14031.60 132.00
1307 9.9360 16316.00 12882.60 128.00
1308 9.9420 15348.00 12046.00 124.00
1309 9.9480 14611.00 11419.70 121.00
1310 9.9540 14228.00 10939.80 119.00
1311 9.9600 13532.00 10565.60 116.00
1312 9.9660 12805.00 10267.90 113.00
1313 9.9720 12438.00 10028.00 112.00
1314 9.9780 11884.00 9832.54 109.00
1315 9.9840 11430.00 9671.46 107.00
1316 9.9900 10943.00 9537.59 105.00
1317 9.9960 10373.00 9425.43 102.00
1318 10.0020 10434.00 9330.89 102.00
1319 10.0080 9947.00 9250.72 100.00
1320 10.0140 9609.00 9182.44 98.00
1321 10.0200 9472.00 9124.04 97.00
1322 10.0260 9354.00 9073.96 97.00
1323 10.0320 9053.00 9030.91 95.00
1324 10.0380 9170.00 8993.86 96.00
1325 10.0440 8969.00 8961.98 95.00
1326 10.0500 8773.00 8934.56 94.00
1327 10.0560 8967.00 8439.81 95.00
1328 10.0620 9047.00 8450.39 95.00
1329 10.0680 8758.00 8461.14 94.00
1330 10.0740 8736.00 8472.12 93.00
1331 10.0800 8651.00 8483.44 93.00
1332 10.0860 8623.00 8495.28 93.00
1333 10.0920 8554.00 8507.91 92.00
1334 10.0980 8466.00 8521.97 92.00
1335 10.1040 8440.00 8539.34 92.00
1336 10.1100 8302.00 8504.98 91.00
1337 10.1160 8202.00 8499.22 91.00
1338 10.1220 8257.00 8546.54 91.00
1339 10.1280 8731.00 8635.81 93.00
1340 10.1340 8968.00 8655.90 95.00
1341 10.1400 8330.00 8508.79 91.00
1342 10.1460 7884.00 8318.19 89.00
1343 10.1520 7800.00 8176.67 88.00
1344 10.1580 7634.00 8085.04 87.00
1345 10.1640 7628.00 8018.05 87.00
1346 10.1700 7465.00 7959.49 86.00
1347 10.1760 7655.00 7903.76 87.00
1348 10.1820 7588.00 7849.28 87.00
1349 10.1880 7723.00 7795.56 88.00
1350 10.1940 7812.00 7742.30 88.00
1351 10.2000 7462.00 7689.37 86.00
1352 10.2060 7217.00 7636.66 85.00
1353 10.2120 7284.00 7584.12 85.00
1354 10.2180 7205.00 7531.68 85.00
1355 10.2240 7058.00 7479.34 84.00
1356 10.2300 6991.00 7427.06 84.00
1357 10.2360 6993.00 7374.84 84.00
1358 10.2420 7080.00 7322.66 84.00
1359 10.2480 7176.00 7270.50 85.00
1360 10.2540 7189.00 7218.38 85.00
1361 10.2600 6963.00 7166.27 83.00
1362 10.2660 7209.00 7114.19 85.00
1363 10.2720 6972.00 7062.12 83.00
1364 10.2780 6920.00 7010.06 83.00
1365 10.2840 6946.00 6958.01 83.00
1366 10.2900 7031.00 6945.33 84.00
1367 10.2960 6969.00 6932.66 83.00
1368 10.3020 7004.00 6919.99 84.00
1369 10.3080 7169.00 6906.62 85.00
1370 10.3140 7007.00 6894.01 84.00
1371 10.3200 7315.00 6881.40 86.00
1372 10.3260 7229.00 6868.79 85.00
1373 10.3320 7457.00 6856.18 86.00
1374 10.3380 7840.00 6843.56 89.00
1375 10.3440 7831.00 6830.96 88.00
1376 10.3500 8087.00 6818.34 90.00
1377 10.3560 8490.00 6805.73 92.00
1378 10.3620 8869.00 6793.12 94.00
1379 10.3680 8745.00 6780.51 94.00
1380 10.3740 8131.00 6767.90 90.00
1381 10.3800 7869.00 6755.29 89.00
1382 10.3860 7603.00 6742.68 87.00
1383 10.3920 7345.00 6730.07 86.00
1384 10.3980 7398.00 6717.46 86.00
1385 10.4040 7507.00 6704.85 87.00
1386 10.4100 7800.00 6692.24 88.00
1387 10.4160 8093.00 6679.63 90.00
1388 10.4220 7929.00 6667.02 89.00
1389 10.4280 7686.00 6654.41 88.00
1390 10.4340 7313.00 6641.80 86.00
1391 10.4400 7222.00 6629.19 85.00
1392 10.4460 7101.00 6616.58 84.00
1393 10.4520 7126.00 6603.97 84.00
1394 10.4580 7208.00 6591.35 85.00
1395 10.4640 7092.00 6578.74 84.00
1396 10.4700 7209.00 6566.13 85.00
1397 10.4760 7382.00 6553.52 86.00
1398 10.4820 7419.00 6540.91 86.00
1399 10.4880 7426.00 6528.30 86.00
1400 10.4940 7260.00 6515.69 85.00
1401 10.5000 7171.00 6503.08 85.00
1402 10.5060 7101.00 6490.47 84.00
1403 10.5120 6973.00 6477.86 84.00
1404 10.5180 6774.00 6465.25 82.00
1405 10.5240 6578.00 6452.64 81.00
1406 10.5300 6457.00 6440.03 80.00
1407 10.5360 6467.00 6427.42 80.00
1408 10.5420 6355.00 6414.81 80.00
1409 10.5480 6250.00 6402.20 79.00
1410 10.5540 6178.00 6389.59 79.00
1411 10.5600 6358.00 6376.97 80.00
1412 10.5660 6141.00 6364.36 78.00
1413 10.5720 6253.00 6351.75 79.00
1414 10.5780 6369.00 6335.67 80.00
1415 10.5840 6298.00 6317.84 79.00
1416 10.5900 6281.00 6300.01 79.00
1417 10.5960 6351.00 6282.18 80.00
1418 10.6020 6387.00 6264.35 80.00
1419 10.6080 6569.00 6246.52 81.00
1420 10.6140 6469.00 6228.69 80.00
1421 10.6200 6577.00 6210.87 81.00
1422 10.6260 6537.00 6193.04 81.00
1423 10.6320 6636.00 6175.21 81.00
1424 10.6380 6617.00 6157.38 81.00
1425 10.6440 6764.00 6139.55 82.00
1426 10.6500 7083.00 6121.72 84.00
1427 10.6560 7384.00 6103.89 86.00
1428 10.6620 7424.00 6086.07 86.00
1429 10.6680 7496.00 6068.24 87.00
1430 10.6740 7407.00 6050.41 86.00
1431 10.6800 7278.00 6042.73 85.00
1432 10.6860 7109.00 6025.63 84.00
1433 10.6920 6781.00 6008.61 82.00
1434 10.6980 6566.00 5991.69 81.00
1435 10.7040 6502.00 5974.87 81.00
1436 10.7100 6401.00 5958.18 80.00
1437 10.7160 6314.00 5941.64 79.00
1438 10.7220 6367.00 5925.28 80.00
1439 10.7280 6285.00 5909.12 79.00
1440 10.7340 6559.00 5893.22 81.00
1441 10.7400 6969.00 5877.62 83.00
1442 10.7460 7681.00 5862.39 88.00
1443 10.7520 8853.00 5847.63 94.00
1444 10.7580 10935.00 5833.43 105.00
1445 10.7640 13853.00 5819.96 118.00
1446 10.7700 16322.00 5807.42 128.00
1447 10.7760 16943.00 5796.09 130.00
1448 10.7820 14887.00 5786.37 122.00
1449 10.7880 11334.00 5778.83 106.00
1450 10.7940 8752.00 5774.32 94.00
1451 10.8000 7420.00 5774.13 86.00
1452 10.8060 6920.00 5780.34 83.00
1453 10.8120 6585.00 5796.44 81.00
1454 10.8180 6564.00 5829.56 81.00
1455 10.8240 6608.00 5900.67 81.00
1456 10.8300 6893.00 6082.91 83.00
1457 10.8360 7237.00 6577.15 85.00
1458 10.8420 7795.00 7689.95 88.00
1459 10.8480 9372.00 9445.49 97.00
1460 10.8540 10917.00 10846.30 104.00
1461 10.8600 10200.00 10224.70 101.00
1462 10.8660 8198.00 8384.41 91.00
1463 10.8720 6941.00 6899.58 83.00
1464 10.8780 6451.00 6119.54 80.00
1465 10.8840 6129.00 5792.60 78.00
1466 10.8900 5906.00 5649.48 77.00
1467 10.8960 5708.00 5567.52 76.00
1468 10.9020 5694.00 5509.21 75.00
1469 10.9080 5654.00 5463.35 75.00
1470 10.9140 5534.00 5425.25 74.00
1471 10.9200 5534.00 5392.31 74.00
1472 10.9260 5458.00 5362.92 74.00
1473 10.9320 5550.00 5336.06 74.00
1474 10.9380 5526.00 5311.05 74.00
1475 10.9440 5440.00 5287.41 74.00
1476 10.9500 5403.00 5272.12 74.00
1477 10.9560 5370.00 5261.27 73.00
1478 10.9620 5369.00 5251.07 73.00
1479 10.9680 5423.00 5241.37 74.00
1480 10.9740 5357.00 5232.08 73.00
1481 10.9800 5373.00 5223.13 73.00
1482 10.9860 5397.00 5214.45 73.00
1483 10.9920 5364.00 5206.00 73.00
1484 10.9980 5403.00 5197.73 74.00
1485 11.0040 5402.00 5189.63 73.00
1486 11.0100 5385.00 5181.66 73.00
1487 11.0160 5370.00 5173.82 73.00
1488 11.0220 5206.00 5166.07 72.00
1489 11.0280 5251.00 5158.41 72.00
1490 11.0340 5275.00 5150.82 73.00
1491 11.0400 5392.00 5141.24 73.00
1492 11.0460 5464.00 5134.83 74.00
1493 11.0520 5414.00 5128.47 74.00
1494 11.0580 5327.00 5122.17 73.00
1495 11.0640 5427.00 5115.94 74.00
1496 11.0700 5368.00 5109.79 73.00
1497 11.0760 5343.00 5103.73 73.00
1498 11.0820 5365.00 5097.78 73.00
1499 11.0880 5323.00 5101.43 73.00
1500 11.0940 5249.00 5124.18 72.00
1501 11.1000 5228.00 5147.11 72.00
1502 11.1060 5341.00 5170.26 73.00
1503 11.1120 5396.00 5193.68 73.00
1504 11.1180 5442.00 5217.43 74.00
1505 11.1240 5553.00 5241.58 75.00
1506 11.1300 5663.00 5266.25 75.00
1507 11.1360 5736.00 5291.57 76.00
1508 11.1420 5940.00 5317.75 77.00
1509 11.1480 6000.00 5345.05 77.00
1510 11.1540 5894.00 5373.86 77.00
1511 11.1600 5722.00 5404.76 76.00
1512 11.1660 5613.00 5438.61 75.00
1513 11.1720 5439.00 5476.77 74.00
1514 11.1780 5442.00 5528.01 74.00
1515 11.1840 5499.00 5666.55 74.00
1516 11.1900 5530.00 5768.91 74.00
1517 11.1960 5681.00 5935.58 75.00
1518 11.2020 5967.00 6357.38 77.00
1519 11.2080 6583.00 7105.97 81.00
1520 11.2140 7968.00 8353.66 89.00
1521 11.2200 9550.00 9637.26 98.00
1522 11.2260 9746.00 9732.50 99.00
1523 11.2320 8342.00 8587.83 91.00
1524 11.2380 6951.00 7433.79 83.00
1525 11.2440 6409.00 6775.38 80.00
1526 11.2500 6192.00 6523.66 79.00
1527 11.2560 6026.00 6466.87 78.00
1528 11.2620 5981.00 6481.89 77.00
1529 11.2680 6115.00 6526.29 78.00
1530 11.2740 6149.00 6588.74 78.00
1531 11.2800 6054.00 6666.38 78.00
1532 11.2860 5991.00 6759.21 77.00
1533 11.2920 5989.00 6868.92 77.00
1534 11.2980 6057.00 6954.03 78.00
1535 11.3040 6062.00 7042.56 78.00
1536 11.3100 6048.00 7165.59 78.00
1537 11.3160 6238.00 7336.36 79.00
1538 11.3220 6522.00 7575.98 81.00
1539 11.3280 6981.00 7921.02 84.00
1540 11.3340 7532.00 8451.21 87.00
1541 11.3400 8504.00 9408.70 92.00
1542 11.3460 10427.00 11545.50 102.00
1543 11.3520 14278.00 16541.90 119.00
1544 11.3580 24257.00 26333.90 156.00
1545 11.3640 41732.00 40291.40 204.00
1546 11.3700 54625.00 51518.10 234.00
1547 11.3760 57280.00 54221.60 239.00
1548 11.3820 57894.00 55849.80 241.00
1549 11.3880 55589.00 55134.40 236.00
1550 11.3940 43297.00 43423.20 208.00
1551 11.4000 26172.00 28053.70 162.00
1552 11.4060 15248.00 17174.20 123.00
1553 11.4120 10840.00 11611.70 104.00
1554 11.4180 8657.00 9228.36 93.00
1555 11.4240 7480.00 8144.43 86.00
1556 11.4300 6930.00 7525.03 83.00
1557 11.4360 6516.00 7104.45 81.00
1558 11.4420 6191.00 6795.54 79.00
1559 11.4480 5990.00 6559.02 77.00
1560 11.4540 5812.00 6372.01 76.00
1561 11.4600 5673.00 6220.16 75.00
1562 11.4660 5600.00 6093.86 75.00
1563 11.4720 5576.00 5986.64 75.00
1564 11.4780 5468.00 5893.94 74.00
1565 11.4840 5439.00 5809.16 74.00
1566 11.4900 5456.00 5733.23 74.00
1567 11.4960 5343.00 5664.33 73.00
1568 11.5020 5319.00 5601.11 73.00
1569 11.5080 5310.00 5542.53 73.00
1570 11.5140 5264.00 5487.76 73.00
1571 11.5200 5390.00 5436.17 73.00
1572 11.5260 5684.00 5387.24 75.00
1573 11.5320 5827.00 5340.57 76.00
1574 11.5380 5808.00 5295.79 76.00
1575 11.5440 5585.00 5252.66 75.00
1576 11.5500 5301.00 5210.93 73.00
1577 11.5560 5194.00 5107.41 72.00
1578 11.5620 5074.00 5071.82 71.00
1579 11.5680 5049.00 5036.82 71.00
1580 11.5740 5022.00 5002.32 71.00
1581 11.5800 5060.00 4900.56 71.00
1582 11.5860 5028.00 4870.94 71.00
1583 11.5920 4929.00 4841.32 70.00
1584 11.5980 4973.00 4811.70 71.00
1585 11.6040 4919.00 4782.08 70.00
1586 11.6100 4923.00 4757.84 70.00
1587 11.6160 4900.00 4760.51 70.00
1588 11.6220 4878.00 4763.18 70.00
1589 11.6280 4916.00 4765.85 70.00
1590 11.6340 4909.00 4768.52 70.00
1591 11.6400 4884.00 4771.19 70.00
1592 11.6460 4813.00 4773.86 69.00
1593 11.6520 4876.00 4776.53 70.00
1594 11.6580 4932.00 4779.20 70.00
1595 11.6640 4948.00 4781.87 70.00
1596 11.6700 4908.00 4784.54 70.00
1597 11.6760 4824.00 4787.21 69.00
1598 11.6820 4855.00 4789.88 70.00
1599 11.6880 5010.00 4792.55 71.00
1600 11.6940 5044.00 4795.22 71.00
1601 11.7000 4976.00 4797.89 71.00
1602 11.7060 5012.00 4800.56 71.00
1603 11.7120 5015.00 4803.23 71.00
1604 11.7180 5032.00 4805.90 71.00
1605 11.7240 5065.00 4808.57 71.00
1606 11.7300 4959.00 4811.24 70.00
1607 11.7360 5037.00 4813.91 71.00
1608 11.7420 5183.00 4816.58 72.00
1609 11.7480 5024.00 4819.25 71.00
1610 11.7540 4863.00 4821.92 70.00
1611 11.7600 4869.00 4824.59 70.00
1612 11.7660 4860.00 4827.26 70.00
1613 11.7720 4742.00 4838.83 69.00
1614 11.7780 4772.00 4840.17 69.00
1615 11.7840 4732.00 4840.62 69.00
1616 11.7900 4814.00 4841.13 69.00
1617 11.7960 4846.00 4841.71 70.00
1618 11.8020 4781.00 4842.39 69.00
1619 11.8080 4784.00 4843.17 69.00
1620 11.8140 4749.00 4844.07 69.00
1621 11.8200 4743.00 4845.11 69.00
1622 11.8260 4658.00 4846.31 68.00
1623 11.8320 4783.00 4847.71 69.00
1624 11.8380 4862.00 4849.34 70.00
1625 11.8440 4816.00 4851.25 69.00
1626 11.8500 4807.00 4853.50 69.00
1627 11.8560 4792.00 4856.17 69.00
1628 11.8620 4810.00 4859.35 69.00
1629 11.8680 4819.00 4863.18 69.00
1630 11.8740 4756.00 4867.83 69.00
1631 11.8800 4824.00 4873.54 69.00
1632 11.8860 4800.00 4880.64 69.00
1633 11.8920 4787.00 4889.59 69.00
1634 11.8980 4784.00 4901.06 69.00
1635 11.9040 4870.00 4916.08 70.00
1636 11.9100 4887.00 4936.21 70.00
1637 11.9160 4854.00 4963.99 70.00
1638 11.9220 4907.00 5004.25 70.00
1639 11.9280 5005.00 5069.50 71.00
1640 11.9340 5239.00 5200.80 72.00
1641 11.9400 5640.00 5518.10 75.00
1642 11.9460 6307.00 6251.82 79.00
1643 11.9520 8384.00 7585.39 92.00
1644 11.9580 12653.00 9214.00 112.00
1645 11.9640 14196.00 9892.53 119.00
1646 11.9700 11191.00 8796.63 106.00
1647 11.9760 7782.00 7167.03 88.00
1648 11.9820 6259.00 5995.90 79.00
1649 11.9880 5570.00 5400.61 75.00
1650 11.9940 5199.00 5151.88 72.00
1651 12.0000 5110.00 5045.45 71.00
1652 12.0060 5113.00 4988.80 72.00
1653 12.0120 5074.00 4952.24 71.00
1654 12.0180 5061.00 4926.47 71.00
1655 12.0240 4933.00 4907.52 70.00
1656 12.0300 4843.00 4893.19 70.00
1657 12.0360 4807.00 4882.07 69.00
1658 12.0420 4668.00 4873.28 68.00
1659 12.0480 4695.00 4866.20 69.00
1660 12.0540 4733.00 4860.41 69.00
1661 12.0600 4619.00 4855.60 68.00
1662 12.0660 4614.00 4851.56 68.00
1663 12.0720 4616.00 4848.13 68.00
1664 12.0780 4429.00 4845.18 67.00
1665 12.0840 4459.00 4842.63 67.00
1666 12.0900 4504.00 4840.40 67.00
1667 12.0960 4509.00 4838.43 67.00
1668 12.1020 4534.00 4836.69 67.00
1669 12.1080 4463.00 4835.13 67.00
1670 12.1140 4411.00 4833.73 66.00
1671 12.1200 4435.00 4832.46 67.00
1672 12.1260 4578.00 4831.31 68.00
1673 12.1320 4657.00 4830.26 68.00
1674 12.1380 4605.00 4827.70 68.00
1675 12.1440 4463.00 4823.64 67.00
1676 12.1500 4538.00 4819.63 67.00
1677 12.1560 4391.00 4806.93 66.00
1678 12.1620 4499.00 4803.55 67.00
1679 12.1680 4486.00 4800.17 67.00
1680 12.1740 4541.00 4796.80 67.00
1681 12.1800 4514.00 4793.42 67.00
1682 12.1860 4657.00 4790.04 68.00
1683 12.1920 4646.00 4786.67 68.00
1684 12.1980 4580.00 4783.29 68.00
1685 12.2040 4578.00 4779.91 68.00
1686 12.2100 4503.00 4776.54 67.00
1687 12.2160 4509.00 4773.16 67.00
1688 12.2220 4512.00 4769.78 67.00
1689 12.2280 4605.00 4766.41 68.00
1690 12.2340 4689.00 4763.03 68.00
1691 12.2400 4667.00 4759.65 68.00
1692 12.2460 4579.00 4756.28 68.00
1693 12.2520 4576.00 4752.90 68.00
1694 12.2580 4498.00 4749.52 67.00
1695 12.2640 4401.00 4746.15 66.00
1696 12.2700 4384.00 4742.77 66.00
1697 12.2760 4486.00 4739.39 67.00
1698 12.2820 4492.00 4736.02 67.00
1699 12.2880 4698.00 4732.64 69.00
1700 12.2940 4689.00 4729.26 68.00
1701 12.3000 4585.00 4725.89 68.00
1702 12.3060 4524.00 4722.51 67.00
1703 12.3120 4500.00 4719.13 67.00
1704 12.3180 4382.00 4715.76 66.00
1705 12.3240 4331.00 4712.38 66.00
1706 12.3300 4417.00 4709.00 66.00
1707 12.3360 4390.00 4705.62 66.00
1708 12.3420 4456.00 4702.25 67.00
1709 12.3480 4577.00 4698.87 68.00
1710 12.3540 4542.00 4695.50 67.00
1711 12.3600 4498.00 4692.12 67.00
1712 12.3660 4598.00 4688.74 68.00
1713 12.3720 4677.00 4685.36 68.00
1714 12.3780 4625.00 4681.99 68.00
1715 12.3840 4714.00 4678.61 69.00
1716 12.3900 4767.00 4675.23 69.00
1717 12.3960 4777.00 4671.86 69.00
1718 12.4020 5110.00 4668.48 71.00
1719 12.4080 5147.00 4665.10 72.00
1720 12.4140 5137.00 4661.73 72.00
1721 12.4200 4953.00 4658.35 70.00
1722 12.4260 4776.00 4654.97 69.00
1723 12.4320 4784.00 4651.60 69.00
1724 12.4380 4831.00 4648.22 70.00
1725 12.4440 4790.00 4644.84 69.00
1726 12.4500 4733.00 4641.47 69.00
1727 12.4560 4621.00 4638.09 68.00
1728 12.4620 4555.00 4634.71 67.00
1729 12.4680 4425.00 4631.34 67.00
1730 12.4740 4511.00 4627.96 67.00
1731 12.4800 4405.00 4624.58 66.00
1732 12.4860 4486.00 4621.21 67.00
1733 12.4920 4496.00 4617.83 67.00
1734 12.4980 4512.00 4614.45 67.00
1735 12.5040 4546.00 4611.08 67.00
1736 12.5100 4375.00 4607.70 66.00
1737 12.5160 4473.00 4604.32 67.00
1738 12.5220 4324.00 4600.95 66.00
1739 12.5280 4445.00 4597.57 67.00
1740 12.5340 4423.00 4594.19 67.00
1741 12.5400 4491.00 4590.82 67.00
1742 12.5460 4469.00 4587.44 67.00
1743 12.5520 4468.00 4584.06 67.00
1744 12.5580 4441.00 4580.69 67.00
1745 12.5640 4488.00 4577.31 67.00
1746 12.5700 4572.00 4573.93 68.00
1747 12.5760 4604.00 4570.55 68.00
1748 12.5820 4686.00 4567.18 68.00
1749 12.5880 4697.00 4563.80 69.00
1750 12.5940 4758.00 4560.42 69.00
1751 12.6000 4623.00 4557.05 68.00
1752 12.6060 4671.00 4553.67 68.00
1753 12.6120 4777.00 4550.29 69.00
1754 12.6180 4854.00 4546.92 70.00
1755 12.6240 4989.00 4543.54 71.00
1756 12.6300 5118.00 4540.16 72.00
1757 12.6360 5284.00 4536.79 73.00
1758 12.6420 5504.00 4533.41 74.00
1759 12.6480 5410.00 4530.03 74.00
1760 12.6540 5267.00 4526.66 73.00
1761 12.6600 5124.00 4523.28 72.00
1762 12.6660 4913.00 4519.90 70.00
1763 12.6720 4937.00 4516.53 70.00
1764 12.6780 4809.00 4513.15 69.00
1765 12.6840 4650.00 4509.77 68.00
1766 12.6900 4602.00 4506.40 68.00
1767 12.6960 4531.00 4503.02 67.00
1768 12.7020 4517.00 4499.64 67.00
1769 12.7080 4538.00 4496.27 67.00
1770 12.7140 4542.00 4492.89 67.00
1771 12.7200 4474.00 4489.51 67.00
1772 12.7260 4381.00 4486.14 66.00
1773 12.7320 4542.00 4482.76 67.00
1774 12.7380 4485.00 4479.38 67.00
1775 12.7440 4522.00 4476.00 67.00
1776 12.7500 4709.00 4472.63 69.00
1777 12.7560 4685.00 4469.25 68.00
1778 12.7620 4774.00 4465.88 69.00
1779 12.7680 4796.00 4462.50 69.00
1780 12.7740 4908.00 4459.12 70.00
1781 12.7800 5240.00 4455.74 72.00
1782 12.7860 5734.00 4452.37 76.00
1783 12.7920 6475.00 4448.99 80.00
1784 12.7980 7207.00 4445.61 85.00
1785 12.8040 7496.00 4442.24 87.00
1786 12.8100 7283.00 4438.86 85.00
1787 12.8160 6326.00 4435.48 80.00
1788 12.8220 5603.00 4432.11 75.00
1789 12.8280 5145.00 4428.73 72.00
1790 12.8340 4750.00 4425.35 69.00
1791 12.8400 4785.00 4421.98 69.00
1792 12.8460 4730.00 4418.60 69.00
1793 12.8520 4507.00 4415.22 67.00
1794 12.8580 4355.00 4411.85 66.00
1795 12.8640 4480.00 4408.47 67.00
1796 12.8700 4601.00 4405.09 68.00
1797 12.8760 4414.00 4401.72 66.00
1798 12.8820 4379.00 4398.34 66.00
1799 12.8880 4406.00 4394.96 66.00
1800 12.8940 4314.00 4391.59 66.00
1801 12.9000 4463.00 4388.21 67.00
1802 12.9060 4396.00 4384.83 66.00
1803 12.9120 4351.00 4381.46 66.00
1804 12.9180 4353.00 4378.08 66.00
1805 12.9240 4551.00 4374.70 67.00
1806 12.9300 4334.00 4371.33 66.00
1807 12.9360 4362.00 4367.95 66.00
1808 12.9420 4356.00 4363.97 66.00
1809 12.9480 4297.00 4357.00 66.00
1810 12.9540 4190.00 4350.02 65.00
1811 12.9600 4296.00 4343.05 66.00
1812 12.9660 4286.00 4336.08 65.00
1813 12.9720 4268.00 4329.10 65.00
1814 12.9780 4280.00 4322.13 65.00
1815 12.9840 4257.00 4315.15 65.00
1816 12.9900 4414.00 4308.18 66.00
1817 12.9960 4396.00 4301.20 66.00
1818 13.0020 4523.00 4294.23 67.00
1819 13.0080 4205.00 4287.25 65.00
1820 13.0140 4266.00 4280.28 65.00
1821 13.0200 4351.00 4275.62 66.00
1822 13.0260 4266.00 4268.79 65.00
1823 13.0320 4372.00 4261.98 66.00
1824 13.0380 4330.00 4258.35 66.00
1825 13.0440 4385.00 4251.77 66.00
1826 13.0500 4378.00 4245.22 66.00
1827 13.0560 4181.00 4238.72 65.00
1828 13.0620 4357.00 4232.27 66.00
1829 13.0680 4392.00 4225.88 66.00
1830 13.0740 4490.00 4219.56 67.00
1831 13.0800 4467.00 4213.31 67.00
1832 13.0860 4391.00 4207.16 66.00
1833 13.0920 4450.00 4201.12 67.00
1834 13.0980 4457.00 4195.21 67.00
1835 13.1040 4252.00 4189.45 65.00
1836 13.1100 4375.00 4208.36 66.00
1837 13.1160 4205.00 4276.46 65.00
1838 13.1220 4397.00 4344.82 66.00
1839 13.1280 4282.00 4413.54 65.00
1840 13.1340 4339.00 4482.68 66.00
1841 13.1400 4511.00 4552.37 67.00
1842 13.1460 4551.00 4622.76 67.00
1843 13.1520 4399.00 4694.09 66.00
1844 13.1580 4503.00 4948.31 67.00
1845 13.1640 4483.00 5033.67 67.00
1846 13.1700 4579.00 5122.50 68.00
1847 13.1760 4660.00 5216.08 68.00
1848 13.1820 4745.00 5295.47 69.00
1849 13.1880 4842.00 5377.96 70.00
1850 13.1940 4760.00 5492.91 69.00
1851 13.2000 4866.00 5683.11 70.00
1852 13.2060 5028.00 6014.32 71.00
1853 13.2120 5549.00 6532.38 74.00
1854 13.2180 6139.00 7175.85 78.00
1855 13.2240 6467.00 7703.75 80.00
1856 13.2300 6704.00 7995.30 82.00
1857 13.2360 6753.00 8085.20 82.00
1858 13.2420 6612.00 7771.77 81.00
1859 13.2480 5937.00 7204.31 77.00
1860 13.2540 5564.00 6743.84 75.00
1861 13.2600 5362.00 6510.94 73.00
1862 13.2660 5444.00 6465.82 74.00
1863 13.2720 5484.00 6578.79 74.00
1864 13.2780 5473.00 6708.93 74.00
1865 13.2840 5558.00 6921.10 75.00
1866 13.2900 5771.00 7198.62 76.00
1867 13.2960 6119.00 7534.28 78.00
1868 13.3020 6455.00 7947.64 80.00
1869 13.3080 6877.00 8469.65 83.00
1870 13.3140 7723.00 9152.33 88.00
1871 13.3200 8602.00 10098.90 93.00
1872 13.3260 10120.00 11588.50 101.00
1873 13.3320 12908.00 14482.90 114.00
1874 13.3380 17222.00 21045.00 131.00
1875 13.3440 27281.00 35266.10 165.00
1876 13.3500 50804.00 60328.80 225.00
1877 13.3560 103697.00 92117.70 322.00
1878 13.3620 145874.00 111877.00 382.00
1879 13.3680 106899.00 99251.70 327.00
1880 13.3740 53370.00 68236.00 231.00
1881 13.3800 28455.00 40922.80 169.00
1882 13.3860 18176.00 24433.20 135.00
1883 13.3920 13497.00 16641.70 116.00
1884 13.3980 10785.00 13361.70 104.00
1885 13.4040 9226.00 11880.90 96.00
1886 13.4100 8469.00 11085.40 92.00
1887 13.4160 7791.00 10613.80 88.00
1888 13.4220 7432.00 10345.90 86.00
1889 13.4280 7253.00 10073.70 85.00
1890 13.4340 7214.00 9918.22 85.00
1891 13.4400 7198.00 9952.68 85.00
1892 13.4460 8033.00 10364.50 90.00
1893 13.4520 9098.00 11695.10 95.00
1894 13.4580 11895.00 14929.10 109.00
1895 13.4640 18124.00 20931.30 135.00
1896 13.4700 29240.00 28881.60 171.00
1897 13.4760 36748.00 34343.80 192.00
1898 13.4820 32476.00 31714.20 180.00
1899 13.4880 20139.00 23727.50 142.00
1900 13.4940 12898.00 16276.00 114.00
1901 13.5000 9691.00 11550.60 98.00
1902 13.5060 8092.00 9173.10 90.00
1903 13.5120 7213.00 8070.47 85.00
1904 13.5180 6655.00 7490.51 82.00
1905 13.5240 6434.00 7107.62 80.00
1906 13.5300 6422.00 6812.71 80.00
1907 13.5360 6284.00 6568.19 79.00
1908 13.5420 6021.00 6357.03 78.00
1909 13.5480 5889.00 6169.27 77.00
1910 13.5540 5776.00 6048.42 76.00
1911 13.5600 5590.00 5965.16 75.00
1912 13.5660 5334.00 5891.55 73.00
1913 13.5720 5351.00 5651.55 73.00
1914 13.5780 5420.00 5600.86 74.00
1915 13.5840 5523.00 5554.18 74.00
1916 13.5900 5478.00 5510.67 74.00
1917 13.5960 5667.00 5469.73 75.00
1918 13.6020 5666.00 5430.88 75.00
1919 13.6080 5893.00 5393.77 77.00
1920 13.6140 5856.00 5358.08 77.00
1921 13.6200 5845.00 5323.60 76.00
1922 13.6260 5801.00 5290.14 76.00
1923 13.6320 5700.00 5257.53 75.00
1924 13.6380 5637.00 5225.67 75.00
1925 13.6440 5393.00 5194.43 73.00
1926 13.6500 5393.00 5163.75 73.00
1927 13.6560 5154.00 5133.54 72.00
1928 13.6620 5099.00 5103.75 71.00
1929 13.6680 4929.00 5074.32 70.00
1930 13.6740 4884.00 5045.22 70.00
1931 13.6800 4836.00 5016.39 70.00
1932 13.6860 4711.00 4949.24 69.00
1933 13.6920 4821.00 4965.79 69.00
1934 13.6980 4934.00 4982.34 70.00
1935 13.7040 4754.00 4998.90 69.00
1936 13.7100 4863.00 5015.45 70.00
1937 13.7160 4928.00 5032.00 70.00
1938 13.7220 4917.00 5048.56 70.00
1939 13.7280 5016.00 5065.11 71.00
1940 13.7340 5114.00 5081.66 72.00
1941 13.7400 5094.00 5098.21 71.00
1942 13.7460 5116.00 5114.77 72.00
1943 13.7520 5089.00 5184.69 71.00
1944 13.7580 5112.00 5206.36 71.00
1945 13.7640 5050.00 5230.26 71.00
1946 13.7700 5130.00 5254.50 72.00
1947 13.7760 5143.00 5279.10 72.00
1948 13.7820 5260.00 5304.12 73.00
1949 13.7880 5587.00 5329.63 75.00
1950 13.7940 5956.00 5355.68 77.00
1951 13.8000 6512.00 5382.36 81.00
1952 13.8060 7305.00 5409.78 85.00
1953 13.8120 8233.00 5532.50 91.00
1954 13.8180 8778.00 5567.38 94.00
1955 13.8240 8730.00 5603.94 93.00
1956 13.8300 8429.00 5642.45 92.00
1957 13.8360 7834.00 5683.27 89.00
1958 13.8420 6770.00 5726.79 82.00
1959 13.8480 5901.00 5773.56 77.00
1960 13.8540 5658.00 5824.23 75.00
1961 13.8600 5378.00 5879.63 73.00
1962 13.8660 5321.00 5940.85 73.00
1963 13.8720 5473.00 6030.63 74.00
1964 13.8780 5563.00 6150.89 75.00
1965 13.8840 5754.00 6282.81 76.00
1966 13.8900 5795.00 6429.97 76.00
1967 13.8960 6020.00 6597.39 78.00
1968 13.9020 6250.00 6792.53 79.00
1969 13.9080 6698.00 7026.58 82.00
1970 13.9140 7290.00 7318.75 85.00
1971 13.9200 8291.00 7710.47 91.00
1972 13.9260 9799.00 8318.64 99.00
1973 13.9320 12756.00 9500.17 113.00
1974 13.9380 17619.00 12000.50 133.00
1975 13.9440 22787.00 16977.30 151.00
1976 13.9500 26262.00 24968.60 162.00
1977 13.9560 26929.00 34079.40 164.00
1978 13.9620 26221.00 38466.00 162.00
1979 13.9680 25343.00 33852.00 159.00
1980 13.9740 25001.00 25269.70 158.00
1981 13.9800 24681.00 18298.60 157.00
1982 13.9860 25124.00 14719.90 159.00
1983 13.9920 26161.00 14474.20 162.00
1984 13.9980 28043.00 17817.10 167.00
1985 14.0040 31656.00 26008.10 178.00
1986 14.0100 36485.00 39615.10 191.00
1987 14.0160 42590.00 55070.30 206.00
1988 14.0220 48729.00 62021.60 221.00
1989 14.0280 50261.00 53167.90 224.00
1990 14.0340 42995.00 37372.10 207.00
1991 14.0400 29718.00 24173.20 172.00
1992 14.0460 19435.00 16265.30 139.00
1993 14.0520 14263.00 12472.20 119.00
1994 14.0580 11796.00 10828.00 109.00
1995 14.0640 10459.00 10062.80 102.00
1996 14.0700 9581.00 9641.08 98.00
1997 14.0760 8774.00 9381.44 94.00
1998 14.0820 8154.00 9221.04 90.00
1999 14.0880 7694.00 9132.42 88.00
2000 14.0940 7503.00 9006.17 87.00
2001 14.1000 7510.00 8890.92 87.00
2002 14.1060 7770.00 8861.36 88.00
2003 14.1120 8612.00 9011.44 93.00
2004 14.1180 9927.00 9566.81 100.00
2005 14.1240 11504.00 10868.40 107.00
2006 14.1300 12302.00 13099.00 111.00
2007 14.1360 11997.00 15744.40 110.00
2008 14.1420 11416.00 17104.70 107.00
2009 14.1480 10517.00 15697.00 103.00
2010 14.1540 9628.00 12851.10 98.00
2011 14.1600 9072.00 10341.60 95.00
2012 14.1660 8368.00 8756.84 91.00
2013 14.1720 7971.00 7955.58 89.00
2014 14.1780 7630.00 7571.87 87.00
2015 14.1840 7275.00 7509.41 85.00
2016 14.1900 7184.00 7622.46 85.00
2017 14.1960 7192.00 7794.66 85.00
2018 14.2020 7208.00 7793.82 85.00
2019 14.2080 7027.00 7475.51 84.00
2020 14.2140 6708.00 7028.07 82.00
2021 14.2200 6316.00 6643.00 79.00
2022 14.2260 5957.00 6372.72 77.00
2023 14.2320 5710.00 6191.43 76.00
2024 14.2380 5553.00 5969.05 75.00
2025 14.2440 5472.00 5860.60 74.00
2026 14.2500 5500.00 5760.71 74.00
2027 14.2560 5519.00 5665.21 74.00
2028 14.2620 5473.00 5572.49 74.00
2029 14.2680 5556.00 5481.78 75.00
2030 14.2740 5577.00 5392.54 75.00
2031 14.2800 5577.00 5371.73 75.00
2032 14.2860 5689.00 5351.81 75.00
2033 14.2920 5725.00 5332.61 76.00
2034 14.2980 5713.00 5313.99 76.00
2035 14.3040 5841.00 5295.84 76.00
2036 14.3100 5917.00 5278.09 77.00
2037 14.3160 5948.00 5260.68 77.00
2038 14.3220 6260.00 5243.54 79.00
2039 14.3280 6474.00 5226.64 80.00
2040 14.3340 6359.00 5209.95 80.00
2041 14.3400 6187.00 5193.44 79.00
2042 14.3460 5942.00 5177.08 77.00
2043 14.3520 5891.00 5160.85 77.00
2044 14.3580 5888.00 5128.84 77.00
2045 14.3640 5805.00 5113.68 76.00
2046 14.3700 5740.00 5098.55 76.00
2047 14.3760 5510.00 5083.45 74.00
2048 14.3820 5357.00 5068.37 73.00
2049 14.3880 5328.00 5053.30 73.00
2050 14.3940 5324.00 5038.25 73.00
2051 14.4000 5271.00 5023.22 73.00
2052 14.4060 5142.00 5008.19 72.00
2053 14.4120 5189.00 4993.18 72.00
2054 14.4180 5376.00 4976.27 73.00
2055 14.4240 5394.00 4961.38 73.00
2056 14.4300 5303.00 4946.48 73.00
2057 14.4360 5278.00 4925.09 73.00
2058 14.4420 5190.00 4903.70 72.00
2059 14.4480 4960.00 4882.31 70.00
2060 14.4540 4819.00 4864.51 69.00
2061 14.4600 4754.00 4843.33 69.00
2062 14.4660 4670.00 4822.16 68.00
2063 14.4720 4671.00 4801.02 68.00
2064 14.4780 4632.00 4779.90 68.00
2065 14.4840 4544.00 4758.80 67.00
2066 14.4900 4529.00 4737.73 67.00
2067 14.4960 4493.00 4716.70 67.00
2068 14.5020 4527.00 4695.71 67.00
2069 14.5080 4531.00 4681.15 67.00
2070 14.5140 4508.00 4660.62 67.00
2071 14.5200 4575.00 4640.17 68.00
2072 14.5260 4629.00 4619.83 68.00
2073 14.5320 4672.00 4599.61 68.00
2074 14.5380 4857.00 4579.53 70.00
2075 14.5440 4878.00 4567.35 70.00
2076 14.5500 4842.00 4570.82 70.00
2077 14.5560 4779.00 4574.51 69.00
2078 14.5620 4627.00 4578.49 68.00
2079 14.5680 4476.00 4582.80 67.00
2080 14.5740 4544.00 4587.53 67.00
2081 14.5800 4529.00 4592.76 67.00
2082 14.5860 4585.00 4598.64 68.00
2083 14.5920 4693.00 4605.34 69.00
2084 14.5980 4689.00 4613.09 68.00
2085 14.6040 4788.00 4622.26 69.00
2086 14.6100 4931.00 4633.32 70.00
2087 14.6160 5059.00 4647.05 71.00
2088 14.6220 5216.00 4664.74 72.00
2089 14.6280 5415.00 4689.26 74.00
2090 14.6340 5763.00 4728.51 76.00
2091 14.6400 6044.00 4804.59 78.00
2092 14.6460 6453.00 4966.22 80.00
2093 14.6520 6793.00 5283.82 82.00
2094 14.6580 7039.00 5794.19 84.00
2095 14.6640 6869.00 6397.44 83.00
2096 14.6700 6655.00 6758.90 82.00
2097 14.6760 6537.00 6552.98 81.00
2098 14.6820 6365.00 6011.16 80.00
2099 14.6880 6318.00 5521.99 79.00
2100 14.6940 6308.00 5258.00 79.00
2101 14.7000 6225.00 5265.42 79.00
2102 14.7060 6299.00 5587.67 79.00
2103 14.7120 6505.00 6285.36 81.00
2104 14.7180 7030.00 7301.37 84.00
2105 14.7240 7630.00 8244.65 87.00
2106 14.7300 8086.00 8377.74 90.00
2107 14.7360 8336.00 7553.37 91.00
2108 14.7420 7612.00 6479.08 87.00
2109 14.7480 6595.00 5650.97 81.00
2110 14.7540 5771.00 5169.06 76.00
2111 14.7600 5374.00 4936.52 73.00
2112 14.7660 5117.00 4831.27 72.00
2113 14.7720 4851.00 4778.54 70.00
2114 14.7780 4850.00 4746.84 70.00
2115 14.7840 4878.00 4725.18 70.00
2116 14.7900 4843.00 4709.53 70.00
2117 14.7960 4994.00 4697.92 71.00
2118 14.8020 5221.00 4689.18 72.00
2119 14.8080 5453.00 4682.56 74.00
2120 14.8140 5521.00 4677.51 74.00
2121 14.8200 5433.00 4673.67 74.00
2122 14.8260 5535.00 4670.78 74.00
2123 14.8320 5614.00 4668.62 75.00
2124 14.8380 5636.00 4667.05 75.00
2125 14.8440 5698.00 4665.97 75.00
2126 14.8500 5625.00 4665.28 75.00
2127 14.8560 5619.00 4664.92 75.00
2128 14.8620 5394.00 4664.84 73.00
2129 14.8680 5308.00 4664.99 73.00
2130 14.8740 5237.00 4665.34 72.00
2131 14.8800 5201.00 4665.86 72.00
2132 14.8860 5326.00 4666.53 73.00
2133 14.8920 5213.00 4663.90 72.00
2134 14.8980 5287.00 4665.02 73.00
2135 14.9040 5103.00 4666.24 71.00
2136 14.9100 4940.00 4667.57 70.00
2137 14.9160 4900.00 4669.01 70.00
2138 14.9220 4923.00 4670.58 70.00
2139 14.9280 4959.00 4672.33 70.00
2140 14.9340 4920.00 4674.36 70.00
2141 14.9400 4942.00 4677.04 70.00
2142 14.9460 4772.00 4681.26 69.00
2143 14.9520 4907.00 4682.51 70.00
2144 14.9580 5014.00 4695.15 71.00
2145 14.9640 5113.00 4753.62 72.00
2146 14.9700 5517.00 4772.52 74.00
2147 14.9760 5683.00 4828.86 75.00
2148 14.9820 5447.00 4824.68 74.00
2149 14.9880 5430.00 4816.17 74.00
2150 14.9940 5313.00 4811.37 73.00
2151 15.0000 5057.00 4812.36 71.00
2152 15.0060 4738.00 4817.99 69.00
2153 15.0120 4701.00 4826.51 69.00
2154 15.0180 4717.00 4836.80 69.00
2155 15.0240 4584.00 4848.45 68.00
2156 15.0300 4616.00 4861.42 68.00
2157 15.0360 4537.00 4875.81 67.00
2158 15.0420 4567.00 4891.81 68.00
2159 15.0480 4463.00 4909.65 67.00
2160 15.0540 4408.00 4929.63 66.00
2161 15.0600 4448.00 4952.14 67.00
2162 15.0660 4619.00 4977.63 68.00
2163 15.0720 4587.00 5001.57 68.00
2164 15.0780 4593.00 5028.80 68.00
2165 15.0840 4568.00 5061.31 68.00
2166 15.0900 4809.00 5100.32 69.00
2167 15.0960 4682.00 5147.44 68.00
2168 15.1020 4783.00 5204.82 69.00
2169 15.1080 4789.00 5275.34 69.00
2170 15.1140 5084.00 5363.03 71.00
2171 15.1200 5130.00 5473.49 72.00
2172 15.1260 5281.00 5614.87 73.00
2173 15.1320 5386.00 5799.47 73.00
2174 15.1380 5811.00 6048.08 76.00
2175 15.1440 6321.00 6404.80 80.00
2176 15.1500 6925.00 6984.08 83.00
2177 15.1560 8014.00 8085.85 90.00
2178 15.1620 9989.00 10357.30 100.00
2179 15.1680 13435.00 14807.30 116.00
2180 15.1740 20855.00 22331.50 144.00
2181 15.1800 34814.00 32651.60 187.00
2182 15.1860 49146.00 42785.60 222.00
2183 15.1920 53382.00 48412.30 231.00
2184 15.1980 51284.00 48365.70 226.00
2185 15.2040 42754.00 41680.90 207.00
2186 15.2100 28648.00 30624.60 169.00
2187 15.2160 18318.00 20432.30 135.00
2188 15.2220 12661.00 13476.90 113.00
2189 15.2280 9739.00 9591.24 99.00
2190 15.2340 7991.00 7680.32 89.00
2191 15.2400 7111.00 6749.96 84.00
2192 15.2460 6482.00 6236.72 81.00
2193 15.2520 6089.00 5903.41 78.00
2194 15.2580 5739.00 5662.95 76.00
2195 15.2640 5493.00 5480.44 74.00
2196 15.2700 5470.00 5337.84 74.00
2197 15.2760 5258.00 5224.08 73.00
2198 15.2820 5210.00 5131.70 72.00
2199 15.2880 5020.00 5057.42 71.00
2200 15.2940 5075.00 4993.78 71.00
2201 15.3000 4937.00 4939.88 70.00
2202 15.3060 4982.00 4893.72 71.00
2203 15.3120 4872.00 4853.78 70.00
2204 15.3180 4699.00 4818.89 69.00
2205 15.3240 4806.00 4788.15 69.00
2206 15.3300 4900.00 4760.86 70.00
2207 15.3360 4626.00 4736.46 68.00
2208 15.3420 4560.00 4714.48 68.00
2209 15.3480 4588.00 4694.57 68.00
2210 15.3540 4483.00 4676.42 67.00
2211 15.3600 4544.00 4659.81 67.00
2212 15.3660 4534.00 4644.52 67.00
2213 15.3720 4585.00 4630.39 68.00
2214 15.3780 4528.00 4617.30 67.00
2215 15.3840 4600.00 4605.12 68.00
2216 15.3900 4658.00 4593.77 68.00
2217 15.3960 4560.00 4583.18 68.00
2218 15.4020 4545.00 4573.29 67.00
2219 15.4080 4486.00 4564.05 67.00
2220 15.4140 4547.00 4517.47 67.00
2221 15.4200 4532.00 4521.78 67.00
2222 15.4260 4626.00 4526.60 68.00
2223 15.4320 4369.00 4486.08 66.00
2224 15.4380 4451.00 4494.38 67.00
2225 15.4440 4456.00 4503.29 67.00
2226 15.4500 4461.00 4513.04 67.00
2227 15.4560 4572.00 4524.01 68.00
2228 15.4620 4571.00 4536.79 68.00
2229 15.4680 4707.00 4552.79 69.00
2230 15.4740 4549.00 4575.83 67.00
2231 15.4800 4551.00 4616.28 67.00
2232 15.4860 4686.00 4696.75 68.00
2233 15.4920 4858.00 4850.75 70.00
2234 15.4980 5097.00 5100.44 71.00
2235 15.5040 5196.00 5412.40 72.00
2236 15.5100 5175.00 5651.23 72.00
2237 15.5160 5081.00 5624.91 71.00
2238 15.5220 4916.00 5366.51 70.00
2239 15.5280 4801.00 5072.67 69.00
2240 15.5340 4916.00 4855.57 70.00
2241 15.5400 4747.00 4732.71 69.00
2242 15.5460 4783.00 4676.65 69.00
2243 15.5520 4826.00 4655.40 69.00
2244 15.5580 4840.00 4649.06 70.00
2245 15.5640 4604.00 4654.96 68.00
2246 15.5700 4770.00 4654.83 69.00
2247 15.5760 4702.00 4654.42 69.00
2248 15.5820 4660.00 4654.85 68.00
2249 15.5880 4709.00 4656.79 69.00
2250 15.5940 4712.00 4660.19 69.00
2251 15.6000 4616.00 4664.68 68.00
2252 15.6060 4647.00 4670.69 68.00
2253 15.6120 4646.00 4676.47 68.00
2254 15.6180 4579.00 4683.79 68.00
2255 15.6240 4545.00 4697.21 67.00
2256 15.6300 4582.00 4710.98 68.00
2257 15.6360 4761.00 4725.12 69.00
2258 15.6420 4796.00 4739.66 69.00
2259 15.6480 4841.00 4754.65 70.00
2260 15.6540 4777.00 4770.16 69.00
2261 15.6600 4844.00 4786.31 70.00
2262 15.6660 4836.00 4803.24 70.00
2263 15.6720 4882.00 4821.18 70.00
2264 15.6780 4924.00 4840.45 70.00
2265 15.6840 4910.00 4861.55 70.00
2266 15.6900 4906.00 4885.51 70.00
2267 15.6960 5083.00 4914.84 71.00
2268 15.7020 5229.00 4956.31 72.00
2269 15.7080 5283.00 5025.82 73.00
2270 15.7140 5315.00 5150.35 73.00
2271 15.7200 5515.00 5356.51 74.00
2272 15.7260 5795.00 5638.29 76.00
2273 15.7320 6023.00 5914.90 78.00
2274 15.7380 6233.00 6021.24 79.00
2275 15.7440 5930.00 5887.85 77.00
2276 15.7500 5855.00 5670.26 77.00
2277 15.7560 5941.00 5517.97 77.00
2278 15.7620 5995.00 5514.15 77.00
2279 15.7680 6461.00 5729.24 80.00
2280 15.7740 7300.00 6255.60 85.00
2281 15.7800 8362.00 7150.31 91.00
2282 15.7860 9340.00 8286.25 97.00
2283 15.7920 9488.00 9176.27 97.00
2284 15.7980 9380.00 9130.27 97.00
2285 15.8040 9274.00 8214.08 96.00
2286 15.8100 9174.00 7143.96 96.00
2287 15.8160 9129.00 6370.46 96.00
2288 15.8220 8771.00 5981.31 94.00
2289 15.8280 7831.00 5859.82 88.00
2290 15.8340 7231.00 5818.67 85.00
2291 15.8400 6724.00 5721.50 82.00
2292 15.8460 6191.00 5577.95 79.00
2293 15.8520 5921.00 5448.80 77.00
2294 15.8580 5781.00 5361.74 76.00
2295 15.8640 5714.00 5314.96 76.00
2296 15.8700 5724.00 5294.63 76.00
2297 15.8760 5626.00 5288.03 75.00
2298 15.8820 5634.00 5287.93 75.00
2299 15.8880 5769.00 5291.15 76.00
2300 15.8940 5935.00 5296.40 77.00
2301 15.9000 5970.00 5303.07 77.00
2302 15.9060 5855.00 5310.81 77.00
2303 15.9120 5865.00 5319.37 77.00
2304 15.9180 5806.00 5328.58 76.00
2305 15.9240 5839.00 5338.32 76.00
2306 15.9300 5782.00 5348.47 76.00
2307 15.9360 5645.00 5358.97 75.00
2308 15.9420 5698.00 5369.76 75.00
2309 15.9480 5819.00 5380.79 76.00
2310 15.9540 5815.00 5392.02 76.00
2311 15.9600 5791.00 5403.42 76.00
2312 15.9660 5878.00 5414.97 77.00
2313 15.9720 6056.00 5425.06 78.00
2314 15.9780 6286.00 5436.93 79.00
2315 15.9840 6549.00 5448.89 81.00
2316 15.9900 6865.00 5460.93 83.00
2317 15.9960 7381.00 5473.03 86.00
2318 16.0020 7944.00 5485.20 89.00
2319 16.0080 8175.00 5497.42 90.00
2320 16.0140 8153.00 5509.69 90.00
2321 16.0200 7891.00 5522.01 89.00
2322 16.0260 7312.00 5534.36 86.00
2323 16.0320 6794.00 5540.13 82.00
2324 16.0380 6431.00 5573.84 80.00
2325 16.0440 6150.00 5587.71 78.00
2326 16.0500 5967.00 5601.66 77.00
2327 16.0560 5872.00 5615.73 77.00
2328 16.0620 5874.00 5629.92 77.00
2329 16.0680 5815.00 5644.23 76.00
2330 16.0740 5772.00 5708.36 76.00
2331 16.0800 5794.00 5725.68 76.00
2332 16.0860 5901.00 5743.40 77.00
2333 16.0920 5919.00 5761.56 77.00
2334 16.0980 5953.00 5780.23 77.00
2335 16.1040 5876.00 5799.47 77.00
2336 16.1100 5893.00 5798.60 77.00
2337 16.1160 5939.00 5794.32 77.00
2338 16.1220 6010.00 5790.88 78.00
2339 16.1280 6002.00 5788.40 77.00
2340 16.1340 5935.00 5787.05 77.00
2341 16.1400 5820.00 5787.01 76.00
2342 16.1460 5649.00 5788.49 75.00
2343 16.1520 5563.00 5791.78 75.00
2344 16.1580 5554.00 5797.20 75.00
2345 16.1640 5475.00 5805.19 74.00
2346 16.1700 5474.00 5816.28 74.00
2347 16.1760 5503.00 5831.16 74.00
2348 16.1820 5492.00 5850.71 74.00
2349 16.1880 5581.00 5876.11 75.00
2350 16.1940 5701.00 5908.93 76.00
2351 16.2000 5721.00 5951.36 76.00
2352 16.2060 5844.00 6006.35 76.00
2353 16.2120 6076.00 6078.40 78.00
2354 16.2180 6311.00 6174.70 79.00
2355 16.2240 6456.00 6309.68 80.00
2356 16.2300 6719.00 6519.27 82.00
2357 16.2360 7465.00 6896.83 86.00
2358 16.2420 8535.00 7647.10 92.00
2359 16.2480 10430.00 9097.15 102.00
2360 16.2540 13437.00 11542.60 116.00
2361 16.2600 16509.00 14879.90 128.00
2362 16.2660 18627.00 18164.50 136.00
2363 16.2720 19486.00 19608.00 140.00
2364 16.2780 20172.00 18762.40 142.00
2365 16.2840 21267.00 17964.10 146.00
2366 16.2900 23383.00 19651.90 153.00
2367 16.2960 26902.00 24673.50 164.00
2368 16.3020 31619.00 31591.00 178.00
2369 16.3080 35694.00 36180.40 189.00
2370 16.3140 35041.00 33999.00 187.00
2371 16.3200 28059.00 26655.40 168.00
2372 16.3260 19594.00 18828.10 140.00
2373 16.3320 13701.00 13018.40 117.00
2374 16.3380 10377.00 9579.80 102.00
2375 16.3440 8720.00 7832.66 93.00
2376 16.3500 7716.00 6985.66 88.00
2377 16.3560 7115.00 6535.72 84.00
2378 16.3620 6664.00 6253.10 82.00
2379 16.3680 6395.00 6050.85 80.00
2380 16.3740 6187.00 5896.04 79.00
2381 16.3800 5878.00 5784.93 77.00
2382 16.3860 5792.00 5685.77 76.00
2383 16.3920 5753.00 5603.72 76.00
2384 16.3980 5706.00 5534.62 76.00
2385 16.4040 5744.00 5475.53 76.00
2386 16.4100 5679.00 5424.27 75.00
2387 16.4160 5688.00 5379.25 75.00
2388 16.4220 5624.00 5339.29 75.00
2389 16.4280 5455.00 5303.46 74.00
2390 16.4340 5466.00 5303.18 74.00
2391 16.4400 5498.00 5275.30 74.00
2392 16.4460 5471.00 5250.00 74.00
2393 16.4520 5438.00 5230.52 74.00
2394 16.4580 5423.00 5230.95 74.00
2395 16.4640 5496.00 5233.17 74.00
2396 16.4700 5645.00 5237.05 75.00
2397 16.4760 5760.00 5242.47 76.00
2398 16.4820 5673.00 5249.38 75.00
2399 16.4880 5557.00 5257.76 75.00
2400 16.4940 5600.00 5267.62 75.00
2401 16.5000 5700.00 5366.50 75.00
2402 16.5060 5723.00 5384.08 76.00
2403 16.5120 5787.00 5384.28 76.00
2404 16.5180 5904.00 5407.35 77.00
2405 16.5240 5797.00 5433.08 76.00
2406 16.5300 5807.00 5461.95 76.00
2407 16.5360 5924.00 5494.53 77.00
2408 16.5420 5799.00 5531.65 76.00
2409 16.5480 5985.00 5574.39 77.00
2410 16.5540 6122.00 5577.55 78.00
2411 16.5600 6257.00 5638.95 79.00
2412 16.5660 6514.00 5713.00 81.00
2413 16.5720 6663.00 5806.15 82.00
2414 16.5780 6847.00 5934.00 83.00
2415 16.5840 7115.00 6137.23 84.00
2416 16.5900 7666.00 6509.48 88.00
2417 16.5960 8422.00 7215.25 92.00
2418 16.6020 9963.00 8436.48 100.00
2419 16.6080 11590.00 10205.20 108.00
2420 16.6140 12635.00 12160.20 112.00
2421 16.6200 12840.00 13373.00 113.00
2422 16.6260 13042.00 13005.10 114.00
2423 16.6320 13244.00 11649.30 115.00
2424 16.6380 13680.00 10542.30 117.00
2425 16.6440 14323.00 10578.60 120.00
2426 16.6500 15401.00 12321.10 124.00
2427 16.6560 17027.00 15931.20 130.00
2428 16.6620 19567.00 20781.10 140.00
2429 16.6680 22432.00 24906.30 150.00
2430 16.6740 24179.00 25402.20 155.00
2431 16.6800 23487.00 21930.50 153.00
2432 16.6860 19110.00 17266.50 138.00
2433 16.6920 14889.00 13577.30 122.00
2434 16.6980 13117.00 11654.40 115.00
2435 16.7040 13060.00 11669.80 114.00
2436 16.7100 14221.00 13987.20 119.00
2437 16.7160 17882.00 19528.20 134.00
2438 16.7220 25542.00 29156.20 160.00
2439 16.7280 44906.00 42139.50 212.00
2440 16.7340 71153.00 54320.00 267.00
2441 16.7400 73808.00 57967.90 272.00
2442 16.7460 51931.00 49811.90 228.00
2443 16.7520 30953.00 36382.00 176.00
2444 16.7580 19895.00 24312.20 141.00
2445 16.7640 14875.00 16115.30 122.00
2446 16.7700 12244.00 11542.00 111.00
2447 16.7760 10570.00 9288.60 103.00
2448 16.7820 9401.00 8190.36 97.00
2449 16.7880 8699.00 7590.61 93.00
2450 16.7940 8230.00 7262.32 91.00
2451 16.8000 7686.00 6991.39 88.00
2452 16.8060 7209.00 6788.58 85.00
2453 16.8120 6917.00 6632.98 83.00
2454 16.8180 6700.00 6511.77 82.00
2455 16.8240 6614.00 6416.37 81.00
2456 16.8300 6291.00 6368.13 79.00
2457 16.8360 6389.00 6309.27 80.00
2458 16.8420 6299.00 6262.80 79.00
2459 16.8480 6314.00 6226.36 79.00
2460 16.8540 6295.00 6198.23 79.00
2461 16.8600 6270.00 6177.11 79.00
2462 16.8660 6078.00 6150.77 78.00
2463 16.8720 6098.00 6141.48 78.00
2464 16.8780 5969.00 6136.90 77.00
2465 16.8840 5806.00 6136.67 76.00
2466 16.8900 5636.00 6140.54 75.00
2467 16.8960 5608.00 6148.42 75.00
2468 16.9020 5695.00 6160.31 75.00
2469 16.9080 5728.00 6176.37 76.00
2470 16.9140 5668.00 6196.84 75.00
2471 16.9200 5749.00 6180.73 76.00
2472 16.9260 5839.00 6194.75 76.00
2473 16.9320 5785.00 6214.98 76.00
2474 16.9380 5886.00 6242.58 77.00
2475 16.9440 5833.00 6279.12 76.00
2476 16.9500 6012.00 6326.72 78.00
2477 16.9560 6079.00 6388.28 78.00
2478 16.9620 6127.00 6467.89 78.00
2479 16.9680 6363.00 6571.33 80.00
2480 16.9740 6541.00 6707.20 81.00
2481 16.9800 7295.00 6893.29 85.00
2482 16.9860 7679.00 7069.29 88.00
2483 16.9920 8123.00 7478.65 90.00
2484 16.9980 9294.00 8217.02 96.00
2485 17.0040 10886.00 9707.56 104.00
2486 17.0100 14032.00 12677.00 118.00
2487 17.0160 20340.00 17923.10 143.00
2488 17.0220 28276.00 25590.90 168.00
2489 17.0280 33311.00 34166.30 183.00
2490 17.0340 33604.00 39694.10 183.00
2491 17.0400 31948.00 38270.50 179.00
2492 17.0460 29151.00 32003.50 171.00
2493 17.0520 26635.00 26053.30 163.00
2494 17.0580 26069.00 23259.60 161.00
2495 17.0640 26512.00 23557.00 163.00
2496 17.0700 26697.00 24560.70 163.00
2497 17.0760 25323.00 23216.00 159.00
2498 17.0820 20504.00 19265.90 143.00
2499 17.0880 14474.00 14784.80 120.00
2500 17.0940 10627.00 11212.10 103.00
2501 17.1000 8667.00 8919.49 93.00
2502 17.1060 7294.00 7654.71 85.00
2503 17.1120 6695.00 7000.47 82.00
2504 17.1180 6160.00 6642.79 78.00
2505 17.1240 5877.00 6418.08 77.00
2506 17.1300 5631.00 6257.78 75.00
2507 17.1360 5447.00 6134.93 74.00
2508 17.1420 5425.00 6037.74 74.00
2509 17.1480 5409.00 5959.62 74.00
2510 17.1540 5294.00 5896.46 73.00
2511 17.1600 5175.00 5845.57 72.00
2512 17.1660 5117.00 5805.34 72.00
2513 17.1720 5220.00 5775.16 72.00
2514 17.1780 5232.00 5755.79 72.00
2515 17.1840 4997.00 5751.09 71.00
2516 17.1900 5200.00 5772.77 72.00
2517 17.1960 5374.00 5848.98 73.00
2518 17.2020 5536.00 6032.06 74.00
2519 17.2080 5740.00 6389.16 76.00
2520 17.2140 6468.00 6959.27 80.00
2521 17.2200 7827.00 7680.41 88.00
2522 17.2260 9019.00 8309.20 95.00
2523 17.2320 9304.00 8503.34 96.00
2524 17.2380 8279.00 8202.04 91.00
2525 17.2440 7239.00 7581.93 85.00
2526 17.2500 6416.00 6871.60 80.00
2527 17.2560 5943.00 6280.54 77.00
2528 17.2620 5498.00 5879.92 74.00
2529 17.2680 5230.00 5642.14 72.00
2530 17.2740 5323.00 5510.38 73.00
2531 17.2800 5072.00 5435.64 71.00
2532 17.2860 5025.00 5336.40 71.00
2533 17.2920 5089.00 5303.82 71.00
2534 17.2980 5010.00 5277.68 71.00
2535 17.3040 4997.00 5255.46 71.00
2536 17.3100 4961.00 5235.95 70.00
2537 17.3160 4857.00 5218.41 70.00
2538 17.3220 4794.00 5176.46 69.00
2539 17.3280 4861.00 5162.78 70.00
2540 17.3340 4679.00 5149.94 68.00
2541 17.3400 4695.00 5137.74 69.00
2542 17.3460 4701.00 5126.08 69.00
2543 17.3520 4576.00 5114.83 68.00
2544 17.3580 4694.00 5103.94 69.00
2545 17.3640 4811.00 5093.33 69.00
2546 17.3700 4690.00 5082.95 68.00
2547 17.3760 4730.00 5072.78 69.00
2548 17.3820 4815.00 5061.39 69.00
2549 17.3880 4875.00 5048.76 70.00
2550 17.3940 4906.00 5036.26 70.00
2551 17.4000 4888.00 5023.85 70.00
2552 17.4060 4749.00 5011.54 69.00
2553 17.4120 4757.00 4999.31 69.00
2554 17.4180 4847.00 4987.15 70.00
2555 17.4240 4862.00 4975.05 70.00
2556 17.4300 4918.00 4963.01 70.00
2557 17.4360 4853.00 4951.01 70.00
2558 17.4420 4852.00 4939.05 70.00
2559 17.4480 4855.00 4927.13 70.00
2560 17.4540 4965.00 4915.25 70.00
2561 17.4600 4967.00 4903.39 70.00
2562 17.4660 4946.00 4891.56 70.00
2563 17.4720 4734.00 4879.76 69.00
2564 17.4780 4849.00 4864.31 70.00
2565 17.4840 4841.00 4852.72 70.00
2566 17.4900 4775.00 4839.37 69.00
2567 17.4960 4825.00 4827.87 69.00
2568 17.5020 4952.00 4816.37 70.00
2569 17.5080 4939.00 4804.87 70.00
2570 17.5140 4966.00 4793.37 70.00
2571 17.5200 5513.00 4781.88 74.00
2572 17.5260 5748.00 4770.38 76.00
2573 17.5320 6323.00 4758.88 80.00
2574 17.5380 7033.00 4747.38 84.00
2575 17.5440 7608.00 4735.88 87.00
2576 17.5500 8134.00 4724.39 90.00
2577 17.5560 8444.00 4712.89 92.00
2578 17.5620 8303.00 4701.39 91.00
2579 17.5680 7721.00 4689.89 88.00
2580 17.5740 6938.00 4678.39 83.00
2581 17.5800 5951.00 4666.89 77.00
2582 17.5860 5212.00 4655.39 72.00
2583 17.5920 4819.00 4643.90 69.00
2584 17.5980 4750.00 4632.40 69.00
2585 17.6040 4697.00 4620.90 69.00
2586 17.6100 4374.00 4609.40 66.00
2587 17.6160 4477.00 4597.90 67.00
2588 17.6220 4411.00 4586.40 66.00
2589 17.6280 4434.00 4574.90 67.00
2590 17.6340 4366.00 4563.40 66.00
2591 17.6400 4468.00 4551.91 67.00
2592 17.6460 4512.00 4540.41 67.00
2593 17.6520 4415.00 4528.91 66.00
2594 17.6580 4448.00 4517.41 67.00
2595 17.6640 4355.00 4505.91 66.00
2596 17.6700 4221.00 4494.41 65.00
2597 17.6760 4205.00 4482.91 65.00
2598 17.6820 4309.00 4471.42 66.00
2599 17.6880 4207.00 4459.92 65.00
2600 17.6940 4299.00 4450.08 66.00
2601 17.7000 4253.00 4438.66 65.00
2602 17.7060 4249.00 4427.25 65.00
2603 17.7120 4328.00 4415.84 66.00
2604 17.7180 4193.00 4404.44 65.00
2605 17.7240 4215.00 4393.05 65.00
2606 17.7300 4242.00 4381.67 65.00
2607 17.7360 4191.00 4370.30 65.00
2608 17.7420 4229.00 4359.47 65.00
2609 17.7480 4203.00 4351.07 65.00
2610 17.7540 4324.00 4339.90 66.00
2611 17.7600 4306.00 4328.77 66.00
2612 17.7660 4261.00 4317.66 65.00
2613 17.7720 4291.00 4306.60 66.00
2614 17.7780 4126.00 4295.57 64.00
2615 17.7840 4061.00 4284.59 64.00
2616 17.7900 4187.00 4273.66 65.00
2617 17.7960 4251.00 4275.26 65.00
2618 17.8020 4192.00 4265.06 65.00
2619 17.8080 4125.00 4254.98 64.00
2620 17.8140 4222.00 4245.04 65.00
2621 17.8200 4150.00 4235.27 64.00
2622 17.8260 4191.00 4225.67 65.00
2623 17.8320 4138.00 4235.88 64.00
2624 17.8380 4221.00 4227.70 65.00
2625 17.8440 4128.00 4219.88 64.00
2626 17.8500 4060.00 4222.45 64.00
2627 17.8560 4199.00 4225.52 65.00
2628 17.8620 4162.00 4229.19 65.00
2629 17.8680 4201.00 4233.60 65.00
2630 17.8740 4135.00 4238.91 64.00
2631 17.8800 4178.00 4245.35 65.00
2632 17.8860 4109.00 4253.24 64.00
2633 17.8920 4270.00 4263.11 65.00
2634 17.8980 4326.00 4275.95 66.00
2635 17.9040 4381.00 4294.16 66.00
2636 17.9100 4455.00 4323.55 67.00
2637 17.9160 4615.00 4376.57 68.00
2638 17.9220 4736.00 4473.84 69.00
2639 17.9280 4881.00 4637.43 70.00
2640 17.9340 5158.00 4872.68 72.00
2641 17.9400 5633.00 5142.04 75.00
2642 17.9460 5708.00 5343.43 76.00
2643 17.9520 5969.00 5355.73 77.00
2644 17.9580 6169.00 5200.34 79.00
2645 17.9640 6216.00 5022.81 79.00
2646 17.9700 6368.00 4945.11 80.00
2647 17.9760 6478.00 5039.95 80.00
2648 17.9820 6553.00 5336.62 81.00
2649 17.9880 6850.00 5805.12 83.00
2650 17.9940 7434.00 6322.04 86.00
2651 18.0000 7833.00 6663.12 89.00
2652 18.0060 7538.00 6638.26 87.00
2653 18.0120 7098.00 6355.03 84.00
2654 18.0180 6597.00 6136.32 81.00
2655 18.0240 6809.00 6276.98 83.00
2656 18.0300 7555.00 6996.86 87.00
2657 18.0360 9306.00 8391.66 96.00
2658 18.0420 11486.00 10313.00 107.00
2659 18.0480 13065.00 12221.50 114.00
2660 18.0540 13353.00 13236.70 116.00
2661 18.0600 13459.00 13091.30 116.00
2662 18.0660 13667.00 12802.70 117.00
2663 18.0720 14356.00 13407.60 120.00
2664 18.0780 15579.00 15038.70 125.00
2665 18.0840 17119.00 16741.70 131.00
2666 18.0900 17760.00 16834.20 133.00
2667 18.0960 15372.00 14733.00 124.00
2668 18.1020 11478.00 11680.00 107.00
2669 18.1080 8417.00 8917.17 92.00
2670 18.1140 6786.00 6960.38 82.00
2671 18.1200 6032.00 5797.72 78.00
2672 18.1260 5414.00 5183.59 74.00
2673 18.1320 5054.00 4867.99 71.00
2674 18.1380 4843.00 4691.97 70.00
2675 18.1440 4654.00 4578.90 68.00
2676 18.1500 4465.00 4497.27 67.00
2677 18.1560 4560.00 4434.47 68.00
2678 18.1620 4410.00 4384.54 66.00
2679 18.1680 4278.00 4344.04 65.00
2680 18.1740 4411.00 4310.61 66.00
2681 18.1800 4369.00 4282.65 66.00
2682 18.1860 4267.00 4258.97 65.00
2683 18.1920 4265.00 4238.69 65.00
2684 18.1980 4374.00 4221.14 66.00
2685 18.2040 4441.00 4205.80 67.00
2686 18.2100 4386.00 4190.73 66.00
2687 18.2160 4473.00 4178.81 67.00
2688 18.2220 4556.00 4168.15 67.00
2689 18.2280 4532.00 4158.56 67.00
2690 18.2340 4540.00 4149.87 67.00
2691 18.2400 4530.00 4141.95 67.00
2692 18.2460 4507.00 4134.70 67.00
2693 18.2520 4530.00 4128.03 67.00
2694 18.2580 4410.00 4121.36 66.00
2695 18.2640 4280.00 4112.89 65.00
2696 18.2700 4227.00 4107.67 65.00
2697 18.2760 4307.00 4102.79 66.00
2698 18.2820 4161.00 4098.19 65.00
2699 18.2880 4088.00 4093.85 64.00
2700 18.2940 4211.00 4089.74 65.00
2701 18.3000 4259.00 4085.84 65.00
2702 18.3060 4119.00 4082.12 64.00
2703 18.3120 4118.00 4066.26 64.00
2704 18.3180 4098.00 4063.41 64.00
2705 18.3240 4151.00 4060.65 64.00
2706 18.3300 4110.00 4057.98 64.00
2707 18.3360 4243.00 4055.39 65.00
2708 18.3420 4178.00 4052.87 65.00
2709 18.3480 4104.00 4031.37 64.00
2710 18.3540 4032.00 4036.95 63.00
2711 18.3600 4013.00 4035.74 63.00
2712 18.3660 3962.00 4034.56 63.00
2713 18.3720 3981.00 4033.41 63.00
2714 18.3780 4062.00 4031.84 64.00
2715 18.3840 4019.00 4029.44 63.00
2716 18.3900 4051.00 4027.07 64.00
2717 18.3960 4003.00 4024.74 63.00
2718 18.4020 4069.00 4022.45 64.00
2719 18.4080 4203.00 4020.21 65.00
2720 18.4140 4099.00 4018.03 64.00
2721 18.4200 4072.00 4015.92 64.00
2722 18.4260 4065.00 4013.87 64.00
2723 18.4320 3896.00 4011.90 62.00
2724 18.4380 4020.00 4010.03 63.00
2725 18.4440 4142.00 4008.26 64.00
2726 18.4500 4215.00 4006.61 65.00
2727 18.4560 4133.00 4005.09 64.00
2728 18.4620 4023.00 4003.74 63.00
2729 18.4680 4023.00 4002.56 63.00
2730 18.4740 4078.00 4001.61 64.00
2731 18.4800 3941.00 4000.90 63.00
2732 18.4860 4017.00 4000.50 63.00
2733 18.4920 4060.00 4000.46 64.00
2734 18.4980 4103.00 4000.85 64.00
2735 18.5040 4038.00 4001.76 64.00
2736 18.5100 4045.00 4003.32 64.00
2737 18.5160 4029.00 4005.67 63.00
2738 18.5220 4094.00 4009.02 64.00
2739 18.5280 4086.00 4013.63 64.00
2740 18.5340 4139.00 4019.87 64.00
2741 18.5400 4194.00 4028.24 65.00
2742 18.5460 4198.00 4039.46 65.00
2743 18.5520 4180.00 4054.60 65.00
2744 18.5580 4268.00 4075.55 65.00
2745 18.5640 4265.00 4106.35 65.00
2746 18.5700 4322.00 4157.07 66.00
2747 18.5760 4424.00 4252.18 67.00
2748 18.5820 4721.00 4442.74 69.00
2749 18.5880 4987.00 4810.56 71.00
2750 18.5940 5438.00 5442.07 74.00
2751 18.6000 6577.00 6356.59 81.00
2752 18.6060 8236.00 7409.72 91.00
2753 18.6120 9822.00 8208.06 99.00
2754 18.6180 9575.00 8241.15 98.00
2755 18.6240 7640.00 7480.52 87.00
2756 18.6300 6178.00 6424.21 79.00
2757 18.6360 5354.00 5484.92 73.00
2758 18.6420 4813.00 4824.36 69.00
2759 18.6480 4484.00 4432.78 67.00
2760 18.6540 4366.00 4225.91 66.00
2761 18.6600 4309.00 4119.84 66.00
2762 18.6660 4171.00 4061.07 65.00
2763 18.6720 4112.00 4023.46 64.00
2764 18.6780 4140.00 3996.21 64.00
2765 18.6840 4171.00 3974.97 65.00
2766 18.6900 4128.00 3957.78 64.00
2767 18.6960 4051.00 3943.50 64.00
2768 18.7020 4115.00 3931.39 64.00
2769 18.7080 4141.00 3920.94 64.00
2770 18.7140 4128.00 3911.79 64.00
2771 18.7200 4189.00 3903.65 65.00
2772 18.7260 4268.00 3896.32 65.00
2773 18.7320 4193.00 3889.64 65.00
2774 18.7380 4077.00 3883.50 64.00
2775 18.7440 4063.00 3877.79 64.00
2776 18.7500 4113.00 3872.45 64.00
2777 18.7560 4114.00 3867.42 64.00
2778 18.7620 4061.00 3862.64 64.00
2779 18.7680 4003.00 3858.08 63.00
2780 18.7740 3991.00 3853.70 63.00
2781 18.7800 4075.00 3849.49 64.00
2782 18.7860 3974.00 3845.41 63.00
2783 18.7920 3909.00 3841.46 63.00
2784 18.7980 3963.00 3837.61 63.00
2785 18.8040 4025.00 3833.85 63.00
2786 18.8100 3964.00 3830.17 63.00
2787 18.8160 3920.00 3828.00 63.00
2788 18.8220 3976.00 3827.31 63.00
2789 18.8280 3921.00 3826.69 63.00
2790 18.8340 3890.00 3826.11 62.00
2791 18.8400 4003.00 3825.58 63.00
2792 18.8460 3985.00 3825.09 63.00
2793 18.8520 3934.00 3824.63 63.00
2794 18.8580 3984.00 3824.21 63.00
2795 18.8640 4035.00 3823.82 64.00
2796 18.8700 4088.00 3823.46 64.00
2797 18.8760 4043.00 3823.12 64.00
2798 18.8820 4018.00 3815.97 63.00
2799 18.8880 4097.00 3815.97 64.00
2800 18.8940 4121.00 3815.97 64.00
2801 18.9000 4053.00 3815.97 64.00
2802 18.9060 4036.00 3815.97 64.00
2803 18.9120 4050.00 3815.97 64.00
2804 18.9180 3992.00 3815.97 63.00
2805 18.9240 3984.00 3815.97 63.00
2806 18.9300 4036.00 3815.97 64.00
2807 18.9360 3987.00 3815.97 63.00
2808 18.9420 3923.00 3815.97 63.00
2809 18.9480 3964.00 3815.97 63.00
2810 18.9540 3975.00 3815.97 63.00
2811 18.9600 3928.00 3815.97 63.00
2812 18.9660 3946.00 3815.97 63.00
2813 18.9720 3971.00 3815.97 63.00
2814 18.9780 3964.00 3815.97 63.00
2815 18.9840 3932.00 3815.97 63.00
2816 18.9900 3926.00 3815.97 63.00
2817 18.9960 3978.00 3815.97 63.00
2818 19.0020 4009.00 3815.97 63.00
2819 19.0080 3967.00 3815.97 63.00
2820 19.0140 3906.00 3816.14 62.00
2821 19.0200 3862.00 3816.15 62.00
2822 19.0260 3895.00 3816.16 62.00
2823 19.0320 3932.00 3816.17 63.00
2824 19.0380 3944.00 3816.18 63.00
2825 19.0440 3950.00 3816.19 63.00
2826 19.0500 3949.00 3816.93 63.00
2827 19.0560 3904.00 3827.11 62.00
2828 19.0620 3816.00 3827.62 62.00
2829 19.0680 3782.00 3840.78 61.00
2830 19.0740 3887.00 3841.95 62.00
2831 19.0800 3997.00 3843.21 63.00
2832 19.0860 3974.00 3844.56 63.00
2833 19.0920 3938.00 3846.02 63.00
2834 19.0980 3961.00 3847.59 63.00
2835 19.1040 4025.00 3849.29 63.00
2836 19.1100 4090.00 3851.13 64.00
2837 19.1160 4088.00 3853.12 64.00
2838 19.1220 4179.00 3855.29 65.00
2839 19.1280 4131.00 3857.65 64.00
2840 19.1340 4078.00 3860.23 64.00
2841 19.1400 4132.00 3863.06 64.00
2842 19.1460 4121.00 3866.17 64.00
2843 19.1520 4130.00 3869.60 64.00
2844 19.1580 4087.00 3878.60 64.00
2845 19.1640 4100.00 3913.99 64.00
2846 19.1700 4072.00 3949.88 64.00
2847 19.1760 3972.00 3986.32 63.00
2848 19.1820 4038.00 4034.61 64.00
2849 19.1880 4075.00 4072.96 64.00
2850 19.1940 4057.00 4112.25 64.00
2851 19.2000 4095.00 4152.64 64.00
2852 19.2060 4053.00 4194.32 64.00
2853 19.2120 4145.00 4237.61 64.00
2854 19.2180 4222.00 4282.80 65.00
2855 19.2240 4220.00 4349.45 65.00
2856 19.2300 4247.00 4400.82 65.00
2857 19.2360 4277.00 4456.07 65.00
2858 19.2420 4378.00 4516.48 66.00
2859 19.2480 4501.00 4584.11 67.00
2860 19.2540 4604.00 4662.26 68.00
2861 19.2600 4795.00 4755.55 69.00
2862 19.2660 5078.00 4869.84 71.00
2863 19.2720 5304.00 5012.89 73.00
2864 19.2780 5444.00 5199.17 74.00
2865 19.2840 5508.00 5463.09 74.00
2866 19.2900 5736.00 5888.05 76.00
2867 19.2960 6343.00 6637.48 80.00
2868 19.3020 7393.00 7932.02 86.00
2869 19.3080 9347.00 9946.53 97.00
2870 19.3140 13165.00 12634.50 115.00
2871 19.3200 17739.00 15513.40 133.00
2872 19.3260 20387.00 17634.50 143.00
2873 19.3320 20014.00 18154.20 141.00
2874 19.3380 17225.00 16834.50 131.00
2875 19.3440 13121.00 14205.80 115.00
2876 19.3500 9783.00 11353.80 99.00
2877 19.3560 7733.00 9039.67 88.00
2878 19.3620 6529.00 7483.35 81.00
2879 19.3680 5870.00 6581.98 77.00
2880 19.3740 5450.00 6121.43 74.00
2881 19.3800 5192.00 5909.10 72.00
2882 19.3860 5066.00 5822.88 71.00
2883 19.3920 5038.00 5802.82 71.00
2884 19.3980 4970.00 5826.94 70.00
2885 19.4040 5064.00 5858.26 71.00
2886 19.4100 5294.00 5952.09 73.00
2887 19.4160 5506.00 6176.73 74.00
2888 19.4220 5994.00 6638.67 77.00
2889 19.4280 6862.00 7468.23 83.00
2890 19.4340 8263.00 8744.01 91.00
2891 19.4400 10373.00 10370.10 102.00
2892 19.4460 11875.00 11954.80 109.00
2893 19.4520 12180.00 12810.80 110.00
2894 19.4580 11901.00 12543.80 109.00
2895 19.4640 11853.00 11747.90 109.00
2896 19.4700 11895.00 11384.10 109.00
2897 19.4760 12391.00 12053.60 111.00
2898 19.4820 13391.00 13793.80 116.00
2899 19.4880 14855.00 15982.70 122.00
2900 19.4940 16251.00 17342.50 127.00
2901 19.5000 16392.00 16683.30 128.00
2902 19.5060 13967.00 14309.40 118.00
2903 19.5120 10570.00 11472.90 103.00
2904 19.5180 8151.00 9052.81 90.00
2905 19.5240 6707.00 7363.67 82.00
2906 19.5300 5891.00 6347.24 77.00
2907 19.5360 5444.00 5790.96 74.00
2908 19.5420 5189.00 5490.20 72.00
2909 19.5480 5055.00 5313.35 71.00
2910 19.5540 4984.00 5194.19 71.00
2911 19.5600 4970.00 5127.66 70.00
2912 19.5660 5015.00 5056.07 71.00
2913 19.5720 5196.00 4996.37 72.00
2914 19.5780 5304.00 4945.43 73.00
2915 19.5840 5371.00 4901.13 73.00
2916 19.5900 5389.00 4862.04 73.00
2917 19.5960 5319.00 4826.39 73.00
2918 19.6020 5255.00 4785.29 72.00
2919 19.6080 5070.00 4756.82 71.00
2920 19.6140 4936.00 4718.96 70.00
2921 19.6200 4728.00 4695.12 69.00
2922 19.6260 4574.00 4672.89 68.00
2923 19.6320 4492.00 4652.03 67.00
2924 19.6380 4454.00 4637.08 67.00
2925 19.6440 4502.00 4646.56 67.00
2926 19.6500 4466.00 4657.06 67.00
2927 19.6560 4458.00 4668.50 67.00
2928 19.6620 4483.00 4680.84 67.00
2929 19.6680 4547.00 4694.06 67.00
2930 19.6740 4617.00 4708.17 68.00
2931 19.6800 4561.00 4723.18 68.00
2932 19.6860 4467.00 4747.02 67.00
2933 19.6920 4515.00 4764.32 67.00
2934 19.6980 4544.00 4782.75 67.00
2935 19.7040 4535.00 4802.43 67.00
2936 19.7100 4500.00 4823.53 67.00
2937 19.7160 4537.00 4846.27 67.00
2938 19.7220 4695.00 4870.91 69.00
2939 19.7280 4549.00 4887.06 67.00
2940 19.7340 4644.00 4917.16 68.00
2941 19.7400 4723.00 4950.59 69.00
2942 19.7460 4584.00 4979.97 68.00
2943 19.7520 4717.00 5012.94 69.00
2944 19.7580 4828.00 5052.63 69.00
2945 19.7640 4882.00 5101.14 70.00
2946 19.7700 5032.00 5161.59 71.00
2947 19.7760 5208.00 5221.28 72.00
2948 19.7820 5529.00 5327.62 74.00
2949 19.7880 5770.00 5487.22 76.00
2950 19.7940 6422.00 5760.54 80.00
2951 19.8000 6973.00 6274.80 84.00
2952 19.8060 7874.00 7247.12 89.00
2953 19.8120 9707.00 8945.25 99.00
2954 19.8180 12176.00 11538.20 110.00
2955 19.8240 15978.00 14853.20 126.00
2956 19.8300 20005.00 18124.00 141.00
2957 19.8360 20995.00 19898.70 145.00
2958 19.8420 18968.00 19004.40 138.00
2959 19.8480 15866.00 16078.20 126.00
2960 19.8540 12876.00 12667.20 113.00
2961 19.8600 10570.00 9794.72 103.00
2962 19.8660 9276.00 7810.74 96.00
2963 19.8720 8326.00 6633.62 91.00
2964 19.8780 7646.00 6007.79 87.00
2965 19.8840 7043.00 5689.84 84.00
2966 19.8900 6690.00 5522.86 82.00
2967 19.8960 6400.00 5427.97 80.00
2968 19.9020 6161.00 5372.11 78.00
2969 19.9080 6034.00 5343.59 78.00
2970 19.9140 5976.00 5341.74 77.00
2971 19.9200 5921.00 5377.10 77.00
2972 19.9260 6041.00 5479.12 78.00
2973 19.9320 6376.00 5705.61 80.00
2974 19.9380 6792.00 6141.26 82.00
2975 19.9440 7546.00 6864.27 87.00
2976 19.9500 9060.00 7877.12 95.00
2977 19.9560 10977.00 9020.62 105.00
2978 19.9620 11750.00 9904.74 108.00
2979 19.9680 11240.00 10021.40 106.00
2980 19.9740 9959.00 9282.54 100.00
2981 19.9800 8270.00 8146.13 91.00
2982 19.9860 6981.00 7060.38 84.00
2983 19.9920 6175.00 6239.84 79.00
2984 19.9980 5830.00 5715.80 76.00
2985 20.0040 5427.00 5420.63 74.00
2986 20.0100 5221.00 5265.61 72.00
2987 20.0160 5078.00 5183.08 71.00
2988 20.0220 5026.00 5134.72 71.00
2989 20.0280 4884.00 5102.70 70.00
2990 20.0340 4957.00 5079.55 70.00
2991 20.0400 4887.00 5062.05 70.00
2992 20.0460 4827.00 5048.56 69.00
2993 20.0520 4842.00 5016.21 70.00
2994 20.0580 4772.00 4975.22 69.00
2995 20.0640 4611.00 4937.53 68.00
2996 20.0700 4675.00 4899.88 68.00
2997 20.0760 4783.00 4863.40 69.00
2998 20.0820 4522.00 4827.89 67.00
2999 20.0880 4476.00 4793.19 67.00
3000 20.0940 4495.00 4759.14 67.00
3001 20.1000 4555.00 4725.66 67.00
3002 20.1060 4574.00 4692.66 68.00
3003 20.1120 4553.00 4660.08 67.00
3004 20.1180 4390.00 4604.92 66.00
3005 20.1240 4439.00 4573.94 67.00
3006 20.1300 4442.00 4543.20 67.00
3007 20.1360 4429.00 4512.63 67.00
3008 20.1420 4370.00 4482.24 66.00
3009 20.1480 4396.00 4452.00 66.00
3010 20.1540 4432.00 4421.91 67.00
3011 20.1600 4361.00 4410.20 66.00
3012 20.1660 4468.00 4407.75 67.00
3013 20.1720 4452.00 4405.40 67.00
3014 20.1780 4393.00 4403.17 66.00
3015 20.1840 4336.00 4401.04 66.00
3016 20.1900 4567.00 4399.03 68.00
3017 20.1960 4356.00 4397.13 66.00
3018 20.2020 4506.00 4395.35 67.00
3019 20.2080 4402.00 4393.71 66.00
3020 20.2140 4432.00 4392.23 67.00
3021 20.2200 4493.00 4390.96 67.00
3022 20.2260 4533.00 4390.00 67.00
3023 20.2320 4378.00 4389.59 66.00
3024 20.2380 4285.00 4390.19 65.00
3025 20.2440 4298.00 4392.53 66.00
3026 20.2500 4449.00 4389.85 67.00
3027 20.2560 4339.00 4398.28 66.00
3028 20.2620 4251.00 4409.26 65.00
3029 20.2680 4267.00 4420.34 65.00
3030 20.2740 4298.00 4427.05 66.00
3031 20.2800 4432.00 4425.96 67.00
3032 20.2860 4385.00 4419.43 66.00
3033 20.2920 4207.00 4414.96 65.00
3034 20.2980 4293.00 4413.79 66.00
3035 20.3040 4401.00 4422.90 66.00
3036 20.3100 4348.00 4450.10 66.00
3037 20.3160 4295.00 4507.82 66.00
3038 20.3220 4445.00 4611.02 67.00
3039 20.3280 4555.00 4768.53 67.00
3040 20.3340 5032.00 4969.38 71.00
3041 20.3400 5365.00 5168.12 73.00
3042 20.3460 5379.00 5279.87 73.00
3043 20.3520 5343.00 5232.60 73.00
3044 20.3580 4940.00 5057.49 70.00
3045 20.3640 4806.00 4845.76 69.00
3046 20.3700 4366.00 4661.68 66.00
3047 20.3760 4318.00 4530.01 66.00
3048 20.3820 4191.00 4448.56 65.00
3049 20.3880 4251.00 4402.99 65.00
3050 20.3940 4149.00 4378.28 64.00
3051 20.4000 4265.00 4364.07 65.00
3052 20.4060 4177.00 4354.80 65.00
3053 20.4120 4189.00 4357.94 65.00
3054 20.4180 4250.00 4352.95 65.00
3055 20.4240 4171.00 4348.94 65.00
3056 20.4300 4410.00 4345.64 66.00
3057 20.4360 4231.00 4342.93 65.00
3058 20.4420 4268.00 4359.96 65.00
3059 20.4480 4347.00 4359.00 66.00
3060 20.4540 4271.00 4358.48 65.00
3061 20.4600 4259.00 4358.39 65.00
3062 20.4660 4279.00 4358.75 65.00
3063 20.4720 4321.00 4362.74 66.00
3064 20.4780 4366.00 4367.23 66.00
3065 20.4840 4245.00 4372.30 65.00
3066 20.4900 4283.00 4378.05 65.00
3067 20.4960 4211.00 4384.60 65.00
3068 20.5020 4335.00 4392.14 66.00
3069 20.5080 4469.00 4400.95 67.00
3070 20.5140 4441.00 4411.51 67.00
3071 20.5200 4575.00 4424.81 68.00
3072 20.5260 4570.00 4443.10 68.00
3073 20.5320 4743.00 4471.59 69.00
3074 20.5380 4911.00 4520.65 70.00
3075 20.5440 4724.00 4607.14 69.00
3076 20.5500 4805.00 4750.93 69.00
3077 20.5560 5071.00 4963.87 71.00
3078 20.5620 5111.00 5232.39 71.00
3079 20.5680 5517.00 5500.28 74.00
3080 20.5740 5777.00 5661.28 76.00
3081 20.5800 5591.00 5622.76 75.00
3082 20.5860 5141.00 5419.39 72.00
3083 20.5920 4826.00 5165.97 69.00
3084 20.5980 4722.00 4946.60 69.00
3085 20.6040 4699.00 4795.77 69.00
3086 20.6100 4461.00 4713.34 67.00
3087 20.6160 4519.00 4682.78 67.00
3088 20.6220 4619.00 4686.08 68.00
3089 20.6280 4662.00 4711.36 68.00
3090 20.6340 4773.00 4752.67 69.00
3091 20.6400 4705.00 4815.24 69.00
3092 20.6460 4756.00 4908.98 69.00
3093 20.6520 4959.00 5061.38 70.00
3094 20.6580 5266.00 5327.66 73.00
3095 20.6640 5614.00 5797.51 75.00
3096 20.6700 6445.00 6580.72 80.00
3097 20.6760 7779.00 7756.89 88.00
3098 20.6820 9989.00 9305.34 100.00
3099 20.6880 12113.00 11034.40 110.00
3100 20.6940 13389.00 12566.60 116.00
3101 20.7000 14060.00 13617.50 119.00
3102 20.7060 14580.00 14478.00 121.00
3103 20.7120 15518.00 15634.30 125.00
3104 20.7180 17339.00 17024.40 132.00
3105 20.7240 18921.00 17837.00 138.00
3106 20.7300 18167.00 17066.00 135.00
3107 20.7360 14484.00 14765.50 120.00
3108 20.7420 11018.00 11931.60 105.00
3109 20.7480 8400.00 9394.38 92.00
3110 20.7540 7169.00 7515.53 85.00
3111 20.7600 6299.00 6313.29 79.00
3112 20.7660 5970.00 5623.76 77.00
3113 20.7720 5496.00 5249.56 74.00
3114 20.7780 5126.00 5041.73 72.00
3115 20.7840 5108.00 4914.81 71.00
3116 20.7900 4914.00 4827.89 70.00
3117 20.7960 4779.00 4763.12 69.00
3118 20.8020 4746.00 4712.55 69.00
3119 20.8080 4747.00 4673.17 69.00
3120 20.8140 4625.00 4640.41 68.00
3121 20.8200 4569.00 4613.54 68.00
3122 20.8260 4548.00 4591.33 67.00
3123 20.8320 4610.00 4572.86 68.00
3124 20.8380 4553.00 4560.05 67.00
3125 20.8440 4479.00 4548.33 67.00
3126 20.8500 4413.00 4537.65 66.00
3127 20.8560 4419.00 4528.75 66.00
3128 20.8620 4406.00 4521.40 66.00
3129 20.8680 4435.00 4515.49 67.00
3130 20.8740 4449.00 4512.69 67.00
3131 20.8800 4311.00 4511.04 66.00
3132 20.8860 4424.00 4510.51 67.00
3133 20.8920 4432.00 4511.09 67.00
3134 20.8980 4507.00 4512.88 67.00
3135 20.9040 4545.00 4516.07 67.00
3136 20.9100 4640.00 4521.11 68.00
3137 20.9160 4741.00 4529.14 69.00
3138 20.9220 4698.00 4542.83 69.00
3139 20.9280 4706.00 4567.95 69.00
3140 20.9340 4757.00 4614.34 69.00
3141 20.9400 4784.00 4695.73 69.00
3142 20.9460 4877.00 4823.88 70.00
3143 20.9520 5159.00 4998.46 72.00
3144 20.9580 5487.00 5194.63 74.00
3145 20.9640 5665.00 5353.06 75.00
3146 20.9700 5552.00 5393.78 75.00
3147 20.9760 5179.00 5291.77 72.00
3148 20.9820 5029.00 5110.75 71.00
3149 20.9880 4937.00 4916.56 70.00
3150 20.9940 4637.00 4769.89 68.00
3151 21.0000 4677.00 4672.17 68.00
3152 21.0060 4705.00 4616.43 69.00
3153 21.0120 4591.00 4588.97 68.00
3154 21.0180 4546.00 4559.38 67.00
3155 21.0240 4596.00 4557.38 68.00
3156 21.0300 4607.00 4560.12 68.00
3157 21.0360 4549.00 4566.22 67.00
3158 21.0420 4607.00 4575.77 68.00
3159 21.0480 4600.00 4590.19 68.00
3160 21.0540 4640.00 4613.08 68.00
3161 21.0600 4723.00 4649.71 69.00
3162 21.0660 4882.00 4711.10 70.00
3163 21.0720 4982.00 4809.23 71.00
3164 21.0780 5211.00 4950.33 72.00
3165 21.0840 5537.00 5129.18 74.00
3166 21.0900 5944.00 5323.69 77.00
3167 21.0960 6048.00 5499.40 78.00
3168 21.1020 6086.00 5650.32 78.00
3169 21.1080 6131.00 5838.08 78.00
3170 21.1140 6112.00 6128.53 78.00
3171 21.1200 6169.00 6510.71 79.00
3172 21.1260 6108.00 6864.11 78.00
3173 21.1320 5918.00 6991.47 77.00
3174 21.1380 5836.00 6782.68 76.00
3175 21.1440 5647.00 6331.19 75.00
3176 21.1500 5426.00 5817.90 74.00
3177 21.1560 5196.00 5375.11 72.00
3178 21.1620 5018.00 5055.17 71.00
3179 21.1680 4989.00 4855.76 71.00
3180 21.1740 4915.00 4741.16 70.00
3181 21.1800 4853.00 4682.30 70.00
3182 21.1860 4914.00 4651.16 70.00
3183 21.1920 4982.00 4636.71 71.00
3184 21.1980 5045.00 4633.67 71.00
3185 21.2040 5029.00 4637.49 71.00
3186 21.2100 5009.00 4645.36 71.00
3187 21.2160 4968.00 4651.72 70.00
3188 21.2220 4911.00 4649.80 70.00
3189 21.2280 4812.00 4637.45 69.00
3190 21.2340 4798.00 4619.59 69.00
3191 21.2400 4794.00 4602.06 69.00
3192 21.2460 4634.00 4588.05 68.00
3193 21.2520 4626.00 4578.42 68.00
3194 21.2580 4655.00 4572.54 68.00
3195 21.2640 4655.00 4567.96 68.00
3196 21.2700 4738.00 4566.34 69.00
3197 21.2760 4798.00 4565.63 69.00
3198 21.2820 4816.00 4572.86 69.00
3199 21.2880 4764.00 4573.38 69.00
3200 21.2940 4750.00 4574.23 69.00
3201 21.3000 4788.00 4575.36 69.00
3202 21.3060 4782.00 4576.76 69.00
3203 21.3120 4807.00 4578.44 69.00
3204 21.3180 4744.00 4580.39 69.00
3205 21.3240 4617.00 4582.63 68.00
3206 21.3300 4625.00 4585.17 68.00
3207 21.3360 4524.00 4588.05 67.00
3208 21.3420 4528.00 4591.31 67.00
3209 21.3480 4514.00 4595.00 67.00
3210 21.3540 4582.00 4599.20 68.00
3211 21.3600 4601.00 4603.97 68.00
3212 21.3660 4662.00 4609.46 68.00
3213 21.3720 4645.00 4615.80 68.00
3214 21.3780 4544.00 4627.03 67.00
3215 21.3840 4553.00 4641.51 67.00
3216 21.3900 4666.00 4657.68 68.00
3217 21.3960 4686.00 4675.16 68.00
3218 21.4020 4581.00 4696.94 68.00
3219 21.4080 4668.00 4724.01 68.00
3220 21.4140 4681.00 4760.83 68.00
3221 21.4200 4753.00 4817.07 69.00
3222 21.4260 4960.00 4908.64 70.00
3223 21.4320 5034.00 5069.12 71.00
3224 21.4380 5181.00 5334.62 72.00
3225 21.4440 5545.00 5732.42 74.00
3226 21.4500 6231.00 6257.26 79.00
3227 21.4560 7058.00 6838.83 84.00
3228 21.4620 7809.00 7325.37 88.00
3229 21.4680 7841.00 7548.05 89.00
3230 21.4740 7274.00 7445.71 85.00
3231 21.4800 6833.00 7093.84 83.00
3232 21.4860 6191.00 6643.91 79.00
3233 21.4920 6006.00 6205.93 77.00
3234 21.4980 5594.00 5823.47 75.00
3235 21.5040 5706.00 5521.14 76.00
3236 21.5100 5711.00 5316.44 76.00
3237 21.5160 5697.00 5185.88 75.00
3238 21.5220 5570.00 5121.37 75.00
3239 21.5280 5863.00 5111.63 77.00
3240 21.5340 5914.00 5157.87 77.00
3241 21.5400 6160.00 5281.96 78.00
3242 21.5460 6139.00 5531.89 78.00
3243 21.5520 6450.00 5974.94 80.00
3244 21.5580 6816.00 6666.63 83.00
3245 21.5640 7361.00 7597.63 86.00
3246 21.5700 7880.00 8635.37 89.00
3247 21.5760 8489.00 9473.47 92.00
3248 21.5820 9285.00 9703.33 96.00
3249 21.5880 9443.00 9181.75 97.00
3250 21.5940 9299.00 8217.98 96.00
3251 21.6000 8571.00 7204.10 93.00
3252 21.6060 7408.00 6369.92 86.00
3253 21.6120 6554.00 5789.27 81.00
3254 21.6180 5871.00 5435.31 77.00
3255 21.6240 5522.00 5240.05 74.00
3256 21.6300 5442.00 5137.59 74.00
3257 21.6360 5248.00 5082.90 72.00
3258 21.6420 5224.00 5051.51 72.00
3259 21.6480 5069.00 5032.00 71.00
3260 21.6540 5038.00 5019.39 71.00
3261 21.6600 4995.00 5011.39 71.00
3262 21.6660 4840.00 5006.84 70.00
3263 21.6720 5093.00 5005.01 71.00
3264 21.6780 4969.00 5005.42 70.00
3265 21.6840 4923.00 5007.75 70.00
3266 21.6900 5024.00 5011.79 71.00
3267 21.6960 4835.00 5017.75 70.00
3268 21.7020 4825.00 5025.60 69.00
3269 21.7080 4811.00 5035.06 69.00
3270 21.7140 4776.00 5046.25 69.00
3271 21.7200 4879.00 5059.39 70.00
3272 21.7260 4753.00 5074.82 69.00
3273 21.7320 4789.00 5093.06 69.00
3274 21.7380 4729.00 5114.91 69.00
3275 21.7440 4886.00 5141.73 70.00
3276 21.7500 4994.00 5176.33 71.00
3277 21.7560 4963.00 5224.98 70.00
3278 21.7620 5040.00 5299.65 71.00
3279 21.7680 4977.00 5433.91 71.00
3280 21.7740 5268.00 5673.15 73.00
3281 21.7800 5668.00 6102.55 75.00
3282 21.7860 6102.00 6749.64 78.00
3283 21.7920 6848.00 7631.44 83.00
3284 21.7980 8150.00 8641.92 90.00
3285 21.8040 9471.00 9514.71 97.00
3286 21.8100 9472.00 9859.80 97.00
3287 21.8160 8713.00 9471.49 93.00
3288 21.8220 7590.00 8587.65 87.00
3289 21.8280 6638.00 7595.45 81.00
3290 21.8340 5912.00 6745.55 77.00
3291 21.8400 5532.00 6134.11 74.00
3292 21.8460 5328.00 5750.98 73.00
3293 21.8520 5190.00 5535.58 72.00
3294 21.8580 5143.00 5422.08 72.00
3295 21.8640 5083.00 5374.20 71.00
3296 21.8700 5038.00 5341.84 71.00
3297 21.8760 5028.00 5322.75 71.00
3298 21.8820 5025.00 5303.81 71.00
3299 21.8880 5128.00 5297.23 72.00
3300 21.8940 5285.00 5294.12 73.00
3301 21.9000 5480.00 5293.69 74.00
3302 21.9060 5477.00 5295.42 74.00
3303 21.9120 5670.00 5298.96 75.00
3304 21.9180 5811.00 5304.04 76.00
3305 21.9240 5895.00 5310.50 77.00
3306 21.9300 5980.00 5318.22 77.00
3307 21.9360 6002.00 5327.15 77.00
3308 21.9420 5882.00 5354.80 77.00
3309 21.9480 5952.00 5377.95 77.00
3310 21.9540 5946.00 5391.78 77.00
3311 21.9600 5762.00 5407.09 76.00
3312 21.9660 5522.00 5424.05 74.00
3313 21.9720 5332.00 5442.90 73.00
3314 21.9780 5296.00 5475.12 73.00
3315 21.9840 5390.00 5499.25 73.00
3316 21.9900 5268.00 5526.59 73.00
3317 21.9960 5303.00 5557.90 73.00
3318 22.0020 5354.00 5591.73 73.00
3319 22.0080 5453.00 5627.12 74.00
3320 22.0140 5507.00 5671.30 74.00
3321 22.0200 5740.00 5728.62 76.00
3322 22.0260 6137.00 5808.41 78.00
3323 22.0320 6610.00 5931.79 81.00
3324 22.0380 7287.00 6143.22 85.00
3325 22.0440 8140.00 6523.83 90.00
3326 22.0500 9251.00 7192.90 96.00
3327 22.0560 10465.00 8279.09 102.00
3328 22.0620 11238.00 9840.67 106.00
3329 22.0680 11343.00 11770.20 107.00
3330 22.0740 11001.00 13687.80 105.00
3331 22.0800 10544.00 14910.20 103.00
3332 22.0860 10232.00 14784.40 101.00
3333 22.0920 9827.00 13406.70 99.00
3334 22.0980 9318.00 11497.10 97.00
3335 22.1040 8933.00 9688.75 95.00
3336 22.1100 8802.00 8303.09 94.00
3337 22.1160 8633.00 7412.01 93.00
3338 22.1220 8879.00 6975.69 94.00
3339 22.1280 8945.00 6911.41 95.00
3340 22.1340 9281.00 7193.10 96.00
3341 22.1400 9763.00 7852.54 99.00
3342 22.1460 10309.00 8927.16 102.00
3343 22.1520 10633.00 10367.70 103.00
3344 22.1580 10886.00 11948.20 104.00
3345 22.1640 11060.00 13198.90 105.00
3346 22.1700 11275.00 13529.90 106.00
3347 22.1760 11568.00 12765.30 108.00
3348 22.1820 11479.00 11373.90 107.00
3349 22.1880 11076.00 9939.45 105.00
3350 22.1940 10912.00 8833.22 104.00
3351 22.2000 10945.00 8236.21 105.00
3352 22.2060 11265.00 8239.66 106.00
3353 22.2120 11929.00 8940.71 109.00
3354 22.2180 12791.00 10478.90 113.00
3355 22.2240 14023.00 12965.30 118.00
3356 22.2300 16109.00 16323.80 127.00
3357 22.2360 19265.00 20100.40 139.00
3358 22.2420 22678.00 23325.40 151.00
3359 22.2480 25220.00 24820.10 159.00
3360 22.2540 26328.00 24122.80 162.00
3361 22.2600 24901.00 22006.80 158.00
3362 22.2660 21896.00 19684.60 148.00
3363 22.2720 19149.00 17898.80 138.00
3364 22.2780 17038.00 16634.30 131.00
3365 22.2840 15344.00 15361.90 124.00
3366 22.2900 13600.00 13693.30 117.00
3367 22.2960 11685.00 11784.70 108.00
3368 22.3020 10115.00 9992.39 101.00
3369 22.3080 9189.00 8546.98 96.00
3370 22.3140 8655.00 7519.22 93.00
3371 22.3200 8166.00 6867.12 90.00
3372 22.3260 7665.00 6497.98 88.00
3373 22.3320 7285.00 6319.83 85.00
3374 22.3380 7085.00 6265.20 84.00
3375 22.3440 6916.00 6287.62 83.00
3376 22.3500 6766.00 6345.91 82.00
3377 22.3560 6613.00 6389.71 81.00
3378 22.3620 6466.00 6364.43 80.00
3379 22.3680 6423.00 6253.52 80.00
3380 22.3740 6352.00 6094.60 80.00
3381 22.3800 6280.00 5934.36 79.00
3382 22.3860 6205.00 5800.36 79.00
3383 22.3920 6089.00 5688.52 78.00
3384 22.3980 5963.00 5622.93 77.00
3385 22.4040 5933.00 5581.18 77.00
3386 22.4100 6083.00 5554.61 78.00
3387 22.4160 6026.00 5537.03 78.00
3388 22.4220 5886.00 5524.85 77.00
3389 22.4280 5839.00 5516.29 76.00
3390 22.4340 5686.00 5510.56 75.00
3391 22.4400 5521.00 5507.36 74.00
3392 22.4460 5412.00 5506.61 74.00
3393 22.4520 5271.00 5508.38 73.00
3394 22.4580 5245.00 5512.87 72.00
3395 22.4640 5299.00 5517.49 73.00
3396 22.4700 5298.00 5519.85 73.00
3397 22.4760 5236.00 5515.23 72.00
3398 22.4820 5306.00 5527.88 73.00
3399 22.4880 5359.00 5548.03 73.00
3400 22.4940 5313.00 5579.68 73.00
3401 22.5000 5537.00 5631.72 74.00
3402 22.5060 5752.00 5723.72 76.00
3403 22.5120 5844.00 5895.35 76.00
3404 22.5180 6087.00 6215.35 78.00
3405 22.5240 6606.00 6778.44 81.00
3406 22.5300 7545.00 7676.18 87.00
3407 22.5360 8963.00 8937.62 95.00
3408 22.5420 11180.00 10449.70 106.00
3409 22.5480 13455.00 11892.30 116.00
3410 22.5540 14494.00 12710.80 120.00
3411 22.5600 13395.00 12475.20 116.00
3412 22.5660 11065.00 11329.20 105.00
3413 22.5720 8898.00 9822.44 94.00
3414 22.5780 7694.00 8420.62 88.00
3415 22.5840 7025.00 7349.43 84.00
3416 22.5900 6673.00 6643.70 82.00
3417 22.5960 6438.00 6222.94 80.00
3418 22.6020 6252.00 5974.00 79.00
3419 22.6080 6135.00 5795.63 78.00
3420 22.6140 5812.00 5649.90 76.00
3421 22.6200 5598.00 5529.10 75.00
3422 22.6260 5458.00 5430.74 74.00
3423 22.6320 5307.00 5350.89 73.00
3424 22.6380 5147.00 5286.32 72.00
3425 22.6440 5205.00 5235.28 72.00
3426 22.6500 5171.00 5196.11 72.00
3427 22.6560 5070.00 5171.29 71.00
3428 22.6620 5039.00 5154.17 71.00
3429 22.6680 5078.00 5150.01 71.00
3430 22.6740 5033.00 5160.82 71.00
3431 22.6800 4980.00 5193.14 71.00
3432 22.6860 5119.00 5246.83 72.00
3433 22.6920 5269.00 5308.46 73.00
3434 22.6980 5412.00 5359.50 74.00
3435 22.7040 5342.00 5374.71 73.00
3436 22.7100 5429.00 5342.12 74.00
3437 22.7160 5717.00 5277.42 76.00
3438 22.7220 5966.00 5205.44 77.00
3439 22.7280 5928.00 5142.73 77.00
3440 22.7340 5864.00 5096.13 77.00
3441 22.7400 5933.00 5065.58 77.00
3442 22.7460 5969.00 5047.47 77.00
3443 22.7520 5886.00 5037.54 77.00
3444 22.7580 5728.00 5032.48 76.00
3445 22.7640 5451.00 5030.35 74.00
3446 22.7700 5243.00 5030.22 72.00
3447 22.7760 5007.00 5031.85 71.00
3448 22.7820 4915.00 5035.41 70.00
3449 22.7880 4909.00 5041.58 70.00
3450 22.7940 4881.00 5051.94 70.00
3451 22.8000 4981.00 5069.90 71.00
3452 22.8060 4923.00 5102.01 70.00
3453 22.8120 5099.00 5158.77 71.00
3454 22.8180 5224.00 5253.44 72.00
3455 22.8240 5361.00 5397.25 73.00
3456 22.8300 5784.00 5591.60 76.00
3457 22.8360 6182.00 5819.25 79.00
3458 22.8420 6803.00 6038.12 82.00
3459 22.8480 6928.00 6189.25 83.00
3460 22.8540 6842.00 6247.81 83.00
3461 22.8600 6710.00 6268.58 82.00
3462 22.8660 6450.00 6333.06 80.00
3463 22.8720 6318.00 6467.44 79.00
3464 22.8780 6443.00 6663.13 80.00
3465 22.8840 6558.00 6800.73 81.00
3466 22.8900 6820.00 6770.98 83.00
3467 22.8960 6592.00 6549.74 81.00
3468 22.9020 6220.00 6219.08 79.00
3469 22.9080 5960.00 5884.33 77.00
3470 22.9140 5791.00 5614.17 76.00
3471 22.9200 5722.00 5440.20 76.00
3472 22.9260 5654.00 5370.76 75.00
3473 22.9320 5763.00 5409.76 76.00
3474 22.9380 5703.00 5565.41 76.00
3475 22.9440 5734.00 5845.09 76.00
3476 22.9500 6005.00 6238.11 77.00
3477 22.9560 6291.00 6688.58 79.00
3478 22.9620 6843.00 7081.64 83.00
3479 22.9680 6971.00 7250.84 83.00
3480 22.9740 7114.00 7096.51 84.00
3481 22.9800 7127.00 6701.92 84.00
3482 22.9860 6669.00 6232.58 82.00
3483 22.9920 6226.00 5808.97 79.00
3484 22.9980 5874.00 5485.94 77.00
3485 23.0040 5423.00 5269.28 74.00
3486 23.0100 5296.00 5137.88 73.00
3487 23.0160 5141.00 5062.73 72.00
3488 23.0220 5036.00 5019.29 71.00
3489 23.0280 4955.00 4993.09 70.00
3490 23.0340 4818.00 4975.42 69.00
3491 23.0400 4788.00 4962.36 69.00
3492 23.0460 4884.00 4952.16 70.00
3493 23.0520 4877.00 4943.98 70.00
3494 23.0580 4763.00 4937.35 69.00
3495 23.0640 4734.00 4926.47 69.00
3496 23.0700 4848.00 4913.92 70.00
3497 23.0760 4976.00 4902.36 71.00
3498 23.0820 4817.00 4891.73 69.00
3499 23.0880 4908.00 4882.00 70.00
3500 23.0940 4889.00 4873.23 70.00
3501 23.1000 4933.00 4865.47 70.00
3502 23.1060 4948.00 4858.88 70.00
3503 23.1120 4922.00 4853.68 70.00
3504 23.1180 4968.00 4850.24 70.00
3505 23.1240 4945.00 4849.24 70.00
3506 23.1300 4894.00 4852.08 70.00
3507 23.1360 5052.00 4861.85 71.00
3508 23.1420 5063.00 4885.20 71.00
3509 23.1480 5196.00 4934.81 72.00
3510 23.1540 5439.00 5031.21 74.00
3511 23.1600 5734.00 5200.66 76.00
3512 23.1660 6316.00 5464.17 79.00
3513 23.1720 6510.00 5826.07 81.00
3514 23.1780 6425.00 6246.72 80.00
3515 23.1840 6299.00 6630.84 79.00
3516 23.1900 6433.00 6829.99 80.00
3517 23.1960 6205.00 6733.63 79.00
3518 23.2020 6044.00 6391.10 78.00
3519 23.2080 5838.00 5954.77 76.00
3520 23.2140 5767.00 5548.70 76.00
3521 23.2200 5688.00 5235.58 75.00
3522 23.2260 5607.00 5033.02 75.00
3523 23.2320 5550.00 4931.94 74.00
3524 23.2380 5432.00 4912.65 74.00
3525 23.2440 5472.00 4953.73 74.00
3526 23.2500 5628.00 5031.95 75.00
3527 23.2560 5521.00 5116.83 74.00
3528 23.2620 5363.00 5166.77 73.00
3529 23.2680 5564.00 5144.11 75.00
3530 23.2740 5334.00 5050.14 73.00
3531 23.2800 5238.00 4921.76 72.00
3532 23.2860 5057.00 4791.42 71.00
3533 23.2920 4897.00 4685.77 70.00
3534 23.2980 4592.00 4607.47 68.00
3535 23.3040 4649.00 4553.59 68.00
3536 23.3100 4546.00 4517.32 67.00
3537 23.3160 4648.00 4492.02 68.00
3538 23.3220 4595.00 4472.80 68.00
3539 23.3280 4566.00 4456.48 68.00
3540 23.3340 4599.00 4441.82 68.00
3541 23.3400 4553.00 4428.15 67.00
3542 23.3460 4505.00 4415.15 67.00
3543 23.3520 4568.00 4402.65 68.00
3544 23.3580 4508.00 4390.52 67.00
3545 23.3640 4524.00 4378.70 67.00
3546 23.3700 4464.00 4367.12 67.00
3547 23.3760 4438.00 4355.76 67.00
3548 23.3820 4534.00 4344.57 67.00
3549 23.3880 4471.00 4333.52 67.00
3550 23.3940 4642.00 4322.60 68.00
3551 23.4000 4626.00 4311.78 68.00
3552 23.4060 4481.00 4302.71 67.00
3553 23.4120 4535.00 4302.04 67.00
3554 23.4180 4536.00 4301.43 67.00
3555 23.4240 4660.00 4300.88 68.00
3556 23.4300 4652.00 4300.39 68.00
3557 23.4360 4619.00 4299.95 68.00
3558 23.4420 4885.00 4299.56 70.00
3559 23.4480 4754.00 4299.20 69.00
3560 23.4540 4775.00 4298.89 69.00
3561 23.4600 4889.00 4298.60 70.00
3562 23.4660 4961.00 4298.36 70.00
3563 23.4720 5033.00 4298.14 71.00
3564 23.4780 4957.00 4297.95 70.00
3565 23.4840 4907.00 4297.80 70.00
3566 23.4900 4953.00 4297.67 70.00
3567 23.4960 4802.00 4297.58 69.00
3568 23.5020 4781.00 4297.51 69.00
3569 23.5080 4831.00 4297.48 70.00
3570 23.5140 4628.00 4294.37 68.00
3571 23.5200 4589.00 4294.53 68.00
3572 23.5260 4620.00 4294.73 68.00
3573 23.5320 4445.00 4294.98 67.00
3574 23.5380 4471.00 4295.28 67.00
3575 23.5440 4397.00 4295.65 66.00
3576 23.5500 4544.00 4296.10 67.00
3577 23.5560 4436.00 4296.67 67.00
3578 23.5620 4622.00 4297.37 68.00
3579 23.5680 4680.00 4298.27 68.00
3580 23.5740 4649.00 4299.47 68.00
3581 23.5800 4569.00 4301.20 68.00
3582 23.5860 4635.00 4303.08 68.00
3583 23.5920 4556.00 4307.74 67.00
3584 23.5980 4682.00 4315.87 68.00
3585 23.6040 4482.00 4332.40 67.00
3586 23.6100 4551.00 4354.48 67.00
3587 23.6160 4504.00 4386.26 67.00
3588 23.6220 4684.00 4426.77 68.00
3589 23.6280 4654.00 4476.67 68.00
3590 23.6340 4725.00 4516.36 69.00
3591 23.6400 4782.00 4533.43 69.00
3592 23.6460 4675.00 4523.23 68.00
3593 23.6520 4743.00 4489.97 69.00
3594 23.6580 4582.00 4446.69 68.00
3595 23.6640 4493.00 4405.34 67.00
3596 23.6700 4584.00 4372.30 68.00
3597 23.6760 4562.00 4349.23 68.00
3598 23.6820 4515.00 4334.87 67.00
3599 23.6880 4457.00 4326.76 67.00
3600 23.6940 4537.00 4322.54 67.00
3601 23.7000 4560.00 4320.49 68.00
3602 23.7060 4696.00 4330.31 69.00
3603 23.7120 4715.00 4330.49 69.00
3604 23.7180 4565.00 4331.09 68.00
3605 23.7240 4554.00 4332.01 67.00
3606 23.7300 4645.00 4333.21 68.00
3607 23.7360 4646.00 4343.45 68.00
3608 23.7420 4516.00 4345.49 67.00
3609 23.7480 4545.00 4347.79 67.00
3610 23.7540 4383.00 4350.36 66.00
3611 23.7600 4509.00 4353.23 67.00
3612 23.7660 4507.00 4356.40 67.00
3613 23.7720 4408.00 4359.92 66.00
3614 23.7780 4363.00 4363.82 66.00
3615 23.7840 4400.00 4368.13 66.00
3616 23.7900 4392.00 4372.92 66.00
3617 23.7960 4440.00 4378.25 67.00
3618 23.8020 4541.00 4384.20 67.00
3619 23.8080 4535.00 4390.85 67.00
3620 23.8140 4499.00 4398.32 67.00
3621 23.8200 4438.00 4406.77 67.00
3622 23.8260 4582.00 4416.35 68.00
3623 23.8320 4601.00 4427.30 68.00
3624 23.8380 4481.00 4439.89 67.00
3625 23.8440 4607.00 4454.49 68.00
3626 23.8500 4662.00 4471.58 68.00
3627 23.8560 4642.00 4491.87 68.00
3628 23.8620 4746.00 4516.48 69.00
3629 23.8680 4720.00 4547.46 69.00
3630 23.8740 4829.00 4588.82 69.00
3631 23.8800 4696.00 4648.27 69.00
3632 23.8860 5076.00 4739.50 71.00
3633 23.8920 5138.00 4883.61 72.00
3634 23.8980 5528.00 5108.14 74.00
3635 23.9040 5885.00 5442.14 77.00
3636 23.9100 6449.00 5909.17 80.00
3637 23.9160 7572.00 6517.99 87.00
3638 23.9220 8775.00 7249.83 94.00
3639 23.9280 9740.00 8051.26 99.00
3640 23.9340 10660.00 8879.11 103.00
3641 23.9400 11203.00 9732.01 106.00
3642 23.9460 12084.00 10546.30 110.00
3643 23.9520 12635.00 11084.90 112.00
3644 23.9580 12069.00 11029.00 110.00
3645 23.9640 10787.00 10305.60 104.00
3646 23.9700 9345.00 9200.95 97.00
3647 23.9760 8437.00 8080.70 92.00
3648 23.9820 8171.00 7199.76 90.00
3649 23.9880 7845.00 6699.67 89.00
3650 23.9940 7975.00 6649.02 89.00
3651 24.0000 8200.00 7074.67 91.00
3652 24.0060 8801.00 7966.91 94.00
3653 24.0120 9596.00 9256.43 98.00
3654 24.0180 10473.00 10775.00 102.00
3655 24.0240 11793.00 12211.90 109.00
3656 24.0300 13026.00 13166.20 114.00
3657 24.0360 13758.00 13454.30 117.00
3658 24.0420 14587.00 13309.90 121.00
3659 24.0480 14771.00 13036.50 122.00
3660 24.0540 14852.00 12667.00 122.00
3661 24.0600 13670.00 11985.70 117.00
3662 24.0660 11450.00 10858.10 107.00
3663 24.0720 9343.00 9466.11 97.00
3664 24.0780 7655.00 8101.01 87.00
3665 24.0840 6639.00 6951.19 81.00
3666 24.0900 6089.00 6089.50 78.00
3667 24.0960 5616.00 5504.34 75.00
3668 24.1020 5309.00 5136.88 73.00
3669 24.1080 5022.00 4916.02 71.00
3670 24.1140 4849.00 4782.70 70.00
3671 24.1200 4853.00 4697.49 70.00
3672 24.1260 4789.00 4638.12 69.00
3673 24.1320 4770.00 4593.28 69.00
3674 24.1380 4584.00 4557.56 68.00
3675 24.1440 4587.00 4528.20 68.00
3676 24.1500 4447.00 4503.60 67.00
3677 24.1560 4575.00 4482.75 68.00
3678 24.1620 4549.00 4464.90 67.00
3679 24.1680 4381.00 4449.50 66.00
3680 24.1740 4394.00 4436.11 66.00
3681 24.1800 4369.00 4424.39 66.00
3682 24.1860 4345.00 4414.06 66.00
3683 24.1920 4352.00 4404.92 66.00
3684 24.1980 4241.00 4396.78 65.00
3685 24.2040 4289.00 4389.50 65.00
3686 24.2100 4329.00 4382.97 66.00
3687 24.2160 4337.00 4377.08 66.00
3688 24.2220 4321.00 4371.74 66.00
3689 24.2280 4398.00 4366.90 66.00
3690 24.2340 4296.00 4362.48 66.00
3691 24.2400 4329.00 4358.45 66.00
3692 24.2460 4210.00 4354.76 65.00
3693 24.2520 4194.00 4351.36 65.00
3694 24.2580 4178.00 4345.62 65.00
3695 24.2640 4231.00 4342.82 65.00
3696 24.2700 4250.00 4340.24 65.00
3697 24.2760 4252.00 4337.84 65.00
3698 24.2820 4270.00 4335.62 65.00
3699 24.2880 4332.00 4324.94 66.00
3700 24.2940 4253.00 4323.32 65.00
3701 24.3000 4338.00 4321.81 66.00
3702 24.3060 4320.00 4320.40 66.00
3703 24.3120 4444.00 4319.09 67.00
3704 24.3180 4278.00 4317.86 65.00
3705 24.3240 4196.00 4316.71 65.00
3706 24.3300 4217.00 4315.63 65.00
3707 24.3360 4231.00 4314.62 65.00
3708 24.3420 4211.00 4335.45 65.00
3709 24.3480 4209.00 4335.35 65.00
3710 24.3540 4185.00 4335.34 65.00
3711 24.3600 4133.00 4325.17 64.00
3712 24.3660 4181.00 4330.50 65.00
3713 24.3720 4230.00 4333.77 65.00
3714 24.3780 4172.00 4337.13 65.00
3715 24.3840 4184.00 4340.58 65.00
3716 24.3900 4262.00 4335.72 65.00
3717 24.3960 4318.00 4339.65 66.00
3718 24.4020 4322.00 4343.96 66.00
3719 24.4080 4261.00 4348.09 65.00
3720 24.4140 4242.00 4352.33 65.00
3721 24.4200 4176.00 4356.68 65.00
3722 24.4260 4195.00 4361.16 65.00
3723 24.4320 4261.00 4365.78 65.00
3724 24.4380 4307.00 4370.56 66.00
3725 24.4440 4266.00 4375.50 65.00
3726 24.4500 4311.00 4380.63 66.00
3727 24.4560 4272.00 4385.97 65.00
3728 24.4620 4175.00 4391.54 65.00
3729 24.4680 4361.00 4397.37 66.00
3730 24.4740 4311.00 4403.48 66.00
3731 24.4800 4380.00 4409.91 66.00
3732 24.4860 4354.00 4416.70 66.00
3733 24.4920 4360.00 4423.90 66.00
3734 24.4980 4383.00 4431.56 66.00
3735 24.5040 4317.00 4439.74 66.00
3736 24.5100 4369.00 4448.66 66.00
3737 24.5160 4487.00 4458.13 67.00
3738 24.5220 4410.00 4468.38 66.00
3739 24.5280 4448.00 4479.54 67.00
3740 24.5340 4404.00 4491.76 66.00
3741 24.5400 4408.00 4505.22 66.00
3742 24.5460 4499.00 4520.14 67.00
3743 24.5520 4539.00 4536.79 67.00
3744 24.5580 4594.00 4555.51 68.00
3745 24.5640 4626.00 4576.71 68.00
3746 24.5700 4567.00 4600.94 68.00
3747 24.5760 4490.00 4633.35 67.00
3748 24.5820 4484.00 4666.02 67.00
3749 24.5880 4438.00 4704.44 67.00
3750 24.5940 4537.00 4750.24 67.00
3751 24.6000 4705.00 4805.84 69.00
3752 24.6060 4832.00 4875.32 70.00
3753 24.6120 4958.00 4966.64 70.00
3754 24.6180 5130.00 5096.58 72.00
3755 24.6240 5416.00 5299.79 74.00
3756 24.6300 5612.00 5642.06 75.00
3757 24.6360 6076.00 6232.57 78.00
3758 24.6420 6795.00 7220.68 82.00
3759 24.6480 8015.00 8759.97 90.00
3760 24.6540 10062.00 10931.90 100.00
3761 24.6600 13460.00 13650.00 116.00
3762 24.6660 18079.00 16557.70 134.00
3763 24.6720 22374.00 18961.50 150.00
3764 24.6780 22939.00 19979.10 151.00
3765 24.6840 19103.00 19195.10 138.00
3766 24.6900 15126.00 17102.00 123.00
3767 24.6960 12182.00 14522.90 110.00
3768 24.7020 10236.00 12026.70 101.00
3769 24.7080 8620.00 9899.17 93.00
3770 24.7140 7518.00 8262.17 87.00
3771 24.7200 6853.00 7112.20 83.00
3772 24.7260 6286.00 6355.09 79.00
3773 24.7320 5859.00 5870.95 77.00
3774 24.7380 5525.00 5553.92 74.00
3775 24.7440 5211.00 5332.26 72.00
3776 24.7500 5015.00 5168.22 71.00
3777 24.7560 4780.00 5043.84 69.00
3778 24.7620 4527.00 4949.29 67.00
3779 24.7680 4502.00 4878.15 67.00
3780 24.7740 4520.00 4825.44 67.00
3781 24.7800 4353.00 4790.74 66.00
3782 24.7860 4416.00 4762.68 66.00
3783 24.7920 4412.00 4742.41 66.00
3784 24.7980 4370.00 4728.42 66.00
3785 24.8040 4310.00 4720.19 66.00
3786 24.8100 4345.00 4717.95 66.00
3787 24.8160 4371.00 4720.55 66.00
3788 24.8220 4413.00 4729.17 66.00
3789 24.8280 4433.00 4744.03 67.00
3790 24.8340 4470.00 4763.06 67.00
3791 24.8400 4523.00 4782.40 67.00
3792 24.8460 4586.00 4797.87 68.00
3793 24.8520 4636.00 4810.04 68.00
3794 24.8580 4694.00 4828.98 69.00
3795 24.8640 4871.00 4873.41 70.00
3796 24.8700 5063.00 4969.02 71.00
3797 24.8760 5437.00 5147.06 74.00
3798 24.8820 6109.00 5437.87 78.00
3799 24.8880 6805.00 5856.26 82.00
3800 24.8940 7274.00 6382.51 85.00
3801 24.9000 7358.00 6944.43 86.00
3802 24.9060 7210.00 7403.57 85.00
3803 24.9120 6924.00 7582.66 83.00
3804 24.9180 6565.00 7391.50 81.00
3805 24.9240 6250.00 6925.03 79.00
3806 24.9300 5921.00 6360.79 77.00
3807 24.9360 5576.00 5836.02 75.00
3808 24.9420 5372.00 5422.17 73.00
3809 24.9480 5210.00 5138.28 72.00
3810 24.9540 5085.00 4969.93 71.00
3811 24.9600 4960.00 4887.15 70.00
3812 24.9660 4864.00 4858.07 70.00
3813 24.9720 4706.00 4854.89 69.00
3814 24.9780 4646.00 4854.57 68.00
3815 24.9840 4671.00 4841.76 68.00
3816 24.9900 4667.00 4815.52 68.00
3817 24.9960 4612.00 4787.11 68.00
3818 25.0020 4637.00 4770.32 68.00
3819 25.0080 4604.00 4776.64 68.00
3820 25.0140 4574.00 4813.61 68.00
3821 25.0200 4612.00 4862.01 68.00
3822 25.0260 4782.00 4957.60 69.00
3823 25.0320 4812.00 5061.32 69.00
3824 25.0380 4766.00 5143.75 69.00
3825 25.0440 4766.00 5169.51 69.00
3826 25.0500 4648.00 5131.81 68.00
3827 25.0560 4579.00 5052.51 68.00
3828 25.0620 4550.00 4968.58 67.00
3829 25.0680 4552.00 4911.58 67.00
3830 25.0740 4659.00 4899.58 68.00
3831 25.0800 4692.00 4950.77 68.00
3832 25.0860 4826.00 5100.62 69.00
3833 25.0920 5141.00 5367.12 72.00
3834 25.0980 5242.00 5748.98 72.00
3835 25.1040 5452.00 6212.20 74.00
3836 25.1100 5848.00 6667.47 76.00
3837 25.1160 6171.00 6976.33 79.00
3838 25.1220 6418.00 6995.20 80.00
3839 25.1280 6518.00 6701.33 81.00
3840 25.1340 6256.00 6218.26 79.00
3841 25.1400 5706.00 5695.15 76.00
3842 25.1460 5104.00 5231.02 71.00
3843 25.1520 4702.00 4868.70 69.00
3844 25.1580 4437.00 4612.82 67.00
3845 25.1640 4250.00 4443.91 65.00
3846 25.1700 4177.00 4334.95 65.00
3847 25.1760 4095.00 4262.39 64.00
3848 25.1820 4038.00 4209.91 64.00
3849 25.1880 4011.00 4167.87 63.00
3850 25.1940 3940.00 4131.66 63.00
3851 25.2000 3891.00 4098.80 62.00
3852 25.2060 3910.00 4068.16 63.00
3853 25.2120 3985.00 4039.12 63.00
3854 25.2180 3939.00 4011.31 63.00
3855 25.2240 3900.00 3984.49 62.00
3856 25.2300 3982.00 3958.48 63.00
3857 25.2360 3953.00 3939.73 63.00
3858 25.2420 3999.00 3921.53 63.00
3859 25.2480 4098.00 3903.83 64.00
3860 25.2540 4092.00 3882.21 64.00
3861 25.2600 4191.00 3865.44 65.00
3862 25.2660 4283.00 3848.99 65.00
3863 25.2720 4362.00 3832.85 66.00
3864 25.2780 4393.00 3817.00 66.00
3865 25.2840 4281.00 3801.42 65.00
3866 25.2900 4228.00 3786.12 65.00
3867 25.2960 4125.00 3771.12 64.00
3868 25.3020 4061.00 3756.40 64.00
3869 25.3080 4075.00 3742.01 64.00
3870 25.3140 4006.00 3727.99 63.00
3871 25.3200 3840.00 3714.36 62.00
3872 25.3260 3689.00 3706.76 61.00
3873 25.3320 3722.00 3711.63 61.00
3874 25.3380 3825.00 3717.18 62.00
3875 25.3440 3881.00 3723.59 62.00
3876 25.3500 3889.00 3731.15 62.00
3877 25.3560 3936.00 3743.05 63.00
3878 25.3620 3933.00 3755.22 63.00
3879 25.3680 3904.00 3772.32 62.00
3880 25.3740 4046.00 3798.07 64.00
3881 25.3800 4263.00 3840.39 65.00
3882 25.3860 4462.00 3902.15 67.00
3883 25.3920 4640.00 3995.25 68.00
3884 25.3980 4826.00 4125.02 69.00
3885 25.4040 4951.00 4293.21 70.00
3886 25.4100 5155.00 4490.69 72.00
3887 25.4160 5518.00 4698.30 74.00
3888 25.4220 5768.00 4888.84 76.00
3889 25.4280 5874.00 5049.96 77.00
3890 25.4340 5886.00 5189.99 77.00
3891 25.4400 5867.00 5304.73 77.00
3892 25.4460 5699.00 5358.28 75.00
3893 25.4520 5544.00 5301.04 74.00
3894 25.4580 5454.00 5144.10 74.00
3895 25.4640 5357.00 4947.95 73.00
3896 25.4700 5337.00 4782.65 73.00
3897 25.4760 5320.00 4673.18 73.00
3898 25.4820 5337.00 4613.70 73.00
3899 25.4880 5312.00 4570.46 73.00
3900 25.4940 5041.00 4502.31 71.00
3901 25.5000 4788.00 4394.17 69.00
3902 25.5060 4575.00 4264.61 68.00
3903 25.5120 4398.00 4138.32 66.00
3904 25.5180 4343.00 4031.49 66.00
3905 25.5240 4088.00 3950.94 64.00
3906 25.5300 3918.00 3896.02 63.00
3907 25.5360 3890.00 3861.73 62.00
3908 25.5420 3775.00 3841.79 61.00
3909 25.5480 3770.00 3830.79 61.00
3910 25.5540 3833.00 3825.02 62.00
3911 25.5600 3892.00 3822.29 62.00
3912 25.5660 3888.00 3821.44 62.00
3913 25.5720 3827.00 3821.92 62.00
3914 25.5780 3793.00 3823.47 62.00
3915 25.5840 3772.00 3825.98 61.00
3916 25.5900 3818.00 3829.40 62.00
3917 25.5960 3874.00 3833.76 62.00
3918 25.6020 3917.00 3839.09 63.00
3919 25.6080 3898.00 3845.81 62.00
3920 25.6140 3859.00 3854.06 62.00
3921 25.6200 3797.00 3863.80 62.00
3922 25.6260 3812.00 3875.39 62.00
3923 25.6320 3811.00 3889.50 62.00
3924 25.6380 3904.00 3907.41 62.00
3925 25.6440 4014.00 3931.67 63.00
3926 25.6500 3982.00 3967.30 63.00
3927 25.6560 4063.00 4023.24 64.00
3928 25.6620 4108.00 4113.54 64.00
3929 25.6680 4178.00 4256.73 65.00
3930 25.6740 4416.00 4472.08 66.00
3931 25.6800 4668.00 4776.81 68.00
3932 25.6860 5116.00 5157.53 72.00
3933 25.6920 5762.00 5588.61 76.00
3934 25.6980 6574.00 6005.12 81.00
3935 25.7040 6683.00 6318.32 82.00
3936 25.7100 6469.00 6477.54 80.00
3937 25.7160 6375.00 6511.58 80.00
3938 25.7220 6301.00 6465.98 79.00
3939 25.7280 6217.00 6343.85 79.00
3940 25.7340 5954.00 6137.43 77.00
3941 25.7400 5636.00 5881.54 75.00
3942 25.7460 5259.00 5640.29 73.00
3943 25.7520 5085.00 5426.11 71.00
3944 25.7580 5055.00 5263.15 71.00
3945 25.7640 5001.00 5175.45 71.00
3946 25.7700 5050.00 5186.96 71.00
3947 25.7760 5177.00 5300.82 72.00
3948 25.7820 5423.00 5483.00 74.00
3949 25.7880 5630.00 5664.31 75.00
3950 25.7940 5706.00 5752.14 76.00
3951 25.8000 5561.00 5685.13 75.00
3952 25.8060 5242.00 5497.66 72.00
3953 25.8120 4965.00 5272.89 70.00
3954 25.8180 4789.00 5081.40 69.00
3955 25.8240 4796.00 4954.70 69.00
3956 25.8300 4860.00 4885.82 70.00
3957 25.8360 4912.00 4839.73 70.00
3958 25.8420 4849.00 4774.35 70.00
3959 25.8480 4686.00 4670.69 68.00
3960 25.8540 4511.00 4538.00 67.00
3961 25.8600 4292.00 4401.08 66.00
3962 25.8660 4252.00 4280.27 65.00
3963 25.8720 4211.00 4185.64 65.00
3964 25.8780 4133.00 4118.85 64.00
3965 25.8840 4097.00 4075.97 64.00
3966 25.8900 4155.00 4050.80 64.00
3967 25.8960 4119.00 4037.37 64.00
3968 25.9020 4020.00 4043.56 63.00
3969 25.9080 4053.00 4049.18 64.00
3970 25.9140 4017.00 4064.61 63.00
3971 25.9200 3963.00 4082.27 63.00
3972 25.9260 4005.00 4101.86 63.00
3973 25.9320 3982.00 4123.34 63.00
3974 25.9380 3933.00 4155.16 63.00
3975 25.9440 4053.00 4181.14 64.00
3976 25.9500 4064.00 4209.76 64.00
3977 25.9560 4105.00 4241.69 64.00
3978 25.9620 4179.00 4278.25 65.00
3979 25.9680 4232.00 4322.04 65.00
3980 25.9740 4321.00 4378.33 66.00
3981 25.9800 4439.00 4457.25 67.00
3982 25.9860 4645.00 4576.26 68.00
3983 25.9920 4779.00 4761.16 69.00
3984 25.9980 5179.00 5042.86 72.00
3985 26.0040 5752.00 5452.66 76.00
3986 26.0100 6314.00 5986.98 79.00
3987 26.0160 6757.00 6616.74 82.00
3988 26.0220 6979.00 7253.51 84.00
3989 26.0280 7051.00 7747.81 84.00
3990 26.0340 7189.00 7933.48 85.00
3991 26.0400 7127.00 7762.21 84.00
3992 26.0460 7072.00 7369.87 84.00
3993 26.0520 7050.00 6965.40 84.00
3994 26.0580 7295.00 6726.29 85.00
3995 26.0640 7625.00 6784.52 87.00
3996 26.0700 7843.00 7204.63 89.00
3997 26.0760 8282.00 7981.47 91.00
3998 26.0820 8892.00 9013.86 94.00
3999 26.0880 9654.00 10102.60 98.00
4000 26.0940 10496.00 10929.40 102.00
4001 26.1000 11070.00 11152.10 105.00
4002 26.1060 10815.00 10653.80 104.00
4003 26.1120 9867.00 9657.99 99.00
4004 26.1180 8263.00 8498.35 91.00
4005 26.1240 6731.00 7424.06 82.00
4006 26.1300 6006.00 6564.89 77.00
4007 26.1360 5268.00 5954.37 73.00
4008 26.1420 5105.00 5564.43 71.00
4009 26.1480 4790.00 5336.64 69.00
4010 26.1540 4785.00 5219.35 69.00
4011 26.1600 4675.00 5166.99 68.00
4012 26.1660 4612.00 5152.69 68.00
4013 26.1720 4541.00 5162.35 67.00
4014 26.1780 4603.00 5168.45 68.00
4015 26.1840 4798.00 5182.35 69.00
4016 26.1900 4876.00 5221.15 70.00
4017 26.1960 5028.00 5300.54 71.00
4018 26.2020 5315.00 5451.62 73.00
4019 26.2080 5852.00 5723.47 76.00
4020 26.2140 6525.00 6185.28 81.00
4021 26.2200 7413.00 6912.80 86.00
4022 26.2260 9057.00 7960.72 95.00
4023 26.2320 11122.00 9319.72 105.00
4024 26.2380 12482.00 10878.80 112.00
4025 26.2440 13073.00 12392.10 114.00
4026 26.2500 13156.00 13489.10 115.00
4027 26.2560 13029.00 13846.30 114.00
4028 26.2620 12776.00 13505.60 113.00
4029 26.2680 12366.00 12865.40 111.00
4030 26.2740 12534.00 12305.20 112.00
4031 26.2800 12968.00 12002.80 114.00
4032 26.2860 13161.00 11882.90 115.00
4033 26.2920 13199.00 11674.60 115.00
4034 26.2980 12356.00 11116.50 111.00
4035 26.3040 10866.00 10177.80 104.00
4036 26.3100 9325.00 9089.90 97.00
4037 26.3160 7933.00 8098.08 89.00
4038 26.3220 7316.00 7370.92 86.00
4039 26.3280 7174.00 6988.39 85.00
4040 26.3340 7307.00 6946.59 85.00
4041 26.3400 7283.00 7167.75 85.00
4042 26.3460 7221.00 7511.01 85.00
4043 26.3520 6876.00 7785.13 83.00
4044 26.3580 6568.00 7799.19 81.00
4045 26.3640 6235.00 7482.57 79.00
4046 26.3700 5896.00 6935.36 77.00
4047 26.3760 5801.00 6317.50 76.00
4048 26.3820 5462.00 5750.78 74.00
4049 26.3880 5266.00 5297.96 73.00
4050 26.3940 5083.00 4991.30 71.00
4051 26.4000 5012.00 4817.18 71.00
4052 26.4060 5046.00 4749.81 71.00
4053 26.4120 5080.00 4755.86 71.00
4054 26.4180 5119.00 4798.47 72.00
4055 26.4240 5012.00 4837.11 71.00
4056 26.4300 4919.00 4831.28 70.00
4057 26.4360 4632.00 4760.32 68.00
4058 26.4420 4712.00 4637.38 69.00
4059 26.4480 4279.00 4493.94 65.00
4060 26.4540 4105.00 4346.86 64.00
4061 26.4600 3844.00 4229.85 62.00
4062 26.4660 3696.00 4138.36 61.00
4063 26.4720 3667.00 4070.82 61.00
4064 26.4780 3669.00 4022.12 61.00
4065 26.4840 3647.00 3986.53 60.00
4066 26.4900 3625.00 3959.34 60.00
4067 26.4960 3705.00 3944.86 61.00
4068 26.5020 3660.00 3935.36 60.00
4069 26.5080 3605.00 3928.51 60.00
4070 26.5140 3580.00 3923.94 60.00
4071 26.5200 3577.00 3921.64 60.00
4072 26.5260 3687.00 3921.72 61.00
4073 26.5320 3691.00 3924.46 61.00
4074 26.5380 3701.00 3930.33 61.00
4075 26.5440 3671.00 3940.03 61.00
4076 26.5500 3698.00 3954.89 61.00
4077 26.5560 3827.00 3977.06 62.00
4078 26.5620 3832.00 4011.18 62.00
4079 26.5680 3854.00 4065.91 62.00
4080 26.5740 3960.00 4156.59 63.00
4081 26.5800 4042.00 4309.01 64.00
4082 26.5860 4260.00 4552.94 65.00
4083 26.5920 4473.00 4925.58 67.00
4084 26.5980 5044.00 5455.41 71.00
4085 26.6040 6019.00 6149.17 78.00
4086 26.6100 7589.00 6966.89 87.00
4087 26.6160 9531.00 7859.04 98.00
4088 26.6220 10153.00 8687.50 101.00
4089 26.6280 10674.00 9352.29 103.00
4090 26.6340 10528.00 9873.72 103.00
4091 26.6400 10792.00 10342.80 104.00
4092 26.6460 11046.00 10760.50 105.00
4093 26.6520 11656.00 10954.80 108.00
4094 26.6580 11456.00 10699.00 107.00
4095 26.6640 10690.00 9901.71 103.00
4096 26.6700 8678.00 8748.81 93.00
4097 26.6760 6843.00 7515.03 83.00
4098 26.6820 5882.00 6400.89 77.00
4099 26.6880 5301.00 5506.97 73.00
4100 26.6940 4716.00 4856.23 69.00
4101 26.7000 4462.00 4419.20 67.00
4102 26.7060 4338.00 4142.48 66.00
4103 26.7120 4165.00 3971.66 65.00
4104 26.7180 3969.00 3859.86 63.00
4105 26.7240 3920.00 3788.60 63.00
4106 26.7300 3765.00 3737.38 61.00
4107 26.7360 3551.00 3698.15 60.00
4108 26.7420 3550.00 3667.34 60.00
4109 26.7480 3409.00 3643.85 58.00
4110 26.7540 3466.00 3628.00 59.00
4111 26.7600 3462.00 3620.97 59.00
4112 26.7660 3379.00 3624.01 58.00
4113 26.7720 3405.00 3637.45 58.00
4114 26.7780 3327.00 3659.52 58.00
4115 26.7840 3559.00 3685.34 60.00
4116 26.7900 3534.00 3705.07 59.00
4117 26.7960 3537.00 3709.12 59.00
4118 26.8020 3573.00 3689.03 60.00
4119 26.8080 3545.00 3648.27 60.00
4120 26.8140 3454.00 3597.72 59.00
4121 26.8200 3334.00 3547.36 58.00
4122 26.8260 3405.00 3503.34 58.00
4123 26.8320 3334.00 3468.27 58.00
4124 26.8380 3462.00 3441.98 59.00
4125 26.8440 3433.00 3422.24 59.00
4126 26.8500 3516.00 3408.20 59.00
4127 26.8560 3493.00 3398.39 59.00
4128 26.8620 3432.00 3392.09 59.00
4129 26.8680 3459.00 3389.42 59.00
4130 26.8740 3513.00 3391.46 59.00
4131 26.8800 3612.00 3400.36 60.00
4132 26.8860 3449.00 3419.68 59.00
4133 26.8920 3481.00 3454.57 59.00
4134 26.8980 3537.00 3511.52 59.00
4135 26.9040 3638.00 3596.93 60.00
4136 26.9100 3868.00 3714.64 62.00
4137 26.9160 3886.00 3863.56 62.00
4138 26.9220 4081.00 4035.79 64.00
4139 26.9280 4079.00 4213.01 64.00
4140 26.9340 4112.00 4365.57 64.00
4141 26.9400 4187.00 4460.44 65.00
4142 26.9460 4151.00 4499.58 64.00
4143 26.9520 4237.00 4522.01 65.00
4144 26.9580 4440.00 4567.75 67.00
4145 26.9640 4531.00 4646.46 67.00
4146 26.9700 4653.00 4728.64 68.00
4147 26.9760 4815.00 4752.65 69.00
4148 26.9820 4703.00 4661.49 69.00
4149 26.9880 4317.00 4450.22 66.00
4150 26.9940 4070.00 4182.18 64.00
4151 27.0000 3773.00 3910.63 61.00
4152 27.0060 3531.00 3671.12 59.00
4153 27.0120 3396.00 3482.32 58.00
4154 27.0180 3323.00 3336.69 58.00
4155 27.0240 3267.00 3244.03 57.00
4156 27.0300 3200.00 3183.10 57.00
4157 27.0360 3160.00 3142.62 56.00
4158 27.0420 3096.00 3114.17 56.00
4159 27.0480 3083.00 3092.45 56.00
4160 27.0540 3099.00 3074.50 56.00
4161 27.0600 3084.00 3058.79 56.00
4162 27.0660 3026.00 3044.54 55.00
4163 27.0720 2928.00 3031.35 54.00
4164 27.0780 3000.00 3019.02 55.00
4165 27.0840 3064.00 3007.43 55.00
4166 27.0900 3021.00 2996.57 55.00
4167 27.0960 3075.00 2986.53 55.00
4168 27.1020 3050.00 2977.50 55.00
4169 27.1080 2961.00 2977.44 54.00
4170 27.1140 2913.00 2982.75 54.00
4171 27.1200 3084.00 2989.67 56.00
4172 27.1260 3100.00 2997.97 56.00
4173 27.1320 3086.00 3006.88 56.00
4174 27.1380 3107.00 3015.04 56.00
4175 27.1440 3147.00 3020.60 56.00
4176 27.1500 3188.00 3022.26 56.00
4177 27.1560 3188.00 3020.42 56.00
4178 27.1620 3046.00 3016.46 55.00
4179 27.1680 3040.00 3012.76 55.00
4180 27.1740 3089.00 3010.04 56.00
4181 27.1800 3003.00 3008.82 55.00
4182 27.1860 2956.00 3009.16 54.00
4183 27.1920 2976.00 3010.89 55.00
4184 27.1980 3033.00 3013.68 55.00
4185 27.2040 3060.00 3017.29 55.00
4186 27.2100 3087.00 3021.58 56.00
4187 27.2160 3073.00 3026.54 55.00
4188 27.2220 3078.00 3032.15 55.00
4189 27.2280 3170.00 3038.67 56.00
4190 27.2340 3221.00 3046.57 57.00
4191 27.2400 3192.00 3056.85 56.00
4192 27.2460 3145.00 3071.35 56.00
4193 27.2520 3119.00 3093.29 56.00
4194 27.2580 3145.00 3127.45 56.00
4195 27.2640 3265.00 3179.91 57.00
4196 27.2700 3466.00 3256.51 59.00
4197 27.2760 3525.00 3360.00 59.00
4198 27.2820 3676.00 3487.28 61.00
4199 27.2880 3807.00 3625.48 62.00
4200 27.2940 3785.00 3750.21 62.00
4201 27.3000 3840.00 3827.54 62.00
4202 27.3060 3865.00 3829.93 62.00
4203 27.3120 3814.00 3766.29 62.00
4204 27.3180 3794.00 3670.57 62.00
4205 27.3240 3700.00 3581.91 61.00
4206 27.3300 3625.00 3529.00 60.00
4207 27.3360 3719.00 3527.62 61.00
4208 27.3420 3797.00 3579.84 62.00
4209 27.3480 3800.00 3671.91 62.00
4210 27.3540 3841.00 3782.49 62.00
4211 27.3600 3870.00 3871.90 62.00
4212 27.3660 3909.00 3899.69 63.00
4213 27.3720 3955.00 3847.84 63.00
4214 27.3780 3828.00 3735.25 62.00
4215 27.3840 3606.00 3597.70 60.00
4216 27.3900 3403.00 3464.64 58.00
4217 27.3960 3282.00 3353.09 57.00
4218 27.4020 3231.00 3269.48 57.00
4219 27.4080 3156.00 3212.54 56.00
4220 27.4140 3075.00 3176.87 55.00
4221 27.4200 3110.00 3155.94 56.00
4222 27.4260 3120.00 3144.24 56.00
4223 27.4320 3029.00 3138.04 55.00
4224 27.4380 3051.00 3123.59 55.00
4225 27.4440 3104.00 3110.80 56.00
4226 27.4500 3064.00 3099.03 55.00
4227 27.4560 2985.00 3087.94 55.00
4228 27.4620 2995.00 3077.36 55.00
4229 27.4680 3007.00 3067.15 55.00
4230 27.4740 3051.00 3057.26 55.00
4231 27.4800 3105.00 3047.63 56.00
4232 27.4860 3089.00 3038.22 56.00
4233 27.4920 3062.00 3029.01 55.00
4234 27.4980 3023.00 3021.44 55.00
4235 27.5040 3017.00 3012.69 55.00
4236 27.5100 3053.00 3004.19 55.00
4237 27.5160 3020.00 2996.00 55.00
4238 27.5220 3049.00 2988.33 55.00
4239 27.5280 2982.00 2981.32 55.00
4240 27.5340 2913.00 2975.15 54.00
4241 27.5400 2938.00 2969.96 54.00
4242 27.5460 2974.00 2965.80 55.00
4243 27.5520 3010.00 2962.51 55.00
4244 27.5580 3021.00 2959.62 55.00
4245 27.5640 3027.00 2956.45 55.00
4246 27.5700 3036.00 2952.44 55.00
4247 27.5760 3016.00 2947.07 55.00
4248 27.5820 3013.00 2939.53 55.00
4249 27.5880 3137.00 2929.02 56.00
4250 27.5940 3079.00 2915.79 55.00
4251 27.6000 3129.00 2901.12 56.00
4252 27.6060 3155.00 2886.41 56.00
4253 27.6120 3155.00 2872.53 56.00
4254 27.6180 3128.00 2859.89 56.00
4255 27.6240 3216.00 2848.53 57.00
4256 27.6300 3160.00 2838.27 56.00
4257 27.6360 3050.00 2828.82 55.00
4258 27.6420 3011.00 2819.93 55.00
4259 27.6480 3037.00 2811.38 55.00
4260 27.6540 3049.00 2803.05 55.00
4261 27.6600 2968.00 2794.86 54.00
4262 27.6660 2954.00 2786.76 54.00
4263 27.6720 2986.00 2777.67 55.00
4264 27.6780 2908.00 2769.76 54.00
4265 27.6840 2903.00 2765.49 54.00
4266 27.6900 2974.00 2762.07 55.00
4267 27.6960 2983.00 2754.65 55.00
4268 27.7020 2937.00 2758.54 54.00
4269 27.7080 2908.00 2773.75 54.00
4270 27.7140 2851.00 2789.10 53.00
4271 27.7200 2886.00 2804.62 54.00
4272 27.7260 2923.00 2820.37 54.00
4273 27.7320 2928.00 2836.43 54.00
4274 27.7380 3036.00 2851.86 55.00
4275 27.7440 3038.00 2869.24 55.00
4276 27.7500 3034.00 2887.93 55.00
4277 27.7560 3059.00 2908.67 55.00
4278 27.7620 3074.00 2933.89 55.00
4279 27.7680 3111.00 2961.58 56.00
4280 27.7740 3072.00 2993.68 55.00
4281 27.7800 3028.00 3029.84 55.00
4282 27.7860 3171.00 3068.40 56.00
4283 27.7920 3287.00 3106.15 57.00
4284 27.7980 3393.00 3138.60 58.00
4285 27.8040 3430.00 3162.39 59.00
4286 27.8100 3382.00 3179.21 58.00
4287 27.8160 3427.00 3196.28 59.00
4288 27.8220 3489.00 3223.18 59.00
4289 27.8280 3575.00 3269.66 60.00
4290 27.8340 3689.00 3344.60 61.00
4291 27.8400 3756.00 3454.26 61.00
4292 27.8460 3885.00 3599.52 62.00
4293 27.8520 4025.00 3773.52 63.00
4294 27.8580 4241.00 3952.47 65.00
4295 27.8640 4410.00 4102.06 66.00
4296 27.8700 4521.00 4178.31 67.00
4297 27.8760 4534.00 4155.19 67.00
4298 27.8820 4394.00 4051.38 66.00
4299 27.8880 4150.00 3902.83 64.00
4300 27.8940 3845.00 3751.33 62.00
4301 27.9000 3571.00 3621.31 60.00
4302 27.9060 3475.00 3523.91 59.00
4303 27.9120 3383.00 3460.11 58.00
4304 27.9180 3244.00 3424.70 57.00
4305 27.9240 3265.00 3410.15 57.00
4306 27.9300 3256.00 3409.43 57.00
4307 27.9360 3245.00 3417.25 57.00
4308 27.9420 3191.00 3430.37 56.00
4309 27.9480 3198.00 3437.17 57.00
4310 27.9540 3272.00 3441.74 57.00
4311 27.9600 3209.00 3448.67 57.00
4312 27.9660 3259.00 3458.15 57.00
4313 27.9720 3343.00 3470.86 58.00
4314 27.9780 3358.00 3486.77 58.00
4315 27.9840 3363.00 3507.55 58.00
4316 27.9900 3477.00 3535.76 59.00
4317 27.9960 3525.00 3576.42 59.00
4318 28.0020 3694.00 3639.04 61.00
4319 28.0080 3790.00 3740.16 62.00
4320 28.0140 3909.00 3905.76 63.00
4321 28.0200 4096.00 4170.66 64.00
4322 28.0260 4466.00 4573.29 67.00
4323 28.0320 5141.00 5143.61 72.00
4324 28.0380 6055.00 5884.26 78.00
4325 28.0440 7336.00 6750.54 86.00
4326 28.0500 8931.00 7632.08 95.00
4327 28.0560 10299.00 8349.64 101.00
4328 28.0620 10565.00 8698.14 103.00
4329 28.0680 9851.00 8557.99 99.00
4330 28.0740 8267.00 7983.10 91.00
4331 28.0800 6787.00 7162.58 82.00
4332 28.0860 5772.00 6303.06 76.00
4333 28.0920 5382.00 5550.98 73.00
4334 28.0980 4816.00 4983.00 69.00
4335 28.1040 4495.00 4620.21 67.00
4336 28.1100 4381.00 4443.77 66.00
4337 28.1160 4159.00 4410.76 64.00
4338 28.1220 4163.00 4465.68 65.00
4339 28.1280 4047.00 4546.16 64.00
4340 28.1340 4029.00 4590.64 63.00
4341 28.1400 3934.00 4549.32 63.00
4342 28.1460 3888.00 4423.81 62.00
4343 28.1520 3937.00 4250.23 63.00
4344 28.1580 3966.00 4069.71 63.00
4345 28.1640 4015.00 3911.42 63.00
4346 28.1700 4072.00 3791.71 64.00
4347 28.1760 4185.00 3717.54 65.00
4348 28.1820 4373.00 3691.22 66.00
4349 28.1880 4467.00 3713.42 67.00
4350 28.1940 4640.00 3786.16 68.00
4351 28.2000 4649.00 3912.51 68.00
4352 28.2060 4742.00 4094.27 69.00
4353 28.2120 4678.00 4328.90 68.00
4354 28.2180 4825.00 4605.00 69.00
4355 28.2240 4921.00 4898.45 70.00
4356 28.2300 4949.00 5177.75 70.00
4357 28.2360 4998.00 5423.54 71.00
4358 28.2420 5111.00 5636.66 71.00
4359 28.2480 5190.00 5804.48 72.00
4360 28.2540 5346.00 5882.79 73.00
4361 28.2600 5449.00 5805.77 74.00
4362 28.2660 5555.00 5553.90 75.00
4363 28.2720 5528.00 5183.34 74.00
4364 28.2780 5452.00 4777.64 74.00
4365 28.2840 5245.00 4401.61 72.00
4366 28.2900 4807.00 4091.15 69.00
4367 28.2960 4525.00 3858.94 67.00
4368 28.3020 4156.00 3700.81 64.00
4369 28.3080 3876.00 3604.14 62.00
4370 28.3140 3835.00 3554.08 62.00
4371 28.3200 3745.00 3537.72 61.00
4372 28.3260 3599.00 3544.69 60.00
4373 28.3320 3567.00 3566.63 60.00
4374 28.3380 3492.00 3594.90 59.00
4375 28.3440 3475.00 3619.17 59.00
4376 28.3500 3498.00 3627.91 59.00
4377 28.3560 3563.00 3613.77 60.00
4378 28.3620 3331.00 3579.41 58.00
4379 28.3680 3310.00 3534.47 58.00
4380 28.3740 3376.00 3488.56 58.00
4381 28.3800 3328.00 3448.13 58.00
4382 28.3860 3298.00 3415.88 57.00
4383 28.3920 3252.00 3392.53 57.00
4384 28.3980 3245.00 3376.99 57.00
4385 28.4040 3271.00 3367.73 57.00
4386 28.4100 3305.00 3363.00 57.00
4387 28.4160 3256.00 3361.25 57.00
4388 28.4220 3235.00 3361.67 57.00
4389 28.4280 3227.00 3364.95 57.00
4390 28.4340 3313.00 3369.16 58.00
4391 28.4400 3240.00 3372.43 57.00
4392 28.4460 3278.00 3379.01 57.00
4393 28.4520 3258.00 3396.55 57.00
4394 28.4580 3420.00 3425.69 58.00
4395 28.4640 3408.00 3476.19 58.00
4396 28.4700 3403.00 3554.79 58.00
4397 28.4760 3691.00 3675.49 61.00
4398 28.4820 3727.00 3847.97 61.00
4399 28.4880 4097.00 4074.04 64.00
4400 28.4940 4513.00 4341.49 67.00
4401 28.5000 5210.00 4619.07 72.00
4402 28.5060 6104.00 4853.12 78.00
4403 28.5120 6452.00 4975.66 80.00
4404 28.5180 5913.00 4938.64 77.00
4405 28.5240 5200.00 4759.52 72.00
4406 28.5300 4477.00 4499.44 67.00
4407 28.5360 4026.00 4223.09 63.00
4408 28.5420 3777.00 3974.40 61.00
4409 28.5480 3584.00 3776.21 60.00
4410 28.5540 3669.00 3634.70 61.00
4411 28.5600 3507.00 3545.51 59.00
4412 28.5660 3370.00 3499.77 58.00
4413 28.5720 3461.00 3488.52 59.00
4414 28.5780 3346.00 3505.56 58.00
4415 28.5840 3560.00 3545.30 60.00
4416 28.5900 3484.00 3603.23 59.00
4417 28.5960 3733.00 3672.32 61.00
4418 28.6020 3922.00 3741.45 63.00
4419 28.6080 3810.00 3795.67 62.00
4420 28.6140 3984.00 3820.97 63.00
4421 28.6200 3894.00 3817.92 62.00
4422 28.6260 3877.00 3790.96 62.00
4423 28.6320 3768.00 3746.72 61.00
4424 28.6380 3826.00 3690.61 62.00
4425 28.6440 3771.00 3624.93 61.00
4426 28.6500 3838.00 3561.92 62.00
4427 28.6560 3653.00 3505.38 60.00
4428 28.6620 3652.00 3460.01 60.00
4429 28.6680 3604.00 3427.73 60.00
4430 28.6740 3657.00 3408.20 60.00
4431 28.6800 3476.00 3399.66 59.00
4432 28.6860 3511.00 3399.22 59.00
4433 28.6920 3646.00 3403.35 60.00
4434 28.6980 3505.00 3407.82 59.00
4435 28.7040 3427.00 3409.24 59.00
4436 28.7100 3299.00 3406.59 57.00
4437 28.7160 3411.00 3401.98 58.00
4438 28.7220 3322.00 3398.88 58.00
4439 28.7280 3337.00 3401.34 58.00
4440 28.7340 3193.00 3410.23 57.00
4441 28.7400 3275.00 3429.01 57.00
4442 28.7460 3343.00 3454.21 58.00
4443 28.7520 3219.00 3483.93 57.00
4444 28.7580 3398.00 3515.70 58.00
4445 28.7640 3431.00 3548.28 59.00
4446 28.7700 3468.00 3584.90 59.00
4447 28.7760 3490.00 3634.02 59.00
4448 28.7820 3565.00 3705.32 60.00
4449 28.7880 3408.00 3805.06 58.00
4450 28.7940 3525.00 3933.47 59.00
4451 28.8000 3719.00 4083.27 61.00
4452 28.8060 3876.00 4239.29 62.00
4453 28.8120 3981.00 4381.39 63.00
4454 28.8180 3972.00 4498.60 63.00
4455 28.8240 4071.00 4601.24 64.00
4456 28.8300 4229.00 4708.28 65.00
4457 28.8360 4266.00 4823.46 65.00
4458 28.8420 4596.00 4923.80 68.00
4459 28.8480 4798.00 4962.42 69.00
4460 28.8540 4562.00 4896.61 68.00
4461 28.8600 4408.00 4725.73 66.00
4462 28.8660 4211.00 4492.16 65.00
4463 28.8720 3786.00 4245.54 62.00
4464 28.8780 3508.00 4021.82 59.00
4465 28.8840 3395.00 3840.17 58.00
4466 28.8900 3496.00 3706.17 59.00
4467 28.8960 3441.00 3616.26 59.00
4468 28.9020 3319.00 3559.83 58.00
4469 28.9080 3322.00 3532.75 58.00
4470 28.9140 3398.00 3526.06 58.00
4471 28.9200 3453.00 3535.95 59.00
4472 28.9260 3501.00 3560.57 59.00
4473 28.9320 3469.00 3598.48 59.00
4474 28.9380 3614.00 3646.94 60.00
4475 28.9440 3534.00 3700.27 59.00
4476 28.9500 3546.00 3749.12 60.00
4477 28.9560 3477.00 3781.39 59.00
4478 28.9620 3444.00 3786.61 59.00
4479 28.9680 3437.00 3763.58 59.00
4480 28.9740 3433.00 3719.08 59.00
4481 28.9800 3475.00 3666.47 59.00
4482 28.9860 3452.00 3616.00 59.00
4483 28.9920 3431.00 3573.43 59.00
4484 28.9980 3481.00 3539.87 59.00
4485 29.0040 3492.00 3516.82 59.00
4486 29.0100 3612.00 3502.50 60.00
4487 29.0160 3573.00 3494.57 60.00
4488 29.0220 3566.00 3491.44 60.00
4489 29.0280 3548.00 3491.48 60.00
4490 29.0340 3579.00 3495.03 60.00
4491 29.0400 3493.00 3500.86 59.00
4492 29.0460 3575.00 3509.94 60.00
4493 29.0520 3690.00 3523.08 61.00
4494 29.0580 3781.00 3541.39 61.00
4495 29.0640 3820.00 3566.44 62.00
4496 29.0700 3808.00 3600.05 62.00
4497 29.0760 3919.00 3644.49 63.00
4498 29.0820 3955.00 3702.05 63.00
4499 29.0880 4143.00 3775.03 64.00
4500 29.0940 3991.00 3864.18 63.00
4501 29.1000 3926.00 3965.52 63.00
4502 29.1060 4074.00 4068.74 64.00
4503 29.1120 4001.00 4148.28 63.00
4504 29.1180 3902.00 4180.60 62.00
4505 29.1240 3772.00 4150.94 61.00
4506 29.1300 3650.00 4069.72 60.00
4507 29.1360 3643.00 3962.06 60.00
4508 29.1420 3560.00 3851.62 60.00
4509 29.1480 3591.00 3753.87 60.00
4510 29.1540 3586.00 3676.23 60.00
4511 29.1600 3547.00 3620.51 60.00
4512 29.1660 3517.00 3584.06 59.00
4513 29.1720 3473.00 3562.75 59.00
4514 29.1780 3437.00 3552.62 59.00
4515 29.1840 3344.00 3550.83 58.00
4516 29.1900 3348.00 3555.85 58.00
4517 29.1960 3411.00 3567.40 58.00
4518 29.2020 3291.00 3583.29 57.00
4519 29.2080 3378.00 3604.88 58.00
4520 29.2140 3419.00 3628.84 58.00
4521 29.2200 3401.00 3651.28 58.00
4522 29.2260 3424.00 3666.80 59.00
4523 29.2320 3493.00 3670.42 59.00
4524 29.2380 3494.00 3661.27 59.00
4525 29.2440 3520.00 3641.45 59.00
4526 29.2500 3503.00 3620.41 59.00
4527 29.2560 3408.00 3600.52 58.00
4528 29.2620 3438.00 3584.42 59.00
4529 29.2680 3347.00 3573.18 58.00
4530 29.2740 3393.00 3566.81 58.00
4531 29.2800 3440.00 3564.74 59.00
4532 29.2860 3458.00 3566.65 59.00
4533 29.2920 3402.00 3573.47 58.00
4534 29.2980 3368.00 3584.34 58.00
4535 29.3040 3392.00 3600.89 58.00
4536 29.3100 3425.00 3627.31 59.00
4537 29.3160 3498.00 3664.62 59.00
4538 29.3220 3508.00 3718.29 59.00
4539 29.3280 3611.00 3791.42 60.00
4540 29.3340 3880.00 3884.44 62.00
4541 29.3400 3906.00 3993.31 62.00
4542 29.3460 4031.00 4107.91 63.00
4543 29.3520 4089.00 4211.12 64.00
4544 29.3580 3988.00 4283.20 63.00
4545 29.3640 3995.00 4312.07 63.00
4546 29.3700 3980.00 4304.37 63.00
4547 29.3760 3930.00 4276.78 63.00
4548 29.3820 3944.00 4241.93 63.00
4549 29.3880 3875.00 4205.22 62.00
4550 29.3940 3839.00 4170.72 62.00
4551 29.4000 3878.00 4145.46 62.00
4552 29.4060 3924.00 4135.09 63.00
4553 29.4120 3858.00 4138.42 62.00
4554 29.4180 3928.00 4146.41 63.00
4555 29.4240 4072.00 4145.70 64.00
4556 29.4300 4026.00 4127.73 63.00
4557 29.4360 4085.00 4103.67 64.00
4558 29.4420 4141.00 4075.05 64.00
4559 29.4480 4151.00 4064.67 64.00
4560 29.4540 4119.00 4087.02 64.00
4561 29.4600 4157.00 4154.06 64.00
4562 29.4660 4297.00 4274.19 66.00
4563 29.4720 4397.00 4448.78 66.00
4564 29.4780 4530.00 4667.45 67.00
4565 29.4840 4634.00 4903.44 68.00
4566 29.4900 4755.00 5111.83 69.00
4567 29.4960 5039.00 5235.37 71.00
4568 29.5020 5193.00 5230.81 72.00
4569 29.5080 5254.00 5100.74 72.00
4570 29.5140 5200.00 4887.00 72.00
4571 29.5200 5106.00 4643.50 71.00
4572 29.5260 4874.00 4410.92 70.00
4573 29.5320 4499.00 4215.36 67.00
4574 29.5380 4282.00 4068.27 65.00
4575 29.5440 4205.00 3973.55 65.00
4576 29.5500 4051.00 3920.71 64.00
4577 29.5560 4054.00 3900.43 64.00
4578 29.5620 3915.00 3906.07 63.00
4579 29.5680 3812.00 3929.22 62.00
4580 29.5740 3866.00 3965.85 62.00
4581 29.5800 3815.00 3997.32 62.00
4582 29.5860 3755.00 4017.34 61.00
4583 29.5920 3731.00 4017.66 61.00
4584 29.5980 3827.00 3997.87 62.00
4585 29.6040 3684.00 3965.28 61.00
4586 29.6100 3650.00 3931.78 60.00
4587 29.6160 3676.00 3898.70 61.00
4588 29.6220 3697.00 3872.80 61.00
4589 29.6280 3724.00 3856.97 61.00
4590 29.6340 3761.00 3852.19 61.00
4591 29.6400 3710.00 3855.21 61.00
4592 29.6460 3657.00 3868.10 60.00
4593 29.6520 3668.00 3893.00 61.00
4594 29.6580 3787.00 3934.07 62.00
4595 29.6640 3869.00 3996.98 62.00
4596 29.6700 3963.00 4087.58 63.00
4597 29.6760 3977.00 4209.26 63.00
4598 29.6820 3996.00 4359.84 63.00
4599 29.6880 4136.00 4528.89 64.00
4600 29.6940 4318.00 4694.93 66.00
4601 29.7000 4413.00 4824.88 66.00
4602 29.7060 4556.00 4882.52 67.00
4603 29.7120 4721.00 4850.37 69.00
4604 29.7180 4863.00 4744.98 70.00
4605 29.7240 4832.00 4602.71 70.00
4606 29.7300 4694.00 4457.17 69.00
4607 29.7360 4441.00 4330.74 67.00
4608 29.7420 4397.00 4234.99 66.00
4609 29.7480 4463.00 4173.29 67.00
4610 29.7540 4466.00 4143.17 67.00
4611 29.7600 4446.00 4143.72 67.00
4612 29.7660 4693.00 4174.24 69.00
4613 29.7720 4957.00 4240.86 70.00
4614 29.7780 5294.00 4358.02 73.00
4615 29.7840 5864.00 4548.23 77.00
4616 29.7900 6361.00 4840.69 80.00
4617 29.7960 6843.00 5261.33 83.00
4618 29.8020 7358.00 5822.42 86.00
4619 29.8080 7505.00 6513.62 87.00
4620 29.8140 7478.00 7269.89 86.00
4621 29.8200 7448.00 7983.97 86.00
4622 29.8260 7261.00 8500.53 85.00
4623 29.8320 6927.00 8661.35 83.00
4624 29.8380 6762.00 8410.53 82.00
4625 29.8440 6633.00 7845.95 81.00
4626 29.8500 6285.00 7136.21 79.00
4627 29.8560 6156.00 6426.49 78.00
4628 29.8620 6057.00 5810.07 78.00
4629 29.8680 5914.00 5332.50 77.00
4630 29.8740 5809.00 5004.42 76.00
4631 29.8800 5725.00 4814.12 76.00
4632 29.8860 5680.00 4745.49 75.00
4633 29.8920 5854.00 4788.31 77.00
4634 29.8980 6048.00 4941.40 78.00
4635 29.9040 6173.00 5220.71 79.00
4636 29.9100 6436.00 5635.04 80.00
4637 29.9160 6719.00 6187.63 82.00
4638 29.9220 7079.00 6863.02 84.00
4639 29.9280 7588.00 7613.82 87.00
4640 29.9340 8142.00 8354.42 90.00
4641 29.9400 8679.00 8972.94 93.00
4642 29.9460 9386.00 9383.37 97.00
4643 29.9520 10250.00 9582.96 101.00
4644 29.9580 10999.00 9636.06 105.00
4645 29.9640 11173.00 9601.80 106.00
4646 29.9700 10940.00 9483.47 105.00
4647 29.9760 10447.00 9252.38 102.00
4648 29.9820 9882.00 8919.22 99.00
4649 29.9880 9517.00 8559.70 98.00
4650 29.9940 9289.00 8252.92 96.00
4651 30.0000 9167.00 8026.12 96.00
4652 30.0060 9146.00 7848.45 96.00
4653 30.0120 9225.00 7659.25 96.00
4654 30.0180 8949.00 7418.77 95.00
4655 30.0240 8199.00 7128.47 91.00
4656 30.0300 7525.00 6799.99 87.00
4657 30.0360 6949.00 6436.85 83.00
4658 30.0420 6364.00 6048.46 80.00
4659 30.0480 5823.00 5665.66 76.00
4660 30.0540 5387.00 5321.19 73.00
4661 30.0600 4999.00 5034.75 71.00
4662 30.0660 4725.00 4811.82 69.00
4663 30.0720 4511.00 4648.35 67.00
4664 30.0780 4368.00 4535.10 66.00
4665 30.0840 4295.00 4460.69 66.00
4666 30.0900 4122.00 4414.46 64.00
4667 30.0960 3967.00 4387.56 63.00
4668 30.1020 3950.00 4373.66 63.00
4669 30.1080 3998.00 4367.32 63.00
4670 30.1140 4027.00 4369.08 63.00
4671 30.1200 3987.00 4369.02 63.00
4672 30.1260 4034.00 4367.16 64.00
4673 30.1320 4066.00 4372.11 64.00
4674 30.1380 4079.00 4386.53 64.00
4675 30.1440 4122.00 4417.16 64.00
4676 30.1500 4172.00 4471.08 65.00
4677 30.1560 4419.00 4566.25 66.00
4678 30.1620 4602.00 4727.66 68.00
4679 30.1680 4906.00 4988.25 70.00
4680 30.1740 5312.00 5384.08 73.00
4681 30.1800 5698.00 5944.11 75.00
4682 30.1860 6496.00 6675.25 81.00
4683 30.1920 7910.00 7545.94 89.00
4684 30.1980 9848.00 8471.51 99.00
4685 30.2040 11520.00 9304.61 107.00
4686 30.2100 12028.00 9848.71 110.00
4687 30.2160 11181.00 9934.98 106.00
4688 30.2220 9510.00 9535.29 98.00
4689 30.2280 8029.00 8786.37 90.00
4690 30.2340 7005.00 7884.00 84.00
4691 30.2400 6273.00 7013.19 79.00
4692 30.2460 5730.00 6277.39 76.00
4693 30.2520 5371.00 5729.67 73.00
4694 30.2580 5148.00 5378.39 72.00
4695 30.2640 4904.00 5201.79 70.00
4696 30.2700 4845.00 5163.74 70.00
4697 30.2760 4952.00 5224.48 70.00
4698 30.2820 5051.00 5352.19 71.00
4699 30.2880 5210.00 5522.89 72.00
4700 30.2940 5481.00 5708.76 74.00
4701 30.3000 5784.00 5866.60 76.00
4702 30.3060 5962.00 5940.59 77.00
4703 30.3120 5882.00 5886.03 77.00
4704 30.3180 5433.00 5700.17 74.00
4705 30.3240 4956.00 5423.28 70.00
4706 30.3300 4667.00 5115.33 68.00
4707 30.3360 4555.00 4827.28 67.00
4708 30.3420 4525.00 4588.69 67.00
4709 30.3480 4396.00 4420.12 66.00
4710 30.3540 4326.00 4315.45 66.00
4711 30.3600 4292.00 4266.70 66.00
4712 30.3660 4181.00 4252.27 65.00
4713 30.3720 4128.00 4248.80 64.00
4714 30.3780 4202.00 4229.76 65.00
4715 30.3840 4107.00 4192.56 64.00
4716 30.3900 4037.00 4137.11 64.00
4717 30.3960 4010.00 4078.11 63.00
4718 30.4020 3921.00 4031.02 63.00
4719 30.4080 3988.00 4007.00 63.00
4720 30.4140 3883.00 4008.33 62.00
4721 30.4200 3795.00 4038.94 62.00
4722 30.4260 3785.00 4087.02 62.00
4723 30.4320 3743.00 4136.64 61.00
4724 30.4380 3728.00 4165.15 61.00
4725 30.4440 3737.00 4156.44 61.00
4726 30.4500 3658.00 4103.99 60.00
4727 30.4560 3623.00 4020.02 60.00
4728 30.4620 3619.00 3923.26 60.00
4729 30.4680 3627.00 3829.51 60.00
4730 30.4740 3623.00 3751.67 60.00
4731 30.4800 3637.00 3695.04 60.00
4732 30.4860 3647.00 3658.47 60.00
4733 30.4920 3616.00 3642.28 60.00
4734 30.4980 3615.00 3647.30 60.00
4735 30.5040 3656.00 3676.13 60.00
4736 30.5100 3693.00 3732.69 61.00
4737 30.5160 3725.00 3820.11 61.00
4738 30.5220 3752.00 3937.85 61.00
4739 30.5280 3857.00 4079.13 62.00
4740 30.5340 3968.00 4228.00 63.00
4741 30.5400 4079.00 4358.13 64.00
4742 30.5460 4234.00 4435.26 65.00
4743 30.5520 4246.00 4431.32 65.00
4744 30.5580 4177.00 4345.08 65.00
4745 30.5640 4143.00 4203.07 64.00
4746 30.5700 4044.00 4039.54 64.00
4747 30.5760 3947.00 3881.37 63.00
4748 30.5820 3803.00 3744.99 62.00
4749 30.5880 3609.00 3637.76 60.00
4750 30.5940 3562.00 3560.08 60.00
4751 30.6000 3545.00 3508.46 60.00
4752 30.6060 3470.00 3477.56 59.00
4753 30.6120 3378.00 3462.44 58.00
4754 30.6180 3396.00 3453.67 58.00
4755 30.6240 3378.00 3456.17 58.00
4756 30.6300 3419.00 3467.36 58.00
4757 30.6360 3436.00 3481.20 59.00
4758 30.6420 3619.00 3493.83 60.00
4759 30.6480 3590.00 3501.05 60.00
4760 30.6540 3540.00 3500.42 59.00
4761 30.6600 3414.00 3493.09 58.00
4762 30.6660 3426.00 3482.82 59.00
4763 30.6720 3578.00 3473.53 60.00
4764 30.6780 3615.00 3468.70 60.00
4765 30.6840 3590.00 3471.59 60.00
4766 30.6900 3523.00 3487.50 59.00
4767 30.6960 3630.00 3519.16 60.00
4768 30.7020 3786.00 3566.86 62.00
4769 30.7080 3909.00 3626.66 63.00
4770 30.7140 4056.00 3688.24 64.00
4771 30.7200 4244.00 3738.90 65.00
4772 30.7260 4205.00 3762.51 65.00
4773 30.7320 4006.00 3745.99 63.00
4774 30.7380 3922.00 3691.97 63.00
4775 30.7440 3742.00 3614.86 61.00
4776 30.7500 3650.00 3530.65 60.00
4777 30.7560 3589.00 3451.19 60.00
4778 30.7620 3436.00 3383.32 59.00
4779 30.7680 3307.00 3329.54 58.00
4780 30.7740 3338.00 3289.44 58.00
4781 30.7800 3270.00 3260.65 57.00
4782 30.7860 3200.00 3239.63 57.00
4783 30.7920 3231.00 3224.80 57.00
4784 30.7980 3151.00 3213.47 56.00
4785 30.8040 3075.00 3204.22 55.00
4786 30.8100 3082.00 3196.18 56.00
4787 30.8160 3078.00 3188.86 55.00
4788 30.8220 3039.00 3182.00 55.00
4789 30.8280 3150.00 3175.47 56.00
4790 30.8340 3116.00 3169.18 56.00
4791 30.8400 2945.00 3163.08 54.00
4792 30.8460 3040.00 3157.13 55.00
4793 30.8520 3080.00 3150.78 55.00
4794 30.8580 3030.00 3145.10 55.00
4795 30.8640 3004.00 3139.51 55.00
4796 30.8700 2968.00 3134.01 54.00
4797 30.8760 3008.00 3128.57 55.00
4798 30.8820 2981.00 3123.81 55.00
4799 30.8880 3011.00 3118.51 55.00
4800 30.8940 2998.00 3113.26 55.00
4801 30.9000 3066.00 3108.91 55.00
4802 30.9060 2951.00 3104.62 54.00
4803 30.9120 2936.00 3099.56 54.00
4804 30.9180 2993.00 3094.56 55.00
4805 30.9240 3015.00 3089.61 55.00
4806 30.9300 3093.00 3084.72 56.00
4807 30.9360 3075.00 3079.90 55.00
4808 30.9420 3058.00 3075.21 55.00
4809 30.9480 3075.00 3070.69 55.00
4810 30.9540 3056.00 3066.46 55.00
4811 30.9600 3030.00 3061.30 55.00
4812 30.9660 2953.00 3058.26 54.00
4813 30.9720 3020.00 3068.32 55.00
4814 30.9780 3044.00 3079.58 55.00
4815 30.9840 3095.00 3092.16 56.00
4816 30.9900 3037.00 3105.94 55.00
4817 30.9960 3056.00 3120.46 55.00
4818 31.0020 3078.00 3134.80 55.00
4819 31.0080 3099.00 3147.63 56.00
4820 31.0140 3066.00 3159.01 55.00
4821 31.0200 3075.00 3165.08 55.00
4822 31.0260 3040.00 3167.91 55.00
4823 31.0320 3048.00 3168.99 55.00
4824 31.0380 3038.00 3169.79 55.00
4825 31.0440 2979.00 3171.37 55.00
4826 31.0500 3066.00 3174.30 55.00
4827 31.0560 2998.00 3180.43 55.00
4828 31.0620 3031.00 3186.06 55.00
4829 31.0680 3129.00 3192.78 56.00
4830 31.0740 3041.00 3199.92 55.00
4831 31.0800 3094.00 3210.40 56.00
4832 31.0860 3126.00 3217.41 56.00
4833 31.0920 3176.00 3224.24 56.00
4834 31.0980 3105.00 3231.28 56.00
4835 31.1040 3176.00 3238.66 56.00
4836 31.1100 3083.00 3246.53 56.00
4837 31.1160 3064.00 3254.94 55.00
4838 31.1220 3108.00 3263.81 56.00
4839 31.1280 3061.00 3272.99 55.00
4840 31.1340 3051.00 3282.18 55.00
4841 31.1400 3075.00 3290.39 55.00
4842 31.1460 3095.00 3300.58 56.00
4843 31.1520 3079.00 3308.62 55.00
4844 31.1580 3177.00 3316.47 56.00
4845 31.1640 3160.00 3324.43 56.00
4846 31.1700 3122.00 3332.74 56.00
4847 31.1760 3209.00 3341.56 57.00
4848 31.1820 3255.00 3351.03 57.00
4849 31.1880 3342.00 3361.27 58.00
4850 31.1940 3206.00 3372.46 57.00
4851 31.2000 3354.00 3384.88 58.00
4852 31.2060 3323.00 3399.05 58.00
4853 31.2120 3320.00 3415.73 58.00
4854 31.2180 3383.00 3435.98 58.00
4855 31.2240 3323.00 3461.09 58.00
4856 31.2300 3395.00 3496.30 58.00
4857 31.2360 3381.00 3535.26 58.00
4858 31.2420 3448.00 3582.86 59.00
4859 31.2480 3557.00 3639.94 60.00
4860 31.2540 3548.00 3707.09 60.00
4861 31.2600 3549.00 3784.76 60.00
4862 31.2660 3753.00 3874.43 61.00
4863 31.2720 3761.00 3980.69 61.00
4864 31.2780 3864.00 4110.65 62.00
4865 31.2840 3925.00 4269.08 63.00
4866 31.2900 4125.00 4452.60 64.00
4867 31.2960 4279.00 4646.75 65.00
4868 31.3020 4370.00 4829.01 66.00
4869 31.3080 4336.00 4974.60 66.00
4870 31.3140 4323.00 5059.76 66.00
4871 31.3200 4211.00 5059.12 65.00
4872 31.3260 4027.00 4964.66 63.00
4873 31.3320 3849.00 4795.22 62.00
4874 31.3380 3815.00 4588.50 62.00
4875 31.3440 3813.00 4381.18 62.00
4876 31.3500 3687.00 4198.57 61.00
4877 31.3560 3662.00 4054.90 61.00
4878 31.3620 3642.00 3953.79 60.00
4879 31.3680 3650.00 3895.00 60.00
4880 31.3740 3614.00 3875.77 60.00
4881 31.3800 3593.00 3890.25 60.00
4882 31.3860 3692.00 3938.06 61.00
4883 31.3920 3809.00 4023.76 62.00
4884 31.3980 3931.00 4147.73 63.00
4885 31.4040 3990.00 4307.01 63.00
4886 31.4100 4168.00 4495.64 65.00
4887 31.4160 4291.00 4692.60 66.00
4888 31.4220 4347.00 4876.39 66.00
4889 31.4280 4721.00 5020.79 69.00
4890 31.4340 4883.00 5114.47 70.00
4891 31.4400 5196.00 5177.41 72.00
4892 31.4460 5266.00 5253.05 73.00
4893 31.4520 5560.00 5384.26 75.00
4894 31.4580 5970.00 5595.97 77.00
4895 31.4640 6668.00 5892.17 82.00
4896 31.4700 7439.00 6231.52 86.00
4897 31.4760 7853.00 6564.48 89.00
4898 31.4820 8006.00 6831.57 89.00
4899 31.4880 8182.00 6983.48 90.00
4900 31.4940 7883.00 6977.90 89.00
4901 31.5000 7308.00 6789.96 85.00
4902 31.5060 6593.00 6445.28 81.00
4903 31.5120 5822.00 6019.30 76.00
4904 31.5180 5099.00 5596.61 71.00
4905 31.5240 4905.00 5241.15 70.00
4906 31.5300 4553.00 4990.07 67.00
4907 31.5360 4577.00 4856.03 68.00
4908 31.5420 4453.00 4830.30 67.00
4909 31.5480 4355.00 4886.76 66.00
4910 31.5540 4368.00 4984.94 66.00
4911 31.5600 4375.00 5074.50 66.00
4912 31.5660 4415.00 5105.67 66.00
4913 31.5720 4292.00 5052.28 66.00
4914 31.5780 4243.00 4925.34 65.00
4915 31.5840 4396.00 4764.27 66.00
4916 31.5900 4410.00 4612.10 66.00
4917 31.5960 4466.00 4505.50 67.00
4918 31.6020 4744.00 4473.16 69.00
4919 31.6080 4979.00 4535.47 71.00
4920 31.6140 5326.00 4703.03 73.00
4921 31.6200 5693.00 4973.69 75.00
4922 31.6260 5922.00 5328.04 77.00
4923 31.6320 6133.00 5727.51 78.00
4924 31.6380 6202.00 6109.38 79.00
4925 31.6440 6270.00 6389.44 79.00
4926 31.6500 6407.00 6484.91 80.00
4927 31.6560 6259.00 6359.25 79.00
4928 31.6620 6141.00 6054.83 78.00
4929 31.6680 5747.00 5656.41 76.00
4930 31.6740 5410.00 5243.98 74.00
4931 31.6800 5135.00 4875.01 72.00
4932 31.6860 5037.00 4582.68 71.00
4933 31.6920 4688.00 4380.78 68.00
4934 31.6980 4689.00 4267.14 68.00
4935 31.7040 4752.00 4230.12 69.00
4936 31.7100 4614.00 4250.38 68.00
4937 31.7160 4682.00 4307.22 68.00
4938 31.7220 4642.00 4376.68 68.00
4939 31.7280 4746.00 4435.60 69.00
4940 31.7340 4739.00 4463.37 69.00
4941 31.7400 4713.00 4453.80 69.00
4942 31.7460 4639.00 4419.99 68.00
4943 31.7520 4458.00 4382.47 67.00
4944 31.7580 4411.00 4356.22 66.00
4945 31.7640 4459.00 4349.07 67.00
4946 31.7700 4352.00 4360.92 66.00
4947 31.7760 4295.00 4385.92 66.00
4948 31.7820 4242.00 4418.44 65.00
4949 31.7880 4306.00 4461.63 66.00
4950 31.7940 4309.00 4529.43 66.00
4951 31.8000 4333.00 4638.08 66.00
4952 31.8060 4366.00 4798.46 66.00
4953 31.8120 4687.00 5003.84 68.00
4954 31.8180 5197.00 5237.79 72.00
4955 31.8240 5251.00 5467.55 72.00
4956 31.8300 5315.00 5652.11 73.00
4957 31.8360 5317.00 5764.08 73.00
4958 31.8420 5397.00 5818.13 73.00
4959 31.8480 5653.00 5870.02 75.00
4960 31.8540 5745.00 5981.55 76.00
4961 31.8600 6052.00 6196.34 78.00
4962 31.8660 6216.00 6516.48 79.00
4963 31.8720 6596.00 6903.82 81.00
4964 31.8780 7024.00 7275.73 84.00
4965 31.8840 7344.00 7516.36 86.00
4966 31.8900 7613.00 7517.79 87.00
4967 31.8960 7380.00 7250.05 86.00
4968 31.9020 6657.00 6776.77 82.00
4969 31.9080 5691.00 6208.16 75.00
4970 31.9140 5155.00 5636.79 72.00
4971 31.9200 4626.00 5123.08 68.00
4972 31.9260 4198.00 4707.45 65.00
4973 31.9320 4261.00 4396.28 65.00
4974 31.9380 3920.00 4182.09 63.00
4975 31.9440 4003.00 4049.24 63.00
4976 31.9500 3886.00 3979.84 62.00
4977 31.9560 3811.00 3952.67 62.00
4978 31.9620 3811.00 3960.18 62.00
4979 31.9680 3830.00 3991.03 62.00
4980 31.9740 3925.00 4034.32 63.00
4981 31.9800 4140.00 4078.20 64.00
4982 31.9860 4309.00 4109.32 66.00
4983 31.9920 4376.00 4113.57 66.00
4984 31.9980 4135.00 4088.18 64.00
4985 32.0040 3897.00 4035.85 62.00
4986 32.0100 3828.00 3969.75 62.00
4987 32.0160 3680.00 3904.49 61.00
4988 32.0220 3625.00 3852.37 60.00
4989 32.0280 3712.00 3822.27 61.00
4990 32.0340 3639.00 3819.69 60.00
4991 32.0400 3819.00 3846.52 62.00
4992 32.0460 4015.00 3900.64 63.00
4993 32.0520 4262.00 3975.48 65.00
4994 32.0580 4616.00 4059.88 68.00
4995 32.0640 5033.00 4137.62 71.00
4996 32.0700 4946.00 4189.28 70.00
4997 32.0760 4881.00 4195.91 70.00
4998 32.0820 4664.00 4164.25 68.00
4999 32.0880 4433.00 4106.18 67.00
5000 32.0940 4138.00 4042.83 64.00
5001 32.1000 3803.00 3991.03 62.00
5002 32.1060 3766.00 3959.70 61.00
5003 32.1120 3534.00 3949.47 59.00
5004 32.1180 3521.00 3953.11 59.00
5005 32.1240 3610.00 3956.95 60.00
5006 32.1300 3379.00 3945.41 58.00
5007 32.1360 3333.00 3909.30 58.00
5008 32.1420 3269.00 3851.51 57.00
5009 32.1480 3261.00 3782.16 57.00
5010 32.1540 3373.00 3712.40 58.00
5011 32.1600 3401.00 3650.60 58.00
5012 32.1660 3502.00 3599.27 59.00
5013 32.1720 3469.00 3568.12 59.00
5014 32.1780 3401.00 3561.16 58.00
5015 32.1840 3614.00 3582.31 60.00
5016 32.1900 3628.00 3635.37 60.00
5017 32.1960 3515.00 3722.99 59.00
5018 32.2020 3681.00 3844.61 61.00
5019 32.2080 3638.00 3993.54 60.00
5020 32.2140 3778.00 4157.06 61.00
5021 32.2200 3965.00 4311.10 63.00
5022 32.2260 4038.00 4423.09 64.00
5023 32.2320 4222.00 4459.59 65.00
5024 32.2380 4402.00 4406.09 66.00
5025 32.2440 4278.00 4275.56 65.00
5026 32.2500 4120.00 4102.66 64.00
5027 32.2560 4047.00 3921.10 64.00
5028 32.2620 3859.00 3753.40 62.00
5029 32.2680 3736.00 3619.48 61.00
5030 32.2740 3572.00 3524.33 60.00
5031 32.2800 3571.00 3465.96 60.00
5032 32.2860 3578.00 3439.80 60.00
5033 32.2920 3505.00 3437.13 59.00
5034 32.2980 3450.00 3447.18 59.00
5035 32.3040 3550.00 3457.77 60.00
5036 32.3100 3427.00 3456.97 59.00
5037 32.3160 3336.00 3431.80 58.00
5038 32.3220 3395.00 3392.95 58.00
5039 32.3280 3500.00 3342.07 59.00
5040 32.3340 3351.00 3288.47 58.00
5041 32.3400 3291.00 3239.85 57.00
5042 32.3460 3364.00 3201.78 58.00
5043 32.3520 3243.00 3177.71 57.00
5044 32.3580 3382.00 3169.09 58.00
5045 32.3640 3207.00 3175.36 57.00
5046 32.3700 3219.00 3193.99 57.00
5047 32.3760 3355.00 3220.35 58.00
5048 32.3820 3280.00 3247.70 57.00
5049 32.3880 3278.00 3267.07 57.00
5050 32.3940 3193.00 3269.43 57.00
5051 32.4000 3264.00 3249.57 57.00
5052 32.4060 3256.00 3209.60 57.00
5053 32.4120 3094.00 3156.82 56.00
5054 32.4180 3084.00 3099.91 56.00
5055 32.4240 3122.00 3044.72 56.00
5056 32.4300 2994.00 2996.40 55.00
5057 32.4360 3019.00 2956.27 55.00
5058 32.4420 2960.00 2924.69 54.00
5059 32.4480 2996.00 2901.50 55.00
5060 32.4540 3070.00 2884.82 55.00
5061 32.4600 3013.00 2874.24 55.00
5062 32.4660 2793.00 2879.55 53.00
5063 32.4720 2925.00 2891.91 54.00
5064 32.4780 2968.00 2908.55 54.00
5065 32.4840 3098.00 2928.30 56.00
5066 32.4900 2997.00 2949.25 55.00
5067 32.4960 3069.00 2968.54 55.00
5068 32.5020 3146.00 2982.75 56.00
5069 32.5080 3156.00 2988.34 56.00
5070 32.5140 3102.00 2987.29 56.00
5071 32.5200 3100.00 2982.36 56.00
5072 32.5260 3008.00 2979.68 55.00
5073 32.5320 3081.00 2984.05 56.00
5074 32.5380 3030.00 2997.03 55.00
5075 32.5440 3025.00 3022.39 55.00
5076 32.5500 3148.00 3060.13 56.00
5077 32.5560 3245.00 3107.64 57.00
5078 32.5620 3288.00 3158.68 57.00
5079 32.5680 3379.00 3205.91 58.00
5080 32.5740 3479.00 3238.31 59.00
5081 32.5800 3561.00 3247.33 60.00
5082 32.5860 3498.00 3231.03 59.00
5083 32.5920 3350.00 3195.34 58.00
5084 32.5980 3227.00 3150.47 57.00
5085 32.6040 3117.00 3106.47 56.00
5086 32.6100 3167.00 3071.32 56.00
5087 32.6160 3121.00 3050.94 56.00
5088 32.6220 3078.00 3049.65 55.00
5089 32.6280 3142.00 3070.52 56.00
5090 32.6340 3119.00 3115.54 56.00
5091 32.6400 3284.00 3185.14 57.00
5092 32.6460 3548.00 3277.58 60.00
5093 32.6520 3633.00 3388.10 60.00
5094 32.6580 3883.00 3507.86 62.00
5095 32.6640 3980.00 3621.62 63.00
5096 32.6700 4058.00 3715.97 64.00
5097 32.6760 3887.00 3776.97 62.00
5098 32.6820 3926.00 3804.26 63.00
5099 32.6880 3916.00 3806.81 63.00
5100 32.6940 3919.00 3792.20 63.00
5101 32.7000 3959.00 3760.39 63.00
5102 32.7060 4007.00 3706.31 63.00
5103 32.7120 3869.00 3628.78 62.00
5104 32.7180 3642.00 3536.12 60.00
5105 32.7240 3451.00 3441.23 59.00
5106 32.7300 3404.00 3354.85 58.00
5107 32.7360 3325.00 3282.71 58.00
5108 32.7420 3335.00 3226.24 58.00
5109 32.7480 3259.00 3185.95 57.00
5110 32.7540 3250.00 3153.03 57.00
5111 32.7600 3141.00 3124.89 56.00
5112 32.7660 3120.00 3098.49 56.00
5113 32.7720 3132.00 3073.60 56.00
5114 32.7780 3037.00 3051.57 55.00
5115 32.7840 2945.00 3033.82 54.00
5116 32.7900 2933.00 3021.21 54.00
5117 32.7960 2900.00 3013.84 54.00
5118 32.8020 2952.00 3010.89 54.00
5119 32.8080 2965.00 3010.22 54.00
5120 32.8140 2851.00 3011.75 53.00
5121 32.8200 2946.00 3014.70 54.00
5122 32.8260 2960.00 3019.67 54.00
5123 32.8320 2857.00 3028.26 53.00
5124 32.8380 2837.00 3043.92 53.00
5125 32.8440 2938.00 3069.58 54.00
5126 32.8500 2913.00 3104.14 54.00
5127 32.8560 2820.00 3147.97 53.00
5128 32.8620 2922.00 3198.00 54.00
5129 32.8680 2960.00 3248.41 54.00
5130 32.8740 3126.00 3290.80 56.00
5131 32.8800 3071.00 3315.94 55.00
5132 32.8860 2974.00 3318.62 55.00
5133 32.8920 3065.00 3302.25 55.00
5134 32.8980 3112.00 3277.68 56.00
5135 32.9040 3142.00 3258.47 56.00
5136 32.9100 3141.00 3257.88 56.00
5137 32.9160 3181.00 3289.58 56.00
5138 32.9220 3232.00 3361.20 57.00
5139 32.9280 3364.00 3481.60 58.00
5140 32.9340 3487.00 3652.87 59.00
5141 32.9400 3620.00 3869.59 60.00
5142 32.9460 3917.00 4115.47 63.00
5143 32.9520 4201.00 4362.43 65.00
5144 32.9580 4450.00 4569.86 67.00
5145 32.9640 4694.00 4692.83 69.00
5146 32.9700 4669.00 4698.55 68.00
5147 32.9760 4390.00 4583.92 66.00
5148 32.9820 4054.00 4378.77 64.00
5149 32.9880 3757.00 4127.44 61.00
5150 32.9940 3628.00 3871.41 60.00
5151 33.0000 3536.00 3638.88 59.00
5152 33.0060 3366.00 3445.26 58.00
5153 33.0120 3280.00 3295.10 57.00
5154 33.0180 3286.00 3185.98 57.00
5155 33.0240 3186.00 3111.18 56.00
5156 33.0300 3106.00 3061.95 56.00
5157 33.0360 3111.00 3030.54 56.00
5158 33.0420 3148.00 3010.79 56.00
5159 33.0480 3132.00 2998.37 56.00
5160 33.0540 3101.00 2990.51 56.00
5161 33.0600 3137.00 2985.59 56.00
5162 33.0660 3038.00 2982.74 55.00
5163 33.0720 2951.00 2989.30 54.00
5164 33.0780 2979.00 2995.64 55.00
5165 33.0840 3087.00 3003.37 56.00
5166 33.0900 3192.00 3014.50 56.00
5167 33.0960 3181.00 3026.14 56.00
5168 33.1020 3215.00 3039.74 57.00
5169 33.1080 3250.00 3057.06 57.00
5170 33.1140 3289.00 3079.41 57.00
5171 33.1200 3393.00 3112.25 58.00
5172 33.1260 3526.00 3160.28 59.00
5173 33.1320 3633.00 3231.10 60.00
5174 33.1380 3868.00 3333.95 62.00
5175 33.1440 4169.00 3477.43 65.00
5176 33.1500 4492.00 3669.19 67.00
5177 33.1560 4900.00 3909.33 70.00
5178 33.1620 5132.00 4187.48 72.00
5179 33.1680 5128.00 4481.86 72.00
5180 33.1740 5159.00 4755.39 72.00
5181 33.1800 5050.00 4957.74 71.00
5182 33.1860 4854.00 5038.54 70.00
5183 33.1920 4797.00 4975.50 69.00
5184 33.1980 4654.00 4791.13 68.00
5185 33.2040 4497.00 4536.63 67.00
5186 33.2100 4473.00 4262.79 67.00
5187 33.2160 4448.00 4007.99 67.00
5188 33.2220 4286.00 3796.37 65.00
5189 33.2280 4132.00 3640.14 64.00
5190 33.2340 3996.00 3542.78 63.00
5191 33.2400 3959.00 3501.20 63.00
5192 33.2460 3919.00 3509.79 63.00
5193 33.2520 3835.00 3560.93 62.00
5194 33.2580 3873.00 3645.32 62.00
5195 33.2640 3866.00 3751.43 62.00
5196 33.2700 3778.00 3863.84 61.00
5197 33.2760 3744.00 3962.82 61.00
5198 33.2820 3853.00 4026.44 62.00
5199 33.2880 3892.00 4038.98 62.00
5200 33.2940 3883.00 4001.80 62.00
5201 33.3000 3863.00 3933.73 62.00
5202 33.3060 3801.00 3860.31 62.00
5203 33.3120 3725.00 3804.44 61.00
5204 33.3180 3688.00 3782.89 61.00
5205 33.3240 3731.00 3804.65 61.00
5206 33.3300 3811.00 3871.98 62.00
5207 33.3360 4001.00 3977.03 63.00
5208 33.3420 4301.00 4103.90 66.00
5209 33.3480 4552.00 4228.08 67.00
5210 33.3540 4635.00 4318.81 68.00
5211 33.3600 4629.00 4347.53 68.00
5212 33.3660 4533.00 4302.90 67.00
5213 33.3720 4244.00 4197.82 65.00
5214 33.3780 3754.00 4058.99 61.00
5215 33.3840 3426.00 3912.14 59.00
5216 33.3900 3308.00 3776.15 58.00
5217 33.3960 3313.00 3662.15 58.00
5218 33.4020 3275.00 3574.06 57.00
5219 33.4080 3208.00 3512.95 57.00
5220 33.4140 3105.00 3473.19 56.00
5221 33.4200 3099.00 3453.30 56.00
5222 33.4260 3191.00 3447.30 56.00
5223 33.4320 3174.00 3440.67 56.00
5224 33.4380 3139.00 3441.23 56.00
5225 33.4440 3218.00 3452.04 57.00
5226 33.4500 3344.00 3476.40 58.00
5227 33.4560 3368.00 3520.46 58.00
5228 33.4620 3435.00 3593.42 59.00
5229 33.4680 3561.00 3707.08 60.00
5230 33.4740 3626.00 3874.85 60.00
5231 33.4800 3824.00 4108.78 62.00
5232 33.4860 4116.00 4416.06 64.00
5233 33.4920 4529.00 4794.53 67.00
5234 33.4980 5133.00 5227.67 72.00
5235 33.5040 5997.00 5679.94 77.00
5236 33.5100 6709.00 6095.41 82.00
5237 33.5160 7014.00 6409.97 84.00
5238 33.5220 6974.00 6575.07 84.00
5239 33.5280 6734.00 6573.76 82.00
5240 33.5340 6390.00 6410.93 80.00
5241 33.5400 5926.00 6107.93 77.00
5242 33.5460 5432.00 5710.25 74.00
5243 33.5520 5003.00 5282.14 71.00
5244 33.5580 4680.00 4879.05 68.00
5245 33.5640 4501.00 4540.26 67.00
5246 33.5700 4365.00 4282.40 66.00
5247 33.5760 4322.00 4104.79 66.00
5248 33.5820 4284.00 3993.61 65.00
5249 33.5880 4172.00 3926.30 65.00
5250 33.5940 4162.00 3877.05 65.00
5251 33.6000 4085.00 3823.16 64.00
5252 33.6060 3975.00 3751.51 63.00
5253 33.6120 3927.00 3661.89 63.00
5254 33.6180 3861.00 3563.15 62.00
5255 33.6240 3632.00 3466.22 60.00
5256 33.6300 3525.00 3377.34 59.00
5257 33.6360 3575.00 3307.64 60.00
5258 33.6420 3504.00 3256.98 59.00
5259 33.6480 3385.00 3225.11 58.00
5260 33.6540 3474.00 3209.59 59.00
5261 33.6600 3416.00 3206.23 58.00
5262 33.6660 3420.00 3209.60 58.00
5263 33.6720 3463.00 3213.33 59.00
5264 33.6780 3484.00 3211.12 59.00
5265 33.6840 3438.00 3198.82 59.00
5266 33.6900 3382.00 3176.27 58.00
5267 33.6960 3305.00 3146.46 57.00
5268 33.7020 3188.00 3112.94 56.00
5269 33.7080 3196.00 3078.30 57.00
5270 33.7140 3217.00 3044.26 57.00
5271 33.7200 3104.00 3012.16 56.00
5272 33.7260 3043.00 2983.09 55.00
5273 33.7320 3103.00 2956.62 56.00
5274 33.7380 3081.00 2934.77 56.00
5275 33.7440 2974.00 2916.16 55.00
5276 33.7500 2826.00 2900.28 53.00
5277 33.7560 2852.00 2886.63 53.00
5278 33.7620 2820.00 2874.74 53.00
5279 33.7680 2796.00 2864.24 53.00
5280 33.7740 2724.00 2854.94 52.00
5281 33.7800 2770.00 2846.80 53.00
5282 33.7860 2811.00 2840.00 53.00
5283 33.7920 2747.00 2834.89 52.00
5284 33.7980 2765.00 2831.99 53.00
5285 33.8040 2763.00 2831.91 53.00
5286 33.8100 2775.00 2833.72 53.00
5287 33.8160 2725.00 2840.42 52.00
5288 33.8220 2812.00 2850.17 53.00
5289 33.8280 2921.00 2865.07 54.00
5290 33.8340 2944.00 2882.99 54.00
5291 33.8400 3079.00 2897.59 55.00
5292 33.8460 3197.00 2905.24 57.00
5293 33.8520 3060.00 2903.35 55.00
5294 33.8580 2987.00 2892.08 55.00
5295 33.8640 2917.00 2874.17 54.00
5296 33.8700 2843.00 2853.20 53.00
5297 33.8760 2706.00 2832.19 52.00
5298 33.8820 2775.00 2813.18 53.00
5299 33.8880 2722.00 2797.27 52.00
5300 33.8940 2764.00 2784.81 53.00
5301 33.9000 2722.00 2775.59 52.00
5302 33.9060 2693.00 2769.12 52.00
5303 33.9120 2754.00 2764.92 52.00
5304 33.9180 2718.00 2762.27 52.00
5305 33.9240 2767.00 2760.98 53.00
5306 33.9300 2678.00 2761.03 52.00
5307 33.9360 2694.00 2762.68 52.00
5308 33.9420 2702.00 2766.52 52.00
5309 33.9480 2693.00 2773.47 52.00
5310 33.9540 2739.00 2784.63 52.00
5311 33.9600 2731.00 2801.17 52.00
5312 33.9660 2741.00 2821.22 52.00
5313 33.9720 2820.00 2850.22 53.00
5314 33.9780 2897.00 2884.35 54.00
5315 33.9840 2985.00 2919.02 55.00
5316 33.9900 2961.00 2953.07 54.00
5317 33.9960 3010.00 2979.40 55.00
5318 34.0020 3073.00 2990.96 55.00
5319 34.0080 3005.00 2985.65 55.00
5320 34.0140 2884.00 2961.99 54.00
5321 34.0200 2895.00 2927.47 54.00
5322 34.0260 2847.00 2888.69 53.00
5323 34.0320 2767.00 2850.84 53.00
5324 34.0380 2695.00 2817.28 52.00
5325 34.0440 2694.00 2789.45 52.00
5326 34.0500 2693.00 2767.49 52.00
5327 34.0560 2643.00 2751.84 51.00
5328 34.0620 2741.00 2740.83 52.00
5329 34.0680 2740.00 2733.27 52.00
5330 34.0740 2705.00 2728.12 52.00
5331 34.0800 2692.00 2725.93 52.00
5332 34.0860 2772.00 2723.42 53.00
5333 34.0920 2702.00 2721.56 52.00
5334 34.0980 2754.00 2720.14 52.00
5335 34.1040 2699.00 2719.01 52.00
5336 34.1100 2763.00 2718.11 53.00
5337 34.1160 2622.00 2717.62 51.00
5338 34.1220 2743.00 2717.22 52.00
5339 34.1280 2765.00 2717.28 53.00
5340 34.1340 2679.00 2717.81 52.00
5341 34.1400 2628.00 2719.59 51.00
5342 34.1460 2682.00 2722.56 52.00
5343 34.1520 2579.00 2726.81 51.00
5344 34.1580 2678.00 2732.20 52.00
5345 34.1640 2710.00 2738.25 52.00
5346 34.1700 2716.00 2744.32 52.00
5347 34.1760 2752.00 2750.29 52.00
5348 34.1820 2795.00 2752.96 53.00
5349 34.1880 2782.00 2752.54 53.00
5350 34.1940 2607.00 2749.14 51.00
5351 34.2000 2768.00 2743.68 53.00
5352 34.2060 2778.00 2737.16 53.00
5353 34.2120 2740.00 2730.34 52.00
5354 34.2180 2682.00 2723.69 52.00
5355 34.2240 2757.00 2717.50 53.00
5356 34.2300 2715.00 2712.03 52.00
5357 34.2360 2685.00 2707.41 52.00
5358 34.2420 2729.00 2703.67 52.00
5359 34.2480 2770.00 2700.75 53.00
5360 34.2540 2735.00 2698.53 52.00
5361 34.2600 2695.00 2696.91 52.00
5362 34.2660 2661.00 2695.77 52.00
5363 34.2720 2644.00 2695.04 51.00
5364 34.2780 2718.00 2694.66 52.00
5365 34.2840 2681.00 2694.61 52.00
5366 34.2900 2654.00 2695.27 52.00
5367 34.2960 2618.00 2697.09 51.00
5368 34.3020 2680.00 2699.36 52.00
5369 34.3080 2663.00 2702.72 52.00
5370 34.3140 2730.00 2707.36 52.00
5371 34.3200 2830.00 2713.69 53.00
5372 34.3260 2632.00 2722.12 51.00
5373 34.3320 2660.00 2732.92 52.00
5374 34.3380 2680.00 2746.08 52.00
5375 34.3440 2770.00 2761.20 53.00
5376 34.3500 2735.00 2777.32 52.00
5377 34.3560 2789.00 2792.90 53.00
5378 34.3620 2721.00 2805.89 52.00
5379 34.3680 2719.00 2814.29 52.00
5380 34.3740 2725.00 2817.35 52.00
5381 34.3800 2838.00 2816.46 53.00
5382 34.3860 2828.00 2814.72 53.00
5383 34.3920 2698.00 2816.04 52.00
5384 34.3980 2864.00 2824.86 54.00
5385 34.4040 2963.00 2845.87 54.00
5386 34.4100 2973.00 2884.36 55.00
5387 34.4160 3109.00 2945.28 56.00
5388 34.4220 3197.00 3033.29 57.00
5389 34.4280 3184.00 3151.11 56.00
5390 34.4340 3357.00 3295.67 58.00
5391 34.4400 3452.00 3460.28 59.00
5392 34.4460 3548.00 3630.51 60.00
5393 34.4520 3599.00 3784.39 60.00
5394 34.4580 3753.00 3893.81 61.00
5395 34.4640 3690.00 3935.27 61.00
5396 34.4700 3877.00 3899.39 62.00
5397 34.4760 3763.00 3803.53 61.00
5398 34.4820 3759.00 3678.83 61.00
5399 34.4880 3701.00 3556.63 61.00
5400 34.4940 3572.00 3461.74 60.00
5401 34.5000 3511.00 3410.28 59.00
5402 34.5060 3563.00 3409.40 60.00
5403 34.5120 3609.00 3457.16 60.00
5404 34.5180 3554.00 3543.03 60.00
5405 34.5240 3598.00 3648.50 60.00
5406 34.5300 3717.00 3748.49 61.00
5407 34.5360 3882.00 3814.60 62.00
5408 34.5420 3782.00 3825.09 61.00
5409 34.5480 3811.00 3776.37 62.00
5410 34.5540 3677.00 3683.51 61.00
5411 34.5600 3632.00 3569.01 60.00
5412 34.5660 3529.00 3452.41 59.00
5413 34.5720 3423.00 3346.53 59.00
5414 34.5780 3389.00 3259.79 58.00
5415 34.5840 3321.00 3198.23 58.00
5416 34.5900 3286.00 3166.42 57.00
5417 34.5960 3390.00 3166.54 58.00
5418 34.6020 3445.00 3197.26 59.00
5419 34.6080 3491.00 3253.22 59.00
5420 34.6140 3506.00 3324.69 59.00
5421 34.6200 3620.00 3397.54 60.00
5422 34.6260 3723.00 3453.47 61.00
5423 34.6320 3810.00 3473.92 62.00
5424 34.6380 3849.00 3448.35 62.00
5425 34.6440 3721.00 3380.57 61.00
5426 34.6500 3434.00 3285.43 59.00
5427 34.6560 3361.00 3179.69 58.00
5428 34.6620 3145.00 3076.60 56.00
5429 34.6680 2987.00 2984.97 55.00
5430 34.6740 2971.00 2909.29 55.00
5431 34.6800 2890.00 2850.66 54.00
5432 34.6860 2823.00 2807.67 53.00
5433 34.6920 2781.00 2777.55 53.00
5434 34.6980 2881.00 2757.20 54.00
5435 34.7040 2791.00 2743.67 53.00
5436 34.7100 2746.00 2734.68 52.00
5437 34.7160 2821.00 2728.61 53.00
5438 34.7220 2767.00 2724.38 53.00
5439 34.7280 2803.00 2721.37 53.00
5440 34.7340 2705.00 2719.20 52.00
5441 34.7400 2732.00 2717.66 52.00
5442 34.7460 2728.00 2716.66 52.00
5443 34.7520 2716.00 2716.14 52.00
5444 34.7580 2670.00 2716.08 52.00
5445 34.7640 2645.00 2716.50 51.00
5446 34.7700 2747.00 2717.45 52.00
5447 34.7760 2809.00 2719.03 53.00
5448 34.7820 2694.00 2721.45 52.00
5449 34.7880 2794.00 2725.04 53.00
5450 34.7940 2796.00 2730.39 53.00
5451 34.8000 2829.00 2738.41 53.00
5452 34.8060 2855.00 2750.43 53.00
5453 34.8120 2819.00 2768.25 53.00
5454 34.8180 2879.00 2794.09 54.00
5455 34.8240 2960.00 2830.36 54.00
5456 34.8300 2940.00 2879.21 54.00
5457 34.8360 3003.00 2942.20 55.00
5458 34.8420 3166.00 3019.39 56.00
5459 34.8480 3292.00 3108.35 57.00
5460 34.8540 3508.00 3204.06 59.00
5461 34.8600 3602.00 3298.05 60.00
5462 34.8660 3783.00 3381.11 62.00
5463 34.8720 3811.00 3445.76 62.00
5464 34.8780 3883.00 3488.35 62.00
5465 34.8840 4014.00 3508.54 63.00
5466 34.8900 4048.00 3508.70 64.00
5467 34.8960 3867.00 3495.17 62.00
5468 34.9020 3767.00 3477.13 61.00
5469 34.9080 3703.00 3461.52 61.00
5470 34.9140 3763.00 3449.29 61.00
5471 34.9200 3636.00 3434.35 60.00
5472 34.9260 3594.00 3404.52 60.00
5473 34.9320 3447.00 3354.37 59.00
5474 34.9380 3412.00 3281.92 58.00
5475 34.9440 3360.00 3195.06 58.00
5476 34.9500 3284.00 3104.34 57.00
5477 34.9560 3199.00 3018.61 57.00
5478 34.9620 3171.00 2943.88 56.00
5479 34.9680 3146.00 2883.52 56.00
5480 34.9740 3134.00 2838.63 56.00
5481 34.9800 3113.00 2808.75 56.00
5482 34.9860 3079.00 2792.69 55.00
5483 34.9920 3087.00 2787.69 56.00
5484 34.9980 3084.00 2791.70 56.00
5485 35.0040 2965.00 2800.83 54.00
5486 35.0100 3045.00 2814.97 55.00
5487 35.0160 3003.00 2829.50 55.00
5488 35.0220 3010.00 2840.67 55.00
5489 35.0280 2963.00 2844.83 54.00
5490 35.0340 2886.00 2839.85 54.00
5491 35.0400 2827.00 2826.45 53.00
5492 35.0460 2794.00 2807.30 53.00
5493 35.0520 2851.00 2785.79 53.00
5494 35.0580 2854.00 2764.59 53.00
5495 35.0640 2806.00 2745.75 53.00
5496 35.0700 2746.00 2729.78 52.00
5497 35.0760 2746.00 2717.20 52.00
5498 35.0820 2782.00 2708.05 53.00
5499 35.0880 2735.00 2701.34 52.00
5500 35.0940 2703.00 2696.73 52.00
5501 35.1000 2689.00 2692.69 52.00
5502 35.1060 2806.00 2690.75 53.00
5503 35.1120 2793.00 2689.61 53.00
5504 35.1180 2766.00 2689.09 53.00
5505 35.1240 2753.00 2695.51 52.00
5506 35.1300 2781.00 2702.68 53.00
5507 35.1360 2763.00 2709.96 53.00
5508 35.1420 2833.00 2717.29 53.00
5509 35.1480 2850.00 2724.95 53.00
5510 35.1540 2821.00 2732.05 53.00
5511 35.1600 2779.00 2738.67 53.00
5512 35.1660 2798.00 2744.68 53.00
5513 35.1720 2859.00 2750.12 53.00
5514 35.1780 2907.00 2755.18 54.00
5515 35.1840 2845.00 2760.12 53.00
5516 35.1900 2749.00 2765.11 52.00
5517 35.1960 2749.00 2770.85 52.00
5518 35.2020 2885.00 2776.32 54.00
5519 35.2080 2828.00 2782.22 53.00
5520 35.2140 2788.00 2788.28 53.00
5521 35.2200 2849.00 2794.62 53.00
5522 35.2260 2877.00 2801.21 54.00
5523 35.2320 2839.00 2808.04 53.00
5524 35.2380 2772.00 2815.17 53.00
5525 35.2440 2822.00 2822.68 53.00
5526 35.2500 2824.00 2830.76 53.00
5527 35.2560 2878.00 2839.67 54.00
5528 35.2620 2891.00 2850.00 54.00
5529 35.2680 2940.00 2861.81 54.00
5530 35.2740 2979.00 2875.79 55.00
5531 35.2800 2897.00 2892.36 54.00
5532 35.2860 2949.00 2912.09 54.00
5533 35.2920 2964.00 2933.99 54.00
5534 35.2980 2960.00 2957.59 54.00
5535 35.3040 3011.00 2981.77 55.00
5536 35.3100 3063.00 3003.97 55.00
5537 35.3160 3059.00 3021.99 55.00
5538 35.3220 2972.00 3033.43 55.00
5539 35.3280 2894.00 3037.82 54.00
5540 35.3340 2893.00 3036.87 54.00
5541 35.3400 2891.00 3033.20 54.00
5542 35.3460 2849.00 3029.45 53.00
5543 35.3520 2861.00 3026.89 53.00
5544 35.3580 2842.00 3025.86 53.00
5545 35.3640 2922.00 3026.57 54.00
5546 35.3700 2954.00 3028.07 54.00
5547 35.3760 2950.00 3029.84 54.00
5548 35.3820 2874.00 3032.03 54.00
5549 35.3880 2849.00 3035.48 53.00
5550 35.3940 2967.00 3040.64 54.00
5551 35.4000 2983.00 3050.30 55.00
5552 35.4060 2970.00 3064.93 54.00
5553 35.4120 2967.00 3088.75 54.00
5554 35.4180 2952.00 3120.79 54.00
5555 35.4240 2966.00 3159.34 54.00
5556 35.4300 2970.00 3203.31 54.00
5557 35.4360 3022.00 3250.43 55.00
5558 35.4420 3128.00 3297.20 56.00
5559 35.4480 3165.00 3339.04 56.00
5560 35.4540 3099.00 3371.44 56.00
5561 35.4600 3118.00 3392.29 56.00
5562 35.4660 3211.00 3403.67 57.00
5563 35.4720 3271.00 3411.06 57.00
5564 35.4780 3357.00 3420.58 58.00
5565 35.4840 3485.00 3436.85 59.00
5566 35.4900 3517.00 3462.12 59.00
5567 35.4960 3503.00 3495.98 59.00
5568 35.5020 3529.00 3535.35 59.00
5569 35.5080 3522.00 3576.00 59.00
5570 35.5140 3544.00 3613.46 60.00
5571 35.5200 3638.00 3645.32 60.00
5572 35.5260 3628.00 3670.45 60.00
5573 35.5320 3703.00 3688.07 61.00
5574 35.5380 3803.00 3698.11 62.00
5575 35.5440 3740.00 3701.98 61.00
5576 35.5500 3741.00 3702.05 61.00
5577 35.5560 3701.00 3701.50 61.00
5578 35.5620 3602.00 3704.96 60.00
5579 35.5680 3610.00 3717.91 60.00
5580 35.5740 3546.00 3745.71 60.00
5581 35.5800 3611.00 3787.74 60.00
5582 35.5860 3780.00 3842.60 61.00
5583 35.5920 3876.00 3904.19 62.00
5584 35.5980 4041.00 3963.25 64.00
5585 35.6040 4028.00 4010.21 63.00
5586 35.6100 3910.00 4038.98 63.00
5587 35.6160 3868.00 4048.98 62.00
5588 35.6220 3804.00 4044.07 62.00
5589 35.6280 3775.00 4034.39 61.00
5590 35.6340 3741.00 4022.61 61.00
5591 35.6400 3687.00 4019.20 61.00
5592 35.6460 3665.00 4027.57 61.00
5593 35.6520 3545.00 4045.89 60.00
5594 35.6580 3492.00 4067.31 59.00
5595 35.6640 3596.00 4081.81 60.00
5596 35.6700 3494.00 4082.45 59.00
5597 35.6760 3362.00 4061.96 58.00
5598 35.6820 3430.00 4026.21 59.00
5599 35.6880 3472.00 3983.41 59.00
5600 35.6940 3385.00 3942.79 58.00
5601 35.7000 3369.00 3912.31 58.00
5602 35.7060 3363.00 3885.89 58.00
5603 35.7120 3377.00 3865.63 58.00
5604 35.7180 3342.00 3864.72 58.00
5605 35.7240 3411.00 3881.11 58.00
5606 35.7300 3429.00 3911.21 59.00
5607 35.7360 3446.00 3948.24 59.00
5608 35.7420 3554.00 3987.48 60.00
5609 35.7480 3527.00 4023.96 59.00
5610 35.7540 3544.00 4052.02 60.00
5611 35.7600 3618.00 4065.37 60.00
5612 35.7660 3714.00 4059.47 61.00
5613 35.7720 3689.00 4033.57 61.00
5614 35.7780 3697.00 3991.48 61.00
5615 35.7840 3667.00 3935.33 61.00
5616 35.7900 3626.00 3872.36 60.00
5617 35.7960 3554.00 3809.22 60.00
5618 35.8020 3544.00 3752.32 60.00
5619 35.8080 3493.00 3705.27 59.00
5620 35.8140 3422.00 3668.82 58.00
5621 35.8200 3448.00 3640.50 59.00
5622 35.8260 3455.00 3615.32 59.00
5623 35.8320 3384.00 3587.27 58.00
5624 35.8380 3379.00 3551.84 58.00
5625 35.8440 3431.00 3508.24 59.00
5626 35.8500 3367.00 3459.52 58.00
5627 35.8560 3345.00 3408.90 58.00
5628 35.8620 3319.00 3360.02 58.00
5629 35.8680 3276.00 3315.19 57.00
5630 35.8740 3180.00 3276.34 56.00
5631 35.8800 3095.00 3242.54 56.00
5632 35.8860 3110.00 3214.09 56.00
5633 35.8920 3116.00 3190.26 56.00
5634 35.8980 3066.00 3170.07 55.00
5635 35.9040 3047.00 3152.64 55.00
5636 35.9100 3068.00 3137.19 55.00
5637 35.9160 2960.00 3123.16 54.00
5638 35.9220 2997.00 3110.19 55.00
5639 35.9280 3044.00 3097.92 55.00
5640 35.9340 3080.00 3086.25 55.00
5641 35.9400 3105.00 3075.46 56.00
5642 35.9460 3186.00 3065.38 56.00
5643 35.9520 3121.00 3057.02 56.00
5644 35.9580 3160.00 3063.65 56.00
5645 35.9640 3180.00 3079.01 56.00
5646 35.9700 3271.00 3097.45 57.00
5647 35.9760 3344.00 3117.25 58.00
5648 35.9820 3362.00 3142.09 58.00
5649 35.9880 3550.00 3171.78 60.00
5650 35.9940 3636.00 3209.57 60.00
5651 36.0000 3767.00 3258.61 61.00
5652 36.0060 3925.00 3321.76 63.00
5653 36.0120 4024.00 3402.14 63.00
5654 36.0180 4114.00 3501.00 64.00
5655 36.0240 4171.00 3617.85 65.00
5656 36.0300 4265.00 3749.77 65.00
5657 36.0360 4390.00 3892.34 66.00
5658 36.0420 4514.00 4036.20 67.00
5659 36.0480 4570.00 4172.98 68.00
5660 36.0540 4738.00 4297.36 69.00
5661 36.0600 4933.00 4414.22 70.00
5662 36.0660 5093.00 4539.83 71.00
5663 36.0720 5490.00 4693.91 74.00
5664 36.0780 5830.00 4890.05 76.00
5665 36.0840 6050.00 5130.59 78.00
5666 36.0900 6409.00 5403.11 80.00
5667 36.0960 6660.00 5679.07 82.00
5668 36.1020 6689.00 5919.15 82.00
5669 36.1080 6768.00 6082.53 82.00
5670 36.1140 6822.00 6150.10 83.00
5671 36.1200 6908.00 6136.58 83.00
5672 36.1260 7016.00 6077.29 84.00
5673 36.1320 7042.00 6004.56 84.00
5674 36.1380 7249.00 5933.65 85.00
5675 36.1440 7394.00 5859.95 86.00
5676 36.1500 7251.00 5767.12 85.00
5677 36.1560 6825.00 5641.48 83.00
5678 36.1620 6223.00 5486.25 79.00
5679 36.1680 5818.00 5317.98 76.00
5680 36.1740 5395.00 5153.99 73.00
5681 36.1800 5083.00 5004.97 71.00
5682 36.1860 4767.00 4874.53 69.00
5683 36.1920 4542.00 4764.81 67.00
5684 36.1980 4469.00 4675.76 67.00
5685 36.2040 4454.00 4604.76 67.00
5686 36.2100 4364.00 4548.94 66.00
5687 36.2160 4248.00 4509.07 65.00
5688 36.2220 4172.00 4489.88 65.00
5689 36.2280 4377.00 4494.23 66.00
5690 36.2340 4358.00 4520.04 66.00
5691 36.2400 4252.00 4557.08 65.00
5692 36.2460 4254.00 4590.29 65.00
5693 36.2520 4181.00 4599.79 65.00
5694 36.2580 4316.00 4569.99 66.00
5695 36.2640 4323.00 4499.09 66.00
5696 36.2700 4239.00 4398.31 65.00
5697 36.2760 4171.00 4285.78 65.00
5698 36.2820 4104.00 4177.91 64.00
5699 36.2880 4046.00 4087.49 64.00
5700 36.2940 3794.00 4022.07 62.00
5701 36.3000 3658.00 3985.98 60.00
5702 36.3060 3633.00 3965.93 60.00
5703 36.3120 3620.00 3969.83 60.00
5704 36.3180 3662.00 3995.65 61.00
5705 36.3240 3708.00 4035.68 61.00
5706 36.3300 3644.00 4081.73 60.00
5707 36.3360 3708.00 4126.40 61.00
5708 36.3420 3711.00 4163.68 61.00
5709 36.3480 3785.00 4187.55 62.00
5710 36.3540 3763.00 4191.62 61.00
5711 36.3600 3772.00 4172.05 61.00
5712 36.3660 3806.00 4131.93 62.00
5713 36.3720 3825.00 4081.93 62.00
5714 36.3780 3861.00 4036.37 62.00
5715 36.3840 3904.00 4009.32 62.00
5716 36.3900 4053.00 4013.25 64.00
5717 36.3960 4137.00 4058.43 64.00
5718 36.4020 4331.00 4152.59 66.00
5719 36.4080 4675.00 4300.18 68.00
5720 36.4140 4877.00 4500.69 70.00
5721 36.4200 5448.00 4747.16 74.00
5722 36.4260 5900.00 5024.79 77.00
5723 36.4320 6188.00 5309.55 79.00
5724 36.4380 6188.00 5573.17 79.00
5725 36.4440 6309.00 5787.47 79.00
5726 36.4500 6381.00 5925.94 80.00
5727 36.4560 6307.00 5964.87 79.00
5728 36.4620 6244.00 5891.75 79.00
5729 36.4680 5996.00 5715.84 77.00
5730 36.4740 5590.00 5467.40 75.00
5731 36.4800 5149.00 5186.70 72.00
5732 36.4860 4771.00 4910.49 69.00
5733 36.4920 4372.00 4664.34 66.00
5734 36.4980 4239.00 4460.75 65.00
5735 36.5040 4114.00 4300.27 64.00
5736 36.5100 4023.00 4174.30 63.00
5737 36.5160 3811.00 4069.58 62.00
5738 36.5220 3693.00 3974.97 61.00
5739 36.5280 3717.00 3885.62 61.00
5740 36.5340 3568.00 3801.28 60.00
5741 36.5400 3430.00 3726.77 59.00
5742 36.5460 3493.00 3662.79 59.00
5743 36.5520 3379.00 3610.12 58.00
5744 36.5580 3300.00 3567.92 57.00
5745 36.5640 3244.00 3534.22 57.00
5746 36.5700 3177.00 3506.47 56.00
5747 36.5760 3238.00 3482.92 57.00
5748 36.5820 3197.00 3463.70 57.00
5749 36.5880 3164.00 3450.24 56.00
5750 36.5940 3130.00 3441.19 56.00
5751 36.6000 3145.00 3445.39 56.00
5752 36.6060 3217.00 3457.27 57.00
5753 36.6120 3254.00 3474.02 57.00
5754 36.6180 3268.00 3491.72 57.00
5755 36.6240 3241.00 3505.85 57.00
5756 36.6300 3232.00 3513.34 57.00
5757 36.6360 3277.00 3512.21 57.00
5758 36.6420 3145.00 3509.06 56.00
5759 36.6480 3307.00 3504.26 58.00
5760 36.6540 3315.00 3498.48 58.00
5761 36.6600 3319.00 3490.18 58.00
5762 36.6660 3350.00 3476.08 58.00
5763 36.6720 3298.00 3455.24 57.00
5764 36.6780 3176.00 3428.38 56.00
5765 36.6840 3175.00 3400.41 56.00
5766 36.6900 3152.00 3374.05 56.00
5767 36.6960 3248.00 3353.01 57.00
5768 36.7020 3237.00 3338.62 57.00
5769 36.7080 3182.00 3330.08 56.00
5770 36.7140 3262.00 3324.79 57.00
5771 36.7200 3350.00 3319.18 58.00
5772 36.7260 3335.00 3310.41 58.00
5773 36.7320 3325.00 3297.99 58.00
5774 36.7380 3305.00 3282.47 57.00
5775 36.7440 3318.00 3268.77 58.00
5776 36.7500 3373.00 3257.11 58.00
5777 36.7560 3206.00 3247.39 57.00
5778 36.7620 3255.00 3237.86 57.00
5779 36.7680 3264.00 3225.60 57.00
5780 36.7740 3113.00 3207.87 56.00
5781 36.7800 3159.00 3183.73 56.00
5782 36.7860 3028.00 3154.98 55.00
5783 36.7920 3132.00 3123.50 56.00
5784 36.7980 3058.00 3092.22 55.00
5785 36.8040 2979.00 3063.04 55.00
5786 36.8100 2883.00 3037.16 54.00
5787 36.8160 3080.00 3014.88 55.00
5788 36.8220 3011.00 2996.73 55.00
5789 36.8280 2880.00 2982.10 54.00
5790 36.8340 2934.00 2970.49 54.00
5791 36.8400 3017.00 2961.37 55.00
5792 36.8460 2991.00 2953.67 55.00
5793 36.8520 2917.00 2948.47 54.00
5794 36.8580 2846.00 2945.08 53.00
5795 36.8640 2943.00 2943.62 54.00
5796 36.8700 2856.00 2944.29 53.00
5797 36.8760 2915.00 2947.25 54.00
5798 36.8820 2886.00 2952.49 54.00
5799 36.8880 2881.00 2959.67 54.00
5800 36.8940 2991.00 2968.05 55.00
5801 36.9000 2964.00 2976.43 54.00
5802 36.9060 2893.00 2983.04 54.00
5803 36.9120 2877.00 2985.82 54.00
5804 36.9180 2896.00 2983.00 54.00
5805 36.9240 2999.00 2973.14 55.00
5806 36.9300 2945.00 2959.86 54.00
5807 36.9360 2966.00 2942.93 54.00
5808 36.9420 2982.00 2923.75 55.00
5809 36.9480 2908.00 2905.49 54.00
5810 36.9540 2855.00 2890.28 53.00
5811 36.9600 2901.00 2877.35 54.00
5812 36.9660 2926.00 2867.98 54.00
5813 36.9720 2921.00 2863.33 54.00
5814 36.9780 2881.00 2868.74 54.00
5815 36.9840 3009.00 2877.96 55.00
5816 36.9900 2991.00 2890.22 55.00
5817 36.9960 3085.00 2905.47 56.00
5818 37.0020 3081.00 2923.09 56.00
5819 37.0080 3069.00 2941.47 55.00
5820 37.0140 3049.00 2960.91 55.00
5821 37.0200 3176.00 2977.66 56.00
5822 37.0260 3229.00 2990.35 57.00
5823 37.0320 3150.00 2997.75 56.00
5824 37.0380 3105.00 3000.07 56.00
5825 37.0440 3036.00 2998.71 55.00
5826 37.0500 3001.00 2995.24 55.00
5827 37.0560 3026.00 2990.91 55.00
5828 37.0620 2980.00 2986.30 55.00
5829 37.0680 2947.00 2982.19 54.00
5830 37.0740 2914.00 2978.65 54.00
5831 37.0800 3062.00 2976.17 55.00
5832 37.0860 3181.00 2975.57 56.00
5833 37.0920 3004.00 2978.09 55.00
5834 37.0980 3159.00 2985.31 56.00
5835 37.1040 3084.00 2999.34 56.00
5836 37.1100 3081.00 3023.05 56.00
5837 37.1160 3199.00 3059.78 57.00
5838 37.1220 3156.00 3114.55 56.00
5839 37.1280 3330.00 3191.31 58.00
5840 37.1340 3319.00 3293.93 58.00
5841 37.1400 3436.00 3423.73 59.00
5842 37.1460 3893.00 3578.80 62.00
5843 37.1520 4045.00 3752.30 64.00
5844 37.1580 4358.00 3931.19 66.00
5845 37.1640 4780.00 4097.03 69.00
5846 37.1700 4824.00 4224.98 69.00
5847 37.1760 4759.00 4290.93 69.00
5848 37.1820 4710.00 4280.57 69.00
5849 37.1880 4492.00 4197.47 67.00
5850 37.1940 3913.00 4061.01 63.00
5851 37.2000 3844.00 3896.69 62.00
5852 37.2060 3654.00 3727.63 60.00
5853 37.2120 3555.00 3570.79 60.00
5854 37.2180 3508.00 3437.80 59.00
5855 37.2240 3267.00 3333.90 57.00
5856 37.2300 3230.00 3260.58 57.00
5857 37.2360 3259.00 3216.10 57.00
5858 37.2420 3244.00 3196.85 57.00
5859 37.2480 3259.00 3198.40 57.00
5860 37.2540 3153.00 3214.84 56.00
5861 37.2600 3135.00 3240.73 56.00
5862 37.2660 3127.00 3269.66 56.00
5863 37.2720 3149.00 3295.34 56.00
5864 37.2780 3116.00 3310.81 56.00
5865 37.2840 3138.00 3311.26 56.00
5866 37.2900 2997.00 3295.97 55.00
5867 37.2960 3064.00 3268.42 55.00
5868 37.3020 3092.00 3234.07 56.00
5869 37.3080 3074.00 3198.91 55.00
5870 37.3140 3044.00 3166.15 55.00
5871 37.3200 3079.00 3137.11 55.00
5872 37.3260 3024.00 3114.18 55.00
5873 37.3320 3137.00 3097.76 56.00
5874 37.3380 3090.00 3087.68 56.00
5875 37.3440 3042.00 3079.76 55.00
5876 37.3500 3092.00 3075.53 56.00
5877 37.3560 3038.00 3076.86 55.00
5878 37.3620 3197.00 3084.27 57.00
5879 37.3680 3069.00 3098.72 55.00
5880 37.3740 3062.00 3122.85 55.00
5881 37.3800 3153.00 3155.83 56.00
5882 37.3860 3285.00 3198.26 57.00
5883 37.3920 3299.00 3250.45 57.00
5884 37.3980 3436.00 3310.57 59.00
5885 37.4040 3471.00 3374.78 59.00
5886 37.4100 3478.00 3437.01 59.00
5887 37.4160 3476.00 3489.67 59.00
5888 37.4220 3597.00 3524.30 60.00
5889 37.4280 3607.00 3536.11 60.00
5890 37.4340 3603.00 3526.28 60.00
5891 37.4400 3761.00 3503.10 61.00
5892 37.4460 3734.00 3476.89 61.00
5893 37.4520 3648.00 3456.58 60.00
5894 37.4580 3681.00 3448.00 61.00
5895 37.4640 3620.00 3453.35 60.00
5896 37.4700 3589.00 3471.13 60.00
5897 37.4760 3578.00 3496.90 60.00
5898 37.4820 3657.00 3524.73 60.00
5899 37.4880 3769.00 3549.48 61.00
5900 37.4940 3701.00 3566.43 61.00
5901 37.5000 3781.00 3570.16 61.00
5902 37.5060 3682.00 3554.77 61.00
5903 37.5120 3592.00 3516.96 60.00
5904 37.5180 3517.00 3458.46 59.00
5905 37.5240 3366.00 3386.40 58.00
5906 37.5300 3195.00 3309.53 57.00
5907 37.5360 3040.00 3234.89 55.00
5908 37.5420 3002.00 3167.35 55.00
5909 37.5480 3057.00 3109.59 55.00
5910 37.5540 2984.00 3062.53 55.00
5911 37.5600 2968.00 3025.81 54.00
5912 37.5660 2931.00 2998.47 54.00
5913 37.5720 2850.00 2978.10 53.00
5914 37.5780 2944.00 2963.29 54.00
5915 37.5840 2826.00 2952.47 53.00
5916 37.5900 2816.00 2944.42 53.00
5917 37.5960 2851.00 2938.23 53.00
5918 37.6020 2840.00 2933.28 53.00
5919 37.6080 2843.00 2929.52 53.00
5920 37.6140 2916.00 2926.07 54.00
5921 37.6200 2840.00 2923.11 53.00
5922 37.6260 2920.00 2920.59 54.00
5923 37.6320 2848.00 2918.46 53.00
5924 37.6380 2820.00 2916.74 53.00
5925 37.6440 2920.00 2915.45 54.00
5926 37.6500 3012.00 2914.67 55.00
5927 37.6560 2885.00 2914.53 54.00
5928 37.6620 2920.00 2915.54 54.00
5929 37.6680 2896.00 2917.41 54.00
5930 37.6740 2971.00 2919.95 55.00
5931 37.6800 2960.00 2930.47 54.00
5932 37.6860 2999.00 2944.83 55.00
5933 37.6920 3178.00 2962.98 56.00
5934 37.6980 3081.00 2985.74 56.00
5935 37.7040 3140.00 3013.67 56.00
5936 37.7100 3172.00 3047.09 56.00
5937 37.7160 3388.00 3085.63 58.00
5938 37.7220 3484.00 3128.41 59.00
5939 37.7280 3460.00 3173.98 59.00
5940 37.7340 3460.00 3220.65 59.00
5941 37.7400 3609.00 3267.02 60.00
5942 37.7460 3774.00 3313.00 61.00
5943 37.7520 3801.00 3361.37 62.00
5944 37.7580 3798.00 3418.30 62.00
5945 37.7640 4012.00 3492.00 63.00
5946 37.7700 3978.00 3589.82 63.00
5947 37.7760 4391.00 3715.70 66.00
5948 37.7820 4550.00 3868.03 67.00
5949 37.7880 4803.00 4040.12 69.00
5950 37.7940 4902.00 4217.86 70.00
5951 37.8000 5102.00 4380.60 71.00
5952 37.8060 5125.00 4505.25 72.00
5953 37.8120 5209.00 4573.31 72.00
5954 37.8180 5122.00 4580.78 72.00
5955 37.8240 4845.00 4542.17 70.00
5956 37.8300 4817.00 4484.37 69.00
5957 37.8360 4879.00 4435.63 70.00
5958 37.8420 4887.00 4417.03 70.00
5959 37.8480 5119.00 4438.92 72.00
5960 37.8540 5324.00 4499.60 73.00
5961 37.8600 5652.00 4585.42 75.00
5962 37.8660 5894.00 4671.91 77.00
5963 37.8720 6072.00 4727.98 78.00
5964 37.8780 5875.00 4725.88 77.00
5965 37.8840 5653.00 4654.05 75.00
5966 37.8900 5305.00 4521.99 73.00
5967 37.8960 4884.00 4352.58 70.00
5968 37.9020 4477.00 4170.44 67.00
5969 37.9080 4320.00 3994.52 66.00
5970 37.9140 4067.00 3836.95 64.00
5971 37.9200 3875.00 3702.64 62.00
5972 37.9260 3896.00 3590.54 62.00
5973 37.9320 3837.00 3499.02 62.00
5974 37.9380 3708.00 3424.29 61.00
5975 37.9440 3622.00 3364.23 60.00
5976 37.9500 3557.00 3317.41 60.00
5977 37.9560 3508.00 3282.20 59.00
5978 37.9620 3521.00 3257.26 59.00
5979 37.9680 3455.00 3241.09 59.00
5980 37.9740 3521.00 3232.14 59.00
5981 37.9800 3439.00 3228.75 59.00
5982 37.9860 3433.00 3230.56 59.00
5983 37.9920 3365.00 3236.65 58.00
5984 37.9980 3267.00 3246.54 57.00
5985 38.0040 3323.00 3258.90 58.00
5986 38.0100 3299.00 3271.95 57.00
5987 38.0160 3261.00 3285.60 57.00
5988 38.0220 3181.00 3298.79 56.00
5989 38.0280 3155.00 3312.59 56.00
5990 38.0340 3122.00 3329.09 56.00
5991 38.0400 3227.00 3347.73 57.00
5992 38.0460 3275.00 3371.14 57.00
5993 38.0520 3292.00 3398.83 57.00
5994 38.0580 3288.00 3428.08 57.00
5995 38.0640 3386.00 3454.75 58.00
5996 38.0700 3306.00 3474.30 57.00
5997 38.0760 3262.00 3484.50 57.00
5998 38.0820 3142.00 3486.27 56.00
5999 38.0880 3116.00 3482.66 56.00
6000 38.0940 3203.00 3476.44 57.00
6001 38.1000 3112.00 3468.69 56.00
6002 38.1060 3290.00 3458.60 57.00
6003 38.1120 3212.00 3444.76 57.00
6004 38.1180 3146.00 3427.26 56.00
6005 38.1240 3167.00 3407.69 56.00
6006 38.1300 3106.00 3389.53 56.00
6007 38.1360 3224.00 3375.43 57.00
6008 38.1420 3142.00 3366.31 56.00
6009 38.1480 3297.00 3361.12 57.00
6010 38.1540 3281.00 3356.99 57.00
6011 38.1600 3228.00 3349.85 57.00
6012 38.1660 3226.00 3335.95 57.00
6013 38.1720 3200.00 3313.73 57.00
6014 38.1780 3209.00 3284.53 57.00
6015 38.1840 3248.00 3251.47 57.00
6016 38.1900 3160.00 3217.75 56.00
6017 38.1960 3055.00 3186.68 55.00
6018 38.2020 3105.00 3158.60 56.00
6019 38.2080 3121.00 3135.17 56.00
6020 38.2140 3021.00 3116.70 55.00
6021 38.2200 3015.00 3103.01 55.00
6022 38.2260 3039.00 3093.65 55.00
6023 38.2320 3048.00 3088.09 55.00
6024 38.2380 3063.00 3085.82 55.00
6025 38.2440 3119.00 3086.57 56.00
6026 38.2500 3079.00 3089.93 55.00
6027 38.2560 3117.00 3095.89 56.00
6028 38.2620 3178.00 3104.36 56.00
6029 38.2680 3051.00 3114.79 55.00
6030 38.2740 3009.00 3126.42 55.00
6031 38.2800 3024.00 3138.23 55.00
6032 38.2860 3116.00 3148.71 56.00
6033 38.2920 3126.00 3156.08 56.00
6034 38.2980 3177.00 3158.77 56.00
6035 38.3040 3073.00 3156.08 55.00
6036 38.3100 3043.00 3148.70 55.00
6037 38.3160 3044.00 3137.35 55.00
6038 38.3220 3056.00 3124.72 55.00
6039 38.3280 3011.00 3116.71 55.00
6040 38.3340 3003.00 3109.38 55.00
6041 38.3400 3027.00 3104.48 55.00
6042 38.3460 2988.00 3103.94 55.00
6043 38.3520 2986.00 3105.64 55.00
6044 38.3580 2985.00 3111.13 55.00
6045 38.3640 2998.00 3120.61 55.00
6046 38.3700 3033.00 3134.10 55.00
6047 38.3760 3130.00 3151.44 56.00
6048 38.3820 3186.00 3170.74 56.00
6049 38.3880 3216.00 3193.14 57.00
6050 38.3940 3195.00 3217.20 57.00
6051 38.4000 3141.00 3240.20 56.00
6052 38.4060 3198.00 3259.83 57.00
6053 38.4120 3288.00 3274.12 57.00
6054 38.4180 3214.00 3282.56 57.00
6055 38.4240 3272.00 3284.74 57.00
6056 38.4300 3260.00 3282.77 57.00
6057 38.4360 3205.00 3278.54 57.00
6058 38.4420 3158.00 3274.46 56.00
6059 38.4480 3184.00 3271.40 56.00
6060 38.4540 3241.00 3269.64 57.00
6061 38.4600 3199.00 3268.91 57.00
6062 38.4660 3195.00 3270.14 57.00
6063 38.4720 3177.00 3272.40 56.00
6064 38.4780 3167.00 3275.46 56.00
6065 38.4840 3093.00 3280.52 56.00
6066 38.4900 3066.00 3287.34 55.00
6067 38.4960 3119.00 3294.67 56.00
6068 38.5020 3160.00 3300.64 56.00
6069 38.5080 3223.00 3304.12 57.00
6070 38.5140 3096.00 3302.05 56.00
6071 38.5200 3076.00 3295.66 55.00
6072 38.5260 3121.00 3286.49 56.00
6073 38.5320 3152.00 3277.06 56.00
6074 38.5380 3139.00 3269.03 56.00
6075 38.5440 3206.00 3263.60 57.00
6076 38.5500 3240.00 3261.33 57.00
6077 38.5560 3260.00 3264.70 57.00
6078 38.5620 3256.00 3271.40 57.00
6079 38.5680 3155.00 3279.61 56.00
6080 38.5740 3148.00 3288.96 56.00
6081 38.5800 3149.00 3299.00 56.00
6082 38.5860 3184.00 3311.23 56.00
6083 38.5920 3197.00 3326.20 57.00
6084 38.5980 3158.00 3344.55 56.00
6085 38.6040 3141.00 3366.29 56.00
6086 38.6100 3218.00 3390.59 57.00
6087 38.6160 3222.00 3416.17 57.00
6088 38.6220 3234.00 3439.63 57.00
6089 38.6280 3243.00 3460.32 57.00
6090 38.6340 3288.00 3474.53 57.00
6091 38.6400 3373.00 3483.91 58.00
6092 38.6460 3312.00 3491.70 58.00
6093 38.6520 3384.00 3502.40 58.00
6094 38.6580 3423.00 3520.28 59.00
6095 38.6640 3387.00 3548.48 58.00
6096 38.6700 3397.00 3588.34 58.00
6097 38.6760 3428.00 3638.91 59.00
6098 38.6820 3502.00 3697.64 59.00
6099 38.6880 3466.00 3758.54 59.00
6100 38.6940 3434.00 3814.74 59.00
6101 38.7000 3483.00 3854.23 59.00
6102 38.7060 3482.00 3870.32 59.00
6103 38.7120 3435.00 3858.92 59.00
6104 38.7180 3372.00 3824.09 58.00
6105 38.7240 3325.00 3775.31 58.00
6106 38.7300 3363.00 3719.12 58.00
6107 38.7360 3457.00 3663.24 59.00
6108 38.7420 3426.00 3613.51 59.00
6109 38.7480 3563.00 3572.01 60.00
6110 38.7540 3580.00 3541.74 60.00
6111 38.7600 3561.00 3522.50 60.00
6112 38.7660 3599.00 3515.69 60.00
6113 38.7720 3623.00 3521.96 60.00
6114 38.7780 3710.00 3542.01 61.00
6115 38.7840 3824.00 3578.06 62.00
6116 38.7900 3905.00 3633.10 62.00
6117 38.7960 3938.00 3710.71 63.00
6118 38.8020 4100.00 3814.28 64.00
6119 38.8080 4346.00 3946.05 66.00
6120 38.8140 4523.00 4106.11 67.00
6121 38.8200 4787.00 4290.40 69.00
6122 38.8260 4911.00 4490.30 70.00
6123 38.8320 4982.00 4690.69 71.00
6124 38.8380 4996.00 4872.17 71.00
6125 38.8440 5022.00 5013.26 71.00
6126 38.8500 5072.00 5095.40 71.00
6127 38.8560 4962.00 5107.97 70.00
6128 38.8620 4966.00 5049.92 70.00
6129 38.8680 5002.00 4931.96 71.00
6130 38.8740 4734.00 4774.88 69.00
6131 38.8800 4500.00 4603.36 67.00
6132 38.8860 4580.00 4439.40 68.00
6133 38.8920 4792.00 4299.22 69.00
6134 38.8980 4803.00 4192.61 69.00
6135 38.9040 4673.00 4124.23 68.00
6136 38.9100 4605.00 4094.43 68.00
6137 38.9160 4549.00 4100.52 67.00
6138 38.9220 4553.00 4137.81 67.00
6139 38.9280 4643.00 4201.25 68.00
6140 38.9340 4690.00 4286.19 68.00
6141 38.9400 4782.00 4391.14 69.00
6142 38.9460 4970.00 4517.06 70.00
6143 38.9520 5195.00 4664.04 72.00
6144 38.9580 5463.00 4829.40 74.00
6145 38.9640 5743.00 5004.06 76.00
6146 38.9700 5990.00 5171.87 77.00
6147 38.9760 6128.00 5310.56 78.00
6148 38.9820 6080.00 5398.06 78.00
6149 38.9880 6150.00 5421.61 78.00
6150 38.9940 6219.00 5384.87 79.00
6151 39.0000 6141.00 5304.57 78.00
6152 39.0060 5944.00 5200.03 77.00
6153 39.0120 5874.00 5085.07 77.00
6154 39.0180 5765.00 4965.60 76.00
6155 39.0240 5554.00 4841.61 75.00
6156 39.0300 5265.00 4712.80 73.00
6157 39.0360 4846.00 4582.43 70.00
6158 39.0420 4520.00 4457.54 67.00
6159 39.0480 4263.00 4345.46 65.00
6160 39.0540 4064.00 4251.18 64.00
6161 39.0600 3955.00 4176.79 63.00
6162 39.0660 3813.00 4121.95 62.00
6163 39.0720 3739.00 4084.86 61.00
6164 39.0780 3807.00 4063.44 62.00
6165 39.0840 3778.00 4057.19 61.00
6166 39.0900 3746.00 4067.04 61.00
6167 39.0960 3778.00 4095.83 61.00
6168 39.1020 3809.00 4145.59 62.00
6169 39.1080 3852.00 4216.56 62.00
6170 39.1140 4004.00 4294.13 63.00
6171 39.1200 4135.00 4382.04 64.00
6172 39.1260 4191.00 4473.01 65.00
6173 39.1320 4280.00 4554.31 65.00
6174 39.1380 4328.00 4612.14 66.00
6175 39.1440 4239.00 4636.31 65.00
6176 39.1500 4113.00 4624.94 64.00
6177 39.1560 4123.00 4587.94 64.00
6178 39.1620 4130.00 4542.70 64.00
6179 39.1680 4215.00 4509.42 65.00
6180 39.1740 4167.00 4506.03 65.00
6181 39.1800 4106.00 4545.90 64.00
6182 39.1860 4284.00 4636.69 65.00
6183 39.1920 4548.00 4779.66 67.00
6184 39.1980 4813.00 4968.92 69.00
6185 39.2040 5150.00 5190.91 72.00
6186 39.2100 5499.00 5426.08 74.00
6187 39.2160 5841.00 5652.32 76.00
6188 39.2220 6204.00 5849.98 79.00
6189 39.2280 6458.00 6008.05 80.00
6190 39.2340 6626.00 6116.74 81.00
6191 39.2400 6634.00 6167.26 81.00
6192 39.2460 6478.00 6152.32 80.00
6193 39.2520 6335.00 6071.28 80.00
6194 39.2580 5991.00 5931.53 77.00
6195 39.2640 5757.00 5745.17 76.00
6196 39.2700 5527.00 5522.66 74.00
6197 39.2760 5241.00 5272.87 72.00
6198 39.2820 4840.00 5007.41 70.00
6199 39.2880 4590.00 4740.53 68.00
6200 39.2940 4289.00 4485.95 65.00
6201 39.3000 3971.00 4254.85 63.00
6202 39.3060 3697.00 4054.44 61.00
6203 39.3120 3588.00 3888.13 60.00
6204 39.3180 3461.00 3755.67 59.00
6205 39.3240 3390.00 3653.77 58.00
6206 39.3300 3315.00 3576.85 58.00
6207 39.3360 3260.00 3517.88 57.00
6208 39.3420 3199.00 3469.29 57.00
6209 39.3480 3157.00 3424.52 56.00
6210 39.3540 3133.00 3379.46 56.00
6211 39.3600 3133.00 3332.84 56.00
6212 39.3660 3153.00 3284.97 56.00
6213 39.3720 3144.00 3239.56 56.00
6214 39.3780 3118.00 3195.32 56.00
6215 39.3840 3052.00 3157.27 55.00
6216 39.3900 3070.00 3123.47 55.00
6217 39.3960 2975.00 3095.30 55.00
6218 39.4020 2954.00 3073.10 54.00
6219 39.4080 2909.00 3059.62 54.00
6220 39.4140 2965.00 3052.82 54.00
6221 39.4200 2997.00 3052.12 55.00
6222 39.4260 3012.00 3057.28 55.00
6223 39.4320 2959.00 3067.73 54.00
6224 39.4380 3000.00 3082.49 55.00
6225 39.4440 3044.00 3099.84 55.00
6226 39.4500 3063.00 3117.43 55.00
6227 39.4560 2997.00 3131.66 55.00
6228 39.4620 3007.00 3139.83 55.00
6229 39.4680 3078.00 3138.51 55.00
6230 39.4740 3074.00 3126.69 55.00
6231 39.4800 3089.00 3105.62 56.00
6232 39.4860 2995.00 3077.93 55.00
6233 39.4920 3061.00 3046.09 55.00
6234 39.4980 3070.00 3012.30 55.00
6235 39.5040 2966.00 2977.18 54.00
6236 39.5100 2927.00 2943.49 54.00
6237 39.5160 2939.00 2913.14 54.00
6238 39.5220 2919.00 2886.05 54.00
6239 39.5280 2843.00 2862.76 53.00
6240 39.5340 2931.00 2843.35 54.00
6241 39.5400 2774.00 2827.91 53.00
6242 39.5460 2798.00 2815.51 53.00
6243 39.5520 2872.00 2807.89 54.00
6244 39.5580 2945.00 2803.96 54.00
6245 39.5640 2982.00 2803.47 55.00
6246 39.5700 2926.00 2805.94 54.00
6247 39.5760 2865.00 2810.71 54.00
6248 39.5820 2970.00 2816.47 54.00
6249 39.5880 3015.00 2821.92 55.00
6250 39.5940 2821.00 2825.39 53.00
6251 39.6000 2813.00 2824.82 53.00
6252 39.6060 2878.00 2819.06 54.00
6253 39.6120 2891.00 2806.99 54.00
6254 39.6180 3002.00 2789.15 55.00
6255 39.6240 3018.00 2767.17 55.00
6256 39.6300 2890.00 2743.27 54.00
6257 39.6360 2846.00 2718.89 53.00
6258 39.6420 2889.00 2695.96 54.00
6259 39.6480 2938.00 2674.66 54.00
6260 39.6540 2934.00 2655.84 54.00
6261 39.6600 2900.00 2639.37 54.00
6262 39.6660 2788.00 2625.98 53.00
6263 39.6720 2829.00 2635.82 53.00
6264 39.6780 2793.00 2649.18 53.00
6265 39.6840 2900.00 2665.19 54.00
6266 39.6900 2842.00 2684.01 53.00
6267 39.6960 2758.00 2705.85 53.00
6268 39.7020 2887.00 2730.95 54.00
6269 39.7080 2977.00 2759.44 55.00
6270 39.7140 3008.00 2791.85 55.00
6271 39.7200 2882.00 2826.60 54.00
6272 39.7260 2900.00 2863.43 54.00
6273 39.7320 2993.00 2900.92 55.00
6274 39.7380 2947.00 2935.98 54.00
6275 39.7440 3033.00 2969.05 55.00
6276 39.7500 2961.00 2997.45 54.00
6277 39.7560 3138.00 3020.17 56.00
6278 39.7620 3201.00 3038.00 57.00
6279 39.7680 3189.00 3049.24 56.00
6280 39.7740 3220.00 3054.64 57.00
6281 39.7800 3210.00 3054.17 57.00
6282 39.7860 3044.00 3048.37 55.00
6283 39.7920 3025.00 3039.45 55.00
6284 39.7980 3034.00 3028.80 55.00
6285 39.8040 2962.00 3020.90 54.00
6286 39.8100 2888.00 3016.26 54.00
6287 39.8160 2783.00 3015.91 53.00
6288 39.8220 2821.00 3021.24 53.00
6289 39.8280 2837.00 3032.99 53.00
6290 39.8340 2874.00 3048.86 54.00
6291 39.8400 2865.00 3065.82 54.00
6292 39.8460 2868.00 3093.18 54.00
6293 39.8520 2835.00 3132.63 53.00
6294 39.8580 2939.00 3185.74 54.00
6295 39.8640 3050.00 3253.42 55.00
6296 39.8700 3078.00 3335.52 55.00
6297 39.8760 3358.00 3429.74 58.00
6298 39.8820 3402.00 3532.16 58.00
6299 39.8880 3704.00 3635.40 61.00
6300 39.8940 4002.00 3729.91 63.00
6301 39.9000 3882.00 3805.03 62.00
6302 39.9060 3871.00 3851.08 62.00
6303 39.9120 3839.00 3861.34 62.00
6304 39.9180 3824.00 3833.84 62.00
6305 39.9240 3652.00 3773.11 60.00
6306 39.9300 3367.00 3689.06 58.00
6307 39.9360 3231.00 3593.75 57.00
6308 39.9420 3095.00 3497.80 56.00
6309 39.9480 3060.00 3408.96 55.00
6310 39.9540 2972.00 3331.94 55.00
6311 39.9600 2900.00 3268.67 54.00
6312 39.9660 2913.00 3219.23 54.00
6313 39.9720 2914.00 3182.37 54.00
6314 39.9780 2846.00 3156.32 53.00
6315 39.9840 2926.00 3139.23 54.00
6316 39.9900 2863.00 3129.37 54.00
6317 39.9960 2944.00 3124.82 54.00
6318 40.0020 2851.00 3124.62 53.00
6319 40.0080 2792.00 3127.08 53.00
6320 40.0140 2914.00 3130.88 54.00
6321 40.0200 2858.00 3134.97 53.00
6322 40.0260 2852.00 3138.72 53.00
6323 40.0320 2867.00 3142.21 54.00
6324 40.0380 2906.00 3145.57 54.00
6325 40.0440 2846.00 3149.19 53.00
6326 40.0500 2884.00 3152.54 54.00
6327 40.0560 2936.00 3155.57 54.00
6328 40.0620 2841.00 3158.17 53.00
6329 40.0680 2876.00 3160.70 54.00
6330 40.0740 2848.00 3163.91 53.00
6331 40.0800 2844.00 3168.58 53.00
6332 40.0860 2862.00 3175.31 53.00
6333 40.0920 2835.00 3184.39 53.00
6334 40.0980 2988.00 3195.83 55.00
6335 40.1040 2970.00 3209.55 54.00
6336 40.1100 2980.00 3225.79 55.00
6337 40.1160 2997.00 3244.94 55.00
6338 40.1220 3050.00 3268.42 55.00
6339 40.1280 3051.00 3297.41 55.00
6340 40.1340 3078.00 3332.48 55.00
6341 40.1400 3119.00 3372.74 56.00
6342 40.1460 3165.00 3416.22 56.00
6343 40.1520 3196.00 3459.02 57.00
6344 40.1580 3240.00 3496.16 57.00
6345 40.1640 3331.00 3522.51 58.00
6346 40.1700 3349.00 3534.65 58.00
6347 40.1760 3314.00 3531.44 58.00
6348 40.1820 3254.00 3516.26 57.00
6349 40.1880 3190.00 3495.13 56.00
6350 40.1940 3121.00 3474.96 56.00
6351 40.2000 3140.00 3461.82 56.00
6352 40.2060 3168.00 3457.66 56.00
6353 40.2120 3192.00 3455.59 56.00
6354 40.2180 3197.00 3466.26 57.00
6355 40.2240 3343.00 3487.02 58.00
6356 40.2300 3446.00 3513.07 59.00
6357 40.2360 3484.00 3537.99 59.00
6358 40.2420 3520.00 3554.90 59.00
6359 40.2480 3628.00 3558.85 60.00
6360 40.2540 3603.00 3549.24 60.00
6361 40.2600 3493.00 3529.90 59.00
6362 40.2660 3413.00 3506.68 58.00
6363 40.2720 3364.00 3484.66 58.00
6364 40.2780 3334.00 3466.48 58.00
6365 40.2840 3271.00 3452.76 57.00
6366 40.2900 3214.00 3440.09 57.00
6367 40.2960 3230.00 3424.14 57.00
6368 40.3020 3189.00 3400.24 56.00
6369 40.3080 3075.00 3365.93 55.00
6370 40.3140 3114.00 3323.32 56.00
6371 40.3200 3180.00 3276.62 56.00
6372 40.3260 3144.00 3231.00 56.00
6373 40.3320 3258.00 3190.55 57.00
6374 40.3380 3349.00 3157.72 58.00
6375 40.3440 3380.00 3133.12 58.00
6376 40.3500 3417.00 3115.55 58.00
6377 40.3560 3568.00 3102.10 60.00
6378 40.3620 3539.00 3088.65 59.00
6379 40.3680 3442.00 3070.93 59.00
6380 40.3740 3367.00 3045.69 58.00
6381 40.3800 3329.00 3012.60 58.00
6382 40.3860 3242.00 2973.58 57.00
6383 40.3920 3200.00 2931.63 57.00
6384 40.3980 3077.00 2889.59 55.00
6385 40.4040 3027.00 2849.78 55.00
6386 40.4100 3018.00 2813.78 55.00
6387 40.4160 2960.00 2782.45 54.00
6388 40.4220 2929.00 2756.05 54.00
6389 40.4280 2870.00 2734.30 54.00
6390 40.4340 2834.00 2716.12 53.00
6391 40.4400 2851.00 2701.34 53.00
6392 40.4460 2844.00 2688.48 53.00
6393 40.4520 2801.00 2675.65 53.00
6394 40.4580 2723.00 2663.41 52.00
6395 40.4640 2705.00 2650.26 52.00
6396 40.4700 2753.00 2635.97 52.00
6397 40.4760 2658.00 2620.76 52.00
6398 40.4820 2722.00 2605.13 52.00
6399 40.4880 2677.00 2589.59 52.00
6400 40.4940 2670.00 2574.64 52.00
6401 40.5000 2712.00 2573.11 52.00
6402 40.5060 2706.00 2575.47 52.00
6403 40.5120 2677.00 2579.70 52.00
6404 40.5180 2657.00 2586.50 52.00
6405 40.5240 2730.00 2595.52 52.00
6406 40.5300 2816.00 2607.44 53.00
6407 40.5360 2898.00 2622.60 54.00
6408 40.5420 2815.00 2640.62 53.00
6409 40.5480 2900.00 2661.34 54.00
6410 40.5540 3042.00 2683.92 55.00
6411 40.5600 3069.00 2707.49 55.00
6412 40.5660 2982.00 2730.01 55.00
6413 40.5720 3099.00 2749.51 56.00
6414 40.5780 2911.00 2763.78 54.00
6415 40.5840 2958.00 2771.57 54.00
6416 40.5900 2963.00 2773.03 54.00
6417 40.5960 3005.00 2769.81 55.00
6418 40.6020 2928.00 2764.58 54.00
6419 40.6080 3002.00 2759.68 55.00
6420 40.6140 2889.00 2756.89 54.00
6421 40.6200 2926.00 2757.41 54.00
6422 40.6260 2939.00 2761.03 54.00
6423 40.6320 2979.00 2767.42 55.00
6424 40.6380 2991.00 2775.47 55.00
6425 40.6440 2992.00 2783.69 55.00
6426 40.6500 2918.00 2791.02 54.00
6427 40.6560 2897.00 2797.37 54.00
6428 40.6620 2900.00 2803.14 54.00
6429 40.6680 2881.00 2809.86 54.00
6430 40.6740 2784.00 2818.79 53.00
6431 40.6800 2825.00 2830.32 53.00
6432 40.6860 2742.00 2844.13 52.00
6433 40.6920 2821.00 2858.91 53.00
6434 40.6980 2712.00 2872.24 52.00
6435 40.7040 2725.00 2881.81 52.00
6436 40.7100 2732.00 2884.38 52.00
6437 40.7160 2722.00 2879.62 52.00
6438 40.7220 2662.00 2868.02 52.00
6439 40.7280 2593.00 2851.84 51.00
6440 40.7340 2780.00 2833.77 53.00
6441 40.7400 2728.00 2816.19 52.00
6442 40.7460 2635.00 2801.02 51.00
6443 40.7520 2740.00 2789.63 52.00
6444 40.7580 2690.00 2783.05 52.00
6445 40.7640 2752.00 2781.94 52.00
6446 40.7700 2641.00 2786.70 51.00
6447 40.7760 2670.00 2797.55 52.00
6448 40.7820 2677.00 2813.82 52.00
6449 40.7880 2695.00 2836.28 52.00
6450 40.7940 2633.00 2864.62 51.00
6451 40.8000 2686.00 2898.52 52.00
6452 40.8060 2693.00 2933.78 52.00
6453 40.8120 2716.00 2967.65 52.00
6454 40.8180 2754.00 2996.79 52.00
6455 40.8240 2782.00 3018.08 53.00
6456 40.8300 2826.00 3029.12 53.00
6457 40.8360 2822.00 3030.20 53.00
6458 40.8420 2894.00 3022.93 54.00
6459 40.8480 2886.00 3011.24 54.00
6460 40.8540 2952.00 2997.31 54.00
6461 40.8600 2867.00 2983.32 54.00
6462 40.8660 2752.00 2971.00 52.00
6463 40.8720 2702.00 2961.64 52.00
6464 40.8780 2847.00 2955.99 53.00
6465 40.8840 2695.00 2954.09 52.00
6466 40.8900 2859.00 2955.28 53.00
6467 40.8960 2772.00 2958.34 53.00
6468 40.9020 2779.00 2961.71 53.00
6469 40.9080 2874.00 2963.62 54.00
6470 40.9140 2778.00 2963.90 53.00
6471 40.9200 2754.00 2962.09 52.00
6472 40.9260 2740.00 2958.92 52.00
6473 40.9320 2718.00 2955.45 52.00
6474 40.9380 2695.00 2952.20 52.00
6475 40.9440 2746.00 2949.96 52.00
6476 40.9500 2673.00 2949.14 52.00
6477 40.9560 2711.00 2949.99 52.00
6478 40.9620 2594.00 2952.61 51.00
6479 40.9680 2701.00 2957.03 52.00
6480 40.9740 2653.00 2963.27 52.00
6481 40.9800 2716.00 2971.42 52.00
6482 40.9860 2789.00 2970.00 53.00
6483 40.9920 2701.00 2968.81 52.00
6484 40.9980 2716.00 2970.86 52.00
6485 41.0040 2630.00 2977.36 51.00
6486 41.0100 2734.00 2988.56 52.00
6487 41.0160 2854.00 3005.80 53.00
6488 41.0220 2887.00 3030.46 54.00
6489 41.0280 2895.00 3061.77 54.00
6490 41.0340 3090.00 3100.05 56.00
6491 41.0400 3290.00 3144.22 57.00
6492 41.0460 3429.00 3192.14 59.00
6493 41.0520 3603.00 3240.48 60.00
6494 41.0580 3693.00 3284.99 61.00
6495 41.0640 3922.00 3321.11 63.00
6496 41.0700 3899.00 3345.72 62.00
6497 41.0760 3782.00 3357.29 61.00
6498 41.0820 3663.00 3357.05 61.00
6499 41.0880 3738.00 3347.62 61.00
6500 41.0940 3617.00 3330.42 60.00
6501 41.1000 3472.00 3307.24 59.00
6502 41.1060 3477.00 3278.60 59.00
6503 41.1120 3463.00 3245.10 59.00
6504 41.1180 3329.00 3208.47 58.00
6505 41.1240 3181.00 3171.50 56.00
6506 41.1300 3122.00 3137.97 56.00
6507 41.1360 3275.00 3110.87 57.00
6508 41.1420 3225.00 3090.67 57.00
6509 41.1480 3208.00 3077.79 57.00
6510 41.1540 3302.00 3071.09 57.00
6511 41.1600 3233.00 3067.84 57.00
6512 41.1660 3147.00 3065.73 56.00
6513 41.1720 3200.00 3062.98 57.00
6514 41.1780 3092.00 3058.69 56.00
6515 41.1840 3138.00 3052.30 56.00
6516 41.1900 3145.00 3043.04 56.00
6517 41.1960 3174.00 3029.64 56.00
6518 41.2020 3103.00 3011.41 56.00
6519 41.2080 3133.00 2988.38 56.00
6520 41.2140 2995.00 2960.68 55.00
6521 41.2200 2912.00 2930.28 54.00
6522 41.2260 2919.00 2898.86 54.00
6523 41.2320 2852.00 2867.78 53.00
6524 41.2380 2757.00 2837.82 53.00
6525 41.2440 2752.00 2809.25 52.00
6526 41.2500 2821.00 2781.84 53.00
6527 41.2560 2784.00 2755.04 53.00
6528 41.2620 2713.00 2729.34 52.00
6529 41.2680 2652.00 2704.81 51.00
6530 41.2740 2586.00 2681.90 51.00
6531 41.2800 2687.00 2662.00 52.00
6532 41.2860 2687.00 2643.38 52.00
6533 41.2920 2636.00 2627.20 51.00
6534 41.2980 2633.00 2614.21 51.00
6535 41.3040 2599.00 2603.37 51.00
6536 41.3100 2685.00 2595.27 52.00
6537 41.3160 2647.00 2589.85 51.00
6538 41.3220 2498.00 2587.27 50.00
6539 41.3280 2485.00 2587.51 50.00
6540 41.3340 2612.00 2590.63 51.00
6541 41.3400 2698.00 2595.83 52.00
6542 41.3460 2700.00 2602.70 52.00
6543 41.3520 2741.00 2610.25 52.00
6544 41.3580 2689.00 2617.82 52.00
6545 41.3640 2531.00 2633.21 50.00
6546 41.3700 2619.00 2655.36 51.00
6547 41.3760 2684.00 2671.88 52.00
6548 41.3820 2639.00 2683.18 51.00
6549 41.3880 2688.00 2690.03 52.00
6550 41.3940 2695.00 2694.26 52.00
6551 41.4000 2767.00 2697.87 53.00
6552 41.4060 2739.00 2702.55 52.00
6553 41.4120 2698.00 2709.94 52.00
6554 41.4180 2744.00 2720.74 52.00
6555 41.4240 2802.00 2735.70 53.00
6556 41.4300 2840.00 2755.02 53.00
6557 41.4360 2848.00 2778.55 53.00
6558 41.4420 2912.00 2805.71 54.00
6559 41.4480 2998.00 2835.57 55.00
6560 41.4540 2897.00 2866.74 54.00
6561 41.4600 2768.00 2898.01 53.00
6562 41.4660 2809.00 2927.92 53.00
6563 41.4720 2908.00 2955.50 54.00
6564 41.4780 3010.00 2980.31 55.00
6565 41.4840 3043.00 3002.60 55.00
6566 41.4900 3014.00 3023.64 55.00
6567 41.4960 2958.00 3045.85 54.00
6568 41.5020 3059.00 3072.47 55.00
6569 41.5080 3186.00 3106.79 56.00
6570 41.5140 3166.00 3151.52 56.00
6571 41.5200 3242.00 3208.39 57.00
6572 41.5260 3407.00 3277.78 58.00
6573 41.5320 3472.00 3358.40 59.00
6574 41.5380 3507.00 3447.01 59.00
6575 41.5440 3428.00 3538.67 59.00
6576 41.5500 3450.00 3626.33 59.00
6577 41.5560 3579.00 3702.93 60.00
6578 41.5620 3613.00 3762.78 60.00
6579 41.5680 3596.00 3802.29 60.00
6580 41.5740 3649.00 3820.58 60.00
6581 41.5800 3606.00 3819.67 60.00
6582 41.5860 3586.00 3805.06 60.00
6583 41.5920 3562.00 3784.19 60.00
6584 41.5980 3501.00 3764.70 59.00
6585 41.6040 3539.00 3752.04 59.00
6586 41.6100 3511.00 3748.73 59.00
6587 41.6160 3509.00 3754.26 59.00
6588 41.6220 3629.00 3767.13 60.00
6589 41.6280 3670.00 3783.88 61.00
6590 41.6340 3602.00 3801.91 60.00
6591 41.6400 3557.00 3818.62 60.00
6592 41.6460 3584.00 3832.88 60.00
6593 41.6520 3544.00 3845.63 60.00
6594 41.6580 3593.00 3859.13 60.00
6595 41.6640 3668.00 3876.26 61.00
6596 41.6700 3698.00 3898.01 61.00
6597 41.6760 3699.00 3922.71 61.00
6598 41.6820 3803.00 3946.87 62.00
6599 41.6880 3798.00 3965.79 62.00
6600 41.6940 3812.00 3975.53 62.00
6601 41.7000 3886.00 3974.65 62.00
6602 41.7060 3893.00 3964.46 62.00
6603 41.7120 3873.00 3948.18 62.00
6604 41.7180 3816.00 3929.79 62.00
6605 41.7240 3779.00 3913.92 61.00
6606 41.7300 3714.00 3903.72 61.00
6607 41.7360 3527.00 3900.96 59.00
6608 41.7420 3436.00 3905.51 59.00
6609 41.7480 3384.00 3915.79 58.00
6610 41.7540 3354.00 3928.97 58.00
6611 41.7600 3350.00 3943.44 58.00
6612 41.7660 3229.00 3959.16 57.00
6613 41.7720 3267.00 3979.11 57.00
6614 41.7780 3359.00 3991.18 58.00
6615 41.7840 3414.00 4000.73 58.00
6616 41.7900 3491.00 4029.49 59.00
6617 41.7960 3575.00 4080.11 60.00
6618 41.8020 3787.00 4152.64 62.00
6619 41.8080 4014.00 4244.55 63.00
6620 41.8140 4216.00 4349.55 65.00
6621 41.8200 4379.00 4457.91 66.00
6622 41.8260 4378.00 4557.33 66.00
6623 41.8320 4495.00 4635.47 67.00
6624 41.8380 4620.00 4683.62 68.00
6625 41.8440 4749.00 4698.49 69.00
6626 41.8500 4828.00 4680.97 69.00
6627 41.8560 4616.00 4634.24 68.00
6628 41.8620 4381.00 4563.92 66.00
6629 41.8680 4223.00 4478.16 65.00
6630 41.8740 3999.00 4386.32 63.00
6631 41.8800 3826.00 4296.30 62.00
6632 41.8860 3693.00 4212.63 61.00
6633 41.8920 3659.00 4136.15 60.00
6634 41.8980 3668.00 4064.67 61.00
6635 41.9040 3626.00 3993.88 60.00
6636 41.9100 3615.00 3918.64 60.00
6637 41.9160 3541.00 3834.95 60.00
6638 41.9220 3469.00 3742.18 59.00
6639 41.9280 3479.00 3643.26 59.00
6640 41.9340 3428.00 3543.59 59.00
6641 41.9400 3422.00 3447.49 58.00
6642 41.9460 3433.00 3358.44 59.00
6643 41.9520 3430.00 3277.57 59.00
6644 41.9580 3388.00 3205.22 58.00
6645 41.9640 3342.00 3140.37 58.00
6646 41.9700 3267.00 3081.50 57.00
6647 41.9760 3091.00 3027.33 56.00
6648 41.9820 2981.00 2977.17 55.00
6649 41.9880 2978.00 2930.62 55.00
6650 41.9940 2931.00 2887.63 54.00
6651 42.0000 2810.00 2847.98 53.00
6652 42.0060 2763.00 2811.59 53.00
6653 42.0120 2746.00 2778.36 52.00
6654 42.0180 2755.00 2748.16 52.00
6655 42.0240 2697.00 2721.08 52.00
6656 42.0300 2604.00 2697.05 51.00
6657 42.0360 2631.00 2676.32 51.00
6658 42.0420 2669.00 2658.57 52.00
6659 42.0480 2686.00 2647.80 52.00
6660 42.0540 2651.00 2657.46 51.00
6661 42.0600 2670.00 2670.93 52.00
6662 42.0660 2740.00 2688.14 52.00
6663 42.0720 2750.00 2708.70 52.00
6664 42.0780 2786.00 2731.85 53.00
6665 42.0840 2841.00 2756.30 53.00
6666 42.0900 2841.00 2780.23 53.00
6667 42.0960 2971.00 2801.38 55.00
6668 42.1020 3016.00 2817.54 55.00
6669 42.1080 2921.00 2826.92 54.00
6670 42.1140 2861.00 2828.84 53.00
6671 42.1200 2883.00 2825.55 54.00
6672 42.1260 2897.00 2817.19 54.00
6673 42.1320 2803.00 2805.22 53.00
6674 42.1380 2771.00 2791.92 53.00
6675 42.1440 2752.00 2777.35 52.00
6676 42.1500 2698.00 2761.91 52.00
6677 42.1560 2728.00 2746.12 52.00
6678 42.1620 2811.00 2730.58 53.00
6679 42.1680 2751.00 2715.91 52.00
6680 42.1740 2722.00 2702.58 52.00
6681 42.1800 2704.00 2690.81 52.00
6682 42.1860 2779.00 2681.44 53.00
6683 42.1920 2769.00 2674.59 53.00
6684 42.1980 2701.00 2670.20 52.00
6685 42.2040 2696.00 2668.49 52.00
6686 42.2100 2740.00 2668.70 52.00
6687 42.2160 2686.00 2669.97 52.00
6688 42.2220 2675.00 2671.17 52.00
6689 42.2280 2689.00 2671.08 52.00
6690 42.2340 2689.00 2668.69 52.00
6691 42.2400 2672.00 2663.61 52.00
6692 42.2460 2606.00 2655.66 51.00
6693 42.2520 2661.00 2646.58 52.00
6694 42.2580 2611.00 2636.79 51.00
6695 42.2640 2635.00 2627.17 51.00
6696 42.2700 2624.00 2617.90 51.00
6697 42.2760 2597.00 2609.90 51.00
6698 42.2820 2621.00 2603.16 51.00
6699 42.2880 2629.00 2597.74 51.00
6700 42.2940 2615.00 2593.58 51.00
6701 42.3000 2599.00 2590.54 51.00
6702 42.3060 2564.00 2588.46 51.00
6703 42.3120 2565.00 2587.16 51.00
6704 42.3180 2635.00 2586.13 51.00
6705 42.3240 2630.00 2585.97 51.00
6706 42.3300 2589.00 2586.22 51.00
6707 42.3360 2613.00 2586.80 51.00
6708 42.3420 2563.00 2587.66 51.00
6709 42.3480 2520.00 2588.77 50.00
6710 42.3540 2516.00 2590.08 50.00
6711 42.3600 2565.00 2591.58 51.00
6712 42.3660 2511.00 2593.25 50.00
6713 42.3720 2534.00 2595.12 50.00
6714 42.3780 2517.00 2597.28 50.00
6715 42.3840 2574.00 2599.84 51.00
6716 42.3900 2560.00 2602.14 51.00
6717 42.3960 2545.00 2605.81 50.00
6718 42.4020 2574.00 2610.16 51.00
6719 42.4080 2620.00 2615.27 51.00
6720 42.4140 2598.00 2620.66 51.00
6721 42.4200 2604.00 2627.70 51.00
6722 42.4260 2655.00 2636.82 52.00
6723 42.4320 2714.00 2647.51 52.00
6724 42.4380 2716.00 2660.65 52.00
6725 42.4440 2731.00 2676.67 52.00
6726 42.4500 2691.00 2695.70 52.00
6727 42.4560 2737.00 2718.16 52.00
6728 42.4620 2885.00 2743.84 54.00
6729 42.4680 2926.00 2772.59 54.00
6730 42.4740 2903.00 2803.12 54.00
6731 42.4800 2890.00 2835.86 54.00
6732 42.4860 2942.00 2868.43 54.00
6733 42.4920 3076.00 2898.30 55.00
6734 42.4980 3193.00 2922.35 57.00
6735 42.5040 3135.00 2937.40 56.00
6736 42.5100 3111.00 2941.18 56.00
6737 42.5160 3051.00 2933.23 55.00
6738 42.5220 3065.00 2915.85 55.00
6739 42.5280 2979.00 2891.29 55.00
6740 42.5340 2858.00 2864.14 53.00
6741 42.5400 2780.00 2837.59 53.00
6742 42.5460 2845.00 2813.98 53.00
6743 42.5520 2747.00 2795.45 52.00
6744 42.5580 2789.00 2781.02 53.00
6745 42.5640 2713.00 2772.15 52.00
6746 42.5700 2686.00 2767.37 52.00
6747 42.5760 2687.00 2766.68 52.00
6748 42.5820 2673.00 2778.42 52.00
6749 42.5880 2732.00 2793.65 52.00
6750 42.5940 2725.00 2808.86 52.00
6751 42.6000 2733.00 2822.64 52.00
6752 42.6060 2705.00 2834.65 52.00
6753 42.6120 2612.00 2845.55 51.00
6754 42.6180 2644.00 2857.47 51.00
6755 42.6240 2681.00 2872.91 52.00
6756 42.6300 2724.00 2894.15 52.00
6757 42.6360 2782.00 2922.79 53.00
6758 42.6420 2732.00 2959.47 52.00
6759 42.6480 2736.00 3003.74 52.00
6760 42.6540 2849.00 3053.79 53.00
6761 42.6600 2884.00 3106.48 54.00
6762 42.6660 2905.00 3157.30 54.00
6763 42.6720 2999.00 3201.34 55.00
6764 42.6780 2979.00 3233.37 55.00
6765 42.6840 2892.00 3249.33 54.00
6766 42.6900 2951.00 3248.16 54.00
6767 42.6960 2889.00 3231.76 54.00
6768 42.7020 2798.00 3205.04 53.00
6769 42.7080 2774.00 3173.66 53.00
6770 42.7140 2804.00 3142.75 53.00
6771 42.7200 2805.00 3116.44 53.00
6772 42.7260 2666.00 3088.27 52.00
6773 42.7320 2696.00 3059.51 52.00
6774 42.7380 2700.00 3039.00 52.00
6775 42.7440 2680.00 3025.76 52.00
6776 42.7500 2665.00 3017.74 52.00
6777 42.7560 2759.00 3012.32 53.00
6778 42.7620 2737.00 3006.67 52.00
6779 42.7680 2691.00 2998.42 52.00
6780 42.7740 2615.00 2986.32 51.00
6781 42.7800 2571.00 2970.64 51.00
6782 42.7860 2676.00 2952.71 52.00
6783 42.7920 2726.00 2934.14 52.00
6784 42.7980 2644.00 2916.20 51.00
6785 42.8040 2718.00 2899.98 52.00
6786 42.8100 2607.00 2885.71 51.00
6787 42.8160 2586.00 2873.17 51.00
6788 42.8220 2699.00 2861.69 52.00
6789 42.8280 2615.00 2850.29 51.00
6790 42.8340 2565.00 2838.11 51.00
6791 42.8400 2637.00 2824.71 51.00
6792 42.8460 2624.00 2810.27 51.00
6793 42.8520 2691.00 2795.33 52.00
6794 42.8580 2580.00 2780.58 51.00
6795 42.8640 2666.00 2766.69 52.00
6796 42.8700 2635.00 2754.21 51.00
6797 42.8760 2645.00 2743.69 51.00
6798 42.8820 2621.00 2735.63 51.00
6799 42.8880 2653.00 2733.67 52.00
6800 42.8940 2688.00 2741.60 52.00
6801 42.9000 2652.00 2753.44 51.00
6802 42.9060 2613.00 2769.74 51.00
6803 42.9120 2767.00 2791.10 53.00
6804 42.9180 2777.00 2818.06 53.00
6805 42.9240 2759.00 2851.07 53.00
6806 42.9300 2741.00 2890.31 52.00
6807 42.9360 2799.00 2935.63 53.00
6808 42.9420 2889.00 2986.35 54.00
6809 42.9480 2972.00 3040.87 55.00
6810 42.9540 3092.00 3097.12 56.00
6811 42.9600 3114.00 3152.74 56.00
6812 42.9660 3096.00 3205.62 56.00
6813 42.9720 3141.00 3254.08 56.00
6814 42.9780 3142.00 3296.24 56.00
6815 42.9840 3191.00 3329.39 56.00
6816 42.9900 3169.00 3350.17 56.00
6817 42.9960 3204.00 3355.93 57.00
6818 43.0020 3063.00 3346.16 55.00
6819 43.0080 3014.00 3323.83 55.00
6820 43.0140 3063.00 3293.81 55.00
6821 43.0200 3057.00 3261.36 55.00
6822 43.0260 3134.00 3231.22 56.00
6823 43.0320 3097.00 3207.35 56.00
6824 43.0380 3195.00 3193.39 57.00
6825 43.0440 3256.00 3192.42 57.00
6826 43.0500 3303.00 3207.15 57.00
6827 43.0560 3284.00 3239.66 57.00
6828 43.0620 3427.00 3291.03 59.00
6829 43.0680 3656.00 3361.06 60.00
6830 43.0740 3782.00 3447.45 61.00
6831 43.0800 3872.00 3546.08 62.00
6832 43.0860 4120.00 3651.70 64.00
6833 43.0920 4077.00 3757.38 64.00
6834 43.0980 4033.00 3856.64 64.00
6835 43.1040 4116.00 3943.97 64.00
6836 43.1100 4119.00 4013.89 64.00
6837 43.1160 4155.00 4059.93 64.00
6838 43.1220 4222.00 4075.25 65.00
6839 43.1280 4323.00 4054.97 66.00
6840 43.1340 4370.00 3999.03 66.00
6841 43.1400 4319.00 3912.29 66.00
6842 43.1460 4117.00 3804.21 64.00
6843 43.1520 3979.00 3685.59 63.00
6844 43.1580 3751.00 3566.29 61.00
6845 43.1640 3681.00 3453.71 61.00
6846 43.1700 3434.00 3352.34 59.00
6847 43.1760 3242.00 3264.58 57.00
6848 43.1820 3253.00 3190.40 57.00
6849 43.1880 3208.00 3129.20 57.00
6850 43.1940 3100.00 3079.93 56.00
6851 43.2000 3111.00 3041.39 56.00
6852 43.2060 3081.00 3012.35 56.00
6853 43.2120 2968.00 2991.40 54.00
6854 43.2180 2900.00 2977.38 54.00
6855 43.2240 2931.00 2969.13 54.00
6856 43.2300 2867.00 2965.62 54.00
6857 43.2360 3024.00 2965.84 55.00
6858 43.2420 2927.00 2953.16 54.00
6859 43.2480 2846.00 2942.16 53.00
6860 43.2540 3014.00 2930.83 55.00
6861 43.2600 2935.00 2918.50 54.00
6862 43.2660 3042.00 2904.07 55.00
6863 43.2720 2973.00 2886.89 55.00
6864 43.2780 2803.00 2867.22 53.00
6865 43.2840 2920.00 2845.87 54.00
6866 43.2900 2756.00 2823.83 52.00
6867 43.2960 2739.00 2802.33 52.00
6868 43.3020 2698.00 2781.41 52.00
6869 43.3080 2594.00 2761.81 51.00
6870 43.3140 2544.00 2743.73 50.00
6871 43.3200 2594.00 2727.14 51.00
6872 43.3260 2668.00 2711.81 52.00
6873 43.3320 2580.00 2697.34 51.00
6874 43.3380 2516.00 2683.27 50.00
6875 43.3440 2505.00 2668.92 50.00
6876 43.3500 2618.00 2654.38 51.00
6877 43.3560 2527.00 2639.36 50.00
6878 43.3620 2574.00 2623.97 51.00
6879 43.3680 2495.00 2608.48 50.00
6880 43.3740 2537.00 2593.13 50.00
6881 43.3800 2495.00 2579.08 50.00
6882 43.3860 2424.00 2564.77 49.00
6883 43.3920 2471.00 2551.44 50.00
6884 43.3980 2467.00 2538.83 50.00
6885 43.4040 2522.00 2527.10 50.00
6886 43.4100 2588.00 2516.47 51.00
6887 43.4160 2552.00 2506.79 51.00
6888 43.4220 2548.00 2497.98 50.00
6889 43.4280 2572.00 2497.11 51.00
6890 43.4340 2555.00 2511.18 51.00
6891 43.4400 2488.00 2525.42 50.00
6892 43.4460 2624.00 2539.53 51.00
6893 43.4520 2496.00 2553.17 50.00
6894 43.4580 2464.00 2566.19 50.00
6895 43.4640 2510.00 2578.69 50.00
6896 43.4700 2516.00 2591.02 50.00
6897 43.4760 2560.00 2603.67 51.00
6898 43.4820 2461.00 2617.07 50.00
6899 43.4880 2531.00 2631.47 50.00
6900 43.4940 2516.00 2646.88 50.00
6901 43.5000 2599.00 2663.08 51.00
6902 43.5060 2528.00 2679.61 50.00
6903 43.5120 2538.00 2695.84 50.00
6904 43.5180 2682.00 2711.23 52.00
6905 43.5240 2663.00 2725.49 52.00
6906 43.5300 2679.00 2738.75 52.00
6907 43.5360 2657.00 2751.18 52.00
6908 43.5420 2641.00 2763.77 51.00
6909 43.5480 2723.00 2776.71 52.00
6910 43.5540 2780.00 2790.26 53.00
6911 43.5600 2864.00 2804.86 54.00
6912 43.5660 2707.00 2819.26 52.00
6913 43.5720 2725.00 2832.98 52.00
6914 43.5780 2843.00 2846.97 53.00
6915 43.5840 2861.00 2861.06 53.00
6916 43.5900 2805.00 2876.25 53.00
6917 43.5960 2863.00 2893.87 54.00
6918 43.6020 2913.00 2915.02 54.00
6919 43.6080 2924.00 2940.50 54.00
6920 43.6140 2928.00 2970.06 54.00
6921 43.6200 2964.00 3003.00 54.00
6922 43.6260 2949.00 3037.46 54.00
6923 43.6320 2851.00 3070.90 53.00
6924 43.6380 2965.00 3100.17 54.00
6925 43.6440 2931.00 3122.04 54.00
6926 43.6500 3023.00 3134.36 55.00
6927 43.6560 3012.00 3136.39 55.00
6928 43.6620 3038.00 3129.42 55.00
6929 43.6680 3038.00 3115.99 55.00
6930 43.6740 2904.00 3100.57 54.00
6931 43.6800 2968.00 3085.78 54.00
6932 43.6860 2957.00 3074.11 54.00
6933 43.6920 2902.00 3067.26 54.00
6934 43.6980 2841.00 3065.79 53.00
6935 43.7040 2968.00 3071.16 54.00
6936 43.7100 3008.00 3081.93 55.00
6937 43.7160 3004.00 3096.65 55.00
6938 43.7220 3085.00 3115.46 56.00
6939 43.7280 3093.00 3136.81 56.00
6940 43.7340 3118.00 3159.77 56.00
6941 43.7400 3217.00 3183.31 57.00
6942 43.7460 3265.00 3205.87 57.00
6943 43.7520 3233.00 3226.20 57.00
6944 43.7580 3121.00 3242.86 56.00
6945 43.7640 3172.00 3255.77 56.00
6946 43.7700 3147.00 3265.48 56.00
6947 43.7760 3153.00 3272.57 56.00
6948 43.7820 3145.00 3278.20 56.00
6949 43.7880 3089.00 3283.16 56.00
6950 43.7940 3131.00 3288.18 56.00
6951 43.8000 3049.00 3294.04 55.00
6952 43.8060 3081.00 3301.54 56.00
6953 43.8120 3075.00 3311.45 55.00
6954 43.8180 3009.00 3323.72 55.00
6955 43.8240 3057.00 3338.32 55.00
6956 43.8300 3046.00 3354.85 55.00
6957 43.8360 3168.00 3373.07 56.00
6958 43.8420 3152.00 3393.12 56.00
6959 43.8480 3070.00 3415.07 55.00
6960 43.8540 3094.00 3439.06 56.00
6961 43.8600 3164.00 3464.27 56.00
6962 43.8660 3093.00 3489.14 56.00
6963 43.8720 3099.00 3511.76 56.00
6964 43.8780 2963.00 3530.24 54.00
6965 43.8840 3140.00 3543.81 56.00
6966 43.8900 3077.00 3553.64 55.00
6967 43.8960 3036.00 3562.93 55.00
6968 43.9020 2987.00 3575.98 55.00
6969 43.9080 3057.00 3597.07 55.00
6970 43.9140 3123.00 3618.41 56.00
6971 43.9200 3037.00 3630.94 55.00
6972 43.9260 3086.00 3657.67 56.00
6973 43.9320 3020.00 3697.22 55.00
6974 43.9380 3170.00 3745.97 56.00
6975 43.9440 3146.00 3798.06 56.00
6976 43.9500 3159.00 3845.45 56.00
6977 43.9560 3138.00 3878.55 56.00
6978 43.9620 3112.00 3888.04 56.00
6979 43.9680 3277.00 3867.54 57.00
6980 43.9740 3196.00 3815.94 57.00
6981 43.9800 3101.00 3736.96 56.00
6982 43.9860 3100.00 3638.04 56.00
6983 43.9920 3034.00 3527.71 55.00
6984 43.9980 2945.00 3413.65 54.00
6985 44.0040 2933.00 3302.39 54.00
6986 44.0100 2909.00 3198.61 54.00
6987 44.0160 2895.00 3105.04 54.00
6988 44.0220 2749.00 3022.96 52.00
6989 44.0280 2827.00 2952.41 53.00
6990 44.0340 2712.00 2892.56 52.00
6991 44.0400 2679.00 2842.02 52.00
6992 44.0460 2611.00 2799.40 51.00
6993 44.0520 2710.00 2763.29 52.00
6994 44.0580 2734.00 2732.57 52.00
6995 44.0640 2669.00 2706.56 52.00
6996 44.0700 2659.00 2684.97 52.00
6997 44.0760 2690.00 2667.86 52.00
6998 44.0820 2717.00 2655.54 52.00
6999 44.0880 2693.00 2648.48 52.00
7000 44.0940 2663.00 2647.04 52.00
7001 44.1000 2629.00 2686.34 51.00
7002 44.1060 2733.00 2731.07 52.00
7003 44.1120 2708.00 2780.24 52.00
7004 44.1180 2584.00 2832.09 51.00
7005 44.1240 2722.00 2884.09 52.00
7006 44.1300 2767.00 2932.76 53.00
7007 44.1360 2811.00 2974.00 53.00
7008 44.1420 2839.00 3003.67 53.00
7009 44.1480 2719.00 3019.12 52.00
7010 44.1540 2846.00 3020.20 53.00
7011 44.1600 2848.00 3009.56 53.00
7012 44.1660 2807.00 2991.95 53.00
7013 44.1720 2812.00 2972.09 53.00
7014 44.1780 2826.00 2954.27 53.00
7015 44.1840 2772.00 2941.88 53.00
7016 44.1900 2835.00 2937.06 53.00
7017 44.1960 2829.00 2940.80 53.00
7018 44.2020 2811.00 2953.15 53.00
7019 44.2080 2779.00 2972.97 53.00
7020 44.2140 2737.00 2998.16 52.00
7021 44.2200 2851.00 3025.78 53.00
7022 44.2260 2860.00 3052.25 53.00
7023 44.2320 2834.00 3073.71 53.00
7024 44.2380 2906.00 3087.62 54.00
7025 44.2440 2831.00 3092.22 53.00
7026 44.2500 2833.00 3088.43 53.00
7027 44.2560 2766.00 3078.37 53.00
7028 44.2620 2720.00 3065.25 52.00
7029 44.2680 2675.00 3052.16 52.00
7030 44.2740 2636.00 3041.81 51.00
7031 44.2800 2668.00 3025.47 52.00
7032 44.2860 2626.00 3009.95 51.00
7033 44.2920 2699.00 3001.42 52.00
7034 44.2980 2654.00 3000.03 52.00
7035 44.3040 2690.00 3005.30 52.00
7036 44.3100 2772.00 3016.31 53.00
7037 44.3160 2874.00 3031.47 54.00
7038 44.3220 3041.00 3048.78 55.00
7039 44.3280 3099.00 3066.05 56.00
7040 44.3340 3009.00 3081.09 55.00
7041 44.3400 3088.00 3092.23 56.00
7042 44.3460 3033.00 3097.71 55.00
7043 44.3520 3070.00 3097.11 55.00
7044 44.3580 3052.00 3090.13 55.00
7045 44.3640 2900.00 3077.67 54.00
7046 44.3700 2854.00 3060.80 53.00
7047 44.3760 2774.00 3041.52 53.00
7048 44.3820 2681.00 3021.55 52.00
7049 44.3880 2705.00 3001.78 52.00
7050 44.3940 2613.00 2982.52 51.00
7051 44.4000 2587.00 2963.45 51.00
7052 44.4060 2546.00 2944.19 50.00
7053 44.4120 2511.00 2924.62 50.00
7054 44.4180 2542.00 2904.93 50.00
7055 44.4240 2493.00 2885.93 50.00
7056 44.4300 2525.00 2867.90 50.00
7057 44.4360 2381.00 2851.03 49.00
7058 44.4420 2494.00 2835.33 50.00
7059 44.4480 2517.00 2820.24 50.00
7060 44.4540 2490.00 2805.60 50.00
7061 44.4600 2461.00 2791.29 50.00
7062 44.4660 2495.00 2777.48 50.00
7063 44.4720 2450.00 2764.19 49.00
7064 44.4780 2466.00 2752.47 50.00
7065 44.4840 2505.00 2742.38 50.00
7066 44.4900 2491.00 2734.30 50.00
7067 44.4960 2422.00 2728.58 49.00
7068 44.5020 2454.00 2725.74 50.00
7069 44.5080 2528.00 2726.05 50.00
7070 44.5140 2522.00 2729.54 50.00
7071 44.5200 2532.00 2736.28 50.00
7072 44.5260 2596.00 2746.17 51.00
7073 44.5320 2517.00 2758.85 50.00
7074 44.5380 2608.00 2773.68 51.00
7075 44.5440 2730.00 2789.70 52.00
7076 44.5500 2707.00 2805.63 52.00
7077 44.5560 2664.00 2819.10 52.00
7078 44.5620 2653.00 2830.07 52.00
7079 44.5680 2647.00 2836.05 51.00
7080 44.5740 2646.00 2836.23 51.00
7081 44.5800 2672.00 2829.96 52.00
7082 44.5860 2615.00 2817.32 51.00
7083 44.5920 2576.00 2799.12 51.00
7084 44.5980 2566.00 2776.90 51.00
7085 44.6040 2558.00 2752.21 51.00
7086 44.6100 2564.00 2727.00 51.00
7087 44.6160 2599.00 2702.44 51.00
7088 44.6220 2557.00 2680.04 51.00
7089 44.6280 2525.00 2660.20 50.00
7090 44.6340 2440.00 2643.48 49.00
7091 44.6400 2411.00 2629.98 49.00
7092 44.6460 2494.00 2619.78 50.00
7093 44.6520 2593.00 2612.66 51.00
7094 44.6580 2524.00 2608.24 50.00
7095 44.6640 2459.00 2606.01 50.00
7096 44.6700 2515.00 2605.36 50.00
7097 44.6760 2546.00 2605.74 50.00
7098 44.6820 2486.00 2606.26 50.00
7099 44.6880 2506.00 2606.02 50.00
7100 44.6940 2457.00 2604.45 50.00
7101 44.7000 2458.00 2601.21 50.00
7102 44.7060 2456.00 2596.42 50.00
7103 44.7120 2492.00 2590.70 50.00
7104 44.7180 2487.00 2584.93 50.00
7105 44.7240 2538.00 2580.02 50.00
7106 44.7300 2546.00 2576.75 50.00
7107 44.7360 2592.00 2575.21 51.00
7108 44.7420 2506.00 2576.62 50.00
7109 44.7480 2553.00 2581.13 51.00
7110 44.7540 2580.00 2587.66 51.00
7111 44.7600 2524.00 2595.46 50.00
7112 44.7660 2536.00 2603.46 50.00
7113 44.7720 2616.00 2610.35 51.00
7114 44.7780 2657.00 2614.77 52.00
7115 44.7840 2620.00 2615.95 51.00
7116 44.7900 2607.00 2612.92 51.00
7117 44.7960 2632.00 2606.38 51.00
7118 44.8020 2530.00 2597.35 50.00
7119 44.8080 2517.00 2587.08 50.00
7120 44.8140 2496.00 2576.66 50.00
7121 44.8200 2524.00 2566.83 50.00
7122 44.8260 2555.00 2557.94 51.00
7123 44.8320 2479.00 2549.72 50.00
7124 44.8380 2436.00 2541.93 49.00
7125 44.8440 2488.00 2534.37 50.00
7126 44.8500 2445.00 2526.32 49.00
7127 44.8560 2399.00 2517.85 49.00
7128 44.8620 2389.00 2509.31 49.00
7129 44.8680 2416.00 2501.06 49.00
7130 44.8740 2446.00 2493.70 49.00
7131 44.8800 2453.00 2487.83 50.00
7132 44.8860 2410.00 2484.10 49.00
7133 44.8920 2446.00 2483.07 49.00
7134 44.8980 2444.00 2485.13 49.00
7135 44.9040 2403.00 2490.43 49.00
7136 44.9100 2438.00 2499.05 49.00
7137 44.9160 2453.00 2509.98 50.00
7138 44.9220 2444.00 2522.47 49.00
7139 44.9280 2522.00 2535.46 50.00
7140 44.9340 2572.00 2547.41 51.00
7141 44.9400 2542.00 2556.82 50.00
7142 44.9460 2552.00 2562.65 51.00
7143 44.9520 2562.00 2563.60 51.00
7144 44.9580 2580.00 2559.38 51.00
7145 44.9640 2559.00 2549.73 51.00
7146 44.9700 2544.00 2535.45 50.00
7147 44.9760 2519.00 2518.14 50.00
7148 44.9820 2454.00 2499.77 50.00
7149 44.9880 2431.00 2482.11 49.00
7150 44.9940 2457.00 2466.61 50.00
7151 45.0000 2489.00 2454.03 50.00
7152 45.0060 2517.00 2445.04 50.00
7153 45.0120 2511.00 2439.39 50.00
7154 45.0180 2418.00 2436.50 49.00
7155 45.0240 2433.00 2435.40 49.00
7156 45.0300 2395.00 2434.77 49.00
7157 45.0360 2403.00 2433.31 49.00
7158 45.0420 2481.00 2429.44 50.00
7159 45.0480 2443.00 2422.50 49.00
7160 45.0540 2456.00 2412.64 50.00
7161 45.0600 2444.00 2400.51 49.00
7162 45.0660 2373.00 2387.16 49.00
7163 45.0720 2391.00 2373.69 49.00
7164 45.0780 2392.00 2361.03 49.00
7165 45.0840 2362.00 2349.99 49.00
7166 45.0900 2376.00 2341.18 49.00
7167 45.0960 2427.00 2345.63 49.00
7168 45.1020 2467.00 2355.21 50.00
7169 45.1080 2526.00 2368.01 50.00
7170 45.1140 2565.00 2384.15 51.00
7171 45.1200 2578.00 2403.69 51.00
7172 45.1260 2621.00 2426.63 51.00
7173 45.1320 2660.00 2452.98 52.00
7174 45.1380 2682.00 2482.73 52.00
7175 45.1440 2711.00 2515.81 52.00
7176 45.1500 2749.00 2552.19 52.00
7177 45.1560 2800.00 2591.96 53.00
7178 45.1620 2825.00 2635.31 53.00
7179 45.1680 2837.00 2682.88 53.00
7180 45.1740 2880.00 2734.76 54.00
7181 45.1800 2903.00 2790.90 54.00
7182 45.1860 2966.00 2850.34 54.00
7183 45.1920 3018.00 2911.60 55.00
7184 45.1980 3056.00 2971.75 55.00
7185 45.2040 3078.00 3027.31 55.00
7186 45.2100 3063.00 3074.81 55.00
7187 45.2160 3104.00 3110.46 56.00
7188 45.2220 3092.00 3131.71 56.00
7189 45.2280 3049.00 3137.23 55.00
7190 45.2340 3122.00 3127.81 56.00
7191 45.2400 3122.00 3106.34 56.00
7192 45.2460 3108.00 3077.20 56.00
7193 45.2520 3045.00 3044.86 55.00
7194 45.2580 3022.00 3012.93 55.00
7195 45.2640 3002.00 2983.54 55.00
7196 45.2700 3015.00 2957.28 55.00
7197 45.2760 3028.00 2933.49 55.00
7198 45.2820 3015.00 2910.85 55.00
7199 45.2880 2948.00 2888.27 54.00
7200 45.2940 2905.00 2865.34 54.00
7201 45.3000 2867.00 2842.70 54.00
7202 45.3060 2816.00 2821.77 53.00
7203 45.3120 2784.00 2803.89 53.00
7204 45.3180 2790.00 2790.37 53.00
7205 45.3240 2662.00 2782.25 52.00
7206 45.3300 2573.00 2780.37 51.00
7207 45.3360 2599.00 2785.01 51.00
7208 45.3420 2775.00 2796.26 53.00
7209 45.3480 2833.00 2805.77 53.00
7210 45.3540 2774.00 2820.62 53.00
7211 45.3600 2709.00 2839.50 52.00
7212 45.3660 2669.00 2860.64 52.00
7213 45.3720 2723.00 2881.90 52.00
7214 45.3780 2743.00 2900.66 52.00
7215 45.3840 2672.00 2914.74 52.00
7216 45.3900 2738.00 2922.27 52.00
7217 45.3960 2803.00 2923.09 53.00
7218 45.4020 2770.00 2918.23 53.00
7219 45.4080 2816.00 2909.98 53.00
7220 45.4140 2858.00 2900.35 53.00
7221 45.4200 2823.00 2891.22 53.00
7222 45.4260 2670.00 2883.95 52.00
7223 45.4320 2688.00 2879.14 52.00
7224 45.4380 2754.00 2876.80 52.00
7225 45.4440 2809.00 2876.02 53.00
7226 45.4500 2808.00 2876.27 53.00
7227 45.4560 2883.00 2876.84 54.00
7228 45.4620 2884.00 2877.49 54.00
7229 45.4680 2789.00 2878.43 53.00
7230 45.4740 2891.00 2880.11 54.00
7231 45.4800 2908.00 2883.06 54.00
7232 45.4860 2948.00 2887.49 54.00
7233 45.4920 3000.00 2893.19 55.00
7234 45.4980 3181.00 2899.35 56.00
7235 45.5040 3132.00 2904.55 56.00
7236 45.5100 3099.00 2907.01 56.00
7237 45.5160 3158.00 2904.81 56.00
7238 45.5220 3118.00 2896.88 56.00
7239 45.5280 2960.00 2883.31 54.00
7240 45.5340 2916.00 2865.29 54.00
7241 45.5400 2834.00 2844.55 53.00
7242 45.5460 2773.00 2823.06 53.00
7243 45.5520 2697.00 2802.41 52.00
7244 45.5580 2624.00 2783.70 51.00
7245 45.5640 2604.00 2767.74 51.00
7246 45.5700 2537.00 2755.49 50.00
7247 45.5760 2569.00 2747.12 51.00
7248 45.5820 2566.00 2742.71 51.00
7249 45.5880 2611.00 2739.78 51.00
7250 45.5940 2567.00 2727.95 51.00
7251 45.6000 2564.00 2719.24 51.00
7252 45.6060 2512.00 2713.08 50.00
7253 45.6120 2522.00 2708.70 50.00
7254 45.6180 2430.00 2705.19 49.00
7255 45.6240 2477.00 2701.43 50.00
7256 45.6300 2462.00 2696.19 50.00
7257 45.6360 2489.00 2688.16 50.00
7258 45.6420 2492.00 2676.29 50.00
7259 45.6480 2452.00 2659.98 50.00
7260 45.6540 2513.00 2639.77 50.00
7261 45.6600 2427.00 2616.48 49.00
7262 45.6660 2431.00 2591.31 49.00
7263 45.6720 2359.00 2565.43 49.00
7264 45.6780 2431.00 2539.84 49.00
7265 45.6840 2488.00 2515.32 50.00
7266 45.6900 2421.00 2492.37 49.00
7267 45.6960 2400.00 2471.34 49.00
7268 45.7020 2396.00 2452.41 49.00
7269 45.7080 2443.00 2435.61 49.00
7270 45.7140 2446.00 2420.88 49.00
7271 45.7200 2457.00 2408.09 50.00
7272 45.7260 2464.00 2397.09 50.00
7273 45.7320 2505.00 2392.66 50.00
7274 45.7380 2472.00 2414.40 50.00
7275 45.7440 2415.00 2437.37 49.00
7276 45.7500 2472.00 2461.52 50.00
7277 45.7560 2404.00 2486.48 49.00
7278 45.7620 2499.00 2512.19 50.00
7279 45.7680 2462.00 2538.70 50.00
7280 45.7740 2493.00 2565.73 50.00
7281 45.7800 2447.00 2593.22 49.00
7282 45.7860 2450.00 2620.89 49.00
7283 45.7920 2427.00 2648.46 49.00
7284 45.7980 2571.00 2675.47 51.00
7285 45.8040 2596.00 2701.21 51.00
7286 45.8100 2589.00 2724.95 51.00
7287 45.8160 2637.00 2745.04 51.00
7288 45.8220 2566.00 2760.68 51.00
7289 45.8280 2601.00 2771.75 51.00
7290 45.8340 2602.00 2778.32 51.00
7291 45.8400 2611.00 2782.27 51.00
7292 45.8460 2593.00 2784.22 51.00
7293 45.8520 2555.00 2785.98 51.00
7294 45.8580 2554.00 2787.62 51.00
7295 45.8640 2594.00 2790.36 51.00
7296 45.8700 2588.00 2794.81 51.00
7297 45.8760 2459.00 2801.37 50.00
7298 45.8820 2575.00 2810.29 51.00
7299 45.8880 2488.00 2821.54 50.00
7300 45.8940 2588.00 2835.26 51.00
7301 45.9000 2615.00 2851.44 51.00
7302 45.9060 2510.00 2866.09 50.00
7303 45.9120 2505.00 2864.40 50.00
7304 45.9180 2615.00 2864.02 51.00
7305 45.9240 2550.00 2864.47 50.00
7306 45.9300 2586.00 2865.20 51.00
7307 45.9360 2703.00 2865.78 52.00
7308 45.9420 2637.00 2866.00 51.00
7309 45.9480 2733.00 2866.09 52.00
7310 45.9540 2663.00 2866.68 52.00
7311 45.9600 2716.00 2868.63 52.00
7312 45.9660 2658.00 2872.85 52.00
7313 45.9720 2902.00 2880.00 54.00
7314 45.9780 2772.00 2890.46 53.00
7315 45.9840 2834.00 2904.27 53.00
7316 45.9900 2919.00 2921.34 54.00
7317 45.9960 2993.00 2940.40 55.00
7318 46.0020 3130.00 2960.84 56.00
7319 46.0080 3075.00 2981.01 55.00
7320 46.0140 3291.00 2998.28 57.00
7321 46.0200 3159.00 3010.42 56.00
7322 46.0260 3140.00 3015.29 56.00
7323 46.0320 3090.00 3011.74 56.00
7324 46.0380 3011.00 2999.90 55.00
7325 46.0440 2912.00 2980.19 54.00
7326 46.0500 2808.00 2954.43 53.00
7327 46.0560 2791.00 2923.88 53.00
7328 46.0620 2812.00 2890.52 53.00
7329 46.0680 2672.00 2856.70 52.00
7330 46.0740 2655.00 2824.38 52.00
7331 46.0800 2648.00 2795.14 51.00
7332 46.0860 2594.00 2769.92 51.00
7333 46.0920 2631.00 2749.61 51.00
7334 46.0980 2645.00 2734.34 51.00
7335 46.1040 2616.00 2722.47 51.00
7336 46.1100 2647.00 2713.69 51.00
7337 46.1160 2663.00 2707.33 52.00
7338 46.1220 2738.00 2702.11 52.00
7339 46.1280 2568.00 2697.37 51.00
7340 46.1340 2580.00 2693.69 51.00
7341 46.1400 2559.00 2690.01 51.00
7342 46.1460 2666.00 2686.59 52.00
7343 46.1520 2614.00 2683.64 51.00
7344 46.1580 2721.00 2681.07 52.00
7345 46.1640 2684.00 2678.63 52.00
7346 46.1700 2641.00 2676.00 51.00
7347 46.1760 2711.00 2672.93 52.00
7348 46.1820 2682.00 2669.36 52.00
7349 46.1880 2715.00 2664.69 52.00
7350 46.1940 2643.00 2658.70 51.00
7351 46.2000 2680.00 2650.92 52.00
7352 46.2060 2641.00 2640.96 51.00
7353 46.2120 2669.00 2628.77 52.00
7354 46.2180 2699.00 2614.74 52.00
7355 46.2240 2666.00 2599.62 52.00
7356 46.2300 2662.00 2583.97 52.00
7357 46.2360 2684.00 2568.54 52.00
7358 46.2420 2558.00 2553.84 51.00
7359 46.2480 2601.00 2540.22 51.00
7360 46.2540 2585.00 2527.77 51.00
7361 46.2600 2603.00 2516.92 51.00
7362 46.2660 2589.00 2507.63 51.00
7363 46.2720 2529.00 2499.72 50.00
7364 46.2780 2564.00 2493.24 51.00
7365 46.2840 2542.00 2488.20 50.00
7366 46.2900 2580.00 2484.53 51.00
7367 46.2960 2570.00 2485.44 51.00
7368 46.3020 2552.00 2494.13 51.00
7369 46.3080 2507.00 2504.45 50.00
7370 46.3140 2591.00 2516.49 51.00
7371 46.3200 2576.00 2530.53 51.00
7372 46.3260 2606.00 2546.37 51.00
7373 46.3320 2615.00 2564.25 51.00
7374 46.3380 2666.00 2584.25 52.00
7375 46.3440 2710.00 2606.53 52.00
7376 46.3500 2767.00 2630.99 53.00
7377 46.3560 2785.00 2657.87 53.00
7378 46.3620 2883.00 2687.37 54.00
7379 46.3680 2949.00 2720.00 54.00
7380 46.3740 2986.00 2756.66 55.00
7381 46.3800 3097.00 2798.40 56.00
7382 46.3860 3161.00 2846.11 56.00
7383 46.3920 3157.00 2900.03 56.00
7384 46.3980 3227.00 2959.75 57.00
7385 46.4040 3278.00 3023.52 57.00
7386 46.4100 3309.00 3088.46 58.00
7387 46.4160 3453.00 3150.52 59.00
7388 46.4220 3435.00 3205.02 59.00
7389 46.4280 3432.00 3247.65 59.00
7390 46.4340 3431.00 3275.43 59.00
7391 46.4400 3460.00 3288.37 59.00
7392 46.4460 3496.00 3287.73 59.00
7393 46.4520 3648.00 3275.67 60.00
7394 46.4580 3564.00 3253.89 60.00
7395 46.4640 3526.00 3223.30 59.00
7396 46.4700 3554.00 3184.26 60.00
7397 46.4760 3456.00 3137.68 59.00
7398 46.4820 3244.00 3085.61 57.00
7399 46.4880 3207.00 3031.02 57.00
7400 46.4940 3049.00 2977.18 55.00
7401 46.5000 3033.00 2926.82 55.00
7402 46.5060 2999.00 2881.96 55.00
7403 46.5120 2909.00 2843.92 54.00
7404 46.5180 2858.00 2813.47 53.00
7405 46.5240 2896.00 2790.99 54.00
7406 46.5300 2714.00 2776.59 52.00
7407 46.5360 2675.00 2770.41 52.00
7408 46.5420 2686.00 2771.83 52.00
7409 46.5480 2713.00 2780.65 52.00
7410 46.5540 2859.00 2797.57 53.00
7411 46.5600 2883.00 2822.58 54.00
7412 46.5660 2772.00 2855.91 53.00
7413 46.5720 2846.00 2897.27 53.00
7414 46.5780 2847.00 2946.42 53.00
7415 46.5840 2883.00 3002.54 54.00
7416 46.5900 2967.00 3064.81 54.00
7417 46.5960 3136.00 3130.57 56.00
7418 46.6020 3148.00 3197.87 56.00
7419 46.6080 3408.00 3264.23 58.00
7420 46.6140 3440.00 3327.33 59.00
7421 46.6200 3664.00 3385.89 61.00
7422 46.6260 3564.00 3439.57 60.00
7423 46.6320 3551.00 3488.92 60.00
7424 46.6380 3648.00 3534.91 60.00
7425 46.6440 3694.00 3578.15 61.00
7426 46.6500 3772.00 3619.70 61.00
7427 46.6560 3745.00 3658.86 61.00
7428 46.6620 3760.00 3694.38 61.00
7429 46.6680 3717.00 3724.30 61.00
7430 46.6740 3694.00 3747.43 61.00
7431 46.6800 3888.00 3763.26 62.00
7432 46.6860 3837.00 3773.24 62.00
7433 46.6920 4013.00 3780.42 63.00
7434 46.6980 4092.00 3788.33 64.00
7435 46.7040 4114.00 3799.68 64.00
7436 46.7100 4199.00 3815.32 65.00
7437 46.7160 4456.00 3833.50 67.00
7438 46.7220 4271.00 3851.39 65.00
7439 46.7280 4412.00 3865.39 66.00
7440 46.7340 4353.00 3872.36 66.00
7441 46.7400 4447.00 3869.89 67.00
7442 46.7460 4241.00 3856.00 65.00
7443 46.7520 4330.00 3829.07 66.00
7444 46.7580 4118.00 3787.93 64.00
7445 46.7640 3909.00 3732.92 63.00
7446 46.7700 3638.00 3666.50 60.00
7447 46.7760 3517.00 3593.07 59.00
7448 46.7820 3388.00 3517.00 58.00
7449 46.7880 3316.00 3442.52 58.00
7450 46.7940 3191.00 3372.45 56.00
7451 46.8000 3054.00 3308.26 55.00
7452 46.8060 2980.00 3250.67 55.00
7453 46.8120 2960.00 3200.04 54.00
7454 46.8180 2825.00 3156.66 53.00
7455 46.8240 2840.00 3120.52 53.00
7456 46.8300 2731.00 3091.57 52.00
7457 46.8360 2760.00 3069.01 53.00
7458 46.8420 2676.00 3051.84 52.00
7459 46.8480 2682.00 3039.02 52.00
7460 46.8540 2608.00 3029.71 51.00
7461 46.8600 2693.00 3023.40 52.00
7462 46.8660 2648.00 3019.89 51.00
7463 46.8720 2601.00 3019.00 51.00
7464 46.8780 2658.00 3007.29 52.00
7465 46.8840 2624.00 2997.22 51.00
7466 46.8900 2672.00 2988.33 52.00
7467 46.8960 2618.00 2980.11 51.00
7468 46.9020 2608.00 2972.28 51.00
7469 46.9080 2583.00 2964.85 51.00
7470 46.9140 2766.00 2957.94 53.00
7471 46.9200 2839.00 2951.61 53.00
7472 46.9260 2885.00 2945.69 54.00
7473 46.9320 2887.00 2939.84 54.00
7474 46.9380 2890.00 2932.75 54.00
7475 46.9440 2929.00 2923.48 54.00
7476 46.9500 2896.00 2911.04 54.00
7477 46.9560 2899.00 2894.84 54.00
7478 46.9620 2789.00 2874.83 53.00
7479 46.9680 2746.00 2851.38 52.00
7480 46.9740 2594.00 2825.04 51.00
7481 46.9800 2542.00 2796.76 50.00
7482 46.9860 2503.00 2767.26 50.00
7483 46.9920 2479.00 2737.59 50.00
7484 46.9980 2553.00 2708.87 51.00
7485 47.0040 2466.00 2681.71 50.00
7486 47.0100 2426.00 2656.53 49.00
7487 47.0160 2440.00 2633.53 49.00
7488 47.0220 2442.00 2612.74 49.00
7489 47.0280 2403.00 2594.05 49.00
7490 47.0340 2376.00 2577.26 49.00
7491 47.0400 2411.00 2562.14 49.00
7492 47.0460 2443.00 2548.41 49.00
7493 47.0520 2458.00 2535.47 50.00
7494 47.0580 2402.00 2523.67 49.00
7495 47.0640 2433.00 2513.00 49.00
7496 47.0700 2421.00 2503.13 49.00
7497 47.0760 2387.00 2494.05 49.00
7498 47.0820 2404.00 2485.84 49.00
7499 47.0880 2399.00 2478.60 49.00
7500 47.0940 2358.00 2473.64 49.00
7501 47.1000 2383.00 2478.28 49.00
7502 47.1060 2374.00 2484.42 49.00
7503 47.1120 2476.00 2492.22 50.00
7504 47.1180 2505.00 2501.81 50.00
7505 47.1240 2502.00 2513.28 50.00
7506 47.1300 2649.00 2526.73 51.00
7507 47.1360 2677.00 2541.96 52.00
7508 47.1420 2721.00 2558.87 52.00
7509 47.1480 2754.00 2577.30 52.00
7510 47.1540 2814.00 2597.18 53.00
7511 47.1600 2833.00 2617.66 53.00
7512 47.1660 2838.00 2638.93 53.00
7513 47.1720 2800.00 2661.18 53.00
7514 47.1780 2810.00 2684.77 53.00
7515 47.1840 2811.00 2709.84 53.00
7516 47.1900 2926.00 2736.12 54.00
7517 47.1960 2977.00 2762.62 55.00
7518 47.2020 2955.00 2787.57 54.00
7519 47.2080 2927.00 2808.54 54.00
7520 47.2140 3025.00 2822.82 55.00
7521 47.2200 3006.00 2828.13 55.00
7522 47.2260 2920.00 2823.57 54.00
7523 47.2320 2871.00 2810.25 54.00
7524 47.2380 2798.00 2789.53 53.00
7525 47.2440 2635.00 2764.90 51.00
7526 47.2500 2712.00 2738.40 52.00
7527 47.2560 2746.00 2712.05 52.00
7528 47.2620 2674.00 2687.01 52.00
7529 47.2680 2675.00 2664.70 52.00
7530 47.2740 2581.00 2645.74 51.00
7531 47.2800 2519.00 2630.78 50.00
7532 47.2860 2603.00 2620.26 51.00
7533 47.2920 2556.00 2614.71 51.00
7534 47.2980 2649.00 2613.97 51.00
7535 47.3040 2669.00 2617.36 52.00
7536 47.3100 2669.00 2624.55 52.00
7537 47.3160 2705.00 2634.50 52.00
7538 47.3220 2730.00 2645.91 52.00
7539 47.3280 2770.00 2657.04 53.00
7540 47.3340 2758.00 2666.19 53.00
7541 47.3400 2778.00 2671.94 53.00
7542 47.3460 2775.00 2673.64 53.00
7543 47.3520 2758.00 2671.07 53.00
7544 47.3580 2735.00 2666.24 52.00
7545 47.3640 2726.00 2659.90 52.00
7546 47.3700 2723.00 2653.68 52.00
7547 47.3760 2642.00 2648.15 51.00
7548 47.3820 2551.00 2643.62 51.00
7549 47.3880 2542.00 2639.41 50.00
7550 47.3940 2543.00 2635.52 50.00
7551 47.4000 2491.00 2630.52 50.00
7552 47.4060 2468.00 2623.24 50.00
7553 47.4120 2521.00 2613.05 50.00
7554 47.4180 2514.00 2600.05 50.00
7555 47.4240 2524.00 2585.07 50.00
7556 47.4300 2484.00 2569.34 50.00
7557 47.4360 2432.00 2554.00 49.00
7558 47.4420 2495.00 2540.64 50.00
7559 47.4480 2583.00 2529.81 51.00
7560 47.4540 2614.00 2522.31 51.00
7561 47.4600 2545.00 2518.57 50.00
7562 47.4660 2465.00 2518.74 50.00
7563 47.4720 2501.00 2522.71 50.00
7564 47.4780 2566.00 2530.04 51.00
7565 47.4840 2577.00 2540.31 51.00
7566 47.4900 2595.00 2552.90 51.00
7567 47.4960 2638.00 2566.67 51.00
7568 47.5020 2697.00 2580.39 52.00
7569 47.5080 2699.00 2593.02 52.00
7570 47.5140 2738.00 2603.85 52.00
7571 47.5200 2735.00 2612.67 52.00
7572 47.5260 2658.00 2619.71 52.00
7573 47.5320 2655.00 2625.79 52.00
7574 47.5380 2676.00 2631.15 52.00
7575 47.5440 2693.00 2636.12 52.00
7576 47.5500 2708.00 2640.37 52.00
7577 47.5560 2742.00 2643.28 52.00
7578 47.5620 2711.00 2644.10 52.00
7579 47.5680 2637.00 2642.31 51.00
7580 47.5740 2646.00 2638.00 51.00
7581 47.5800 2641.00 2631.52 51.00
7582 47.5860 2599.00 2624.02 51.00
7583 47.5920 2601.00 2615.95 51.00
7584 47.5980 2591.00 2607.62 51.00
7585 47.6040 2586.00 2598.81 51.00
7586 47.6100 2591.00 2589.26 51.00
7587 47.6160 2574.00 2578.40 51.00
7588 47.6220 2559.00 2565.98 51.00
7589 47.6280 2551.00 2552.16 51.00
7590 47.6340 2563.00 2537.47 51.00
7591 47.6400 2513.00 2522.65 50.00
7592 47.6460 2476.00 2508.33 50.00
7593 47.6520 2438.00 2495.08 49.00
7594 47.6580 2364.00 2483.31 49.00
7595 47.6640 2406.00 2473.28 49.00
7596 47.6700 2475.00 2465.18 50.00
7597 47.6760 2456.00 2459.11 50.00
7598 47.6820 2402.00 2455.18 49.00
7599 47.6880 2391.00 2453.38 49.00
7600 47.6940 2394.00 2453.82 49.00
7601 47.7000 2405.00 2457.99 49.00
7602 47.7060 2316.00 2472.05 48.00
7603 47.7120 2280.00 2488.80 48.00
7604 47.7180 2388.00 2508.49 49.00
7605 47.7240 2458.00 2531.36 50.00
7606 47.7300 2458.00 2557.77 50.00
7607 47.7360 2494.00 2587.38 50.00
7608 47.7420 2494.00 2620.12 50.00
7609 47.7480 2465.00 2655.47 50.00
7610 47.7540 2519.00 2692.42 50.00
7611 47.7600 2576.00 2729.78 51.00
7612 47.7660 2553.00 2766.04 51.00
7613 47.7720 2510.00 2799.67 50.00
7614 47.7780 2507.00 2829.15 50.00
7615 47.7840 2579.00 2853.16 51.00
7616 47.7900 2617.00 2870.87 51.00
7617 47.7960 2554.00 2882.27 51.00
7618 47.8020 2624.00 2888.94 51.00
7619 47.8080 2671.00 2893.20 52.00
7620 47.8140 2559.00 2897.96 51.00
7621 47.8200 2557.00 2905.92 51.00
7622 47.8260 2585.00 2912.00 51.00
7623 47.8320 2642.00 2910.22 51.00
7624 47.8380 2715.00 2915.04 52.00
7625 47.8440 2722.00 2925.60 52.00
7626 47.8500 2823.00 2940.02 53.00
7627 47.8560 2889.00 2954.98 54.00
7628 47.8620 2862.00 2967.80 53.00
7629 47.8680 2973.00 2974.08 55.00
7630 47.8740 3015.00 2970.68 55.00
7631 47.8800 2968.00 2955.67 54.00
7632 47.8860 2912.00 2929.14 54.00
7633 47.8920 2801.00 2892.88 53.00
7634 47.8980 2769.00 2849.61 53.00
7635 47.9040 2790.00 2802.40 53.00
7636 47.9100 2768.00 2753.93 53.00
7637 47.9160 2735.00 2706.04 52.00
7638 47.9220 2712.00 2659.87 52.00
7639 47.9280 2638.00 2615.98 51.00
7640 47.9340 2571.00 2574.63 51.00
7641 47.9400 2546.00 2535.77 50.00
7642 47.9460 2429.00 2499.42 49.00
7643 47.9520 2435.00 2465.64 49.00
7644 47.9580 2494.00 2434.55 50.00
7645 47.9640 2420.00 2406.28 49.00
7646 47.9700 2406.00 2380.94 49.00
7647 47.9760 2383.00 2358.69 49.00
7648 47.9820 2382.00 2339.34 49.00
7649 47.9880 2362.00 2323.20 49.00
7650 47.9940 2297.00 2309.96 48.00
7651 48.0000 2349.00 2317.83 48.00
7652 48.0060 2434.00 2331.70 49.00
7653 48.0120 2377.00 2347.40 49.00
7654 48.0180 2362.00 2364.33 49.00
7655 48.0240 2423.00 2381.76 49.00
7656 48.0300 2421.00 2398.90 49.00
7657 48.0360 2442.00 2415.27 49.00
7658 48.0420 2341.00 2429.73 48.00
7659 48.0480 2311.00 2442.16 48.00
7660 48.0540 2336.00 2453.00 48.00
7661 48.0600 2319.00 2462.24 48.00
7662 48.0660 2417.00 2470.01 49.00
7663 48.0720 2417.00 2476.18 49.00
7664 48.0780 2306.00 2480.69 48.00
7665 48.0840 2268.00 2483.46 48.00
7666 48.0900 2286.00 2484.72 48.00
7667 48.0960 2299.00 2484.94 48.00
7668 48.1020 2316.00 2484.77 48.00
7669 48.1080 2302.00 2484.89 48.00
7670 48.1140 2302.00 2481.15 48.00
7671 48.1200 2349.00 2473.96 48.00
7672 48.1260 2407.00 2468.29 49.00
7673 48.1320 2373.00 2464.27 49.00
7674 48.1380 2278.00 2461.90 48.00
7675 48.1440 2287.00 2461.25 48.00
7676 48.1500 2329.00 2461.64 48.00
7677 48.1560 2416.00 2462.94 49.00
7678 48.1620 2456.00 2465.20 50.00
7679 48.1680 2425.00 2467.27 49.00
7680 48.1740 2313.00 2469.04 48.00
7681 48.1800 2350.00 2470.20 48.00
7682 48.1860 2393.00 2470.64 49.00
7683 48.1920 2367.00 2470.62 49.00
7684 48.1980 2384.00 2469.92 49.00
7685 48.2040 2450.00 2468.69 49.00
7686 48.2100 2497.00 2467.52 50.00
7687 48.2160 2370.00 2466.35 49.00
7688 48.2220 2448.00 2465.40 49.00
7689 48.2280 2449.00 2465.05 49.00
7690 48.2340 2479.00 2465.35 50.00
7691 48.2400 2513.00 2466.76 50.00
7692 48.2460 2467.00 2469.69 50.00
7693 48.2520 2462.00 2474.40 50.00
7694 48.2580 2428.00 2481.16 49.00
7695 48.2640 2521.00 2490.62 50.00
7696 48.2700 2558.00 2503.00 51.00
7697 48.2760 2594.00 2518.69 51.00
7698 48.2820 2586.00 2538.06 51.00
7699 48.2880 2656.00 2561.52 52.00
7700 48.2940 2687.00 2589.31 52.00
7701 48.3000 2657.00 2621.66 52.00
7702 48.3060 2747.00 2658.46 52.00
7703 48.3120 2876.00 2699.19 54.00
7704 48.3180 3005.00 2742.62 55.00
7705 48.3240 3030.00 2787.05 55.00
7706 48.3300 3152.00 2830.63 56.00
7707 48.3360 3227.00 2870.42 57.00
7708 48.3420 3298.00 2903.86 57.00
7709 48.3480 3450.00 2928.77 59.00
7710 48.3540 3510.00 2943.28 59.00
7711 48.3600 3366.00 2946.15 58.00
7712 48.3660 3186.00 2937.30 56.00
7713 48.3720 3186.00 2917.49 56.00
7714 48.3780 3070.00 2888.41 55.00
7715 48.3840 3015.00 2852.00 55.00
7716 48.3900 2988.00 2810.87 55.00
7717 48.3960 2789.00 2767.09 53.00
7718 48.4020 2726.00 2722.73 52.00
7719 48.4080 2797.00 2679.75 53.00
7720 48.4140 2735.00 2639.76 52.00
7721 48.4200 2726.00 2603.85 52.00
7722 48.4260 2623.00 2573.03 51.00
7723 48.4320 2591.00 2547.08 51.00
7724 48.4380 2586.00 2526.13 51.00
7725 48.4440 2521.00 2512.63 50.00
7726 48.4500 2535.00 2505.91 50.00
7727 48.4560 2566.00 2503.48 51.00
7728 48.4620 2546.00 2504.83 50.00
7729 48.4680 2572.00 2509.35 51.00
7730 48.4740 2626.00 2516.44 51.00
7731 48.4800 2571.00 2525.39 51.00
7732 48.4860 2491.00 2535.45 50.00
7733 48.4920 2450.00 2545.79 49.00
7734 48.4980 2523.00 2555.56 50.00
7735 48.5040 2491.00 2563.94 50.00
7736 48.5100 2597.00 2570.24 51.00
7737 48.5160 2640.00 2573.78 51.00
7738 48.5220 2527.00 2575.02 50.00
7739 48.5280 2499.00 2573.67 50.00
7740 48.5340 2596.00 2570.75 51.00
7741 48.5400 2512.00 2566.67 50.00
7742 48.5460 2489.00 2562.11 50.00
7743 48.5520 2415.00 2557.83 49.00
7744 48.5580 2395.00 2554.08 49.00
7745 48.5640 2387.00 2551.43 49.00
7746 48.5700 2446.00 2549.97 49.00
7747 48.5760 2496.00 2550.07 50.00
7748 48.5820 2488.00 2551.82 50.00
7749 48.5880 2506.00 2555.28 50.00
7750 48.5940 2465.00 2560.66 50.00
7751 48.6000 2398.00 2568.05 49.00
7752 48.6060 2508.00 2577.64 50.00
7753 48.6120 2562.00 2591.34 51.00
7754 48.6180 2467.00 2609.38 50.00
7755 48.6240 2586.00 2630.14 51.00
7756 48.6300 2504.00 2653.71 50.00
7757 48.6360 2556.00 2680.05 51.00
7758 48.6420 2622.00 2708.87 51.00
7759 48.6480 2650.00 2739.74 51.00
7760 48.6540 2619.00 2771.89 51.00
7761 48.6600 2561.00 2804.29 51.00
7762 48.6660 2649.00 2835.54 51.00
7763 48.6720 2692.00 2863.90 52.00
7764 48.6780 2535.00 2887.47 50.00
7765 48.6840 2587.00 2904.49 51.00
7766 48.6900 2667.00 2914.32 52.00
7767 48.6960 2701.00 2917.12 52.00
7768 48.7020 2530.00 2914.19 50.00
7769 48.7080 2644.00 2907.42 51.00
7770 48.7140 2668.00 2898.86 52.00
7771 48.7200 2576.00 2890.48 51.00
7772 48.7260 2710.00 2884.09 52.00
7773 48.7320 2695.00 2881.28 52.00
7774 48.7380 2693.00 2883.72 52.00
7775 48.7440 2770.00 2892.52 53.00
7776 48.7500 2916.00 2908.56 54.00
7777 48.7560 2859.00 2936.98 53.00
7778 48.7620 2969.00 2974.00 54.00
7779 48.7680 3038.00 3018.19 55.00
7780 48.7740 3028.00 3068.49 55.00
7781 48.7800 3127.00 3123.36 56.00
7782 48.7860 3164.00 3180.57 56.00
7783 48.7920 3225.00 3237.45 57.00
7784 48.7980 3356.00 3291.25 58.00
7785 48.8040 3331.00 3338.71 58.00
7786 48.8100 3415.00 3377.83 58.00
7787 48.8160 3480.00 3407.30 59.00
7788 48.8220 3480.00 3426.92 59.00
7789 48.8280 3505.00 3437.44 59.00
7790 48.8340 3507.00 3440.28 59.00
7791 48.8400 3454.00 3436.96 59.00
7792 48.8460 3349.00 3428.89 58.00
7793 48.8520 3216.00 3417.77 57.00
7794 48.8580 3096.00 3405.26 56.00
7795 48.8640 3047.00 3392.91 55.00
7796 48.8700 2991.00 3381.66 55.00
7797 48.8760 3010.00 3372.19 55.00
7798 48.8820 2950.00 3364.72 54.00
7799 48.8880 2870.00 3359.54 54.00
7800 48.8940 2898.00 3357.19 54.00
7801 48.9000 2955.00 3358.48 54.00
7802 48.9060 2980.00 3364.37 55.00
7803 48.9120 2891.00 3375.84 54.00
7804 48.9180 2884.00 3382.53 54.00
7805 48.9240 2982.00 3384.95 55.00
7806 48.9300 3051.00 3394.42 55.00
7807 48.9360 2924.00 3410.61 54.00
7808 48.9420 3110.00 3432.85 56.00
7809 48.9480 3241.00 3460.07 57.00
7810 48.9540 3239.00 3490.85 57.00
7811 48.9600 3286.00 3523.46 57.00
7812 48.9660 3410.00 3555.54 58.00
7813 48.9720 3328.00 3584.46 58.00
7814 48.9780 3431.00 3607.47 59.00
7815 48.9840 3475.00 3622.63 59.00
7816 48.9900 3469.00 3629.30 59.00
7817 48.9960 3365.00 3628.68 58.00
7818 49.0020 3636.00 3623.19 60.00
7819 49.0080 3438.00 3615.45 59.00
7820 49.0140 3609.00 3608.45 60.00
7821 49.0200 3341.00 3603.64 58.00
7822 49.0260 3390.00 3601.50 58.00
7823 49.0320 3541.00 3601.25 60.00
7824 49.0380 3464.00 3601.70 59.00
7825 49.0440 3445.00 3600.47 59.00
7826 49.0500 3441.00 3595.33 59.00
7827 49.0560 3481.00 3584.40 59.00
7828 49.0620 3397.00 3566.63 58.00
7829 49.0680 3375.00 3541.42 58.00
7830 49.0740 3340.00 3508.46 58.00
7831 49.0800 3245.00 3467.53 57.00
7832 49.0860 3167.00 3418.75 56.00
7833 49.0920 3087.00 3362.87 56.00
7834 49.0980 3126.00 3301.62 56.00
7835 49.1040 2981.00 3237.39 55.00
7836 49.1100 2720.00 3172.83 52.00
7837 49.1160 2787.00 3110.38 53.00
7838 49.1220 2814.00 3052.07 53.00
7839 49.1280 2686.00 2999.39 52.00
7840 49.1340 2553.00 2953.24 51.00
7841 49.1400 2582.00 2914.06 51.00
7842 49.1460 2609.00 2881.98 51.00
7843 49.1520 2539.00 2856.78 50.00
7844 49.1580 2544.00 2835.81 50.00
7845 49.1640 2541.00 2818.33 50.00
7846 49.1700 2593.00 2805.82 51.00
7847 49.1760 2599.00 2797.20 51.00
7848 49.1820 2568.00 2791.45 51.00
7849 49.1880 2586.00 2787.32 51.00
7850 49.1940 2618.00 2783.48 51.00
7851 49.2000 2676.00 2778.55 52.00
7852 49.2060 2607.00 2771.27 51.00
7853 49.2120 2568.00 2760.68 51.00
7854 49.2180 2477.00 2746.34 50.00
7855 49.2240 2550.00 2728.34 50.00
7856 49.2300 2551.00 2707.30 51.00
7857 49.2360 2483.00 2684.10 50.00
7858 49.2420 2516.00 2659.69 50.00
7859 49.2480 2551.00 2634.90 51.00
7860 49.2540 2475.00 2610.32 50.00
7861 49.2600 2508.00 2586.30 50.00
7862 49.2660 2515.00 2562.92 50.00
7863 49.2720 2413.00 2540.12 49.00
7864 49.2780 2393.00 2517.76 49.00
7865 49.2840 2323.00 2495.74 48.00
7866 49.2900 2406.00 2474.05 49.00
7867 49.2960 2427.00 2452.73 49.00
7868 49.3020 2385.00 2431.94 49.00
7869 49.3080 2315.00 2411.74 48.00
7870 49.3140 2233.00 2392.23 47.00
7871 49.3200 2374.00 2373.45 49.00
7872 49.3260 2202.00 2355.45 47.00
7873 49.3320 2210.00 2338.22 47.00
7874 49.3380 2241.00 2321.76 47.00
7875 49.3440 2303.00 2305.77 48.00
7876 49.3500 2219.00 2306.02 47.00
7877 49.3560 2212.00 2307.04 47.00
7878 49.3620 2254.00 2309.00 47.00
7879 49.3680 2162.00 2311.75 46.00
7880 49.3740 2179.00 2315.50 47.00
7881 49.3800 2281.00 2320.52 48.00
7882 49.3860 2274.00 2326.99 48.00
7883 49.3920 2260.00 2335.17 48.00
7884 49.3980 2255.00 2345.29 47.00
7885 49.4040 2333.00 2357.58 48.00
7886 49.4100 2326.00 2372.12 48.00
7887 49.4160 2221.00 2388.92 47.00
7888 49.4220 2377.00 2407.77 49.00
7889 49.4280 2389.00 2428.23 49.00
7890 49.4340 2491.00 2449.61 50.00
7891 49.4400 2504.00 2471.01 50.00
7892 49.4460 2560.00 2491.17 51.00
7893 49.4520 2624.00 2508.68 51.00
7894 49.4580 2599.00 2521.91 51.00
7895 49.4640 2450.00 2530.15 49.00
7896 49.4700 2456.00 2532.74 50.00
7897 49.4760 2462.00 2529.71 50.00
7898 49.4820 2387.00 2522.51 49.00
7899 49.4880 2441.00 2511.86 49.00
7900 49.4940 2404.00 2498.75 49.00
7901 49.5000 2327.00 2483.80 48.00
7902 49.5060 2372.00 2468.16 49.00
7903 49.5120 2320.00 2452.45 48.00
7904 49.5180 2279.00 2437.19 48.00
7905 49.5240 2262.00 2423.11 48.00
7906 49.5300 2338.00 2410.64 48.00
7907 49.5360 2254.00 2400.08 47.00
7908 49.5420 2291.00 2391.40 48.00
7909 49.5480 2220.00 2384.92 47.00
7910 49.5540 2264.00 2380.42 48.00
7911 49.5600 2215.00 2376.88 47.00
7912 49.5660 2269.00 2370.96 48.00
7913 49.5720 2255.00 2366.47 47.00
7914 49.5780 2318.00 2363.29 48.00
7915 49.5840 2253.00 2361.18 47.00
7916 49.5900 2235.00 2359.94 47.00
7917 49.5960 2203.00 2359.28 47.00
7918 49.6020 2344.00 2358.85 48.00
7919 49.6080 2288.00 2358.50 48.00
7920 49.6140 2261.00 2357.87 48.00
7921 49.6200 2307.00 2356.68 48.00
7922 49.6260 2291.00 2354.81 48.00
7923 49.6320 2302.00 2352.18 48.00
7924 49.6380 2309.00 2349.01 48.00
7925 49.6440 2299.00 2345.07 48.00
7926 49.6500 2255.00 2340.95 47.00
7927 49.6560 2217.00 2336.83 47.00
7928 49.6620 2309.00 2332.50 48.00
7929 49.6680 2293.00 2327.97 48.00
7930 49.6740 2266.00 2323.20 48.00
7931 49.6800 2288.00 2318.29 48.00
7932 49.6860 2258.00 2313.23 48.00
7933 49.6920 2243.00 2308.20 47.00
7934 49.6980 2254.00 2302.98 47.00
7935 49.7040 2240.00 2297.69 47.00
7936 49.7100 2256.00 2292.03 47.00
7937 49.7160 2323.00 2286.30 48.00
7938 49.7220 2282.00 2280.65 48.00
7939 49.7280 2342.00 2275.09 48.00
7940 49.7340 2343.00 2269.80 48.00
7941 49.7400 2312.00 2264.90 48.00
7942 49.7460 2313.00 2260.22 48.00
7943 49.7520 2337.00 2256.40 48.00
7944 49.7580 2249.00 2253.08 47.00
7945 49.7640 2258.00 2250.33 48.00
7946 49.7700 2333.00 2248.08 48.00
7947 49.7760 2357.00 2246.12 49.00
7948 49.7820 2329.00 2244.27 48.00
7949 49.7880 2378.00 2242.29 49.00
7950 49.7940 2302.00 2239.92 48.00
7951 49.8000 2291.00 2236.93 48.00
7952 49.8060 2274.00 2233.17 48.00
7953 49.8120 2310.00 2228.63 48.00
7954 49.8180 2261.00 2223.40 48.00
7955 49.8240 2204.00 2217.67 47.00
7956 49.8300 2276.00 2211.65 48.00
7957 49.8360 2248.00 2205.54 47.00
7958 49.8420 2273.00 2199.55 48.00
7959 49.8480 2272.00 2193.68 48.00
7960 49.8540 2233.00 2188.12 47.00
7961 49.8600 2245.00 2182.82 47.00
7962 49.8660 2201.00 2177.85 47.00
7963 49.8720 2163.00 2173.09 47.00
7964 49.8780 2226.00 2168.76 47.00
7965 49.8840 2172.00 2164.62 47.00
7966 49.8900 2178.00 2161.66 47.00
7967 49.8960 2194.00 2159.10 47.00
7968 49.9020 2243.00 2156.70 47.00
7969 49.9080 2172.00 2154.47 47.00
7970 49.9140 2233.00 2152.39 47.00
7971 49.9200 2177.00 2150.49 47.00
7972 49.9260 2197.00 2148.96 47.00
7973 49.9320 2210.00 2147.53 47.00
7974 49.9380 2157.00 2146.42 46.00
7975 49.9440 2139.00 2145.72 46.00
7976 49.9500 2178.00 2145.66 47.00
7977 49.9560 2260.00 2146.32 48.00
7978 49.9620 2318.00 2147.69 48.00
7979 49.9680 2234.00 2149.99 47.00
7980 49.9740 2284.00 2153.29 48.00
7981 49.9800 2226.00 2157.62 47.00
7982 49.9860 2223.00 2162.95 47.00
7983 49.9920 2273.00 2169.13 48.00
7984 49.9980 2282.00 2175.96 48.00
7985 50.0040 2228.00 2183.00 47.00
7986 50.0100 2209.00 2189.77 47.00
7987 50.0160 2306.00 2195.70 48.00
7988 50.0220 2283.00 2200.10 48.00
7989 50.0280 2318.00 2202.31 48.00
7990 50.0340 2292.00 2201.90 48.00
7991 50.0400 2290.00 2198.85 48.00
7992 50.0460 2351.00 2193.43 48.00
7993 50.0520 2298.00 2186.24 48.00
7994 50.0580 2333.00 2177.96 48.00
7995 50.0640 2307.00 2169.17 48.00
7996 50.0700 2290.00 2160.35 48.00
7997 50.0760 2362.00 2151.85 49.00
7998 50.0820 2364.00 2143.89 49.00
7999 50.0880 2278.00 2136.59 48.00
8000 50.0940 2334.00 2130.07 48.00
8001 50.1000 2268.00 2124.44 48.00
8002 50.1060 2237.00 2119.83 47.00
8003 50.1120 2318.00 2116.40 48.00
8004 50.1180 2256.00 2114.29 47.00
8005 50.1240 2289.00 2113.63 48.00
8006 50.1300 2289.00 2114.19 48.00
8007 50.1360 2246.00 2116.41 47.00
8008 50.1420 2285.00 2130.40 48.00
8009 50.1480 2244.00 2150.74 47.00
8010 50.1540 2337.00 2171.91 48.00
8011 50.1600 2331.00 2193.50 48.00
8012 50.1660 2332.00 2215.00 48.00
8013 50.1720 2324.00 2235.77 48.00
8014 50.1780 2315.00 2255.49 48.00
8015 50.1840 2288.00 2273.43 48.00
8016 50.1900 2379.00 2289.62 49.00
8017 50.1960 2408.00 2304.27 49.00
8018 50.2020 2413.00 2317.75 49.00
8019 50.2080 2378.00 2330.54 49.00
8020 50.2140 2321.00 2342.99 48.00
8021 50.2200 2297.00 2355.41 48.00
8022 50.2260 2281.00 2367.49 48.00
8023 50.2320 2314.00 2379.11 48.00
8024 50.2380 2321.00 2389.99 48.00
8025 50.2440 2249.00 2399.79 47.00
8026 50.2500 2168.00 2408.42 47.00
8027 50.2560 2227.00 2415.88 47.00
8028 50.2620 2300.00 2422.48 48.00
8029 50.2680 2284.00 2428.61 48.00
8030 50.2740 2265.00 2434.77 48.00
8031 50.2800 2273.00 2441.27 48.00
8032 50.2860 2263.00 2448.57 48.00
8033 50.2920 2219.00 2456.94 47.00
8034 50.2980 2209.00 2466.84 47.00
8035 50.3040 2258.00 2471.41 48.00
8036 50.3100 2280.00 2470.86 48.00
8037 50.3160 2230.00 2471.85 47.00
8038 50.3220 2260.00 2474.25 48.00
8039 50.3280 2258.00 2477.97 48.00
8040 50.3340 2315.00 2482.47 48.00
8041 50.3400 2248.00 2487.47 47.00
8042 50.3460 2303.00 2492.61 48.00
8043 50.3520 2377.00 2497.41 49.00
8044 50.3580 2302.00 2501.38 48.00
8045 50.3640 2310.00 2504.10 48.00
8046 50.3700 2274.00 2505.25 48.00
8047 50.3760 2241.00 2504.71 47.00
8048 50.3820 2258.00 2502.65 48.00
8049 50.3880 2297.00 2499.29 48.00
8050 50.3940 2252.00 2495.06 47.00
8051 50.4000 2244.00 2490.41 47.00
8052 50.4060 2245.00 2485.46 47.00
8053 50.4120 2340.00 2480.55 48.00
8054 50.4180 2419.00 2476.03 49.00
8055 50.4240 2354.00 2472.04 49.00
8056 50.4300 2275.00 2468.48 48.00
8057 50.4360 2319.00 2465.89 48.00
8058 50.4420 2273.00 2464.29 48.00
8059 50.4480 2203.00 2463.78 47.00
8060 50.4540 2254.00 2464.57 47.00
8061 50.4600 2350.00 2466.77 48.00
8062 50.4660 2390.00 2470.51 49.00
8063 50.4720 2398.00 2475.62 49.00
8064 50.4780 2370.00 2482.09 49.00
8065 50.4840 2409.00 2489.87 49.00
8066 50.4900 2474.00 2498.68 50.00
8067 50.4960 2499.00 2508.28 50.00
8068 50.5020 2466.00 2518.17 50.00
8069 50.5080 2530.00 2527.94 50.00
8070 50.5140 2502.00 2537.11 50.00
8071 50.5200 2476.00 2545.22 50.00
8072 50.5260 2513.00 2552.07 50.00
8073 50.5320 2512.00 2557.73 50.00
8074 50.5380 2509.00 2562.57 50.00
8075 50.5440 2502.00 2567.23 50.00
8076 50.5500 2452.00 2572.40 50.00
8077 50.5560 2471.00 2578.72 50.00
8078 50.5620 2554.00 2586.61 51.00
8079 50.5680 2532.00 2596.50 50.00
8080 50.5740 2548.00 2607.79 50.00
8081 50.5800 2594.00 2620.30 51.00
8082 50.5860 2661.00 2633.41 52.00
8083 50.5920 2718.00 2646.16 52.00
8084 50.5980 2781.00 2657.55 53.00
8085 50.6040 2741.00 2666.64 52.00
8086 50.6100 2680.00 2672.77 52.00
8087 50.6160 2675.00 2675.61 52.00
8088 50.6220 2661.00 2675.08 52.00
8089 50.6280 2577.00 2671.28 51.00
8090 50.6340 2574.00 2664.40 51.00
8091 50.6400 2627.00 2654.84 51.00
8092 50.6460 2620.00 2643.24 51.00
8093 50.6520 2620.00 2630.43 51.00
8094 50.6580 2620.00 2617.22 51.00
8095 50.6640 2553.00 2604.29 51.00
8096 50.6700 2539.00 2592.06 50.00
8097 50.6760 2542.00 2580.70 50.00
8098 50.6820 2540.00 2570.24 50.00
8099 50.6880 2537.00 2560.62 50.00
8100 50.6940 2593.00 2551.79 51.00
8101 50.7000 2544.00 2543.69 50.00
8102 50.7060 2449.00 2536.13 49.00
8103 50.7120 2491.00 2529.23 50.00
8104 50.7180 2493.00 2522.83 50.00
8105 50.7240 2442.00 2516.75 49.00
8106 50.7300 2407.00 2510.99 49.00
8107 50.7360 2450.00 2505.53 49.00
8108 50.7420 2410.00 2500.45 49.00
8109 50.7480 2414.00 2495.88 49.00
8110 50.7540 2389.00 2492.01 49.00
8111 50.7600 2359.00 2489.00 49.00
8112 50.7660 2356.00 2488.41 49.00
8113 50.7720 2418.00 2489.66 49.00
8114 50.7780 2420.00 2492.21 49.00
8115 50.7840 2339.00 2496.12 48.00
8116 50.7900 2359.00 2501.43 49.00
8117 50.7960 2381.00 2508.09 49.00
8118 50.8020 2383.00 2516.11 49.00
8119 50.8080 2395.00 2525.47 49.00
8120 50.8140 2408.00 2536.19 49.00
8121 50.8200 2425.00 2548.53 49.00
8122 50.8260 2402.00 2561.97 49.00
8123 50.8320 2384.00 2576.61 49.00
8124 50.8380 2425.00 2592.22 49.00
8125 50.8440 2469.00 2608.37 50.00
8126 50.8500 2414.00 2624.47 49.00
8127 50.8560 2417.00 2639.91 49.00
8128 50.8620 2410.00 2653.99 49.00
8129 50.8680 2428.00 2666.56 49.00
8130 50.8740 2419.00 2677.36 49.00
8131 50.8800 2333.00 2686.44 48.00
8132 50.8860 2300.00 2693.88 48.00
8133 50.8920 2364.00 2699.73 49.00
8134 50.8980 2470.00 2704.09 50.00
8135 50.9040 2498.00 2707.12 50.00
8136 50.9100 2463.00 2709.22 50.00
8137 50.9160 2443.00 2710.99 49.00
8138 50.9220 2430.00 2713.01 49.00
8139 50.9280 2416.00 2715.98 49.00
8140 50.9340 2428.00 2720.18 49.00
8141 50.9400 2489.00 2725.69 50.00
8142 50.9460 2546.00 2732.45 50.00
8143 50.9520 2508.00 2740.14 50.00
8144 50.9580 2491.00 2748.31 50.00
8145 50.9640 2517.00 2756.35 50.00
8146 50.9700 2558.00 2763.61 51.00
8147 50.9760 2592.00 2769.48 51.00
8148 50.9820 2580.00 2773.65 51.00
8149 50.9880 2577.00 2775.83 51.00
8150 50.9940 2607.00 2776.33 51.00
8151 51.0000 2596.00 2773.73 51.00
8152 51.0060 2572.00 2766.73 51.00
8153 51.0120 2545.00 2759.58 50.00
8154 51.0180 2592.00 2753.25 51.00
8155 51.0240 2632.00 2748.45 51.00
8156 51.0300 2647.00 2746.55 51.00
8157 51.0360 2673.00 2748.81 52.00
8158 51.0420 2727.00 2756.30 52.00
8159 51.0480 2772.00 2769.70 53.00
8160 51.0540 2798.00 2789.19 53.00
8161 51.0600 2896.00 2814.65 54.00
8162 51.0660 2937.00 2845.24 54.00
8163 51.0720 2937.00 2879.58 54.00
8164 51.0780 2959.00 2916.03 54.00
8165 51.0840 2960.00 2952.50 54.00
8166 51.0900 3070.00 2986.58 55.00
8167 51.0960 3201.00 3015.80 57.00
8168 51.1020 3154.00 3037.59 56.00
8169 51.1080 3099.00 3049.79 56.00
8170 51.1140 3102.00 3051.05 56.00
8171 51.1200 3098.00 3041.01 56.00
8172 51.1260 3077.00 3020.33 55.00
8173 51.1320 3040.00 2990.52 55.00
8174 51.1380 2977.00 2953.68 55.00
8175 51.1440 2931.00 2912.07 54.00
8176 51.1500 2887.00 2868.07 54.00
8177 51.1560 2853.00 2823.78 53.00
8178 51.1620 2787.00 2780.96 53.00
8179 51.1680 2796.00 2741.13 53.00
8180 51.1740 2746.00 2705.39 52.00
8181 51.1800 2674.00 2674.49 52.00
8182 51.1860 2693.00 2648.84 52.00
8183 51.1920 2660.00 2628.68 52.00
8184 51.1980 2672.00 2614.01 52.00
8185 51.2040 2632.00 2604.67 51.00
8186 51.2100 2628.00 2600.50 51.00
8187 51.2160 2615.00 2600.82 51.00
8188 51.2220 2661.00 2605.06 52.00
8189 51.2280 2663.00 2612.23 52.00
8190 51.2340 2592.00 2621.08 51.00
8191 51.2400 2571.00 2630.17 51.00
8192 51.2460 2600.00 2637.62 51.00
8193 51.2520 2608.00 2641.67 51.00
8194 51.2580 2601.00 2640.78 51.00
8195 51.2640 2680.00 2634.01 52.00
8196 51.2700 2679.00 2621.24 52.00
8197 51.2760 2614.00 2603.08 51.00
8198 51.2820 2628.00 2580.67 51.00
8199 51.2880 2621.00 2555.25 51.00
8200 51.2940 2562.00 2528.51 51.00
8201 51.3000 2438.00 2501.60 49.00
8202 51.3060 2397.00 2475.62 49.00
8203 51.3120 2382.00 2451.38 49.00
8204 51.3180 2416.00 2436.22 49.00
8205 51.3240 2344.00 2437.30 48.00
8206 51.3300 2314.00 2441.14 48.00
8207 51.3360 2289.00 2447.63 48.00
8208 51.3420 2248.00 2456.61 47.00
8209 51.3480 2300.00 2467.80 48.00
8210 51.3540 2373.00 2481.03 49.00
8211 51.3600 2306.00 2495.75 48.00
8212 51.3660 2342.00 2511.74 48.00
8213 51.3720 2291.00 2528.80 48.00
8214 51.3780 2270.00 2546.62 48.00
8215 51.3840 2335.00 2565.00 48.00
8216 51.3900 2286.00 2583.72 48.00
8217 51.3960 2319.00 2602.76 48.00
8218 51.4020 2308.00 2621.86 48.00
8219 51.4080 2341.00 2641.15 48.00
8220 51.4140 2374.00 2660.74 49.00
8221 51.4200 2350.00 2680.93 48.00
8222 51.4260 2324.00 2702.12 48.00
8223 51.4320 2310.00 2724.76 48.00
8224 51.4380 2287.00 2749.26 48.00
8225 51.4440 2315.00 2776.08 48.00
8226 51.4500 2338.00 2766.59 48.00
8227 51.4560 2429.00 2759.62 49.00
8228 51.4620 2450.00 2755.04 49.00
8229 51.4680 2458.00 2752.45 50.00
8230 51.4740 2471.00 2751.23 50.00
8231 51.4800 2541.00 2750.48 50.00
8232 51.4860 2673.00 2749.10 52.00
8233 51.4920 2695.00 2745.78 52.00
8234 51.4980 2718.00 2739.17 52.00
8235 51.5040 2647.00 2727.71 51.00
8236 51.5100 2697.00 2710.24 52.00
8237 51.5160 2602.00 2686.09 51.00
8238 51.5220 2644.00 2655.47 51.00
8239 51.5280 2527.00 2619.34 50.00
8240 51.5340 2481.00 2579.18 50.00
8241 51.5400 2443.00 2536.62 49.00
8242 51.5460 2431.00 2493.07 49.00
8243 51.5520 2421.00 2450.04 49.00
8244 51.5580 2367.00 2408.53 49.00
8245 51.5640 2341.00 2368.96 48.00
8246 51.5700 2348.00 2331.93 48.00
8247 51.5760 2236.00 2297.76 47.00
8248 51.5820 2173.00 2266.57 47.00
8249 51.5880 2203.00 2238.22 47.00
8250 51.5940 2279.00 2212.52 48.00
8251 51.6000 2309.00 2214.49 48.00
8252 51.6060 2302.00 2223.80 48.00
8253 51.6120 2301.00 2235.24 48.00
8254 51.6180 2219.00 2248.62 47.00
8255 51.6240 2269.00 2263.72 48.00
8256 51.6300 2276.00 2280.48 48.00
8257 51.6360 2289.00 2298.78 48.00
8258 51.6420 2326.00 2318.53 48.00
8259 51.6480 2343.00 2339.63 48.00
8260 51.6540 2432.00 2362.02 49.00
8261 51.6600 2474.00 2385.34 50.00
8262 51.6660 2534.00 2409.33 50.00
8263 51.6720 2519.00 2432.93 50.00
8264 51.6780 2537.00 2456.02 50.00
8265 51.6840 2506.00 2477.96 50.00
8266 51.6900 2529.00 2498.33 50.00
8267 51.6960 2521.00 2516.69 50.00
8268 51.7020 2525.00 2532.48 50.00
8269 51.7080 2587.00 2545.40 51.00
8270 51.7140 2591.00 2555.03 51.00
8271 51.7200 2578.00 2561.46 51.00
8272 51.7260 2498.00 2565.22 50.00
8273 51.7320 2483.00 2567.12 50.00
8274 51.7380 2490.00 2568.14 50.00
8275 51.7440 2546.00 2569.08 50.00
8276 51.7500 2536.00 2570.52 50.00
8277 51.7560 2503.00 2572.81 50.00
8278 51.7620 2481.00 2576.09 50.00
8279 51.7680 2516.00 2580.50 50.00
8280 51.7740 2508.00 2585.91 50.00
8281 51.7800 2499.00 2592.00 50.00
8282 51.7860 2535.00 2598.56 50.00
8283 51.7920 2574.00 2605.00 51.00
8284 51.7980 2586.00 2610.69 51.00
8285 51.8040 2511.00 2615.36 50.00
8286 51.8100 2482.00 2619.09 50.00
8287 51.8160 2468.00 2621.45 50.00
8288 51.8220 2428.00 2622.65 49.00
8289 51.8280 2526.00 2622.86 50.00
8290 51.8340 2474.00 2622.23 50.00
8291 51.8400 2479.00 2621.15 50.00
8292 51.8460 2516.00 2620.10 50.00
8293 51.8520 2509.00 2619.79 50.00
8294 51.8580 2420.00 2608.39 49.00
8295 51.8640 2431.00 2586.37 49.00
8296 51.8700 2462.00 2566.26 50.00
8297 51.8760 2507.00 2548.14 50.00
8298 51.8820 2477.00 2532.09 50.00
8299 51.8880 2461.00 2517.77 50.00
8300 51.8940 2538.00 2504.86 50.00
8301 51.9000 2537.00 2492.83 50.00
8302 51.9060 2521.00 2481.18 50.00
8303 51.9120 2467.00 2469.30 50.00
8304 51.9180 2491.00 2456.70 50.00
8305 51.9240 2546.00 2442.98 50.00
8306 51.9300 2416.00 2427.85 49.00
8307 51.9360 2450.00 2411.16 49.00
8308 51.9420 2467.00 2392.91 50.00
8309 51.9480 2531.00 2373.34 50.00
8310 51.9540 2496.00 2352.79 50.00
8311 51.9600 2508.00 2332.26 50.00
8312 51.9660 2503.00 2312.21 50.00
8313 51.9720 2421.00 2316.20 49.00
8314 51.9780 2475.00 2321.73 50.00
8315 51.9840 2458.00 2329.13 50.00
8316 51.9900 2480.00 2338.52 50.00
8317 51.9960 2482.00 2349.89 50.00
8318 52.0020 2563.00 2363.07 51.00
8319 52.0080 2494.00 2377.72 50.00
8320 52.0140 2559.00 2393.51 51.00
8321 52.0200 2625.00 2409.79 51.00
8322 52.0260 2716.00 2426.20 52.00
8323 52.0320 2632.00 2442.37 51.00
8324 52.0380 2629.00 2457.99 51.00
8325 52.0440 2627.00 2472.80 51.00
8326 52.0500 2651.00 2486.53 51.00
8327 52.0560 2698.00 2499.04 52.00
8328 52.0620 2567.00 2510.44 51.00
8329 52.0680 2661.00 2521.01 52.00
8330 52.0740 2686.00 2531.06 52.00
8331 52.0800 2674.00 2540.82 52.00
8332 52.0860 2766.00 2550.22 53.00
8333 52.0920 2648.00 2559.09 51.00
8334 52.0980 2602.00 2567.10 51.00
8335 52.1040 2635.00 2573.94 51.00
8336 52.1100 2720.00 2579.50 52.00
8337 52.1160 2618.00 2583.81 51.00
8338 52.1220 2574.00 2587.02 51.00
8339 52.1280 2708.00 2589.28 52.00
8340 52.1340 2566.00 2590.67 51.00
8341 52.1400 2619.00 2591.21 51.00
8342 52.1460 2643.00 2590.94 51.00
8343 52.1520 2570.00 2590.05 51.00
8344 52.1580 2594.00 2588.94 51.00
8345 52.1640 2550.00 2588.12 50.00
8346 52.1700 2593.00 2588.16 51.00
8347 52.1760 2569.00 2589.42 51.00
8348 52.1820 2441.00 2592.13 49.00
8349 52.1880 2480.00 2596.48 50.00
8350 52.1940 2602.00 2602.52 51.00
8351 52.2000 2454.00 2609.98 50.00
8352 52.2060 2492.00 2618.74 50.00
8353 52.2120 2604.00 2628.86 51.00
8354 52.2180 2551.00 2640.41 51.00
8355 52.2240 2517.00 2653.22 50.00
8356 52.2300 2602.00 2666.94 51.00
8357 52.2360 2573.00 2681.15 51.00
8358 52.2420 2535.00 2695.27 50.00
8359 52.2480 2483.00 2708.47 50.00
8360 52.2540 2576.00 2719.95 51.00
8361 52.2600 2573.00 2729.04 51.00
8362 52.2660 2513.00 2735.44 50.00
8363 52.2720 2477.00 2739.23 50.00
8364 52.2780 2525.00 2740.85 50.00
8365 52.2840 2496.00 2741.00 50.00
8366 52.2900 2457.00 2740.44 50.00
8367 52.2960 2449.00 2739.98 49.00
8368 52.3020 2464.00 2740.46 50.00
8369 52.3080 2445.00 2742.37 49.00
8370 52.3140 2477.00 2746.56 50.00
8371 52.3200 2507.00 2752.97 50.00
8372 52.3260 2442.00 2761.93 49.00
8373 52.3320 2484.00 2768.52 50.00
8374 52.3380 2568.00 2767.61 51.00
8375 52.3440 2581.00 2768.04 51.00
8376 52.3500 2542.00 2768.90 50.00
8377 52.3560 2597.00 2769.11 51.00
8378 52.3620 2563.00 2767.52 51.00
8379 52.3680 2631.00 2763.18 51.00
8380 52.3740 2629.00 2755.40 51.00
8381 52.3800 2550.00 2744.07 50.00
8382 52.3860 2695.00 2729.77 52.00
8383 52.3920 2674.00 2713.12 52.00
8384 52.3980 2534.00 2694.84 50.00
8385 52.4040 2520.00 2675.57 50.00
8386 52.4100 2468.00 2655.90 50.00
8387 52.4160 2459.00 2635.90 50.00
8388 52.4220 2470.00 2616.25 50.00
8389 52.4280 2410.00 2597.08 49.00
8390 52.4340 2439.00 2578.60 49.00
8391 52.4400 2368.00 2560.96 49.00
8392 52.4460 2407.00 2544.33 49.00
8393 52.4520 2414.00 2528.84 49.00
8394 52.4580 2291.00 2514.57 48.00
8395 52.4640 2272.00 2501.53 48.00
8396 52.4700 2378.00 2489.78 49.00
8397 52.4760 2362.00 2479.21 49.00
8398 52.4820 2304.00 2472.20 48.00
8399 52.4880 2283.00 2466.20 48.00
8400 52.4940 2243.00 2461.05 47.00
8401 52.5000 2297.00 2456.65 48.00
8402 52.5060 2311.00 2452.90 48.00
8403 52.5120 2228.00 2449.74 47.00
8404 52.5180 2276.00 2446.71 48.00
8405 52.5240 2267.00 2443.83 48.00
8406 52.5300 2236.00 2441.00 47.00
8407 52.5360 2345.00 2438.22 48.00
8408 52.5420 2300.00 2435.38 48.00
8409 52.5480 2219.00 2432.45 47.00
8410 52.5540 2210.00 2429.39 47.00
8411 52.5600 2314.00 2426.13 48.00
8412 52.5660 2264.00 2422.66 48.00
8413 52.5720 2245.00 2418.96 47.00
8414 52.5780 2214.00 2414.87 47.00
8415 52.5840 2238.00 2410.33 47.00
8416 52.5900 2309.00 2405.28 48.00
8417 52.5960 2344.00 2399.77 48.00
8418 52.6020 2310.00 2393.58 48.00
8419 52.6080 2284.00 2386.89 48.00
8420 52.6140 2342.00 2379.92 48.00
8421 52.6200 2336.00 2372.92 48.00
8422 52.6260 2335.00 2366.04 48.00
8423 52.6320 2267.00 2359.38 48.00
8424 52.6380 2251.00 2353.05 47.00
8425 52.6440 2338.00 2347.08 48.00
8426 52.6500 2376.00 2341.72 49.00
8427 52.6560 2313.00 2337.09 48.00
8428 52.6620 2290.00 2333.33 48.00
8429 52.6680 2330.00 2330.58 48.00
8430 52.6740 2395.00 2328.94 49.00
8431 52.6800 2351.00 2328.44 48.00
8432 52.6860 2403.00 2329.03 49.00
8433 52.6920 2415.00 2332.62 49.00
8434 52.6980 2399.00 2346.98 49.00
8435 52.7040 2436.00 2361.72 49.00
8436 52.7100 2486.00 2376.47 50.00
8437 52.7160 2487.00 2390.74 50.00
8438 52.7220 2463.00 2404.15 50.00
8439 52.7280 2451.00 2416.35 50.00
8440 52.7340 2514.00 2427.32 50.00
8441 52.7400 2449.00 2436.97 49.00
8442 52.7460 2473.00 2445.29 50.00
8443 52.7520 2462.00 2452.48 50.00
8444 52.7580 2450.00 2458.09 49.00
8445 52.7640 2391.00 2462.59 49.00
8446 52.7700 2434.00 2466.00 49.00
8447 52.7760 2433.00 2468.54 49.00
8448 52.7820 2487.00 2470.45 50.00
8449 52.7880 2497.00 2471.97 50.00
8450 52.7940 2437.00 2473.35 49.00
8451 52.8000 2459.00 2474.90 50.00
8452 52.8060 2517.00 2476.82 50.00
8453 52.8120 2466.00 2479.67 50.00
8454 52.8180 2506.00 2483.68 50.00
8455 52.8240 2550.00 2489.25 50.00
8456 52.8300 2444.00 2496.58 49.00
8457 52.8360 2505.00 2505.85 50.00
8458 52.8420 2507.00 2517.15 50.00
8459 52.8480 2550.00 2532.84 50.00
8460 52.8540 2520.00 2552.74 50.00
8461 52.8600 2529.00 2574.33 50.00
8462 52.8660 2593.00 2597.15 51.00
8463 52.8720 2508.00 2620.69 50.00
8464 52.8780 2573.00 2644.30 51.00
8465 52.8840 2632.00 2667.38 51.00
8466 52.8900 2581.00 2689.16 51.00
8467 52.8960 2566.00 2709.06 51.00
8468 52.9020 2607.00 2726.65 51.00
8469 52.9080 2564.00 2741.75 51.00
8470 52.9140 2591.00 2754.59 51.00
8471 52.9200 2576.00 2765.59 51.00
8472 52.9260 2507.00 2775.12 50.00
8473 52.9320 2476.00 2784.05 50.00
8474 52.9380 2481.00 2792.68 50.00
8475 52.9440 2551.00 2801.81 51.00
8476 52.9500 2542.00 2812.02 50.00
8477 52.9560 2603.00 2823.89 51.00
8478 52.9620 2510.00 2837.87 50.00
8479 52.9680 2551.00 2854.18 51.00
8480 52.9740 2554.00 2873.32 51.00
8481 52.9800 2558.00 2888.87 51.00
8482 52.9860 2579.00 2875.60 51.00
8483 52.9920 2508.00 2863.99 50.00
8484 52.9980 2669.00 2853.25 52.00
8485 53.0040 2544.00 2842.10 50.00
8486 53.0100 2462.00 2829.18 50.00
8487 53.0160 2519.00 2813.22 50.00
8488 53.0220 2509.00 2793.03 50.00
8489 53.0280 2476.00 2768.03 50.00
8490 53.0340 2453.00 2738.23 50.00
8491 53.0400 2404.00 2704.33 49.00
8492 53.0460 2452.00 2667.49 50.00
8493 53.0520 2511.00 2629.04 50.00
8494 53.0580 2437.00 2590.16 49.00
8495 53.0640 2464.00 2551.85 50.00
8496 53.0700 2456.00 2549.30 50.00
8497 53.0760 2379.00 2548.36 49.00
8498 53.0820 2356.00 2548.81 49.00
8499 53.0880 2403.00 2550.95 49.00
8500 53.0940 2324.00 2554.44 48.00
8501 53.1000 2335.00 2558.72 48.00
8502 53.1060 2526.00 2563.53 50.00
8503 53.1120 2497.00 2568.34 50.00
8504 53.1180 2350.00 2572.71 48.00
8505 53.1240 2493.00 2576.29 50.00
8506 53.1300 2466.00 2579.02 50.00
8507 53.1360 2468.00 2581.12 50.00
8508 53.1420 2417.00 2582.94 49.00
8509 53.1480 2363.00 2585.19 49.00
8510 53.1540 2399.00 2588.49 49.00
8511 53.1600 2457.00 2593.42 50.00
8512 53.1660 2341.00 2600.47 48.00
8513 53.1720 2447.00 2610.02 49.00
8514 53.1780 2508.00 2622.30 50.00
8515 53.1840 2399.00 2637.35 49.00
8516 53.1900 2474.00 2637.61 50.00
8517 53.1960 2462.00 2636.79 50.00
8518 53.2020 2377.00 2638.01 49.00
8519 53.2080 2441.00 2640.62 49.00
8520 53.2140 2502.00 2643.91 50.00
8521 53.2200 2481.00 2647.04 50.00
8522 53.2260 2465.00 2649.25 50.00
8523 53.2320 2482.00 2649.78 50.00
8524 53.2380 2576.00 2648.42 51.00
8525 53.2440 2597.00 2645.18 51.00
8526 53.2500 2599.00 2640.51 51.00
8527 53.2560 2634.00 2635.08 51.00
8528 53.2620 2670.00 2629.48 52.00
8529 53.2680 2676.00 2624.20 52.00
8530 53.2740 2603.00 2619.67 51.00
8531 53.2800 2642.00 2615.91 51.00
8532 53.2860 2657.00 2612.62 52.00
8533 53.2920 2662.00 2609.10 52.00
8534 53.2980 2604.00 2604.40 51.00
8535 53.3040 2643.00 2597.11 51.00
8536 53.3100 2544.00 2586.06 50.00
8537 53.3160 2475.00 2570.29 50.00
8538 53.3220 2517.00 2549.34 50.00
8539 53.3280 2561.00 2523.45 51.00
8540 53.3340 2545.00 2493.55 50.00
8541 53.3400 2407.00 2460.95 49.00
8542 53.3460 2452.00 2427.12 50.00
8543 53.3520 2337.00 2393.45 48.00
8544 53.3580 2418.00 2361.08 49.00
8545 53.3640 2460.00 2330.95 50.00
8546 53.3700 2426.00 2328.03 49.00
8547 53.3760 2327.00 2340.54 48.00
8548 53.3820 2376.00 2356.43 49.00
8549 53.3880 2367.00 2375.71 49.00
8550 53.3940 2386.00 2398.04 49.00
8551 53.4000 2296.00 2423.00 48.00
8552 53.4060 2357.00 2450.17 49.00
8553 53.4120 2357.00 2479.14 49.00
8554 53.4180 2391.00 2509.46 49.00
8555 53.4240 2405.00 2540.77 49.00
8556 53.4300 2353.00 2572.83 49.00
8557 53.4360 2409.00 2605.20 49.00
8558 53.4420 2428.00 2637.78 49.00
8559 53.4480 2419.00 2670.06 49.00
8560 53.4540 2406.00 2701.59 49.00
8561 53.4600 2477.00 2731.83 50.00
8562 53.4660 2492.00 2760.19 50.00
8563 53.4720 2415.00 2786.13 49.00
8564 53.4780 2424.00 2809.46 49.00
8565 53.4840 2574.00 2830.36 51.00
8566 53.4900 2501.00 2849.30 50.00
8567 53.4960 2632.00 2866.99 51.00
8568 53.5020 2491.00 2867.66 50.00
8569 53.5080 2581.00 2851.96 51.00
8570 53.5140 2583.00 2836.97 51.00
8571 53.5200 2522.00 2823.17 50.00
8572 53.5260 2509.00 2810.82 50.00
8573 53.5320 2627.00 2800.14 51.00
8574 53.5380 2577.00 2791.29 51.00
8575 53.5440 2611.00 2784.41 51.00
8576 53.5500 2592.00 2779.60 51.00
8577 53.5560 2612.00 2776.90 51.00
8578 53.5620 2583.00 2776.30 51.00
8579 53.5680 2754.00 2777.70 52.00
8580 53.5740 2689.00 2780.90 52.00
8581 53.5800 2635.00 2785.67 51.00
8582 53.5860 2638.00 2791.70 51.00
8583 53.5920 2762.00 2798.75 53.00
8584 53.5980 2712.00 2806.37 52.00
8585 53.6040 2779.00 2814.01 53.00
8586 53.6100 2723.00 2821.10 52.00
8587 53.6160 2771.00 2826.98 53.00
8588 53.6220 2724.00 2831.01 52.00
8589 53.6280 2742.00 2832.52 52.00
8590 53.6340 2784.00 2831.09 53.00
8591 53.6400 2694.00 2825.96 52.00
8592 53.6460 2814.00 2816.47 53.00
8593 53.6520 2742.00 2802.12 52.00
8594 53.6580 2650.00 2782.78 51.00
8595 53.6640 2603.00 2758.89 51.00
8596 53.6700 2657.00 2731.31 52.00
8597 53.6760 2548.00 2701.14 50.00
8598 53.6820 2429.00 2669.74 49.00
8599 53.6880 2420.00 2638.22 49.00
8600 53.6940 2453.00 2607.58 50.00
8601 53.7000 2394.00 2578.53 49.00
8602 53.7060 2412.00 2551.60 49.00
8603 53.7120 2387.00 2527.09 49.00
8604 53.7180 2356.00 2505.17 49.00
8605 53.7240 2337.00 2485.86 48.00
8606 53.7300 2332.00 2469.13 48.00
8607 53.7360 2262.00 2454.90 48.00
8608 53.7420 2210.00 2443.32 47.00
8609 53.7480 2245.00 2434.07 47.00
8610 53.7540 2356.00 2429.66 49.00
8611 53.7600 2361.00 2431.95 49.00
8612 53.7660 2326.00 2436.40 48.00
8613 53.7720 2350.00 2442.77 48.00
8614 53.7780 2426.00 2450.69 49.00
8615 53.7840 2429.00 2459.64 49.00
8616 53.7900 2547.00 2469.00 50.00
8617 53.7960 2597.00 2478.03 51.00
8618 53.8020 2654.00 2485.90 52.00
8619 53.8080 2658.00 2491.78 52.00
8620 53.8140 2543.00 2495.08 50.00
8621 53.8200 2500.00 2495.34 50.00
8622 53.8260 2424.00 2492.47 49.00
8623 53.8320 2483.00 2486.70 50.00
8624 53.8380 2524.00 2478.53 50.00
8625 53.8440 2371.00 2468.47 49.00
8626 53.8500 2344.00 2457.35 48.00
8627 53.8560 2386.00 2445.63 49.00
8628 53.8620 2299.00 2433.86 48.00
8629 53.8680 2288.00 2422.51 48.00
8630 53.8740 2305.00 2412.04 48.00
8631 53.8800 2300.00 2402.88 48.00
8632 53.8860 2281.00 2395.35 48.00
8633 53.8920 2283.00 2389.71 48.00
8634 53.8980 2373.00 2386.08 49.00
8635 53.9040 2296.00 2384.50 48.00
8636 53.9100 2281.00 2384.92 48.00
8637 53.9160 2359.00 2387.23 49.00
8638 53.9220 2341.00 2391.24 48.00
8639 53.9280 2357.00 2396.69 49.00
8640 53.9340 2352.00 2403.28 48.00
8641 53.9400 2365.00 2410.65 49.00
8642 53.9460 2467.00 2418.41 50.00
8643 53.9520 2355.00 2426.15 49.00
8644 53.9580 2339.00 2433.21 48.00
8645 53.9640 2462.00 2439.55 50.00
8646 53.9700 2480.00 2444.64 50.00
8647 53.9760 2439.00 2448.18 49.00
8648 53.9820 2430.00 2449.84 49.00
8649 53.9880 2436.00 2449.56 49.00
8650 53.9940 2433.00 2447.18 49.00
8651 54.0000 2403.00 2442.87 49.00
8652 54.0060 2349.00 2436.88 48.00
8653 54.0120 2315.00 2429.57 48.00
8654 54.0180 2342.00 2421.21 48.00
8655 54.0240 2306.00 2412.15 48.00
8656 54.0300 2268.00 2402.58 48.00
8657 54.0360 2246.00 2392.97 47.00
8658 54.0420 2218.00 2383.48 47.00
8659 54.0480 2252.00 2374.87 47.00
8660 54.0540 2334.00 2367.50 48.00
8661 54.0600 2300.00 2361.59 48.00
8662 54.0660 2224.00 2357.31 47.00
8663 54.0720 2227.00 2354.79 47.00
8664 54.0780 2240.00 2353.90 47.00
8665 54.0840 2249.00 2354.54 47.00
8666 54.0900 2312.00 2356.50 48.00
8667 54.0960 2335.00 2359.51 48.00
8668 54.1020 2329.00 2362.78 48.00
8669 54.1080 2361.00 2365.81 49.00
8670 54.1140 2364.00 2367.93 49.00
8671 54.1200 2346.00 2368.58 48.00
8672 54.1260 2301.00 2367.41 48.00
8673 54.1320 2303.00 2364.33 48.00
8674 54.1380 2313.00 2359.42 48.00
8675 54.1440 2270.00 2353.07 48.00
8676 54.1500 2248.00 2345.43 47.00
8677 54.1560 2267.00 2336.56 48.00
8678 54.1620 2272.00 2326.63 48.00
8679 54.1680 2257.00 2315.75 48.00
8680 54.1740 2230.00 2303.96 47.00
8681 54.1800 2268.00 2291.55 48.00
8682 54.1860 2263.00 2278.81 48.00
8683 54.1920 2170.00 2266.13 47.00
8684 54.1980 2207.00 2253.79 47.00
8685 54.2040 2205.00 2241.92 47.00
8686 54.2100 2126.00 2231.01 46.00
8687 54.2160 2169.00 2221.02 47.00
8688 54.2220 2192.00 2211.99 47.00
8689 54.2280 2151.00 2203.92 46.00
8690 54.2340 2162.00 2196.75 46.00
8691 54.2400 2145.00 2190.40 46.00
8692 54.2460 2119.00 2184.76 46.00
8693 54.2520 2116.00 2179.73 46.00
8694 54.2580 2158.00 2175.21 46.00
8695 54.2640 2127.00 2171.06 46.00
8696 54.2700 2146.00 2167.26 46.00
8697 54.2760 2157.00 2163.71 46.00
8698 54.2820 2088.00 2160.38 46.00
8699 54.2880 2114.00 2157.24 46.00
8700 54.2940 2136.00 2154.25 46.00
8701 54.3000 2095.00 2151.39 46.00
8702 54.3060 2105.00 2148.58 46.00
8703 54.3120 2100.00 2146.78 46.00
8704 54.3180 2095.00 2146.73 46.00
8705 54.3240 2066.00 2146.79 45.00
8706 54.3300 2064.00 2146.96 45.00
8707 54.3360 2115.00 2147.23 46.00
8708 54.3420 2161.00 2147.52 46.00
8709 54.3480 2178.00 2147.99 47.00
8710 54.3540 2147.00 2148.60 46.00
8711 54.3600 2102.00 2149.32 46.00
8712 54.3660 2099.00 2150.15 46.00
8713 54.3720 2110.00 2151.09 46.00
8714 54.3780 2101.00 2152.02 46.00
8715 54.3840 2101.00 2153.17 46.00
8716 54.3900 2119.00 2154.27 46.00
8717 54.3960 2127.00 2155.65 46.00
8718 54.4020 2138.00 2157.13 46.00
8719 54.4080 2161.00 2158.73 46.00
8720 54.4140 2162.00 2160.46 46.00
8721 54.4200 2136.00 2162.37 46.00
8722 54.4260 2189.00 2164.59 47.00
8723 54.4320 2219.00 2167.03 47.00
8724 54.4380 2208.00 2169.81 47.00
8725 54.4440 2157.00 2173.04 46.00
8726 54.4500 2166.00 2176.56 47.00
8727 54.4560 2157.00 2180.36 46.00
8728 54.4620 2179.00 2184.42 47.00
8729 54.4680 2180.00 2188.55 47.00
8730 54.4740 2136.00 2192.57 46.00
8731 54.4800 2143.00 2196.24 46.00
8732 54.4860 2154.00 2199.24 46.00
8733 54.4920 2189.00 2201.36 47.00
8734 54.4980 2180.00 2202.39 47.00
8735 54.5040 2190.00 2202.25 47.00
8736 54.5100 2209.00 2201.00 47.00
8737 54.5160 2145.00 2198.77 46.00
8738 54.5220 2125.00 2195.79 46.00
8739 54.5280 2134.00 2192.29 46.00
8740 54.5340 2122.00 2188.54 46.00
8741 54.5400 2203.00 2184.70 47.00
8742 54.5460 2234.00 2181.05 47.00
8743 54.5520 2141.00 2177.57 46.00
8744 54.5580 2083.00 2174.59 46.00
8745 54.5640 2078.00 2172.03 46.00
8746 54.5700 2122.00 2169.99 46.00
8747 54.5760 2117.00 2168.43 46.00
8748 54.5820 2102.00 2167.36 46.00
8749 54.5880 2116.00 2166.81 46.00
8750 54.5940 2092.00 2166.64 46.00
8751 54.6000 2109.00 2166.44 46.00
8752 54.6060 2116.00 2166.61 46.00
8753 54.6120 2154.00 2167.25 46.00
8754 54.6180 2182.00 2168.34 47.00
8755 54.6240 2137.00 2169.90 46.00
8756 54.6300 2101.00 2171.95 46.00
8757 54.6360 2101.00 2174.51 46.00
8758 54.6420 2076.00 2177.65 46.00
8759 54.6480 2132.00 2181.21 46.00
8760 54.6540 2124.00 2185.23 46.00
8761 54.6600 2150.00 2189.57 46.00
8762 54.6660 2193.00 2194.14 47.00
8763 54.6720 2135.00 2198.83 46.00
8764 54.6780 2151.00 2203.40 46.00
8765 54.6840 2209.00 2207.67 47.00
8766 54.6900 2181.00 2211.39 47.00
8767 54.6960 2208.00 2214.56 47.00
8768 54.7020 2247.00 2216.94 47.00
8769 54.7080 2235.00 2218.73 47.00
8770 54.7140 2214.00 2220.15 47.00
8771 54.7200 2176.00 2221.26 47.00
8772 54.7260 2256.00 2222.12 47.00
8773 54.7320 2206.00 2223.34 47.00
8774 54.7380 2186.00 2225.08 47.00
8775 54.7440 2180.00 2227.60 47.00
8776 54.7500 2206.00 2231.33 47.00
8777 54.7560 2246.00 2236.20 47.00
8778 54.7620 2318.00 2242.39 48.00
8779 54.7680 2317.00 2250.13 48.00
8780 54.7740 2319.00 2259.28 48.00
8781 54.7800 2417.00 2269.75 49.00
8782 54.7860 2427.00 2281.33 49.00
8783 54.7920 2505.00 2293.82 50.00
8784 54.7980 2525.00 2306.92 50.00
8785 54.8040 2532.00 2320.12 50.00
8786 54.8100 2578.00 2332.98 51.00
8787 54.8160 2684.00 2344.94 52.00
8788 54.8220 2751.00 2355.44 52.00
8789 54.8280 2759.00 2364.06 53.00
8790 54.8340 2750.00 2370.48 52.00
8791 54.8400 2655.00 2374.63 52.00
8792 54.8460 2631.00 2376.65 51.00
8793 54.8520 2630.00 2376.85 51.00
8794 54.8580 2707.00 2375.81 52.00
8795 54.8640 2712.00 2373.84 52.00
8796 54.8700 2724.00 2371.25 52.00
8797 54.8760 2681.00 2368.04 52.00
8798 54.8820 2654.00 2363.92 52.00
8799 54.8880 2668.00 2358.66 52.00
8800 54.8940 2629.00 2351.96 51.00
8801 54.9000 2667.00 2343.68 52.00
8802 54.9060 2682.00 2333.74 52.00
8803 54.9120 2629.00 2322.34 51.00
8804 54.9180 2526.00 2309.75 50.00
8805 54.9240 2415.00 2296.26 49.00
8806 54.9300 2373.00 2282.23 49.00
8807 54.9360 2419.00 2268.04 49.00
8808 54.9420 2366.00 2254.06 49.00
8809 54.9480 2293.00 2240.66 48.00
8810 54.9540 2321.00 2228.16 48.00
8811 54.9600 2302.00 2216.81 48.00
8812 54.9660 2280.00 2206.77 48.00
8813 54.9720 2251.00 2198.09 47.00
8814 54.9780 2246.00 2190.81 47.00
8815 54.9840 2159.00 2184.90 46.00
8816 54.9900 2235.00 2180.24 47.00
8817 54.9960 2285.00 2176.77 48.00
8818 55.0020 2188.00 2174.20 47.00
8819 55.0080 2138.00 2172.41 46.00
8820 55.0140 2266.00 2172.09 48.00
8821 55.0200 2231.00 2172.60 47.00
8822 55.0260 2197.00 2173.34 47.00
8823 55.0320 2180.00 2174.13 47.00
8824 55.0380 2242.00 2174.85 47.00
8825 55.0440 2220.00 2175.44 47.00
8826 55.0500 2222.00 2175.89 47.00
8827 55.0560 2186.00 2176.24 47.00
8828 55.0620 2129.00 2176.59 46.00
8829 55.0680 2155.00 2177.07 46.00
8830 55.0740 2143.00 2177.84 46.00
8831 55.0800 2210.00 2179.01 47.00
8832 55.0860 2180.00 2180.75 47.00
8833 55.0920 2256.00 2183.22 47.00
8834 55.0980 2238.00 2186.56 47.00
8835 55.1040 2227.00 2190.93 47.00
8836 55.1100 2227.00 2196.44 47.00
8837 55.1160 2190.00 2203.19 47.00
8838 55.1220 2189.00 2211.23 47.00
8839 55.1280 2319.00 2220.54 48.00
8840 55.1340 2274.00 2231.07 48.00
8841 55.1400 2271.00 2242.64 48.00
8842 55.1460 2262.00 2255.00 48.00
8843 55.1520 2266.00 2267.84 48.00
8844 55.1580 2272.00 2280.57 48.00
8845 55.1640 2232.00 2292.69 47.00
8846 55.1700 2257.00 2303.58 48.00
8847 55.1760 2350.00 2312.66 48.00
8848 55.1820 2349.00 2319.42 48.00
8849 55.1880 2294.00 2323.56 48.00
8850 55.1940 2321.00 2325.00 48.00
8851 55.2000 2296.00 2323.88 48.00
8852 55.2060 2282.00 2320.53 48.00
8853 55.2120 2371.00 2315.35 49.00
8854 55.2180 2364.00 2308.79 49.00
8855 55.2240 2325.00 2301.29 48.00
8856 55.2300 2274.00 2293.28 48.00
8857 55.2360 2232.00 2285.11 47.00
8858 55.2420 2202.00 2277.33 47.00
8859 55.2480 2216.00 2270.32 47.00
8860 55.2540 2242.00 2264.44 47.00
8861 55.2600 2249.00 2260.06 47.00
8862 55.2660 2312.00 2257.45 48.00
8863 55.2720 2201.00 2256.74 47.00
8864 55.2780 2216.00 2258.09 47.00
8865 55.2840 2243.00 2261.58 47.00
8866 55.2900 2297.00 2267.19 48.00
8867 55.2960 2322.00 2274.99 48.00
8868 55.3020 2309.00 2284.61 48.00
8869 55.3080 2342.00 2296.07 48.00
8870 55.3140 2317.00 2308.86 48.00
8871 55.3200 2256.00 2322.70 47.00
8872 55.3260 2307.00 2337.12 48.00
8873 55.3320 2371.00 2351.58 49.00
8874 55.3380 2351.00 2365.50 48.00
8875 55.3440 2412.00 2378.39 49.00
8876 55.3500 2426.00 2389.89 49.00
8877 55.3560 2401.00 2399.87 49.00
8878 55.3620 2424.00 2408.42 49.00
8879 55.3680 2461.00 2415.81 50.00
8880 55.3740 2501.00 2422.42 50.00
8881 55.3800 2476.00 2428.63 50.00
8882 55.3860 2505.00 2434.78 50.00
8883 55.3920 2560.00 2441.24 51.00
8884 55.3980 2594.00 2448.28 51.00
8885 55.4040 2672.00 2456.32 52.00
8886 55.4100 2677.00 2465.71 52.00
8887 55.4160 2692.00 2476.75 52.00
8888 55.4220 2688.00 2489.57 52.00
8889 55.4280 2719.00 2504.04 52.00
8890 55.4340 2865.00 2519.84 54.00
8891 55.4400 2835.00 2536.23 53.00
8892 55.4460 2908.00 2552.46 54.00
8893 55.4520 2989.00 2567.44 55.00
8894 55.4580 2901.00 2580.08 54.00
8895 55.4640 2901.00 2589.44 54.00
8896 55.4700 2885.00 2594.78 54.00
8897 55.4760 2881.00 2595.81 54.00
8898 55.4820 2879.00 2592.65 54.00
8899 55.4880 2911.00 2585.60 54.00
8900 55.4940 2890.00 2575.10 54.00
8901 55.5000 2839.00 2561.59 53.00
8902 55.5060 2799.00 2545.53 53.00
8903 55.5120 2754.00 2527.53 52.00
8904 55.5180 2666.00 2508.19 52.00
8905 55.5240 2590.00 2488.26 51.00
8906 55.5300 2462.00 2468.43 50.00
8907 55.5360 2492.00 2449.19 50.00
8908 55.5420 2386.00 2430.89 49.00
8909 55.5480 2427.00 2413.73 49.00
8910 55.5540 2410.00 2397.85 49.00
8911 55.5600 2461.00 2383.32 50.00
8912 55.5660 2434.00 2370.21 49.00
8913 55.5720 2319.00 2358.76 48.00
8914 55.5780 2430.00 2348.99 49.00
8915 55.5840 2330.00 2340.94 48.00
8916 55.5900 2296.00 2334.55 48.00
8917 55.5960 2326.00 2329.82 48.00
8918 55.6020 2303.00 2326.55 48.00
8919 55.6080 2257.00 2324.54 48.00
8920 55.6140 2398.00 2323.55 49.00
8921 55.6200 2305.00 2323.33 48.00
8922 55.6260 2259.00 2323.60 48.00
8923 55.6320 2325.00 2324.12 48.00
8924 55.6380 2251.00 2324.65 47.00
8925 55.6440 2261.00 2325.31 48.00
8926 55.6500 2336.00 2326.05 48.00
8927 55.6560 2310.00 2326.93 48.00
8928 55.6620 2183.00 2328.11 47.00
8929 55.6680 2196.00 2329.73 47.00
8930 55.6740 2343.00 2331.93 48.00
8931 55.6800 2281.00 2334.81 48.00
8932 55.6860 2333.00 2338.48 48.00
8933 55.6920 2303.00 2335.98 48.00
8934 55.6980 2260.00 2333.95 48.00
8935 55.7040 2298.00 2332.25 48.00
8936 55.7100 2327.00 2330.62 48.00
8937 55.7160 2399.00 2328.74 49.00
8938 55.7220 2326.00 2326.34 48.00
8939 55.7280 2229.00 2323.18 47.00
8940 55.7340 2349.00 2319.09 48.00
8941 55.7400 2267.00 2313.93 48.00
8942 55.7460 2311.00 2307.70 48.00
8943 55.7520 2250.00 2300.24 47.00
8944 55.7580 2263.00 2291.66 48.00
8945 55.7640 2301.00 2282.19 48.00
8946 55.7700 2262.00 2271.90 48.00
8947 55.7760 2307.00 2261.15 48.00
8948 55.7820 2231.00 2250.26 47.00
8949 55.7880 2226.00 2239.54 47.00
8950 55.7940 2261.00 2228.98 48.00
8951 55.8000 2285.00 2218.79 48.00
8952 55.8060 2213.00 2209.02 47.00
8953 55.8120 2224.00 2199.72 47.00
8954 55.8180 2288.00 2190.89 48.00
8955 55.8240 2322.00 2182.55 48.00
8956 55.8300 2186.00 2174.72 47.00
8957 55.8360 2152.00 2167.43 46.00
8958 55.8420 2148.00 2160.70 46.00
8959 55.8480 2242.00 2154.57 47.00
8960 55.8540 2262.00 2149.08 48.00
8961 55.8600 2178.00 2144.23 47.00
8962 55.8660 2177.00 2139.99 47.00
8963 55.8720 2219.00 2136.25 47.00
8964 55.8780 2175.00 2142.88 47.00
8965 55.8840 2256.00 2154.72 47.00
8966 55.8900 2216.00 2166.58 47.00
8967 55.8960 2287.00 2178.22 48.00
8968 55.9020 2231.00 2189.43 47.00
8969 55.9080 2187.00 2200.00 47.00
8970 55.9140 2202.00 2209.87 47.00
8971 55.9200 2243.00 2219.10 47.00
8972 55.9260 2278.00 2227.87 48.00
8973 55.9320 2255.00 2236.33 47.00
8974 55.9380 2319.00 2244.89 48.00
8975 55.9440 2326.00 2253.62 48.00
8976 55.9500 2234.00 2262.91 47.00
8977 55.9560 2210.00 2272.84 47.00
8978 55.9620 2322.00 2283.54 48.00
8979 55.9680 2353.00 2295.12 49.00
8980 55.9740 2391.00 2307.69 49.00
8981 55.9800 2329.00 2321.32 48.00
8982 55.9860 2317.00 2336.02 48.00
8983 55.9920 2382.00 2351.88 49.00
8984 55.9980 2311.00 2368.87 48.00
8985 56.0040 2238.00 2386.92 47.00
8986 56.0100 2235.00 2405.91 47.00
8987 56.0160 2404.00 2425.62 49.00
8988 56.0220 2267.00 2445.74 48.00
8989 56.0280 2413.00 2465.83 49.00
8990 56.0340 2482.00 2485.42 50.00
8991 56.0400 2422.00 2503.96 49.00
8992 56.0460 2373.00 2520.83 49.00
8993 56.0520 2482.00 2535.43 50.00
8994 56.0580 2478.00 2547.24 50.00
8995 56.0640 2482.00 2555.90 50.00
8996 56.0700 2461.00 2561.36 50.00
8997 56.0760 2467.00 2563.91 50.00
8998 56.0820 2431.00 2564.12 49.00
8999 56.0880 2294.00 2562.73 48.00
9000 56.0940 2329.00 2560.53 48.00
9001 56.1000 2373.00 2558.25 49.00
9002 56.1060 2334.00 2556.54 48.00
9003 56.1120 2295.00 2554.43 48.00
9004 56.1180 2328.00 2545.90 48.00
9005 56.1240 2352.00 2538.97 48.00
9006 56.1300 2273.00 2533.71 48.00
9007 56.1360 2375.00 2529.93 49.00
9008 56.1420 2322.00 2527.48 48.00
9009 56.1480 2301.00 2526.00 48.00
9010 56.1540 2409.00 2525.38 49.00
9011 56.1600 2383.00 2525.15 49.00
9012 56.1660 2346.00 2525.18 48.00
9013 56.1720 2331.00 2525.26 48.00
9014 56.1780 2312.00 2525.33 48.00
9015 56.1840 2271.00 2525.18 48.00
9016 56.1900 2412.00 2524.81 49.00
9017 56.1960 2342.00 2524.19 48.00
9018 56.2020 2413.00 2523.26 49.00
9019 56.2080 2299.00 2522.20 48.00
9020 56.2140 2343.00 2521.00 48.00
9021 56.2200 2341.00 2519.73 48.00
9022 56.2260 2342.00 2518.40 48.00
9023 56.2320 2391.00 2517.26 49.00
9024 56.2380 2357.00 2516.40 49.00
9025 56.2440 2273.00 2515.81 48.00
9026 56.2500 2288.00 2515.54 48.00
9027 56.2560 2324.00 2515.68 48.00
9028 56.2620 2350.00 2516.06 48.00
9029 56.2680 2349.00 2516.96 48.00
9030 56.2740 2342.00 2518.23 48.00
9031 56.2800 2369.00 2519.92 49.00
9032 56.2860 2301.00 2522.08 48.00
9033 56.2920 2253.00 2524.77 47.00
9034 56.2980 2326.00 2528.15 48.00
9035 56.3040 2319.00 2532.07 48.00
9036 56.3100 2343.00 2536.47 48.00
9037 56.3160 2326.00 2541.27 48.00
9038 56.3220 2265.00 2546.19 48.00
9039 56.3280 2375.00 2550.92 49.00
9040 56.3340 2259.00 2555.11 48.00
9041 56.3400 2389.00 2558.43 49.00
9042 56.3460 2321.00 2560.68 48.00
9043 56.3520 2360.00 2561.84 49.00
9044 56.3580 2324.00 2562.16 48.00
9045 56.3640 2270.00 2562.07 48.00
9046 56.3700 2415.00 2562.13 49.00
9047 56.3760 2385.00 2562.93 49.00
9048 56.3820 2335.00 2564.98 48.00
9049 56.3880 2315.00 2568.69 48.00
9050 56.3940 2411.00 2571.98 49.00
9051 56.4000 2374.00 2575.02 49.00
9052 56.4060 2356.00 2579.98 49.00
9053 56.4120 2451.00 2586.60 50.00
9054 56.4180 2485.00 2594.42 50.00
9055 56.4240 2532.00 2602.90 50.00
9056 56.4300 2563.00 2611.39 51.00
9057 56.4360 2532.00 2619.17 50.00
9058 56.4420 2577.00 2625.61 51.00
9059 56.4480 2617.00 2630.12 51.00
9060 56.4540 2591.00 2632.32 51.00
9061 56.4600 2563.00 2632.10 51.00
9062 56.4660 2595.00 2629.78 51.00
9063 56.4720 2571.00 2625.50 51.00
9064 56.4780 2646.00 2620.01 51.00
9065 56.4840 2668.00 2613.96 52.00
9066 56.4900 2652.00 2607.80 51.00
9067 56.4960 2525.00 2601.88 50.00
9068 56.5020 2652.00 2596.20 51.00
9069 56.5080 2577.00 2590.62 51.00
9070 56.5140 2634.00 2584.89 51.00
9071 56.5200 2617.00 2578.31 51.00
9072 56.5260 2577.00 2570.66 51.00
9073 56.5320 2534.00 2561.45 50.00
9074 56.5380 2521.00 2550.36 50.00
9075 56.5440 2535.00 2537.18 50.00
9076 56.5500 2503.00 2521.84 50.00
9077 56.5560 2409.00 2504.44 49.00
9078 56.5620 2473.00 2485.23 50.00
9079 56.5680 2392.00 2464.65 49.00
9080 56.5740 2404.00 2443.29 49.00
9081 56.5800 2402.00 2421.74 49.00
9082 56.5860 2364.00 2400.63 49.00
9083 56.5920 2349.00 2380.31 48.00
9084 56.5980 2358.00 2361.23 49.00
9085 56.6040 2396.00 2343.61 49.00
9086 56.6100 2347.00 2327.59 48.00
9087 56.6160 2398.00 2313.20 49.00
9088 56.6220 2291.00 2299.84 48.00
9089 56.6280 2300.00 2287.46 48.00
9090 56.6340 2328.00 2276.39 48.00
9091 56.6400 2267.00 2266.56 48.00
9092 56.6460 2277.00 2257.59 48.00
9093 56.6520 2282.00 2249.41 48.00
9094 56.6580 2224.00 2241.77 47.00
9095 56.6640 2189.00 2234.45 47.00
9096 56.6700 2262.00 2227.30 48.00
9097 56.6760 2171.00 2220.14 47.00
9098 56.6820 2250.00 2213.12 47.00
9099 56.6880 2301.00 2205.96 48.00
9100 56.6940 2242.00 2198.76 47.00
9101 56.7000 2137.00 2191.52 46.00
9102 56.7060 2177.00 2184.29 47.00
9103 56.7120 2192.00 2177.12 47.00
9104 56.7180 2179.00 2170.04 47.00
9105 56.7240 2244.00 2163.17 47.00
9106 56.7300 2196.00 2156.35 47.00
9107 56.7360 2189.00 2149.71 47.00
9108 56.7420 2106.00 2143.26 46.00
9109 56.7480 2210.00 2137.01 47.00
9110 56.7540 2197.00 2130.95 47.00
9111 56.7600 2222.00 2125.14 47.00
9112 56.7660 2117.00 2119.59 46.00
9113 56.7720 2176.00 2114.29 47.00
9114 56.7780 2192.00 2109.28 47.00
9115 56.7840 2292.00 2104.59 48.00
9116 56.7900 2213.00 2100.23 47.00
9117 56.7960 2227.00 2096.42 47.00
9118 56.8020 2189.00 2093.01 47.00
9119 56.8080 2198.00 2100.84 47.00
9120 56.8140 2275.00 2111.41 48.00
9121 56.8200 2260.00 2122.60 48.00
9122 56.8260 2393.00 2134.38 49.00
9123 56.8320 2303.00 2146.93 48.00
9124 56.8380 2182.00 2160.09 47.00
9125 56.8440 2305.00 2174.03 48.00
9126 56.8500 2298.00 2188.61 48.00
9127 56.8560 2295.00 2203.75 48.00
9128 56.8620 2271.00 2219.28 48.00
9129 56.8680 2220.00 2235.01 47.00
9130 56.8740 2304.00 2250.69 48.00
9131 56.8800 2420.00 2265.95 49.00
9132 56.8860 2426.00 2280.55 49.00
9133 56.8920 2408.00 2294.20 49.00
9134 56.8980 2484.00 2306.77 50.00
9135 56.9040 2476.00 2318.15 50.00
9136 56.9100 2400.00 2328.37 49.00
9137 56.9160 2351.00 2337.52 48.00
9138 56.9220 2356.00 2345.73 49.00
9139 56.9280 2423.00 2353.08 49.00
9140 56.9340 2437.00 2359.75 49.00
9141 56.9400 2414.00 2365.76 49.00
9142 56.9460 2457.00 2371.14 50.00
9143 56.9520 2438.00 2375.87 49.00
9144 56.9580 2391.00 2380.04 49.00
9145 56.9640 2414.00 2383.77 49.00
9146 56.9700 2432.00 2387.19 49.00
9147 56.9760 2433.00 2390.48 49.00
9148 56.9820 2441.00 2393.82 49.00
9149 56.9880 2403.00 2397.42 49.00
9150 56.9940 2400.00 2401.27 49.00
9151 57.0000 2401.00 2405.49 49.00
9152 57.0060 2392.00 2410.18 49.00
9153 57.0120 2410.00 2415.37 49.00
9154 57.0180 2426.00 2421.08 49.00
9155 57.0240 2383.00 2427.33 49.00
9156 57.0300 2389.00 2434.07 49.00
9157 57.0360 2348.00 2441.23 48.00
9158 57.0420 2343.00 2448.68 48.00
9159 57.0480 2422.00 2456.22 49.00
9160 57.0540 2334.00 2463.73 48.00
9161 57.0600 2308.00 2470.88 48.00
9162 57.0660 2310.00 2477.37 48.00
9163 57.0720 2352.00 2482.96 48.00
9164 57.0780 2352.00 2487.44 48.00
9165 57.0840 2320.00 2490.84 48.00
9166 57.0900 2277.00 2493.13 48.00
9167 57.0960 2293.00 2494.63 48.00
9168 57.1020 2247.00 2495.65 47.00
9169 57.1080 2257.00 2496.53 48.00
9170 57.1140 2283.00 2495.55 48.00
9171 57.1200 2306.00 2484.81 48.00
9172 57.1260 2314.00 2474.85 48.00
9173 57.1320 2228.00 2465.78 47.00
9174 57.1380 2303.00 2457.73 48.00
9175 57.1440 2317.00 2450.88 48.00
9176 57.1500 2248.00 2445.29 47.00
9177 57.1560 2242.00 2441.06 47.00
9178 57.1620 2278.00 2438.27 48.00
9179 57.1680 2310.00 2436.97 48.00
9180 57.1740 2262.00 2437.17 48.00
9181 57.1800 2239.00 2438.87 47.00
9182 57.1860 2308.00 2442.05 48.00
9183 57.1920 2323.00 2446.56 48.00
9184 57.1980 2291.00 2452.24 48.00
9185 57.2040 2319.00 2458.85 48.00
9186 57.2100 2365.00 2466.22 49.00
9187 57.2160 2318.00 2473.98 48.00
9188 57.2220 2320.00 2481.71 48.00
9189 57.2280 2371.00 2488.85 49.00
9190 57.2340 2390.00 2494.97 49.00
9191 57.2400 2358.00 2499.59 49.00
9192 57.2460 2390.00 2502.12 49.00
9193 57.2520 2412.00 2502.26 49.00
9194 57.2580 2336.00 2499.93 48.00
9195 57.2640 2369.00 2495.23 49.00
9196 57.2700 2434.00 2488.45 49.00
9197 57.2760 2339.00 2479.90 48.00
9198 57.2820 2355.00 2469.78 49.00
9199 57.2880 2375.00 2458.25 49.00
9200 57.2940 2371.00 2445.64 49.00
9201 57.3000 2394.00 2432.10 49.00
9202 57.3060 2406.00 2417.96 49.00
9203 57.3120 2380.00 2403.87 49.00
9204 57.3180 2364.00 2390.33 49.00
9205 57.3240 2352.00 2377.77 48.00
9206 57.3300 2325.00 2368.28 48.00
9207 57.3360 2319.00 2364.16 48.00
9208 57.3420 2366.00 2362.20 49.00
9209 57.3480 2328.00 2362.58 48.00
9210 57.3540 2304.00 2365.44 48.00
9211 57.3600 2346.00 2370.80 48.00
9212 57.3660 2368.00 2378.64 49.00
9213 57.3720 2424.00 2388.83 49.00
9214 57.3780 2413.00 2401.15 49.00
9215 57.3840 2434.00 2415.44 49.00
9216 57.3900 2453.00 2431.21 50.00
9217 57.3960 2502.00 2448.02 50.00
9218 57.4020 2539.00 2465.31 50.00
9219 57.4080 2514.00 2482.37 50.00
9220 57.4140 2556.00 2498.53 51.00
9221 57.4200 2628.00 2513.08 51.00
9222 57.4260 2564.00 2525.49 51.00
9223 57.4320 2514.00 2535.40 50.00
9224 57.4380 2563.00 2542.58 51.00
9225 57.4440 2610.00 2547.07 51.00
9226 57.4500 2588.00 2548.93 51.00
9227 57.4560 2543.00 2548.34 50.00
9228 57.4620 2544.00 2545.47 50.00
9229 57.4680 2516.00 2540.56 50.00
9230 57.4740 2551.00 2533.90 51.00
9231 57.4800 2534.00 2525.93 50.00
9232 57.4860 2521.00 2517.10 50.00
9233 57.4920 2552.00 2507.90 51.00
9234 57.4980 2522.00 2498.69 50.00
9235 57.5040 2499.00 2489.79 50.00
9236 57.5100 2563.00 2481.44 51.00
9237 57.5160 2547.00 2473.89 50.00
9238 57.5220 2559.00 2467.39 51.00
9239 57.5280 2542.00 2462.20 50.00
9240 57.5340 2478.00 2458.43 50.00
9241 57.5400 2508.00 2456.13 50.00
9242 57.5460 2523.00 2455.16 50.00
9243 57.5520 2431.00 2455.19 49.00
9244 57.5580 2351.00 2455.82 48.00
9245 57.5640 2485.00 2456.53 50.00
9246 57.5700 2613.00 2456.74 51.00
9247 57.5760 2571.00 2455.89 51.00
9248 57.5820 2511.00 2453.50 50.00
9249 57.5880 2495.00 2449.30 50.00
9250 57.5940 2503.00 2443.27 50.00
9251 57.6000 2504.00 2435.59 50.00
9252 57.6060 2432.00 2426.59 49.00
9253 57.6120 2404.00 2416.69 49.00
9254 57.6180 2359.00 2406.29 49.00
9255 57.6240 2285.00 2395.78 48.00
9256 57.6300 2270.00 2385.45 48.00
9257 57.6360 2293.00 2375.56 48.00
9258 57.6420 2287.00 2366.27 48.00
9259 57.6480 2286.00 2357.67 48.00
9260 57.6540 2340.00 2349.78 48.00
9261 57.6600 2303.00 2342.63 48.00
9262 57.6660 2268.00 2336.30 48.00
9263 57.6720 2256.00 2330.89 47.00
9264 57.6780 2228.00 2326.53 47.00
9265 57.6840 2228.00 2323.27 47.00
9266 57.6900 2260.00 2321.33 48.00
9267 57.6960 2267.00 2320.69 48.00
9268 57.7020 2257.00 2321.41 48.00
9269 57.7080 2284.00 2323.43 48.00
9270 57.7140 2246.00 2325.39 47.00
9271 57.7200 2198.00 2328.44 47.00
9272 57.7260 2262.00 2332.33 48.00
9273 57.7320 2253.00 2336.80 47.00
9274 57.7380 2253.00 2341.44 47.00
9275 57.7440 2270.00 2345.97 48.00
9276 57.7500 2255.00 2349.93 47.00
9277 57.7560 2259.00 2352.95 48.00
9278 57.7620 2281.00 2354.71 48.00
9279 57.7680 2282.00 2355.03 48.00
9280 57.7740 2291.00 2353.89 48.00
9281 57.7800 2315.00 2351.36 48.00
9282 57.7860 2328.00 2347.63 48.00
9283 57.7920 2273.00 2343.10 48.00
9284 57.7980 2250.00 2338.12 47.00
9285 57.8040 2217.00 2333.09 47.00
9286 57.8100 2185.00 2328.36 47.00
9287 57.8160 2214.00 2324.19 47.00
9288 57.8220 2299.00 2320.77 48.00
9289 57.8280 2278.00 2318.16 48.00
9290 57.8340 2242.00 2316.35 47.00
9291 57.8400 2289.00 2315.24 48.00
9292 57.8460 2303.00 2314.62 48.00
9293 57.8520 2252.00 2314.33 47.00
9294 57.8580 2246.00 2314.09 47.00
9295 57.8640 2288.00 2313.83 48.00
9296 57.8700 2307.00 2313.30 48.00
9297 57.8760 2301.00 2312.39 48.00
9298 57.8820 2300.00 2311.05 48.00
9299 57.8880 2250.00 2309.38 47.00
9300 57.8940 2242.00 2307.46 47.00
9301 57.9000 2200.00 2305.47 47.00
9302 57.9060 2260.00 2303.56 48.00
9303 57.9120 2330.00 2301.80 48.00
9304 57.9180 2294.00 2300.24 48.00
9305 57.9240 2300.00 2298.85 48.00
9306 57.9300 2265.00 2297.58 48.00
9307 57.9360 2217.00 2296.38 47.00
9308 57.9420 2262.00 2295.20 48.00
9309 57.9480 2287.00 2294.00 48.00
9310 57.9540 2292.00 2292.74 48.00
9311 57.9600 2265.00 2291.36 48.00
9312 57.9660 2228.00 2289.81 47.00
9313 57.9720 2277.00 2288.00 48.00
9314 57.9780 2248.00 2285.89 47.00
9315 57.9840 2252.00 2283.49 47.00
9316 57.9900 2258.00 2280.93 48.00
9317 57.9960 2254.00 2278.34 47.00
9318 58.0020 2244.00 2275.97 47.00
9319 58.0080 2263.00 2274.01 48.00
9320 58.0140 2249.00 2272.64 47.00
9321 58.0200 2266.00 2271.96 48.00
9322 58.0260 2293.00 2272.05 48.00
9323 58.0320 2305.00 2272.75 48.00
9324 58.0380 2240.00 2274.29 47.00
9325 58.0440 2289.00 2276.38 48.00
9326 58.0500 2296.00 2278.83 48.00
9327 58.0560 2238.00 2281.42 47.00
9328 58.0620 2246.00 2283.81 47.00
9329 58.0680 2303.00 2285.75 48.00
9330 58.0740 2355.00 2287.01 49.00
9331 58.0800 2328.00 2287.28 48.00
9332 58.0860 2342.00 2286.66 48.00
9333 58.0920 2322.00 2285.03 48.00
9334 58.0980 2233.00 2282.41 47.00
9335 58.1040 2253.00 2278.92 47.00
9336 58.1100 2308.00 2274.68 48.00
9337 58.1160 2287.00 2269.87 48.00
9338 58.1220 2213.00 2264.68 47.00
9339 58.1280 2172.00 2259.29 47.00
9340 58.1340 2210.00 2253.87 47.00
9341 58.1400 2276.00 2248.60 48.00
9342 58.1460 2261.00 2243.55 48.00
9343 58.1520 2250.00 2238.78 47.00
9344 58.1580 2244.00 2234.29 47.00
9345 58.1640 2259.00 2230.08 48.00
9346 58.1700 2269.00 2226.00 48.00
9347 58.1760 2210.00 2221.97 47.00
9348 58.1820 2245.00 2217.93 47.00
9349 58.1880 2141.00 2213.85 46.00
9350 58.1940 2180.00 2209.70 47.00
9351 58.2000 2203.00 2205.60 47.00
9352 58.2060 2211.00 2201.56 47.00
9353 58.2120 2219.00 2197.52 47.00
9354 58.2180 2193.00 2193.64 47.00
9355 58.2240 2183.00 2189.80 47.00
9356 58.2300 2197.00 2186.00 47.00
9357 58.2360 2167.00 2182.21 47.00
9358 58.2420 2196.00 2178.43 47.00
9359 58.2480 2189.00 2174.65 47.00
9360 58.2540 2190.00 2170.80 47.00
9361 58.2600 2190.00 2167.10 47.00
9362 58.2660 2120.00 2163.55 46.00
9363 58.2720 2097.00 2160.20 46.00
9364 58.2780 2155.00 2157.12 46.00
9365 58.2840 2209.00 2154.31 47.00
9366 58.2900 2172.00 2151.82 47.00
9367 58.2960 2167.00 2149.55 47.00
9368 58.3020 2192.00 2148.27 47.00
9369 58.3080 2214.00 2150.24 47.00
9370 58.3140 2186.00 2152.43 47.00
9371 58.3200 2185.00 2154.76 47.00
9372 58.3260 2232.00 2157.24 47.00
9373 58.3320 2193.00 2159.62 47.00
9374 58.3380 2190.00 2161.93 47.00
9375 58.3440 2255.00 2164.12 47.00
9376 58.3500 2172.00 2166.16 47.00
9377 58.3560 2230.00 2168.12 47.00
9378 58.3620 2163.00 2170.06 47.00
9379 58.3680 2227.00 2172.03 47.00
9380 58.3740 2149.00 2174.01 46.00
9381 58.3800 2077.00 2176.26 46.00
9382 58.3860 2268.00 2178.80 48.00
9383 58.3920 2177.00 2181.72 47.00
9384 58.3980 2187.00 2184.90 47.00
9385 58.4040 2194.00 2188.40 47.00
9386 58.4100 2098.00 2192.28 46.00
9387 58.4160 2127.00 2196.48 46.00
9388 58.4220 2161.00 2200.95 46.00
9389 58.4280 2128.00 2205.62 46.00
9390 58.4340 2236.00 2210.42 47.00
9391 58.4400 2182.00 2215.26 47.00
9392 58.4460 2164.00 2220.02 47.00
9393 58.4520 2252.00 2224.65 47.00
9394 58.4580 2160.00 2229.17 46.00
9395 58.4640 2213.00 2233.51 47.00
9396 58.4700 2151.00 2237.70 46.00
9397 58.4760 2282.00 2241.71 48.00
9398 58.4820 2267.00 2245.51 48.00
9399 58.4880 2219.00 2249.05 47.00
9400 58.4940 2226.00 2252.31 47.00
9401 58.5000 2311.00 2255.11 48.00
9402 58.5060 2229.00 2257.44 47.00
9403 58.5120 2301.00 2259.28 48.00
9404 58.5180 2285.00 2260.68 48.00
9405 58.5240 2273.00 2261.83 48.00
9406 58.5300 2255.00 2262.68 47.00
9407 58.5360 2115.00 2263.46 46.00
9408 58.5420 2155.00 2264.34 46.00
9409 58.5480 2259.00 2265.32 48.00
9410 58.5540 2239.00 2266.55 47.00
9411 58.5600 2294.00 2268.18 48.00
9412 58.5660 2222.00 2270.15 47.00
9413 58.5720 2270.00 2272.43 48.00
9414 58.5780 2228.00 2275.14 47.00
9415 58.5840 2267.00 2278.21 48.00
9416 58.5900 2233.00 2281.57 47.00
9417 58.5960 2241.00 2285.07 47.00
9418 58.6020 2258.00 2288.78 48.00
9419 58.6080 2244.00 2292.54 47.00
9420 58.6140 2133.00 2296.35 46.00
9421 58.6200 2230.00 2300.20 47.00
9422 58.6260 2212.00 2303.90 47.00
9423 58.6320 2173.00 2307.41 47.00
9424 58.6380 2154.00 2310.62 46.00
9425 58.6440 2123.00 2313.49 46.00
9426 58.6500 2106.00 2315.98 46.00
9427 58.6560 2244.00 2318.05 47.00
9428 58.6620 2246.00 2319.75 47.00
9429 58.6680 2205.00 2321.07 47.00
9430 58.6740 2137.00 2322.14 46.00
9431 58.6800 2154.00 2322.94 46.00
9432 58.6860 2251.00 2323.43 47.00
9433 58.6920 2261.00 2323.62 48.00
9434 58.6980 2225.00 2323.54 47.00
9435 58.7040 2205.00 2323.26 47.00
9436 58.7100 2114.00 2322.84 46.00
9437 58.7160 2183.00 2322.39 47.00
9438 58.7220 2142.00 2321.94 46.00
9439 58.7280 2212.00 2321.60 47.00
9440 58.7340 2160.00 2321.38 46.00
9441 58.7400 2130.00 2321.40 46.00
9442 58.7460 2199.00 2321.68 47.00
9443 58.7520 2183.00 2322.26 47.00
9444 58.7580 2124.00 2323.10 46.00
9445 58.7640 2213.00 2324.26 47.00
9446 58.7700 2160.00 2325.78 46.00
9447 58.7760 2129.00 2324.58 46.00
9448 58.7820 2162.00 2323.74 46.00
9449 58.7880 2178.00 2323.24 47.00
9450 58.7940 2257.00 2323.06 48.00
9451 58.8000 2222.00 2323.23 47.00
9452 58.8060 2124.00 2323.64 46.00
9453 58.8120 2192.00 2324.35 47.00
9454 58.8180 2181.00 2325.27 47.00
9455 58.8240 2173.00 2326.41 47.00
9456 58.8300 2214.00 2327.70 47.00
9457 58.8360 2233.00 2329.09 47.00
9458 58.8420 2270.00 2330.50 48.00
9459 58.8480 2227.00 2331.83 47.00
9460 58.8540 2215.00 2333.05 47.00
9461 58.8600 2265.00 2334.06 48.00
9462 58.8660 2228.00 2334.84 47.00
9463 58.8720 2211.00 2335.32 47.00
9464 58.8780 2317.00 2335.63 48.00
9465 58.8840 2309.00 2335.69 48.00
9466 58.8900 2205.00 2335.64 47.00
9467 58.8960 2227.00 2335.52 47.00
9468 58.9020 2193.00 2335.41 47.00
9469 58.9080 2231.00 2335.36 47.00
9470 58.9140 2270.00 2335.42 48.00
9471 58.9200 2365.00 2335.62 49.00
9472 58.9260 2324.00 2335.95 48.00
9473 58.9320 2319.00 2336.38 48.00
9474 58.9380 2259.00 2336.95 48.00
9475 58.9440 2273.00 2337.54 48.00
9476 58.9500 2271.00 2338.15 48.00
9477 58.9560 2241.00 2338.76 47.00
9478 58.9620 2391.00 2339.32 49.00
9479 58.9680 2343.00 2339.86 48.00
9480 58.9740 2279.00 2340.24 48.00
9481 58.9800 2271.00 2340.53 48.00
9482 58.9860 2324.00 2340.73 48.00
9483 58.9920 2350.00 2340.85 48.00
9484 58.9980 2412.00 2340.89 49.00
9485 59.0040 2417.00 2340.86 49.00
9486 59.0100 2417.00 2340.79 49.00
9487 59.0160 2358.00 2340.69 49.00
9488 59.0220 2298.00 2340.58 48.00
9489 59.0280 2253.00 2340.46 47.00
9490 59.0340 2281.00 2340.40 48.00
9491 59.0400 2277.00 2340.44 48.00
9492 59.0460 2308.00 2340.66 48.00
9493 59.0520 2303.00 2341.18 48.00
9494 59.0580 2299.00 2342.03 48.00
9495 59.0640 2318.00 2343.31 48.00
9496 59.0700 2331.00 2345.07 48.00
9497 59.0760 2356.00 2347.32 49.00
9498 59.0820 2266.00 2350.07 48.00
9499 59.0880 2256.00 2353.32 47.00
9500 59.0940 2259.00 2357.03 48.00
9501 59.1000 2245.00 2361.14 47.00
9502 59.1060 2292.00 2365.55 48.00
9503 59.1120 2262.00 2370.14 48.00
9504 59.1180 2260.00 2374.66 48.00
9505 59.1240 2184.00 2378.88 47.00
9506 59.1300 2261.00 2382.51 48.00
9507 59.1360 2331.00 2385.32 48.00
9508 59.1420 2363.00 2387.15 49.00
9509 59.1480 2356.00 2388.05 49.00
9510 59.1540 2316.00 2388.04 48.00
9511 59.1600 2259.00 2387.27 48.00
9512 59.1660 2322.00 2385.95 48.00
9513 59.1720 2294.00 2384.22 48.00
9514 59.1780 2370.00 2382.18 49.00
9515 59.1840 2308.00 2379.81 48.00
9516 59.1900 2251.00 2377.13 47.00
9517 59.1960 2297.00 2373.98 48.00
9518 59.2020 2295.00 2370.40 48.00
9519 59.2080 2287.00 2366.42 48.00
9520 59.2140 2317.00 2362.20 48.00
9521 59.2200 2354.00 2357.98 49.00
9522 59.2260 2335.00 2354.01 48.00
9523 59.2320 2270.00 2350.58 48.00
9524 59.2380 2297.00 2347.99 48.00
9525 59.2440 2298.00 2346.33 48.00
9526 59.2500 2301.00 2345.80 48.00
9527 59.2560 2388.00 2346.64 49.00
9528 59.2620 2453.00 2348.76 50.00
9529 59.2680 2384.00 2352.25 49.00
9530 59.2740 2433.00 2357.08 49.00
9531 59.2800 2398.00 2363.17 49.00
9532 59.2860 2405.00 2370.43 49.00
9533 59.2920 2413.00 2378.67 49.00
9534 59.2980 2434.00 2387.74 49.00
9535 59.3040 2502.00 2397.33 50.00
9536 59.3100 2476.00 2407.30 50.00
9537 59.3160 2508.00 2417.39 50.00
9538 59.3220 2562.00 2427.43 51.00
9539 59.3280 2558.00 2437.23 51.00
9540 59.3340 2545.00 2446.57 50.00
9541 59.3400 2584.00 2455.32 51.00
9542 59.3460 2592.00 2463.25 51.00
9543 59.3520 2589.00 2470.34 51.00
9544 59.3580 2578.00 2476.58 51.00
9545 59.3640 2478.00 2481.98 50.00
9546 59.3700 2539.00 2486.58 50.00
9547 59.3760 2602.00 2490.35 51.00
9548 59.3820 2591.00 2493.20 51.00
9549 59.3880 2493.00 2495.01 50.00
9550 59.3940 2465.00 2495.51 50.00
9551 59.4000 2504.00 2494.50 50.00
9552 59.4060 2507.00 2491.82 50.00
9553 59.4120 2493.00 2487.40 50.00
9554 59.4180 2455.00 2481.27 50.00
9555 59.4240 2469.00 2473.56 50.00
9556 59.4300 2457.00 2464.47 50.00
9557 59.4360 2424.00 2454.27 49.00
9558 59.4420 2429.00 2443.23 49.00
9559 59.4480 2452.00 2431.69 50.00
9560 59.4540 2419.00 2419.97 49.00
9561 59.4600 2416.00 2408.44 49.00
9562 59.4660 2456.00 2397.41 50.00
9563 59.4720 2437.00 2387.17 49.00
9564 59.4780 2389.00 2378.01 49.00
9565 59.4840 2417.00 2370.13 49.00
9566 59.4900 2403.00 2363.64 49.00
9567 59.4960 2397.00 2358.63 49.00
9568 59.5020 2404.00 2355.09 49.00
9569 59.5080 2346.00 2353.04 48.00
9570 59.5140 2359.00 2352.35 49.00
9571 59.5200 2411.00 2352.85 49.00
9572 59.5260 2412.00 2354.32 49.00
9573 59.5320 2455.00 2356.53 50.00
9574 59.5380 2419.00 2359.04 49.00
9575 59.5440 2434.00 2361.57 49.00
9576 59.5500 2382.00 2363.75 49.00
9577 59.5560 2373.00 2365.23 49.00
9578 59.5620 2389.00 2365.72 49.00
9579 59.5680 2341.00 2364.98 48.00
9580 59.5740 2373.00 2362.95 49.00
9581 59.5800 2407.00 2359.71 49.00
9582 59.5860 2344.00 2355.48 48.00
9583 59.5920 2323.00 2350.41 48.00
9584 59.5980 2317.00 2344.79 48.00
9585 59.6040 2292.00 2338.80 48.00
9586 59.6100 2267.00 2332.60 48.00
9587 59.6160 2316.00 2326.25 48.00
9588 59.6220 2261.00 2319.86 48.00
9589 59.6280 2260.00 2313.53 48.00
9590 59.6340 2281.00 2307.39 48.00
9591 59.6400 2308.00 2301.59 48.00
9592 59.6460 2321.00 2296.32 48.00
9593 59.6520 2305.00 2291.76 48.00
9594 59.6580 2316.00 2288.03 48.00
9595 59.6640 2279.00 2285.21 48.00
9596 59.6700 2269.00 2283.33 48.00
9597 59.6760 2244.00 2282.40 47.00
9598 59.6820 2209.00 2282.29 47.00
9599 59.6880 2205.00 2282.93 47.00
9600 59.6940 2232.00 2284.26 47.00
9601 59.7000 2215.00 2286.03 47.00
9602 59.7060 2183.00 2288.18 47.00
9603 59.7120 2235.00 2290.57 47.00
9604 59.7180 2256.00 2293.08 47.00
9605 59.7240 2302.00 2295.58 48.00
9606 59.7300 2316.00 2297.97 48.00
9607 59.7360 2285.00 2300.18 48.00
9608 59.7420 2295.00 2302.07 48.00
9609 59.7480 2325.00 2303.59 48.00
9610 59.7540 2314.00 2304.64 48.00
9611 59.7600 2316.00 2305.08 48.00
9612 59.7660 2280.00 2304.80 48.00
9613 59.7720 2247.00 2303.67 47.00
9614 59.7780 2302.00 2301.58 48.00
9615 59.7840 2341.00 2298.52 48.00
9616 59.7900 2334.00 2294.51 48.00
9617 59.7960 2280.00 2289.71 48.00
9618 59.8020 2256.00 2284.32 47.00
9619 59.8080 2258.00 2278.59 48.00
9620 59.8140 2263.00 2272.84 48.00
9621 59.8200 2272.00 2267.29 48.00
9622 59.8260 2226.00 2262.13 47.00
9623 59.8320 2191.00 2257.49 47.00
9624 59.8380 2228.00 2253.43 47.00
9625 59.8440 2205.00 2249.98 47.00
9626 59.8500 2198.00 2247.61 47.00
9627 59.8560 2232.00 2245.71 47.00
9628 59.8620 2209.00 2244.16 47.00
9629 59.8680 2245.00 2242.87 47.00
9630 59.8740 2199.00 2241.72 47.00
9631 59.8800 2205.00 2240.69 47.00
9632 59.8860 2218.00 2239.83 47.00
9633 59.8920 2201.00 2239.24 47.00
9634 59.8980 2173.00 2239.00 47.00
9635 59.9040 2209.00 2239.26 47.00
9636 59.9100 2232.00 2240.12 47.00
9637 59.9160 2193.00 2241.64 47.00
9638 59.9220 2153.00 2243.90 46.00
9639 59.9280 2170.00 2246.90 47.00
9640 59.9340 2235.00 2250.63 47.00
9641 59.9400 2205.00 2255.01 47.00
9642 59.9460 2192.00 2259.91 47.00
9643 59.9520 2262.00 2265.12 48.00
9644 59.9580 2309.00 2270.57 48.00
9645 59.9640 2291.00 2275.95 48.00
9646 59.9700 2296.00 2281.12 48.00
9647 59.9760 2301.00 2285.90 48.00
9648 59.9820 2295.00 2290.24 48.00
9649 59.9880 2225.00 2294.19 47.00
9650 59.9940 2192.00 2297.82 47.00
9651 60.0000 2251.00 2301.24 47.00
9652 60.0060 2314.00 2304.56 48.00
9653 60.0120 2294.00 2307.85 48.00
9654 60.0180 2289.00 2311.08 48.00
9655 60.0240 2282.00 2314.44 48.00
9656 60.0300 2354.00 2317.89 49.00
9657 60.0360 2364.00 2321.36 49.00
9658 60.0420 2437.00 2324.74 49.00
9659 60.0480 2478.00 2327.90 50.00
9660 60.0540 2454.00 2330.50 50.00
9661 60.0600 2449.00 2332.32 49.00
9662 60.0660 2434.00 2333.12 49.00
9663 60.0720 2526.00 2332.74 50.00
9664 60.0780 2484.00 2331.12 50.00
9665 60.0840 2459.00 2328.28 50.00
9666 60.0900 2383.00 2324.40 49.00
9667 60.0960 2366.00 2319.66 49.00
9668 60.1020 2330.00 2314.28 48.00
9669 60.1080 2397.00 2308.52 49.00
9670 60.1140 2301.00 2302.55 48.00
9671 60.1200 2253.00 2296.51 47.00
9672 60.1260 2274.00 2290.51 48.00
9673 60.1320 2269.00 2284.77 48.00
9674 60.1380 2303.00 2279.28 48.00
9675 60.1440 2248.00 2274.10 47.00
9676 60.1500 2199.00 2269.25 47.00
9677 60.1560 2238.00 2264.61 47.00
9678 60.1620 2230.00 2260.29 47.00
9679 60.1680 2231.00 2256.20 47.00
9680 60.1740 2275.00 2252.24 48.00
9681 60.1800 2296.00 2248.56 48.00
9682 60.1860 2225.00 2245.14 47.00
9683 60.1920 2259.00 2242.01 48.00
9684 60.1980 2267.00 2239.23 48.00
9685 60.2040 2234.00 2236.80 47.00
9686 60.2100 2289.00 2234.71 48.00
9687 60.2160 2288.00 2232.92 48.00
9688 60.2220 2321.00 2231.43 48.00
9689 60.2280 2217.00 2230.35 47.00
9690 60.2340 2241.00 2229.58 47.00
9691 60.2400 2264.00 2229.24 48.00
9692 60.2460 2263.00 2229.28 48.00
9693 60.2520 2298.00 2229.70 48.00
9694 60.2580 2248.00 2230.45 47.00
9695 60.2640 2258.00 2231.60 48.00
9696 60.2700 2292.00 2233.08 48.00
9697 60.2760 2208.00 2234.84 47.00
9698 60.2820 2271.00 2236.82 48.00
9699 60.2880 2327.00 2239.01 48.00
9700 60.2940 2257.00 2241.35 48.00
9701 60.3000 2250.00 2243.77 47.00
9702 60.3060 2264.00 2246.24 48.00
9703 60.3120 2298.00 2248.72 48.00
9704 60.3180 2324.00 2251.20 48.00
9705 60.3240 2278.00 2253.60 48.00
9706 60.3300 2311.00 2255.91 48.00
9707 60.3360 2264.00 2258.05 48.00
9708 60.3420 2261.00 2259.92 48.00
9709 60.3480 2247.00 2261.42 47.00
9710 60.3540 2290.00 2262.40 48.00
9711 60.3600 2319.00 2262.81 48.00
9712 60.3660 2306.00 2262.63 48.00
9713 60.3720 2248.00 2261.94 47.00
9714 60.3780 2265.00 2260.86 48.00
9715 60.3840 2208.00 2259.48 47.00
9716 60.3900 2260.00 2258.05 48.00
9717 60.3960 2262.00 2256.55 48.00
9718 60.4020 2213.00 2255.21 47.00
9719 60.4080 2238.00 2254.00 47.00
9720 60.4140 2214.00 2252.99 47.00
9721 60.4200 2261.00 2252.23 48.00
9722 60.4260 2299.00 2251.83 48.00
9723 60.4320 2334.00 2251.87 48.00
9724 60.4380 2252.00 2252.47 47.00
9725 60.4440 2238.00 2253.64 47.00
9726 60.4500 2372.00 2255.47 49.00
9727 60.4560 2303.00 2257.91 48.00
9728 60.4620 2260.00 2260.89 48.00
9729 60.4680 2278.00 2264.29 48.00
9730 60.4740 2277.00 2267.98 48.00
9731 60.4800 2306.00 2271.82 48.00
9732 60.4860 2294.00 2275.63 48.00
9733 60.4920 2272.00 2279.18 48.00
9734 60.4980 2334.00 2282.24 48.00
9735 60.5040 2262.00 2284.52 48.00
9736 60.5100 2213.00 2285.82 47.00
9737 60.5160 2285.00 2285.88 48.00
9738 60.5220 2240.00 2284.58 47.00
9739 60.5280 2179.00 2281.95 47.00
9740 60.5340 2192.00 2278.14 47.00
9741 60.5400 2216.00 2273.20 47.00
9742 60.5460 2176.00 2267.45 47.00
9743 60.5520 2242.00 2261.07 47.00
9744 60.5580 2208.00 2254.36 47.00
9745 60.5640 2087.00 2247.51 46.00
9746 60.5700 2263.00 2240.69 48.00
9747 60.5760 2152.00 2233.99 46.00
9748 60.5820 2122.00 2227.55 46.00
9749 60.5880 2191.00 2221.54 47.00
9750 60.5940 2160.00 2216.02 46.00
9751 60.6000 2145.00 2211.05 46.00
9752 60.6060 2143.00 2206.68 46.00
9753 60.6120 2168.00 2202.85 47.00
9754 60.6180 2205.00 2199.67 47.00
9755 60.6240 2158.00 2197.05 46.00
9756 60.6300 2066.00 2194.97 45.00
9757 60.6360 2076.00 2193.40 46.00
9758 60.6420 2134.00 2192.31 46.00
9759 60.6480 2076.00 2191.66 46.00
9760 60.6540 2141.00 2191.41 46.00
9761 60.6600 2178.00 2191.50 47.00
9762 60.6660 2055.00 2191.88 45.00
9763 60.6720 2142.00 2192.49 46.00
9764 60.6780 2083.00 2193.25 46.00
9765 60.6840 2150.00 2194.13 46.00
9766 60.6900 2115.00 2195.03 46.00
9767 60.6960 2110.00 2195.90 46.00
9768 60.7020 2219.00 2196.65 47.00
9769 60.7080 2083.00 2197.33 46.00
9770 60.7140 2133.00 2197.94 46.00
9771 60.7200 2192.00 2198.36 47.00
9772 60.7260 2164.00 2198.69 47.00
9773 60.7320 2139.00 2198.92 46.00
9774 60.7380 2128.00 2199.08 46.00
9775 60.7440 2265.00 2199.15 48.00
9776 60.7500 2142.00 2199.13 46.00
9777 60.7560 2175.00 2198.97 47.00
9778 60.7620 2135.00 2198.62 46.00
9779 60.7680 2140.00 2198.03 46.00
9780 60.7740 2127.00 2197.21 46.00
9781 60.7800 2186.00 2196.21 47.00
9782 60.7860 2154.00 2195.12 46.00
9783 60.7920 2210.00 2194.02 47.00
9784 60.7980 2234.00 2193.03 47.00
9785 60.8040 2185.00 2192.21 47.00
9786 60.8100 2169.00 2191.80 47.00
9787 60.8160 2116.00 2191.83 46.00
9788 60.8220 2206.00 2192.35 47.00
9789 60.8280 2080.00 2193.37 46.00
9790 60.8340 2161.00 2194.92 46.00
9791 60.8400 2213.00 2196.96 47.00
9792 60.8460 2276.00 2199.41 48.00
9793 60.8520 2237.00 2202.24 47.00
9794 60.8580 2282.00 2205.30 48.00
9795 60.8640 2362.00 2208.46 49.00
9796 60.8700 2245.00 2211.57 47.00
9797 60.8760 2246.00 2214.47 47.00
9798 60.8820 2360.00 2217.02 49.00
9799 60.8880 2351.00 2219.12 48.00
9800 60.8940 2259.00 2220.66 48.00
9801 60.9000 2375.00 2221.77 49.00
9802 60.9060 2344.00 2222.46 48.00
9803 60.9120 2331.00 2222.73 48.00
9804 60.9180 2318.00 2222.79 48.00
9805 60.9240 2214.00 2222.65 47.00
9806 60.9300 2216.00 2222.35 47.00
9807 60.9360 2226.00 2221.93 47.00
9808 60.9420 2232.00 2221.40 47.00
9809 60.9480 2289.00 2220.74 48.00
9810 60.9540 2320.00 2219.93 48.00
9811 60.9600 2232.00 2218.94 47.00
9812 60.9660 2234.00 2217.71 47.00
9813 60.9720 2230.00 2216.22 47.00
9814 60.9780 2232.00 2214.34 47.00
9815 60.9840 2220.00 2212.10 47.00
9816 60.9900 2248.00 2209.53 47.00
9817 60.9960 2274.00 2206.64 48.00
9818 61.0020 2254.00 2203.58 47.00
9819 61.0080 2106.00 2200.41 46.00
9820 61.0140 2247.00 2197.23 47.00
9821 61.0200 2222.00 2194.13 47.00
9822 61.0260 2219.00 2191.21 47.00
9823 61.0320 2144.00 2188.59 46.00
9824 61.0380 2169.00 2186.36 47.00
9825 61.0440 2170.00 2184.51 47.00
9826 61.0500 2115.00 2183.13 46.00
9827 61.0560 2187.00 2182.29 47.00
9828 61.0620 2154.00 2181.98 46.00
9829 61.0680 2143.00 2182.21 46.00
9830 61.0740 2093.00 2182.97 46.00
9831 61.0800 2140.00 2184.20 46.00
9832 61.0860 2071.00 2185.88 46.00
9833 61.0920 2051.00 2187.95 45.00
9834 61.0980 2172.00 2190.35 47.00
9835 61.1040 2116.00 2193.01 46.00
9836 61.1100 2108.00 2195.91 46.00
9837 61.1160 2111.00 2198.91 46.00
9838 61.1220 2150.00 2202.04 46.00
9839 61.1280 2234.00 2205.31 47.00
9840 61.1340 2215.00 2208.56 47.00
9841 61.1400 2205.00 2211.83 47.00
9842 61.1460 2198.00 2214.98 47.00
9843 61.1520 2160.00 2218.05 46.00
9844 61.1580 2173.00 2220.93 47.00
9845 61.1640 2204.00 2223.60 47.00
9846 61.1700 2217.00 2226.05 47.00
9847 61.1760 2227.00 2228.27 47.00
9848 61.1820 2228.00 2230.25 47.00
9849 61.1880 2264.00 2232.01 48.00
9850 61.1940 2295.00 2233.33 48.00
9851 61.2000 2237.00 2234.29 47.00
9852 61.2060 2248.00 2234.73 47.00
9853 61.2120 2242.00 2234.51 47.00
9854 61.2180 2209.00 2233.55 47.00
9855 61.2240 2233.00 2231.80 47.00
9856 61.2300 2332.00 2229.30 48.00
9857 61.2360 2233.00 2226.18 47.00
9858 61.2420 2315.00 2222.53 48.00
9859 61.2480 2333.00 2218.57 48.00
9860 61.2540 2269.00 2214.59 48.00
9861 61.2600 2174.00 2210.80 47.00
9862 61.2660 2211.00 2207.41 47.00
9863 61.2720 2273.00 2204.62 48.00
9864 61.2780 2257.00 2202.62 48.00
9865 61.2840 2240.00 2201.57 47.00
9866 61.2900 2249.00 2201.58 47.00
9867 61.2960 2221.00 2202.74 47.00
9868 61.3020 2277.00 2205.06 48.00
9869 61.3080 2245.00 2208.59 47.00
9870 61.3140 2234.00 2213.23 47.00
9871 61.3200 2239.00 2218.89 47.00
9872 61.3260 2270.00 2225.39 48.00
9873 61.3320 2359.00 2232.52 49.00
9874 61.3380 2350.00 2240.00 48.00
9875 61.3440 2326.00 2247.50 48.00
9876 61.3500 2396.00 2254.76 49.00
9877 61.3560 2336.00 2261.43 48.00
9878 61.3620 2348.00 2267.07 48.00
9879 61.3680 2377.00 2271.63 49.00
9880 61.3740 2355.00 2274.75 49.00
9881 61.3800 2373.00 2276.36 49.00
9882 61.3860 2223.00 2276.44 47.00
9883 61.3920 2283.00 2275.04 48.00
9884 61.3980 2302.00 2272.29 48.00
9885 61.4040 2300.00 2268.33 48.00
9886 61.4100 2368.00 2263.28 49.00
9887 61.4160 2312.00 2257.37 48.00
9888 61.4220 2335.00 2250.75 48.00
9889 61.4280 2305.00 2243.64 48.00
9890 61.4340 2306.00 2236.30 48.00
9891 61.4400 2291.00 2228.99 48.00
9892 61.4460 2275.00 2221.94 48.00
9893 61.4520 2278.00 2215.39 48.00
9894 61.4580 2313.00 2209.52 48.00
9895 61.4640 2207.00 2204.50 47.00
9896 61.4700 2184.00 2200.41 47.00
9897 61.4760 2280.00 2197.35 48.00
9898 61.4820 2286.00 2195.37 48.00
9899 61.4880 2366.00 2194.49 49.00
9900 61.4940 2231.00 2194.70 47.00
9901 61.5000 2264.00 2195.97 48.00
9902 61.5060 2239.00 2198.24 47.00
9903 61.5120 2234.00 2201.40 47.00
9904 61.5180 2265.00 2205.34 48.00
9905 61.5240 2340.00 2209.89 48.00
9906 61.5300 2294.00 2214.88 48.00
9907 61.5360 2289.00 2220.07 48.00
9908 61.5420 2283.00 2225.25 48.00
9909 61.5480 2329.00 2230.16 48.00
9910 61.5540 2297.00 2234.57 48.00
9911 61.5600 2337.00 2238.27 48.00
9912 61.5660 2347.00 2241.11 48.00
9913 61.5720 2281.00 2243.00 48.00
9914 61.5780 2344.00 2243.93 48.00
9915 61.5840 2361.00 2243.99 49.00
9916 61.5900 2416.00 2243.21 49.00
9917 61.5960 2355.00 2241.70 49.00
9918 61.6020 2307.00 2239.52 48.00
9919 61.6080 2320.00 2236.72 48.00
9920 61.6140 2436.00 2233.40 49.00
9921 61.6200 2386.00 2229.62 49.00
9922 61.6260 2359.00 2225.46 49.00
9923 61.6320 2351.00 2221.03 48.00
9924 61.6380 2288.00 2216.41 48.00
9925 61.6440 2283.00 2211.67 48.00
9926 61.6500 2226.00 2206.89 47.00
9927 61.6560 2239.00 2202.12 47.00
9928 61.6620 2289.00 2197.38 48.00
9929 61.6680 2231.00 2192.66 47.00
9930 61.6740 2204.00 2188.03 47.00
9931 61.6800 2181.00 2183.49 47.00
9932 61.6860 2186.00 2179.13 47.00
9933 61.6920 2169.00 2174.98 47.00
9934 61.6980 2220.00 2171.12 47.00
9935 61.7040 2243.00 2167.62 47.00
9936 61.7100 2155.00 2164.49 46.00
9937 61.7160 2180.00 2161.81 47.00
9938 61.7220 2188.00 2159.60 47.00
9939 61.7280 2099.00 2157.87 46.00
9940 61.7340 2084.00 2156.61 46.00
9941 61.7400 2170.00 2155.90 47.00
9942 61.7460 2091.00 2155.73 46.00
9943 61.7520 2184.00 2156.05 47.00
9944 61.7580 2154.00 2156.89 46.00
9945 61.7640 2110.00 2158.21 46.00
9946 61.7700 2197.00 2159.99 47.00
9947 61.7760 2151.00 2162.22 46.00
9948 61.7820 2154.00 2164.84 46.00
9949 61.7880 2226.00 2167.80 47.00
9950 61.7940 2179.00 2171.05 47.00
9951 61.8000 2230.00 2174.51 47.00
9952 61.8060 2261.00 2178.10 48.00
9953 61.8120 2259.00 2181.70 48.00
9954 61.8180 2266.00 2185.25 48.00
9955 61.8240 2309.00 2188.68 48.00
9956 61.8300 2263.00 2191.95 48.00
9957 61.8360 2243.00 2195.06 47.00
9958 61.8420 2193.00 2198.05 47.00
9959 61.8480 2241.00 2200.95 47.00
9960 61.8540 2301.00 2203.78 48.00
9961 61.8600 2303.00 2206.57 48.00
9962 61.8660 2328.00 2209.27 48.00
9963 61.8720 2349.00 2211.86 48.00
9964 61.8780 2329.00 2214.28 48.00
9965 61.8840 2281.00 2216.44 48.00
9966 61.8900 2285.00 2218.33 48.00
9967 61.8960 2342.00 2219.98 48.00
9968 61.9020 2362.00 2221.46 49.00
9969 61.9080 2284.00 2222.89 48.00
9970 61.9140 2261.00 2224.39 48.00
9971 61.9200 2292.00 2226.09 48.00
9972 61.9260 2258.00 2228.08 48.00
9973 61.9320 2282.00 2230.40 48.00
9974 61.9380 2347.00 2233.08 48.00
9975 61.9440 2329.00 2236.03 48.00
9976 61.9500 2345.00 2239.13 48.00
9977 61.9560 2280.00 2242.29 48.00
9978 61.9620 2313.00 2245.24 48.00
9979 61.9680 2317.00 2247.81 48.00
9980 61.9740 2321.00 2249.79 48.00
9981 61.9800 2276.00 2251.07 48.00
9982 61.9860 2304.00 2251.58 48.00
9983 61.9920 2250.00 2251.31 47.00
9984 61.9980 2239.00 2250.36 47.00
9985 62.0040 2287.00 2248.85 48.00
9986 62.0100 2292.00 2246.89 48.00
9987 62.0160 2261.00 2244.68 48.00
9988 62.0220 2220.00 2242.29 47.00
9989 62.0280 2245.00 2239.76 47.00
9990 62.0340 2283.00 2237.07 48.00
9991 62.0400 2279.00 2234.21 48.00
9992 62.0460 2259.00 2231.16 48.00
9993 62.0520 2274.00 2227.93 48.00
9994 62.0580 2227.00 2224.52 47.00
9995 62.0640 2201.00 2220.97 47.00
9996 62.0700 2217.00 2217.27 47.00
9997 62.0760 2154.00 2213.50 46.00
9998 62.0820 2113.00 2209.58 46.00
9999 62.0880 2211.00 2205.54 47.00
10000 62.0940 2237.00 2201.38 47.00
10001 62.1000 2186.00 2197.13 47.00
10002 62.1060 2171.00 2192.87 47.00
10003 62.1120 2166.00 2188.74 47.00
10004 62.1180 2117.00 2184.84 46.00
10005 62.1240 2140.00 2181.34 46.00
10006 62.1300 2162.00 2178.34 46.00
10007 62.1360 2150.00 2175.93 46.00
10008 62.1420 2193.00 2174.20 47.00
10009 62.1480 2187.00 2173.15 47.00
10010 62.1540 2150.00 2172.80 46.00
10011 62.1600 2180.00 2173.14 47.00
10012 62.1660 2150.00 2174.19 46.00
10013 62.1720 2109.00 2175.74 46.00
10014 62.1780 2120.00 2177.78 46.00
10015 62.1840 2205.00 2180.21 47.00
10016 62.1900 2175.00 2182.86 47.00
10017 62.1960 2221.00 2185.59 47.00
10018 62.2020 2205.00 2188.23 47.00
10019 62.2080 2159.00 2190.53 46.00
10020 62.2140 2246.00 2192.42 47.00
10021 62.2200 2248.00 2193.70 47.00
10022 62.2260 2228.00 2194.30 47.00
10023 62.2320 2208.00 2194.12 47.00
10024 62.2380 2198.00 2193.31 47.00
10025 62.2440 2223.00 2191.84 47.00
10026 62.2500 2192.00 2189.82 47.00
10027 62.2560 2155.00 2187.31 46.00
10028 62.2620 2173.00 2184.40 47.00
10029 62.2680 2170.00 2181.11 47.00
10030 62.2740 2145.00 2177.48 46.00
10031 62.2800 2107.00 2173.66 46.00
10032 62.2860 2115.00 2169.71 46.00
10033 62.2920 2102.00 2165.73 46.00
10034 62.2980 2096.00 2161.82 46.00
10035 62.3040 2067.00 2158.08 45.00
10036 62.3100 2067.00 2154.63 45.00
10037 62.3160 2137.00 2151.52 46.00
10038 62.3220 2155.00 2148.81 46.00
10039 62.3280 2106.00 2146.59 46.00
10040 62.3340 2041.00 2144.83 45.00
10041 62.3400 2052.00 2143.57 45.00
10042 62.3460 2136.00 2142.82 46.00
10043 62.3520 2151.00 2142.54 46.00
10044 62.3580 2055.00 2142.76 45.00
10045 62.3640 2033.00 2143.38 45.00
10046 62.3700 2047.00 2144.38 45.00
10047 62.3760 2075.00 2145.70 46.00
10048 62.3820 2112.00 2147.34 46.00
10049 62.3880 2162.00 2149.09 46.00
10050 62.3940 2188.00 2150.97 47.00
10051 62.4000 2223.00 2152.84 47.00
10052 62.4060 2188.00 2154.63 47.00
10053 62.4120 2138.00 2156.22 46.00
10054 62.4180 2183.00 2157.46 47.00
10055 62.4240 2209.00 2158.41 47.00
10056 62.4300 2194.00 2158.93 47.00
10057 62.4360 2165.00 2159.02 47.00
10058 62.4420 2132.00 2158.63 46.00
10059 62.4480 2089.00 2157.79 46.00
10060 62.4540 2112.00 2156.56 46.00
10061 62.4600 2121.00 2154.98 46.00
10062 62.4660 2107.00 2153.17 46.00
10063 62.4720 2103.00 2151.25 46.00
10064 62.4780 2087.00 2149.29 46.00
10065 62.4840 2104.00 2147.40 46.00
10066 62.4900 2126.00 2145.57 46.00
10067 62.4960 2092.00 2143.90 46.00
10068 62.5020 2054.00 2142.39 45.00
10069 62.5080 2088.00 2141.06 46.00
10070 62.5140 2103.00 2139.84 46.00
10071 62.5200 2097.00 2138.76 46.00
10072 62.5260 2043.00 2137.75 45.00
10073 62.5320 2024.00 2136.84 45.00
10074 62.5380 2068.00 2136.02 45.00
10075 62.5440 2069.00 2135.26 45.00
10076 62.5500 2077.00 2134.57 46.00
10077 62.5560 2079.00 2133.98 46.00
10078 62.5620 2040.00 2133.49 45.00
10079 62.5680 2022.00 2133.11 45.00
10080 62.5740 2048.00 2132.86 45.00
10081 62.5800 2060.00 2132.77 45.00
10082 62.5860 2116.00 2132.78 46.00
10083 62.5920 2116.00 2132.90 46.00
10084 62.5980 2075.00 2133.14 46.00
10085 62.6040 2082.00 2133.49 46.00
10086 62.6100 2080.00 2133.93 46.00
10087 62.6160 2060.00 2134.47 45.00
10088 62.6220 2084.00 2135.12 46.00
10089 62.6280 2077.00 2135.92 46.00
10090 62.6340 2065.00 2136.86 45.00
10091 62.6400 2116.00 2137.97 46.00
10092 62.6460 2102.00 2139.28 46.00
10093 62.6520 2059.00 2140.77 45.00
10094 62.6580 2095.00 2142.45 46.00
10095 62.6640 2108.00 2144.33 46.00
10096 62.6700 2113.00 2146.37 46.00
10097 62.6760 2180.00 2148.57 47.00
10098 62.6820 2135.00 2150.83 46.00
10099 62.6880 2068.00 2153.22 45.00
10100 62.6940 2147.00 2155.61 46.00
10101 62.7000 2178.00 2157.97 47.00
10102 62.7060 2153.00 2160.22 46.00
10103 62.7120 2169.00 2162.33 47.00
10104 62.7180 2080.00 2164.26 46.00
10105 62.7240 2125.00 2166.02 46.00
10106 62.7300 2136.00 2167.54 46.00
10107 62.7360 2094.00 2168.88 46.00
10108 62.7420 2149.00 2170.03 46.00
10109 62.7480 2215.00 2171.06 47.00
10110 62.7540 2246.00 2172.02 47.00
10111 62.7600 2259.00 2172.96 48.00
10112 62.7660 2212.00 2173.92 47.00
10113 62.7720 2181.00 2174.94 47.00
10114 62.7780 2145.00 2176.03 46.00
10115 62.7840 2214.00 2177.20 47.00
10116 62.7900 2262.00 2178.33 48.00
10117 62.7960 2235.00 2179.41 47.00
10118 62.8020 2225.00 2180.33 47.00
10119 62.8080 2220.00 2181.04 47.00
10120 62.8140 2245.00 2181.47 47.00
10121 62.8200 2225.00 2181.59 47.00
10122 62.8260 2218.00 2181.37 47.00
10123 62.8320 2225.00 2180.87 47.00
10124 62.8380 2160.00 2180.11 46.00
10125 62.8440 2112.00 2179.08 46.00
10126 62.8500 2132.00 2177.97 46.00
10127 62.8560 2114.00 2176.75 46.00
10128 62.8620 2182.00 2175.53 47.00
10129 62.8680 2251.00 2174.26 47.00
10130 62.8740 2211.00 2172.97 47.00
10131 62.8800 2173.00 2171.66 47.00
10132 62.8860 2159.00 2170.32 46.00
10133 62.8920 2116.00 2168.91 46.00
10134 62.8980 2141.00 2167.45 46.00
10135 62.9040 2163.00 2165.93 47.00
10136 62.9100 2206.00 2164.37 47.00
10137 62.9160 2219.00 2162.89 47.00
10138 62.9220 2196.00 2161.59 47.00
10139 62.9280 2180.00 2160.49 47.00
10140 62.9340 2243.00 2159.71 47.00
10141 62.9400 2253.00 2159.33 47.00
10142 62.9460 2206.00 2159.44 47.00
10143 62.9520 2170.00 2160.06 47.00
10144 62.9580 2122.00 2161.33 46.00
10145 62.9640 2124.00 2163.25 46.00
10146 62.9700 2137.00 2165.82 46.00
10147 62.9760 2136.00 2169.03 46.00
10148 62.9820 2176.00 2172.81 47.00
10149 62.9880 2208.00 2177.05 47.00
10150 62.9940 2181.00 2181.59 47.00
10151 63.0000 2154.00 2186.24 46.00
10152 63.0060 2128.00 2190.77 46.00
10153 63.0120 2127.00 2194.94 46.00
10154 63.0180 2223.00 2198.50 47.00
10155 63.0240 2185.00 2201.24 47.00
10156 63.0300 2183.00 2202.96 47.00
10157 63.0360 2152.00 2203.54 46.00
10158 63.0420 2132.00 2202.90 46.00
10159 63.0480 2169.00 2201.10 47.00
10160 63.0540 2138.00 2198.26 46.00
10161 63.0600 2130.00 2194.60 46.00
10162 63.0660 2120.00 2190.37 46.00
10163 63.0720 2106.00 2185.83 46.00
10164 63.0780 2144.00 2181.22 46.00
10165 63.0840 2151.00 2176.82 46.00
10166 63.0900 2198.00 2172.81 47.00
10167 63.0960 2138.00 2169.30 46.00
10168 63.1020 2102.00 2166.45 46.00
10169 63.1080 2161.00 2164.31 46.00
10170 63.1140 2127.00 2162.86 46.00
10171 63.1200 2197.00 2162.08 47.00
10172 63.1260 2157.00 2161.94 46.00
10173 63.1320 2178.00 2162.36 47.00
10174 63.1380 2162.00 2163.31 46.00
10175 63.1440 2158.00 2164.72 46.00
10176 63.1500 2208.00 2166.62 47.00
10177 63.1560 2195.00 2168.96 47.00
10178 63.1620 2189.00 2171.71 47.00
10179 63.1680 2176.00 2174.85 47.00
10180 63.1740 2190.00 2178.32 47.00
10181 63.1800 2229.00 2182.04 47.00
10182 63.1860 2180.00 2185.90 47.00
10183 63.1920 2209.00 2189.78 47.00
10184 63.1980 2249.00 2193.54 47.00
10185 63.2040 2213.00 2197.03 47.00
10186 63.2100 2199.00 2200.15 47.00
10187 63.2160 2174.00 2202.76 47.00
10188 63.2220 2213.00 2204.76 47.00
10189 63.2280 2301.00 2206.05 48.00
10190 63.2340 2227.00 2206.58 47.00
10191 63.2400 2166.00 2206.31 47.00
10192 63.2460 2269.00 2205.24 48.00
10193 63.2520 2289.00 2203.38 48.00
10194 63.2580 2226.00 2200.79 47.00
10195 63.2640 2173.00 2197.54 47.00
10196 63.2700 2228.00 2193.76 47.00
10197 63.2760 2318.00 2189.61 48.00
10198 63.2820 2291.00 2185.28 48.00
10199 63.2880 2206.00 2181.03 47.00
10200 63.2940 2282.00 2177.02 48.00
10201 63.3000 2215.00 2173.45 47.00
10202 63.3060 2145.00 2170.52 46.00
10203 63.3120 2213.00 2168.33 47.00
10204 63.3180 2188.00 2166.93 47.00
10205 63.3240 2175.00 2166.41 47.00
10206 63.3300 2272.00 2166.74 48.00
10207 63.3360 2228.00 2167.80 47.00
10208 63.3420 2259.00 2169.47 48.00
10209 63.3480 2214.00 2171.62 47.00
10210 63.3540 2261.00 2174.04 48.00
10211 63.3600 2299.00 2176.52 48.00
10212 63.3660 2258.00 2178.86 48.00
10213 63.3720 2358.00 2180.86 49.00
10214 63.3780 2354.00 2182.38 49.00
10215 63.3840 2308.00 2183.31 48.00
10216 63.3900 2219.00 2183.61 47.00
10217 63.3960 2225.00 2183.32 47.00
10218 63.4020 2260.00 2182.45 48.00
10219 63.4080 2248.00 2181.13 47.00
10220 63.4140 2261.00 2179.48 48.00
10221 63.4200 2214.00 2177.60 47.00
10222 63.4260 2264.00 2175.65 48.00
10223 63.4320 2263.00 2173.66 48.00
10224 63.4380 2162.00 2171.78 46.00
10225 63.4440 2206.00 2170.06 47.00
10226 63.4500 2249.00 2168.55 47.00
10227 63.4560 2243.00 2167.26 47.00
10228 63.4620 2176.00 2166.22 47.00
10229 63.4680 2203.00 2165.39 47.00
10230 63.4740 2195.00 2164.81 47.00
10231 63.4800 2187.00 2164.48 47.00
10232 63.4860 2131.00 2164.44 46.00
10233 63.4920 2192.00 2164.65 47.00
10234 63.4980 2223.00 2165.11 47.00
10235 63.5040 2219.00 2165.76 47.00
10236 63.5100 2210.00 2166.55 47.00
10237 63.5160 2129.00 2167.42 46.00
10238 63.5220 2108.00 2168.39 46.00
10239 63.5280 2147.00 2169.31 46.00
10240 63.5340 2076.00 2170.25 46.00
10241 63.5400 2201.00 2171.23 47.00
10242 63.5460 2187.00 2172.30 47.00
10243 63.5520 2038.00 2173.48 45.00
10244 63.5580 2141.00 2174.81 46.00
10245 63.5640 2152.00 2176.26 46.00
10246 63.5700 2207.00 2177.82 47.00
10247 63.5760 2166.00 2179.42 47.00
10248 63.5820 2146.00 2180.99 46.00
10249 63.5880 2094.00 2182.46 46.00
10250 63.5940 2214.00 2183.71 47.00
10251 63.6000 2258.00 2184.66 48.00
10252 63.6060 2231.00 2185.20 47.00
10253 63.6120 2206.00 2185.24 47.00
10254 63.6180 2201.00 2184.74 47.00
10255 63.6240 2109.00 2183.71 46.00
10256 63.6300 2175.00 2182.19 47.00
10257 63.6360 2204.00 2180.25 47.00
10258 63.6420 2229.00 2177.96 47.00
10259 63.6480 2185.00 2175.43 47.00
10260 63.6540 2297.00 2172.79 48.00
10261 63.6600 2231.00 2170.11 47.00
10262 63.6660 2202.00 2167.49 47.00
10263 63.6720 2179.00 2165.02 47.00
10264 63.6780 2144.00 2162.76 46.00
10265 63.6840 2143.00 2160.77 46.00
10266 63.6900 2262.00 2159.12 48.00
10267 63.6960 2214.00 2157.82 47.00
10268 63.7020 2147.00 2156.87 46.00
10269 63.7080 2164.00 2156.30 47.00
10270 63.7140 2120.00 2156.02 46.00
10271 63.7200 2125.00 2155.97 46.00
10272 63.7260 2205.00 2156.05 47.00
10273 63.7320 2142.00 2156.15 46.00
10274 63.7380 2155.00 2156.17 46.00
10275 63.7440 2137.00 2156.00 46.00
10276 63.7500 2150.00 2155.62 46.00
10277 63.7560 2142.00 2154.91 46.00
10278 63.7620 2114.00 2153.92 46.00
10279 63.7680 2149.00 2152.64 46.00
10280 63.7740 2139.00 2151.13 46.00
10281 63.7800 2156.00 2149.37 46.00
10282 63.7860 2185.00 2147.45 47.00
10283 63.7920 2204.00 2145.27 47.00
10284 63.7980 2117.00 2142.88 46.00
10285 63.8040 1973.00 2140.24 44.00
10286 63.8100 2130.00 2137.39 46.00
10287 63.8160 2080.00 2134.35 46.00
10288 63.8220 2115.00 2131.19 46.00
10289 63.8280 2207.00 2128.00 47.00
10290 63.8340 2050.00 2124.86 45.00
10291 63.8400 2038.00 2121.88 45.00
10292 63.8460 2085.00 2119.12 46.00
10293 63.8520 2080.00 2116.66 46.00
10294 63.8580 2012.00 2114.53 45.00
10295 63.8640 2111.00 2112.78 46.00
10296 63.8700 2070.00 2111.40 45.00
10297 63.8760 2128.00 2110.43 46.00
10298 63.8820 2112.00 2109.81 46.00
10299 63.8880 2140.00 2109.55 46.00
10300 63.8940 2122.00 2109.60 46.00
10301 63.9000 2189.00 2109.95 47.00
10302 63.9060 2146.00 2110.55 46.00
10303 63.9120 2131.00 2111.36 46.00
10304 63.9180 2140.00 2112.27 46.00
10305 63.9240 1944.00 2113.38 44.00
10306 63.9300 2101.00 2114.57 46.00
10307 63.9360 2137.00 2115.83 46.00
10308 63.9420 2099.00 2117.18 46.00
10309 63.9480 2191.00 2118.57 47.00
10310 63.9540 2190.00 2120.02 47.00
10311 63.9600 2151.00 2121.51 46.00
10312 63.9660 2162.00 2123.04 46.00
10313 63.9720 2115.00 2124.59 46.00
10314 63.9780 2018.00 2126.11 45.00
10315 63.9840 2168.00 2127.58 47.00
10316 63.9900 2130.00 2128.90 46.00
10317 63.9960 2113.00 2130.02 46.00
10318 64.0020 2052.00 2130.89 45.00
10319 64.0080 2137.00 2131.46 46.00
10320 64.0140 2122.00 2131.68 46.00
10321 64.0200 2052.00 2131.59 45.00
10322 64.0260 2213.00 2131.16 47.00
10323 64.0320 2114.00 2130.45 46.00
10324 64.0380 2033.00 2129.38 45.00
10325 64.0440 2143.00 2128.04 46.00
10326 64.0500 2132.00 2126.46 46.00
10327 64.0560 2107.00 2124.68 46.00
10328 64.0620 2055.00 2122.77 45.00
10329 64.0680 2107.00 2120.77 46.00
10330 64.0740 2107.00 2118.75 46.00
10331 64.0800 2022.00 2116.79 45.00
10332 64.0860 2025.00 2114.82 45.00
10333 64.0920 2020.00 2112.98 45.00
10334 64.0980 2097.00 2111.32 46.00
10335 64.1040 2040.00 2109.86 45.00
10336 64.1100 2013.00 2108.70 45.00
10337 64.1160 2097.00 2107.84 46.00
10338 64.1220 1997.00 2107.37 45.00
10339 64.1280 2034.00 2107.28 45.00
10340 64.1340 2046.00 2107.58 45.00
10341 64.1400 2073.00 2108.26 46.00
10342 64.1460 2119.00 2109.24 46.00
10343 64.1520 2053.00 2110.57 45.00
10344 64.1580 2051.00 2112.15 45.00
10345 64.1640 2096.00 2113.90 46.00
10346 64.1700 2063.00 2115.76 45.00
10347 64.1760 2121.00 2117.65 46.00
10348 64.1820 2112.00 2119.50 46.00
10349 64.1880 2074.00 2121.24 46.00
10350 64.1940 2116.00 2122.86 46.00
10351 64.2000 2130.00 2124.25 46.00
10352 64.2060 2064.00 2125.42 45.00
10353 64.2120 2070.00 2126.32 45.00
10354 64.2180 2070.00 2126.93 45.00
10355 64.2240 2002.00 2127.23 45.00
10356 64.2300 2078.00 2127.25 46.00
10357 64.2360 2107.00 2127.04 46.00
10358 64.2420 2133.00 2126.69 46.00
10359 64.2480 2120.00 2126.28 46.00
10360 64.2540 2156.00 2125.98 46.00
10361 64.2600 2098.00 2125.83 46.00
10362 64.2660 2081.00 2125.90 46.00
10363 64.2720 2125.00 2126.24 46.00
10364 64.2780 2198.00 2126.89 47.00
10365 64.2840 2090.00 2127.81 46.00
10366 64.2900 2117.00 2128.99 46.00
10367 64.2960 2156.00 2130.34 46.00
10368 64.3020 2195.00 2131.75 47.00
10369 64.3080 2186.00 2133.19 47.00
10370 64.3140 2191.00 2134.59 47.00
10371 64.3200 2171.00 2135.83 47.00
10372 64.3260 2197.00 2136.88 47.00
10373 64.3320 2130.00 2137.72 46.00
10374 64.3380 2188.00 2138.34 47.00
10375 64.3440 2095.00 2138.81 46.00
10376 64.3500 2105.00 2139.05 46.00
10377 64.3560 2141.00 2139.16 46.00
10378 64.3620 2104.00 2139.16 46.00
10379 64.3680 2124.00 2139.09 46.00
10380 64.3740 2084.00 2138.96 46.00
10381 64.3800 2057.00 2138.80 45.00
10382 64.3860 2105.00 2138.65 46.00
10383 64.3920 2184.00 2138.40 47.00
10384 64.3980 2156.00 2137.97 46.00
10385 64.4040 2187.00 2137.30 47.00
10386 64.4100 2142.00 2136.29 46.00
10387 64.4160 2094.00 2134.81 46.00
10388 64.4220 2128.00 2132.85 46.00
10389 64.4280 2145.00 2130.40 46.00
10390 64.4340 2060.00 2127.44 45.00
10391 64.4400 2207.00 2124.07 47.00
10392 64.4460 2166.00 2120.41 47.00
10393 64.4520 2040.00 2116.57 45.00
10394 64.4580 2111.00 2112.64 46.00
10395 64.4640 2135.00 2108.75 46.00
10396 64.4700 2134.00 2104.99 46.00
10397 64.4760 2104.00 2101.44 46.00
10398 64.4820 2136.00 2098.14 46.00
10399 64.4880 2102.00 2095.17 46.00
10400 64.4940 2137.00 2092.52 46.00
10401 64.5000 2084.00 2090.30 46.00
10402 64.5060 1981.00 2088.49 45.00
10403 64.5120 2008.00 2087.10 45.00
10404 64.5180 2031.00 2086.15 45.00
10405 64.5240 2027.00 2085.59 45.00
10406 64.5300 2076.00 2085.47 46.00
10407 64.5360 2054.00 2085.74 45.00
10408 64.5420 1941.00 2086.38 44.00
10409 64.5480 1933.00 2087.38 44.00
10410 64.5540 1931.00 2088.68 44.00
10411 64.5600 1964.00 2090.22 44.00
10412 64.5660 2002.00 2092.02 45.00
10413 64.5720 2054.00 2094.00 45.00
10414 64.5780 2011.00 2096.16 45.00
10415 64.5840 1987.00 2098.44 45.00
10416 64.5900 2062.00 2100.82 45.00
10417 64.5960 2033.00 2103.29 45.00
10418 64.6020 2019.00 2105.82 45.00
10419 64.6080 2024.00 2108.37 45.00
10420 64.6140 2079.00 2110.91 46.00
10421 64.6200 2133.00 2113.37 46.00
10422 64.6260 2090.00 2115.68 46.00
10423 64.6320 2110.00 2117.71 46.00
10424 64.6380 2092.00 2119.34 46.00
10425 64.6440 2073.00 2120.56 46.00
10426 64.6500 2031.00 2121.30 45.00
10427 64.6560 2013.00 2121.51 45.00
10428 64.6620 1988.00 2121.22 45.00
10429 64.6680 2022.00 2120.47 45.00
10430 64.6740 2054.00 2119.31 45.00
10431 64.6800 2057.00 2117.81 45.00
10432 64.6860 2076.00 2116.03 46.00
10433 64.6920 2061.00 2114.07 45.00
10434 64.6980 2126.00 2112.03 46.00
10435 64.7040 2161.00 2109.94 46.00
10436 64.7100 2052.00 2107.98 45.00
10437 64.7160 2048.00 2106.22 45.00
10438 64.7220 2116.00 2104.73 46.00
10439 64.7280 2118.00 2103.55 46.00
10440 64.7340 2087.00 2102.69 46.00
10441 64.7400 2070.00 2102.18 45.00
10442 64.7460 2047.00 2101.95 45.00
10443 64.7520 2034.00 2101.96 45.00
10444 64.7580 2007.00 2102.13 45.00
10445 64.7640 2074.00 2102.36 46.00
10446 64.7700 2087.00 2102.56 46.00
10447 64.7760 2084.00 2102.65 46.00
10448 64.7820 2110.00 2102.54 46.00
10449 64.7880 2091.00 2102.22 46.00
10450 64.7940 2104.00 2101.68 46.00
10451 64.8000 2091.00 2100.93 46.00
10452 64.8060 2118.00 2100.03 46.00
10453 64.8120 2136.00 2099.06 46.00
10454 64.8180 2112.00 2098.08 46.00
10455 64.8240 2157.00 2097.17 46.00
10456 64.8300 2157.00 2096.43 46.00
10457 64.8360 2165.00 2095.86 47.00
10458 64.8420 2136.00 2095.56 46.00
10459 64.8480 2086.00 2095.56 46.00
10460 64.8540 2099.00 2095.90 46.00
10461 64.8600 2082.00 2096.58 46.00
10462 64.8660 2133.00 2097.63 46.00
10463 64.8720 2136.00 2098.95 46.00
10464 64.8780 2054.00 2100.55 45.00
10465 64.8840 2064.00 2102.36 45.00
10466 64.8900 2079.00 2104.31 46.00
10467 64.8960 2046.00 2106.43 45.00
10468 64.9020 2082.00 2108.57 46.00
10469 64.9080 2139.00 2110.73 46.00
10470 64.9140 2142.00 2112.87 46.00
10471 64.9200 2085.00 2114.94 46.00
10472 64.9260 2144.00 2116.88 46.00
10473 64.9320 2141.00 2118.64 46.00
10474 64.9380 2097.00 2120.13 46.00
10475 64.9440 2120.00 2121.28 46.00
10476 64.9500 2156.00 2122.08 46.00
10477 64.9560 2133.00 2122.48 46.00
10478 64.9620 2099.00 2122.49 46.00
10479 64.9680 2134.00 2122.11 46.00
10480 64.9740 2062.00 2121.29 45.00
10481 64.9800 2028.00 2120.02 45.00
10482 64.9860 2087.00 2118.35 46.00
10483 64.9920 2110.00 2116.32 46.00
10484 64.9980 2139.00 2113.95 46.00
10485 65.0040 2144.00 2111.37 46.00
10486 65.0100 2140.00 2108.73 46.00
10487 65.0160 2139.00 2106.16 46.00
10488 65.0220 2075.00 2103.80 46.00
10489 65.0280 2160.00 2101.76 46.00
10490 65.0340 2135.00 2100.12 46.00
10491 65.0400 2060.00 2098.97 45.00
10492 65.0460 2062.00 2098.31 45.00
10493 65.0520 2083.00 2098.15 46.00
10494 65.0580 2078.00 2098.48 46.00
10495 65.0640 2103.00 2099.24 46.00
10496 65.0700 2066.00 2100.37 45.00
10497 65.0760 2142.00 2101.74 46.00
10498 65.0820 2051.00 2103.32 45.00
10499 65.0880 2066.00 2104.96 45.00
10500 65.0940 2083.00 2106.56 46.00
10501 65.1000 2032.00 2108.08 45.00
10502 65.1060 2038.00 2109.48 45.00
10503 65.1120 2028.00 2110.76 45.00
10504 65.1180 2113.00 2112.00 46.00
10505 65.1240 2142.00 2113.25 46.00
10506 65.1300 2124.00 2114.67 46.00
10507 65.1360 2122.00 2116.36 46.00
10508 65.1420 2125.00 2118.37 46.00
10509 65.1480 2163.00 2120.77 47.00
10510 65.1540 2219.00 2123.60 47.00
10511 65.1600 2225.00 2126.88 47.00
10512 65.1660 2199.00 2130.58 47.00
10513 65.1720 2187.00 2134.67 47.00
10514 65.1780 2212.00 2139.12 47.00
10515 65.1840 2228.00 2143.81 47.00
10516 65.1900 2266.00 2148.63 48.00
10517 65.1960 2219.00 2153.47 47.00
10518 65.2020 2202.00 2158.20 47.00
10519 65.2080 2239.00 2162.68 47.00
10520 65.2140 2258.00 2166.80 48.00
10521 65.2200 2238.00 2170.50 47.00
10522 65.2260 2229.00 2173.70 47.00
10523 65.2320 2250.00 2176.47 47.00
10524 65.2380 2263.00 2178.77 48.00
10525 65.2440 2247.00 2180.65 47.00
10526 65.2500 2205.00 2182.08 47.00
10527 65.2560 2165.00 2183.10 47.00
10528 65.2620 2215.00 2183.73 47.00
10529 65.2680 2220.00 2183.99 47.00
10530 65.2740 2189.00 2183.87 47.00
10531 65.2800 2213.00 2183.34 47.00
10532 65.2860 2192.00 2182.33 47.00
10533 65.2920 2170.00 2180.78 47.00
10534 65.2980 2153.00 2178.62 46.00
10535 65.3040 2164.00 2175.79 47.00
10536 65.3100 2182.00 2172.29 47.00
10537 65.3160 2195.00 2168.16 47.00
10538 65.3220 2214.00 2163.39 47.00
10539 65.3280 2172.00 2158.16 47.00
10540 65.3340 2145.00 2152.51 46.00
10541 65.3400 2161.00 2146.52 46.00
10542 65.3460 2128.00 2140.29 46.00
10543 65.3520 2099.00 2133.96 46.00
10544 65.3580 2105.00 2127.65 46.00
10545 65.3640 2077.00 2121.52 46.00
10546 65.3700 2080.00 2115.71 46.00
10547 65.3760 2026.00 2110.33 45.00
10548 65.3820 2045.00 2105.45 45.00
10549 65.3880 2044.00 2101.17 45.00
10550 65.3940 2091.00 2097.50 46.00
10551 65.4000 2067.00 2094.42 45.00
10552 65.4060 2018.00 2091.94 45.00
10553 65.4120 2004.00 2089.99 45.00
10554 65.4180 2022.00 2088.53 45.00
10555 65.4240 2018.00 2087.47 45.00
10556 65.4300 2027.00 2086.74 45.00
10557 65.4360 2080.00 2086.27 46.00
10558 65.4420 2028.00 2085.99 45.00
10559 65.4480 2051.00 2085.83 45.00
10560 65.4540 2061.00 2085.74 45.00
10561 65.4600 2069.00 2085.67 45.00
10562 65.4660 2073.00 2085.62 46.00
10563 65.4720 2038.00 2085.58 45.00
10564 65.4780 1993.00 2085.56 45.00
10565 65.4840 1960.00 2085.58 44.00
10566 65.4900 1997.00 2085.68 45.00
10567 65.4960 2038.00 2085.86 45.00
10568 65.5020 2025.00 2086.12 45.00
10569 65.5080 2029.00 2086.43 45.00
10570 65.5140 2041.00 2086.79 45.00
10571 65.5200 2078.00 2087.13 46.00
10572 65.5260 2084.00 2087.42 46.00
10573 65.5320 2042.00 2087.62 45.00
10574 65.5380 2048.00 2087.69 45.00
10575 65.5440 1986.00 2087.61 45.00
10576 65.5500 2036.00 2087.40 45.00
10577 65.5560 2043.00 2087.03 45.00
10578 65.5620 2052.00 2086.62 45.00
10579 65.5680 2040.00 2086.19 45.00
10580 65.5740 2062.00 2085.78 45.00
10581 65.5800 1965.00 2085.43 44.00
10582 65.5860 1953.00 2085.15 44.00
10583 65.5920 2101.00 2084.97 46.00
10584 65.5980 2084.00 2084.81 46.00
10585 65.6040 2061.00 2084.68 45.00
10586 65.6100 2069.00 2084.54 45.00
10587 65.6160 2090.00 2084.33 46.00
10588 65.6220 2115.00 2083.99 46.00
10589 65.6280 2110.00 2083.51 46.00
10590 65.6340 2099.00 2082.87 46.00
10591 65.6400 2038.00 2082.08 45.00
10592 65.6460 2071.00 2081.20 46.00
10593 65.6520 2075.00 2080.28 46.00
10594 65.6580 2037.00 2079.42 45.00
10595 65.6640 1958.00 2078.68 44.00
10596 65.6700 2077.00 2078.19 46.00
10597 65.6760 2067.00 2078.02 45.00
10598 65.6820 2060.00 2078.22 45.00
10599 65.6880 2063.00 2078.91 45.00
10600 65.6940 2076.00 2080.11 46.00
10601 65.7000 2057.00 2081.87 45.00
10602 65.7060 2063.00 2084.19 45.00
10603 65.7120 2115.00 2087.11 46.00
10604 65.7180 2149.00 2090.64 46.00
10605 65.7240 2144.00 2094.70 46.00
10606 65.7300 2131.00 2099.30 46.00
10607 65.7360 2153.00 2104.39 46.00
10608 65.7420 2175.00 2109.91 47.00
10609 65.7480 2165.00 2115.80 47.00
10610 65.7540 2182.00 2121.97 47.00
10611 65.7600 2220.00 2128.35 47.00
10612 65.7660 2301.00 2134.84 48.00
10613 65.7720 2263.00 2141.35 48.00
10614 65.7780 2323.00 2147.74 48.00
10615 65.7840 2246.00 2153.88 47.00
10616 65.7900 2281.00 2159.65 48.00
10617 65.7960 2216.00 2164.90 47.00
10618 65.8020 2246.00 2169.52 47.00
10619 65.8080 2325.00 2173.47 48.00
10620 65.8140 2357.00 2176.62 49.00
10621 65.8200 2202.00 2178.96 47.00
10622 65.8260 2213.00 2180.50 47.00
10623 65.8320 2256.00 2181.28 47.00
10624 65.8380 2283.00 2181.36 48.00
10625 65.8440 2257.00 2180.73 48.00
10626 65.8500 2342.00 2179.41 48.00
10627 65.8560 2267.00 2177.48 48.00
10628 65.8620 2262.00 2174.94 48.00
10629 65.8680 2255.00 2171.81 47.00
10630 65.8740 2239.00 2168.11 47.00
10631 65.8800 2181.00 2163.92 47.00
10632 65.8860 2186.00 2159.31 47.00
10633 65.8920 2183.00 2154.31 47.00
10634 65.8980 2125.00 2148.99 46.00
10635 65.9040 2109.00 2143.43 46.00
10636 65.9100 2089.00 2137.73 46.00
10637 65.9160 2070.00 2131.96 45.00
10638 65.9220 2028.00 2126.20 45.00
10639 65.9280 2105.00 2120.56 46.00
10640 65.9340 2074.00 2115.11 46.00
10641 65.9400 2043.00 2109.93 45.00
10642 65.9460 2058.00 2105.11 45.00
10643 65.9520 2146.00 2100.67 46.00
10644 65.9580 2093.00 2096.66 46.00
10645 65.9640 2163.00 2093.09 47.00
10646 65.9700 2132.00 2089.94 46.00
10647 65.9760 2070.00 2087.22 45.00
10648 65.9820 2011.00 2084.90 45.00
10649 65.9880 1980.00 2082.95 44.00
10650 65.9940 1946.00 2081.33 44.00
10651 66.0000 2057.00 2080.00 45.00
10652 66.0060 2079.00 2078.90 46.00
10653 66.0120 2090.00 2077.99 46.00
10654 66.0180 2146.00 2077.31 46.00
10655 66.0240 1963.00 2076.82 44.00
10656 66.0300 2052.00 2076.51 45.00
10657 66.0360 2073.00 2076.39 46.00
10658 66.0420 2084.00 2076.46 46.00
10659 66.0480 2134.00 2076.69 46.00
10660 66.0540 2129.00 2077.05 46.00
10661 66.0600 2081.00 2077.50 46.00
10662 66.0660 2034.00 2078.06 45.00
10663 66.0720 2036.00 2078.62 45.00
10664 66.0780 2097.00 2079.16 46.00
10665 66.0840 2114.00 2079.68 46.00
10666 66.0900 2152.00 2080.13 46.00
10667 66.0960 2090.00 2080.47 46.00
10668 66.1020 2108.00 2080.68 46.00
10669 66.1080 2033.00 2080.75 45.00
10670 66.1140 2062.00 2080.63 45.00
10671 66.1200 2042.00 2080.38 45.00
10672 66.1260 2144.00 2080.00 46.00
10673 66.1320 2077.00 2079.47 46.00
10674 66.1380 1989.00 2078.83 45.00
10675 66.1440 2056.00 2078.05 45.00
10676 66.1500 2091.00 2077.15 46.00
10677 66.1560 2024.00 2076.06 45.00
10678 66.1620 2112.00 2074.78 46.00
10679 66.1680 2090.00 2073.24 46.00
10680 66.1740 1987.00 2071.54 45.00
10681 66.1800 2004.00 2069.64 45.00
10682 66.1860 2126.00 2067.55 46.00
10683 66.1920 2106.00 2065.32 46.00
10684 66.1980 2120.00 2063.01 46.00
10685 66.2040 1991.00 2060.67 45.00
10686 66.2100 2002.00 2058.32 45.00
10687 66.2160 2024.00 2055.95 45.00
10688 66.2220 2038.00 2053.74 45.00
10689 66.2280 2033.00 2051.67 45.00
10690 66.2340 1991.00 2049.72 45.00
10691 66.2400 1959.00 2047.93 44.00
10692 66.2460 2040.00 2046.29 45.00
10693 66.2520 1952.00 2044.85 44.00
10694 66.2580 2049.00 2043.50 45.00
10695 66.2640 2057.00 2042.35 45.00
10696 66.2700 1954.00 2041.36 44.00
10697 66.2760 1973.00 2040.53 44.00
10698 66.2820 2007.00 2039.86 45.00
10699 66.2880 2034.00 2039.34 45.00
10700 66.2940 2046.00 2038.96 45.00
10701 66.3000 1963.00 2038.72 44.00
10702 66.3060 1994.00 2038.58 45.00
10703 66.3120 2030.00 2038.57 45.00
10704 66.3180 2058.00 2038.58 45.00
10705 66.3240 2005.00 2038.63 45.00
10706 66.3300 2031.00 2038.69 45.00
10707 66.3360 1949.00 2038.71 44.00
10708 66.3420 1948.00 2038.68 44.00
10709 66.3480 1988.00 2038.57 45.00
10710 66.3540 1935.00 2038.40 44.00
10711 66.3600 1925.00 2038.14 44.00
10712 66.3660 1905.00 2037.84 44.00
10713 66.3720 1960.00 2037.50 44.00
10714 66.3780 1945.00 2037.13 44.00
10715 66.3840 1991.00 2036.80 45.00
10716 66.3900 1909.00 2036.53 44.00
10717 66.3960 1876.00 2036.33 43.00
10718 66.4020 1955.00 2036.24 44.00
10719 66.4080 1951.00 2036.29 44.00
10720 66.4140 1962.00 2036.50 44.00
10721 66.4200 1982.00 2036.90 45.00
10722 66.4260 1999.00 2037.51 45.00
10723 66.4320 2022.00 2038.36 45.00
10724 66.4380 1986.00 2039.45 45.00
10725 66.4440 2002.00 2040.80 45.00
10726 66.4500 1962.00 2042.40 44.00
10727 66.4560 2009.00 2044.23 45.00
10728 66.4620 1960.00 2046.23 44.00
10729 66.4680 2014.00 2048.44 45.00
10730 66.4740 2106.00 2050.76 46.00
10731 66.4800 2045.00 2053.15 45.00
10732 66.4860 1999.00 2055.54 45.00
10733 66.4920 1972.00 2057.86 44.00
10734 66.4980 2005.00 2060.04 45.00
10735 66.5040 2082.00 2062.02 46.00
10736 66.5100 2085.00 2063.73 46.00
10737 66.5160 2060.00 2065.11 45.00
10738 66.5220 2066.00 2066.12 45.00
10739 66.5280 1991.00 2066.73 45.00
10740 66.5340 2110.00 2066.95 46.00
10741 66.5400 2119.00 2066.79 46.00
10742 66.5460 2093.00 2066.34 46.00
10743 66.5520 2043.00 2065.65 45.00
10744 66.5580 1993.00 2064.81 45.00
10745 66.5640 2060.00 2063.92 45.00
10746 66.5700 2116.00 2063.05 46.00
10747 66.5760 2026.00 2062.26 45.00
10748 66.5820 2025.00 2061.62 45.00
10749 66.5880 2076.00 2061.14 46.00
10750 66.5940 2035.00 2060.85 45.00
10751 66.6000 2114.00 2060.75 46.00
10752 66.6060 2060.00 2060.84 45.00
10753 66.6120 2093.00 2061.10 46.00
10754 66.6180 2086.00 2061.50 46.00
10755 66.6240 2131.00 2061.99 46.00
10756 66.6300 2118.00 2062.52 46.00
10757 66.6360 2062.00 2063.02 45.00
10758 66.6420 1985.00 2063.45 45.00
10759 66.6480 2135.00 2063.76 46.00
10760 66.6540 2194.00 2063.92 47.00
10761 66.6600 2117.00 2063.94 46.00
10762 66.6660 2155.00 2063.81 46.00
10763 66.6720 2109.00 2063.58 46.00
10764 66.6780 2052.00 2063.30 45.00
10765 66.6840 2054.00 2063.04 45.00
10766 66.6900 2136.00 2062.85 46.00
10767 66.6960 2126.00 2062.77 46.00
10768 66.7020 2103.00 2062.84 46.00
10769 66.7080 2076.00 2063.07 46.00
10770 66.7140 2028.00 2063.44 45.00
10771 66.7200 2062.00 2064.00 45.00
10772 66.7260 2045.00 2064.67 45.00
10773 66.7320 2093.00 2065.42 46.00
10774 66.7380 2083.00 2066.18 46.00
10775 66.7440 2050.00 2066.91 45.00
10776 66.7500 2069.00 2067.57 45.00
10777 66.7560 2076.00 2068.13 46.00
10778 66.7620 2040.00 2068.54 45.00
10779 66.7680 2116.00 2068.79 46.00
10780 66.7740 2053.00 2068.84 45.00
10781 66.7800 2007.00 2068.72 45.00
10782 66.7860 2005.00 2068.40 45.00
10783 66.7920 1970.00 2067.94 44.00
10784 66.7980 2013.00 2067.34 45.00
10785 66.8040 2052.00 2066.62 45.00
10786 66.8100 2064.00 2065.81 45.00
10787 66.8160 2028.00 2064.88 45.00
10788 66.8220 2055.00 2063.92 45.00
10789 66.8280 2022.00 2062.90 45.00
10790 66.8340 2000.00 2061.85 45.00
10791 66.8400 2077.00 2060.74 46.00
10792 66.8460 2093.00 2059.62 46.00
10793 66.8520 1996.00 2058.50 45.00
10794 66.8580 2026.00 2057.34 45.00
10795 66.8640 2072.00 2056.18 46.00
10796 66.8700 2031.00 2054.97 45.00
10797 66.8760 2084.00 2053.75 46.00
10798 66.8820 2104.00 2052.53 46.00
10799 66.8880 2065.00 2051.35 45.00
10800 66.8940 2036.00 2050.29 45.00
10801 66.9000 2035.00 2049.37 45.00
10802 66.9060 2060.00 2048.69 45.00
10803 66.9120 2136.00 2048.32 46.00
10804 66.9180 2085.00 2048.32 46.00
10805 66.9240 2034.00 2048.75 45.00
10806 66.9300 2030.00 2049.69 45.00
10807 66.9360 2076.00 2051.15 46.00
10808 66.9420 2057.00 2053.19 45.00
10809 66.9480 2083.00 2055.83 46.00
10810 66.9540 2049.00 2059.08 45.00
10811 66.9600 1990.00 2062.93 45.00
10812 66.9660 2028.00 2067.35 45.00
10813 66.9720 2060.00 2072.29 45.00
10814 66.9780 2076.00 2077.71 46.00
10815 66.9840 2082.00 2083.53 46.00
10816 66.9900 2038.00 2089.65 45.00
10817 66.9960 2044.00 2096.02 45.00
10818 67.0020 2032.00 2102.52 45.00
10819 67.0080 2076.00 2109.04 46.00
10820 67.0140 2133.00 2115.51 46.00
10821 67.0200 2118.00 2121.85 46.00
10822 67.0260 2087.00 2128.02 46.00
10823 67.0320 2169.00 2133.87 47.00
10824 67.0380 2161.00 2139.38 46.00
10825 67.0440 2139.00 2144.37 46.00
10826 67.0500 2135.00 2148.73 46.00
10827 67.0560 2211.00 2152.30 47.00
10828 67.0620 2261.00 2154.94 48.00
10829 67.0680 2242.00 2156.56 47.00
10830 67.0740 2226.00 2157.08 47.00
10831 67.0800 2176.00 2156.51 47.00
10832 67.0860 2183.00 2154.93 47.00
10833 67.0920 2180.00 2152.42 47.00
10834 67.0980 2173.00 2149.17 47.00
10835 67.1040 2180.00 2145.34 47.00
10836 67.1100 2161.00 2141.17 46.00
10837 67.1160 2181.00 2136.83 47.00
10838 67.1220 2162.00 2132.44 46.00
10839 67.1280 2134.00 2128.16 46.00
10840 67.1340 2163.00 2124.03 47.00
10841 67.1400 2175.00 2120.13 47.00
10842 67.1460 2166.00 2116.48 47.00
10843 67.1520 2175.00 2113.13 47.00
10844 67.1580 2177.00 2110.11 47.00
10845 67.1640 2186.00 2107.41 47.00
10846 67.1700 2141.00 2105.05 46.00
10847 67.1760 2140.00 2102.99 46.00
10848 67.1820 2189.00 2101.19 47.00
10849 67.1880 2149.00 2099.58 46.00
10850 67.1940 2112.00 2098.08 46.00
10851 67.2000 2130.00 2096.60 46.00
10852 67.2060 2149.00 2095.07 46.00
10853 67.2120 2146.00 2093.44 46.00
10854 67.2180 2141.00 2091.69 46.00
10855 67.2240 2057.00 2089.79 45.00
10856 67.2300 2045.00 2087.73 45.00
10857 67.2360 2091.00 2085.50 46.00
10858 67.2420 2101.00 2083.07 46.00
10859 67.2480 2084.00 2080.42 46.00
10860 67.2540 2095.00 2077.54 46.00
10861 67.2600 2088.00 2074.39 46.00
10862 67.2660 2105.00 2071.04 46.00
10863 67.2720 2154.00 2067.48 46.00
10864 67.2780 2078.00 2063.80 46.00
10865 67.2840 2050.00 2060.07 45.00
10866 67.2900 2060.00 2056.35 45.00
10867 67.2960 2060.00 2052.71 45.00
10868 67.3020 2047.00 2049.20 45.00
10869 67.3080 2054.00 2045.89 45.00
10870 67.3140 2000.00 2042.80 45.00
10871 67.3200 1982.00 2039.97 45.00
10872 67.3260 1997.00 2037.40 45.00
10873 67.3320 2007.00 2035.10 45.00
10874 67.3380 2068.00 2033.08 45.00
10875 67.3440 1982.00 2031.33 45.00
10876 67.3500 1925.00 2029.84 44.00
10877 67.3560 2007.00 2028.58 45.00
10878 67.3620 2002.00 2027.54 45.00
10879 67.3680 1958.00 2026.68 44.00
10880 67.3740 1938.00 2025.97 44.00
10881 67.3800 1975.00 2025.37 44.00
10882 67.3860 2008.00 2024.84 45.00
10883 67.3920 2013.00 2024.34 45.00
10884 67.3980 2026.00 2023.86 45.00
10885 67.4040 2008.00 2023.38 45.00
10886 67.4100 1989.00 2022.91 45.00
10887 67.4160 1993.00 2022.46 45.00
10888 67.4220 2007.00 2022.04 45.00
10889 67.4280 2001.00 2021.65 45.00
10890 67.4340 1996.00 2021.32 45.00
10891 67.4400 1958.00 2021.05 44.00
10892 67.4460 1924.00 2020.88 44.00
10893 67.4520 1982.00 2020.77 45.00
10894 67.4580 1983.00 2020.72 45.00
10895 67.4640 1990.00 2020.73 45.00
10896 67.4700 1979.00 2020.82 44.00
10897 67.4760 1968.00 2020.96 44.00
10898 67.4820 2041.00 2021.16 45.00
10899 67.4880 2049.00 2021.40 45.00
10900 67.4940 1994.00 2021.70 45.00
10901 67.5000 2027.00 2022.08 45.00
10902 67.5060 2050.00 2022.53 45.00
10903 67.5120 1988.00 2023.07 45.00
10904 67.5180 1998.00 2023.71 45.00
10905 67.5240 1967.00 2024.43 44.00
10906 67.5300 1940.00 2025.26 44.00
10907 67.5360 1971.00 2026.21 44.00
10908 67.5420 1997.00 2027.29 45.00
10909 67.5480 1993.00 2028.51 45.00
10910 67.5540 2012.00 2029.87 45.00
10911 67.5600 2032.00 2031.37 45.00
10912 67.5660 2002.00 2033.01 45.00
10913 67.5720 1990.00 2034.76 45.00
10914 67.5780 2012.00 2036.59 45.00
10915 67.5840 2031.00 2038.44 45.00
10916 67.5900 2047.00 2040.23 45.00
10917 67.5960 2068.00 2041.95 45.00
10918 67.6020 2053.00 2043.48 45.00
10919 67.6080 1980.00 2044.77 44.00
10920 67.6140 1940.00 2045.75 44.00
10921 67.6200 2016.00 2046.41 45.00
10922 67.6260 2070.00 2046.71 45.00
10923 67.6320 2015.00 2046.68 45.00
10924 67.6380 1948.00 2046.36 44.00
10925 67.6440 1985.00 2045.78 45.00
10926 67.6500 1994.00 2044.99 45.00
10927 67.6560 2033.00 2044.04 45.00
10928 67.6620 2007.00 2042.95 45.00
10929 67.6680 1996.00 2041.75 45.00
10930 67.6740 2013.00 2040.42 45.00
10931 67.6800 2067.00 2038.99 45.00
10932 67.6860 2061.00 2037.40 45.00
10933 67.6920 2002.00 2035.71 45.00
10934 67.6980 1992.00 2033.92 45.00
10935 67.7040 2023.00 2032.03 45.00
10936 67.7100 1990.00 2030.11 45.00
10937 67.7160 2021.00 2028.20 45.00
10938 67.7220 2040.00 2026.38 45.00
10939 67.7280 2015.00 2024.72 45.00
10940 67.7340 2009.00 2023.22 45.00
10941 67.7400 2007.00 2021.97 45.00
10942 67.7460 2003.00 2020.92 45.00
10943 67.7520 1924.00 2020.14 44.00
10944 67.7580 1949.00 2019.61 44.00
10945 67.7640 2004.00 2019.33 45.00
10946 67.7700 1996.00 2019.27 45.00
10947 67.7760 1994.00 2019.43 45.00
10948 67.7820 1993.00 2019.76 45.00
10949 67.7880 2034.00 2020.25 45.00
10950 67.7940 2107.00 2020.80 46.00
10951 67.8000 2066.00 2021.39 45.00
10952 67.8060 2032.00 2021.98 45.00
10953 67.8120 2003.00 2022.51 45.00
10954 67.8180 1972.00 2022.98 44.00
10955 67.8240 1960.00 2023.38 44.00
10956 67.8300 2031.00 2023.68 45.00
10957 67.8360 1971.00 2023.91 44.00
10958 67.8420 1937.00 2024.09 44.00
10959 67.8480 1966.00 2024.28 44.00
10960 67.8540 1992.00 2024.51 45.00
10961 67.8600 2034.00 2024.85 45.00
10962 67.8660 2079.00 2025.35 46.00
10963 67.8720 2043.00 2026.07 45.00
10964 67.8780 2052.00 2027.05 45.00
10965 67.8840 2039.00 2028.34 45.00
10966 67.8900 2022.00 2029.95 45.00
10967 67.8960 2014.00 2031.91 45.00
10968 67.9020 2051.00 2034.19 45.00
10969 67.9080 2101.00 2036.77 46.00
10970 67.9140 2135.00 2039.63 46.00
10971 67.9200 2060.00 2042.66 45.00
10972 67.9260 2022.00 2045.81 45.00
10973 67.9320 2062.00 2048.97 45.00
10974 67.9380 2044.00 2052.08 45.00
10975 67.9440 2054.00 2055.02 45.00
10976 67.9500 2078.00 2057.71 46.00
10977 67.9560 2109.00 2060.05 46.00
10978 67.9620 2060.00 2062.10 45.00
10979 67.9680 2030.00 2063.83 45.00
10980 67.9740 2062.00 2065.29 45.00
10981 67.9800 2135.00 2066.54 46.00
10982 67.9860 2106.00 2067.66 46.00
10983 67.9920 2074.00 2068.71 46.00
10984 67.9980 2129.00 2069.74 46.00
10985 68.0040 2129.00 2070.77 46.00
10986 68.0100 2146.00 2071.79 46.00
10987 68.0160 2159.00 2072.75 46.00
10988 68.0220 2164.00 2073.63 47.00
10989 68.0280 2166.00 2074.31 47.00
10990 68.0340 2181.00 2074.75 47.00
10991 68.0400 2190.00 2074.83 47.00
10992 68.0460 2156.00 2074.53 46.00
10993 68.0520 2152.00 2073.80 46.00
10994 68.0580 2110.00 2072.63 46.00
10995 68.0640 2169.00 2071.03 47.00
10996 68.0700 2112.00 2069.04 46.00
10997 68.0760 2054.00 2066.69 45.00
10998 68.0820 2126.00 2064.01 46.00
10999 68.0880 2051.00 2061.03 45.00
11000 68.0940 2070.00 2057.78 45.00
11001 68.1000 2084.00 2054.34 46.00
11002 68.1060 2077.00 2050.72 46.00
11003 68.1120 2012.00 2046.97 45.00
11004 68.1180 2035.00 2043.12 45.00
11005 68.1240 2040.00 2039.22 45.00
11006 68.1300 2006.00 2035.35 45.00
11007 68.1360 2022.00 2031.54 45.00
11008 68.1420 2015.00 2027.91 45.00
11009 68.1480 1990.00 2024.43 45.00
11010 68.1540 1910.00 2021.24 44.00
11011 68.1600 2002.00 2018.34 45.00
11012 68.1660 1996.00 2015.76 45.00
11013 68.1720 1972.00 2013.52 44.00
11014 68.1780 1956.00 2011.63 44.00
11015 68.1840 1974.00 2010.10 44.00
11016 68.1900 1931.00 2008.89 44.00
11017 68.1960 1990.00 2008.00 45.00
11018 68.2020 2000.00 2007.41 45.00
11019 68.2080 1977.00 2007.06 44.00
11020 68.2140 1968.00 2006.98 44.00
11021 68.2200 1916.00 2007.10 44.00
11022 68.2260 1995.00 2007.38 45.00
11023 68.2320 2013.00 2007.80 45.00
11024 68.2380 2028.00 2008.33 45.00
11025 68.2440 1953.00 2008.91 44.00
11026 68.2500 1920.00 2009.53 44.00
11027 68.2560 1942.00 2010.18 44.00
11028 68.2620 1974.00 2010.82 44.00
11029 68.2680 1966.00 2011.46 44.00
11030 68.2740 1990.00 2012.10 45.00
11031 68.2800 1985.00 2012.70 45.00
11032 68.2860 1991.00 2013.29 45.00
11033 68.2920 2036.00 2013.88 45.00
11034 68.2980 2030.00 2014.47 45.00
11035 68.3040 1988.00 2015.07 45.00
11036 68.3100 1986.00 2015.69 45.00
11037 68.3160 1990.00 2016.32 45.00
11038 68.3220 2048.00 2016.97 45.00
11039 68.3280 1975.00 2017.62 44.00
11040 68.3340 1974.00 2018.27 44.00
11041 68.3400 1973.00 2018.88 44.00
11042 68.3460 2041.00 2019.47 45.00
11043 68.3520 2120.00 2020.01 46.00
11044 68.3580 2040.00 2020.52 45.00
11045 68.3640 1984.00 2020.99 45.00
11046 68.3700 2022.00 2021.46 45.00
11047 68.3760 2016.00 2021.92 45.00
11048 68.3820 2028.00 2022.40 45.00
11049 68.3880 2093.00 2022.89 46.00
11050 68.3940 2021.00 2023.41 45.00
11051 68.4000 2059.00 2023.95 45.00
11052 68.4060 2083.00 2024.51 46.00
11053 68.4120 2131.00 2025.08 46.00
11054 68.4180 2084.00 2025.66 46.00
11055 68.4240 2026.00 2026.24 45.00
11056 68.4300 2064.00 2026.83 45.00
11057 68.4360 2080.00 2027.44 46.00
11058 68.4420 2115.00 2028.05 46.00
11059 68.4480 2144.00 2028.65 46.00
11060 68.4540 2064.00 2029.23 45.00
11061 68.4600 2059.00 2029.77 45.00
11062 68.4660 2061.00 2030.23 45.00
11063 68.4720 2069.00 2030.61 45.00
11064 68.4780 2021.00 2030.88 45.00
11065 68.4840 2094.00 2031.04 46.00
11066 68.4900 2068.00 2031.10 45.00
11067 68.4960 2005.00 2031.10 45.00
11068 68.5020 2063.00 2031.09 45.00
11069 68.5080 2069.00 2031.10 45.00
11070 68.5140 2039.00 2031.17 45.00
11071 68.5200 2094.00 2031.34 46.00
11072 68.5260 2142.00 2031.63 46.00
11073 68.5320 2050.00 2032.06 45.00
11074 68.5380 2058.00 2032.64 45.00
11075 68.5440 2037.00 2033.37 45.00
11076 68.5500 2063.00 2034.25 45.00
11077 68.5560 2126.00 2035.27 46.00
11078 68.5620 2123.00 2036.42 46.00
11079 68.5680 2086.00 2037.60 46.00
11080 68.5740 2103.00 2038.82 46.00
11081 68.5800 2064.00 2040.00 45.00
11082 68.5860 2036.00 2041.06 45.00
11083 68.5920 2018.00 2041.99 45.00
11084 68.5980 2055.00 2042.76 45.00
11085 68.6040 2154.00 2043.36 46.00
11086 68.6100 2082.00 2043.79 46.00
11087 68.6160 2112.00 2044.10 46.00
11088 68.6220 2028.00 2044.31 45.00
11089 68.6280 2121.00 2044.46 46.00
11090 68.6340 2102.00 2044.60 46.00
11091 68.6400 2067.00 2044.75 45.00
11092 68.6460 2074.00 2044.93 46.00
11093 68.6520 2048.00 2045.15 45.00
11094 68.6580 2065.00 2045.47 45.00
11095 68.6640 2097.00 2045.85 46.00
11096 68.6700 2100.00 2046.29 46.00
11097 68.6760 2129.00 2046.78 46.00
11098 68.6820 2047.00 2047.29 45.00
11099 68.6880 2063.00 2047.78 45.00
11100 68.6940 2017.00 2048.21 45.00
11101 68.7000 2091.00 2048.53 46.00
11102 68.7060 2066.00 2048.71 45.00
11103 68.7120 2015.00 2048.72 45.00
11104 68.7180 2091.00 2048.54 46.00
11105 68.7240 2118.00 2048.16 46.00
11106 68.7300 2076.00 2047.62 46.00
11107 68.7360 2119.00 2046.91 46.00
11108 68.7420 2085.00 2046.04 46.00
11109 68.7480 2034.00 2045.02 45.00
11110 68.7540 2078.00 2043.84 46.00
11111 68.7600 2099.00 2042.52 46.00
11112 68.7660 2055.00 2041.02 45.00
11113 68.7720 2005.00 2039.37 45.00
11114 68.7780 2014.00 2037.57 45.00
11115 68.7840 2009.00 2035.68 45.00
11116 68.7900 2031.00 2033.73 45.00
11117 68.7960 2007.00 2031.78 45.00
11118 68.8020 2030.00 2029.87 45.00
11119 68.8080 2077.00 2028.07 46.00
11120 68.8140 1970.00 2026.43 44.00
11121 68.8200 2007.00 2025.00 45.00
11122 68.8260 2028.00 2023.82 45.00
11123 68.8320 2043.00 2022.91 45.00
11124 68.8380 2067.00 2022.28 45.00
11125 68.8440 2060.00 2021.92 45.00
11126 68.8500 2013.00 2021.81 45.00
11127 68.8560 2036.00 2021.90 45.00
11128 68.8620 2025.00 2022.17 45.00
11129 68.8680 2004.00 2022.52 45.00
11130 68.8740 1960.00 2022.89 44.00
11131 68.8800 2049.00 2023.23 45.00
11132 68.8860 2056.00 2023.46 45.00
11133 68.8920 2014.00 2023.54 45.00
11134 68.8980 2085.00 2023.44 46.00
11135 68.9040 2001.00 2023.15 45.00
11136 68.9100 1960.00 2022.67 44.00
11137 68.9160 2019.00 2021.97 45.00
11138 68.9220 2034.00 2021.11 45.00
11139 68.9280 1982.00 2020.12 45.00
11140 68.9340 1948.00 2019.00 44.00
11141 68.9400 1976.00 2017.79 44.00
11142 68.9460 1998.00 2016.49 45.00
11143 68.9520 2044.00 2015.14 45.00
11144 68.9580 2022.00 2013.79 45.00
11145 68.9640 1954.00 2012.48 44.00
11146 68.9700 2054.00 2011.25 45.00
11147 68.9760 1938.00 2010.13 44.00
11148 68.9820 2005.00 2009.19 45.00
11149 68.9880 2052.00 2008.42 45.00
11150 68.9940 2083.00 2007.87 46.00
11151 69.0000 1984.00 2007.57 45.00
11152 69.0060 2064.00 2007.48 45.00
11153 69.0120 1963.00 2007.61 44.00
11154 69.0180 2002.00 2007.97 45.00
11155 69.0240 2045.00 2008.52 45.00
11156 69.0300 2004.00 2009.22 45.00
11157 69.0360 2071.00 2010.02 46.00
11158 69.0420 1966.00 2010.89 44.00
11159 69.0480 2041.00 2011.80 45.00
11160 69.0540 2116.00 2012.70 46.00
11161 69.0600 1956.00 2013.61 44.00
11162 69.0660 1988.00 2014.47 45.00
11163 69.0720 1989.00 2015.27 45.00
11164 69.0780 1975.00 2015.96 44.00
11165 69.0840 1940.00 2016.50 44.00
11166 69.0900 2013.00 2016.90 45.00
11167 69.0960 2007.00 2017.11 45.00
11168 69.1020 2005.00 2017.10 45.00
11169 69.1080 1991.00 2016.86 45.00
11170 69.1140 1975.00 2016.40 44.00
11171 69.1200 2016.00 2015.72 45.00
11172 69.1260 2005.00 2014.87 45.00
11173 69.1320 1989.00 2013.90 45.00
11174 69.1380 1967.00 2012.86 44.00
11175 69.1440 1951.00 2011.83 44.00
11176 69.1500 1971.00 2010.87 44.00
11177 69.1560 1961.00 2010.04 44.00
11178 69.1620 1869.00 2009.39 43.00
11179 69.1680 1962.00 2008.95 44.00
11180 69.1740 1988.00 2008.74 45.00
11181 69.1800 2007.00 2008.77 45.00
11182 69.1860 2030.00 2009.01 45.00
11183 69.1920 2040.00 2009.44 45.00
11184 69.1980 1983.00 2010.04 45.00
11185 69.2040 2046.00 2010.71 45.00
11186 69.2100 1981.00 2011.42 45.00
11187 69.2160 1977.00 2012.12 44.00
11188 69.2220 1924.00 2012.73 44.00
11189 69.2280 1931.00 2013.20 44.00
11190 69.2340 1967.00 2013.47 44.00
11191 69.2400 1985.00 2013.52 45.00
11192 69.2460 1948.00 2013.33 44.00
11193 69.2520 1952.00 2012.89 44.00
11194 69.2580 1925.00 2012.23 44.00
11195 69.2640 1947.00 2011.38 44.00
11196 69.2700 1959.00 2010.41 44.00
11197 69.2760 1984.00 2009.38 45.00
11198 69.2820 1961.00 2008.31 44.00
11199 69.2880 2014.00 2007.29 45.00
11200 69.2940 1906.00 2006.34 44.00
11201 69.3000 1986.00 2005.50 45.00
11202 69.3060 1964.00 2004.80 44.00
11203 69.3120 1910.00 2004.22 44.00
11204 69.3180 1900.00 2003.78 44.00
11205 69.3240 1924.00 2003.47 44.00
11206 69.3300 1870.00 2003.27 43.00
11207 69.3360 2005.00 2003.18 45.00
11208 69.3420 1999.00 2003.20 45.00
11209 69.3480 1913.00 2003.31 44.00
11210 69.3540 1969.00 2003.53 44.00
11211 69.3600 1969.00 2003.83 44.00
11212 69.3660 1977.00 2004.23 44.00
11213 69.3720 1951.00 2004.69 44.00
11214 69.3780 1931.00 2005.19 44.00
11215 69.3840 1956.00 2005.69 44.00
11216 69.3900 1953.00 2006.19 44.00
11217 69.3960 1955.00 2006.64 44.00
11218 69.4020 1920.00 2007.01 44.00
11219 69.4080 1942.00 2007.28 44.00
11220 69.4140 1953.00 2007.45 44.00
11221 69.4200 2001.00 2007.50 45.00
11222 69.4260 1982.00 2007.45 45.00
11223 69.4320 1932.00 2007.34 44.00
11224 69.4380 1952.00 2007.17 44.00
11225 69.4440 1887.00 2007.04 43.00
11226 69.4500 1907.00 2006.95 44.00
11227 69.4560 1921.00 2007.00 44.00
11228 69.4620 2054.00 2007.22 45.00
11229 69.4680 2020.00 2007.66 45.00
11230 69.4740 1927.00 2008.36 44.00
11231 69.4800 2010.00 2009.26 45.00
11232 69.4860 1979.00 2010.38 44.00
11233 69.4920 1950.00 2011.67 44.00
11234 69.4980 2006.00 2013.09 45.00
11235 69.5040 1899.00 2014.58 44.00
11236 69.5100 1947.00 2016.07 44.00
11237 69.5160 1885.00 2017.48 43.00
11238 69.5220 2056.00 2018.75 45.00
11239 69.5280 2053.00 2019.77 45.00
11240 69.5340 2041.00 2020.48 45.00
11241 69.5400 2036.00 2020.79 45.00
11242 69.5460 2059.00 2020.63 45.00
11243 69.5520 2010.00 2019.97 45.00
11244 69.5580 2015.00 2018.79 45.00
11245 69.5640 1955.00 2017.08 44.00
11246 69.5700 1947.00 2014.97 44.00
11247 69.5760 2017.00 2012.51 45.00
11248 69.5820 2047.00 2009.79 45.00
11249 69.5880 2007.00 2006.93 45.00
11250 69.5940 1921.00 2004.04 44.00
11251 69.6000 1915.00 2001.20 44.00
11252 69.6060 1994.00 1998.48 45.00
11253 69.6120 1926.00 1995.94 44.00
11254 69.6180 1903.00 1993.68 44.00
11255 69.6240 1954.00 1991.71 44.00
11256 69.6300 1955.00 1989.99 44.00
11257 69.6360 1928.00 1988.58 44.00
11258 69.6420 1936.00 1987.47 44.00
11259 69.6480 1890.00 1986.62 43.00
11260 69.6540 2017.00 1986.04 45.00
11261 69.6600 1940.00 1985.69 44.00
11262 69.6660 2005.00 1985.56 45.00
11263 69.6720 1986.00 1985.57 45.00
11264 69.6780 1940.00 1985.72 44.00
11265 69.6840 1955.00 1985.96 44.00
11266 69.6900 2024.00 1986.27 45.00
11267 69.6960 1951.00 1986.65 44.00
11268 69.7020 1952.00 1987.04 44.00
11269 69.7080 1958.00 1987.41 44.00
11270 69.7140 1914.00 1987.75 44.00
11271 69.7200 1932.00 1987.99 44.00
11272 69.7260 1956.00 1988.13 44.00
11273 69.7320 1914.00 1988.15 44.00
11274 69.7380 1941.00 1988.01 44.00
11275 69.7440 2001.00 1987.77 45.00
11276 69.7500 1939.00 1987.38 44.00
11277 69.7560 1894.00 1986.88 44.00
11278 69.7620 1933.00 1986.30 44.00
11279 69.7680 1906.00 1985.65 44.00
11280 69.7740 1930.00 1984.95 44.00
11281 69.7800 1901.00 1984.28 44.00
11282 69.7860 1929.00 1983.64 44.00
11283 69.7920 2002.00 1983.07 45.00
11284 69.7980 1960.00 1982.56 44.00
11285 69.8040 1965.00 1982.16 44.00
11286 69.8100 2032.00 1981.83 45.00
11287 69.8160 1987.00 1981.58 45.00
11288 69.8220 1923.00 1981.43 44.00
11289 69.8280 1873.00 1981.34 43.00
11290 69.8340 1962.00 1981.31 44.00
11291 69.8400 1935.00 1981.34 44.00
11292 69.8460 1988.00 1981.41 45.00
11293 69.8520 2005.00 1981.51 45.00
11294 69.8580 2010.00 1981.65 45.00
11295 69.8640 1933.00 1981.78 44.00
11296 69.8700 1995.00 1981.98 45.00
11297 69.8760 2018.00 1982.20 45.00
11298 69.8820 2005.00 1982.42 45.00
11299 69.8880 2025.00 1982.69 45.00
11300 69.8940 2008.00 1982.96 45.00
11301 69.9000 1971.00 1983.22 44.00
11302 69.9060 1997.00 1983.50 45.00
11303 69.9120 2021.00 1983.77 45.00
11304 69.9180 2029.00 1984.02 45.00
11305 69.9240 1970.00 1984.22 44.00
11306 69.9300 2004.00 1984.38 45.00
11307 69.9360 2009.00 1984.51 45.00
11308 69.9420 1952.00 1984.58 44.00
11309 69.9480 2030.00 1984.60 45.00
11310 69.9540 1950.00 1984.57 44.00
11311 69.9600 2012.00 1984.49 45.00
11312 69.9660 2002.00 1984.36 45.00
11313 69.9720 2041.00 1984.16 45.00
11314 69.9780 2017.00 1983.90 45.00
11315 69.9840 1954.00 1983.56 44.00
11316 69.9900 1951.00 1983.15 44.00
11317 69.9960 1913.00 1982.66 44.00
loop_
_pd_proc_info_excluded_regions
'from 70 to 80.000'
loop_
_jana_atom_site_adp_c_label
_jana_atom_site_adp_c_type_symbol
_jana_atom_site_adp_c_111
_jana_atom_site_adp_c_112
_jana_atom_site_adp_c_113
_jana_atom_site_adp_c_122
_jana_atom_site_adp_c_123
_jana_atom_site_adp_c_133
_jana_atom_site_adp_c_222
_jana_atom_site_adp_c_223
_jana_atom_site_adp_c_233
_jana_atom_site_adp_c_333
In1 In 0 0 0 0 0 0 0 0 0 0
loop_
_jana_atom_site_adp_d_label
_jana_atom_site_adp_d_type_symbol
_jana_atom_site_adp_d_1111
_jana_atom_site_adp_d_1112
_jana_atom_site_adp_d_1113
_jana_atom_site_adp_d_1122
_jana_atom_site_adp_d_1123
_jana_atom_site_adp_d_1133
_jana_atom_site_adp_d_1222
_jana_atom_site_adp_d_1223
_jana_atom_site_adp_d_1233
_jana_atom_site_adp_d_1333
_jana_atom_site_adp_d_2222
_jana_atom_site_adp_d_2223
_jana_atom_site_adp_d_2233
_jana_atom_site_adp_d_2333
_jana_atom_site_adp_d_3333
In1 In -6.56(12) 0 0 0 0 0 0 0 0 0 0 0 0 0 0
