#------------------------------------------------------------------------------
#$Date: 2019-11-07 23:03:24 +0200 (Thu, 07 Nov 2019) $
#$Revision: 223921 $
#$URL: file:///home/coder/svn-repositories/cod/cif/7/70/06/7700630.cif $
#------------------------------------------------------------------------------
#
# This file is available in the Crystallography Open Database (COD),
# http://www.crystallography.net/
#
# All data on this site have been placed in the public domain by the
# contributors.
#
data_7700630
loop_
_publ_author_name
'Ito, Hiroaki'
'Miura, Akira'
'Goto, Yosuke'
'Mizuguchi, Yoshikazu'
'Moriyoshi, Chikako'
'Kuroiwa, Yoshihiro'
'Azuma, Masaki'
'Liu, Jinjia'
'Wen, Xiao-Dong'
'Nishioka, Shunta'
'Maeda, Kazuhiko'
'Masubuchi, Yuji'
'Rosero-Navarro, Nataly Carolina'
'Tadanaga, Kiyoharu'
_publ_section_title
;
 An electronic structure governed by the displacement of the indium site
 in In-S<sub>6</sub> octahedra: LnOInS<sub>2</sub> (Ln = La, Ce, and Pr).
;
_journal_issue                   32
_journal_name_full
'Dalton transactions (Cambridge, England : 2003)'
_journal_page_first              12272
_journal_page_last               12278
_journal_paper_doi               10.1039/c9dt01562k
_journal_volume                  48
_journal_year                    2019
_chemical_formula_sum            'Ce In O S2'
_chemical_formula_weight         335.1
_space_group_IT_number           11
_space_group_name_Hall           '-P 2yb'
_space_group_name_H-M_alt        'P 1 21/m 1'
_symmetry_cell_setting           monoclinic
_symmetry_Int_Tables_number      11
_symmetry_space_group_name_Hall  '-P 2yb'
_symmetry_space_group_name_H-M   'P 1 21/m 1'
_audit_update_record
;
2019-01-16 deposited with the CCDC.    2019-07-24 downloaded from the CCDC.
;
_cell_angle_alpha                90
_cell_angle_beta                 90
_cell_angle_gamma                90
_cell_formula_units_Z            2
_cell_length_a                   3.99156(7)
_cell_length_b                   3.98626(8)
_cell_length_c                   12.70900(10)
_cell_measurement_temperature    450
_cell_volume                     202.218(6)
_diffrn_ambient_temperature      450
_diffrn_detector_type
'multiple MYTHEN system (Rev. Sci. Instrum. 88, 85111 (2017))'
_diffrn_measurement_device_type  SPring-8_BL02B2
_diffrn_radiation_probe          x-ray
_diffrn_radiation_type           synchrotron
_diffrn_radiation_wavelength     0.49527
_diffrn_source                   synchrotron
_exptl_absorpt_coefficient_mu    6.643
_exptl_crystal_density_diffrn    5.5028
_exptl_crystal_F_000             294
_pd_instr_location               ' ?'
_pd_meas_2theta_range_inc        0.006
_pd_meas_2theta_range_max        78.216
_pd_meas_2theta_range_min        2.100
_pd_meas_number_of_points        12687
_pd_proc_2theta_range_inc        0.006
_pd_proc_2theta_range_max        69.996
_pd_proc_2theta_range_min        2.1
_pd_proc_ls_background_function  'Manual background'
_pd_proc_ls_pref_orient_corr     none
_pd_proc_ls_profile_function     Pseudo-Voigt
_pd_proc_ls_prof_R_factor        0.0596
_pd_proc_ls_prof_wR_expected     0.0110
_pd_proc_ls_prof_wR_factor       0.0944
_refine_ls_goodness_of_fit_all   8.54
_refine_ls_number_constraints    0
_refine_ls_number_parameters     21
_refine_ls_number_restraints     0
_refine_ls_R_factor_all          0.0787
_refine_ls_R_factor_gt           0.0786
_refine_ls_shift/su_max          0.0207
_refine_ls_shift/su_mean         0.0063
_refine_ls_weighting_scheme      sigma
_refine_ls_wR_factor_all         0.0945
_refine_ls_wR_factor_gt          0.0945
_cod_data_source_file            c9dt01562k2.cif
_cod_data_source_block           I_CCDC1
_cod_depositor_comments
;
The following automatic conversions were performed:

'_diffrn_radiation_probe' value 'X-ray' changed to 'x-ray' according
to
/home/data/users/saulius/crontab/automatic-downloads/rss-feeds/RSC/lib/dictionaries/cif_core.dic
dictionary named 'cif_core.dic' version 2.4.2 from 2011-04-26.

Automatic conversion script
Id: cif_fix_values 4973 2017-02-22 13:04:09Z antanas 

 Adding full bibliography for 7700629--7700637.cif.
;
_cod_original_cell_volume        202.218(5)
_cod_original_formula_sum        'Ce1 In1 O1 S2'
_cod_database_code               7700630
loop_
_space_group_symop_id
_space_group_symop_operation_xyz
1 x,y,z
2 -x,y+1/2,-z
3 -x,-y,-z
4 x,-y+1/2,z
loop_
_atom_site_label
_atom_site_type_symbol
_atom_site_fract_x
_atom_site_fract_y
_atom_site_fract_z
_atom_site_adp_type
_atom_site_U_iso_or_equiv
_atom_site_site_symmetry_multiplicity
_atom_site_occupancy
_atom_site_calc_flag
Ce1 Ce 0.25 0.25 0.09850(7) Uiso 0.00659(16) 2 1 d
In1 In 0.25 0.25 0.60800(10) Uani 0.0511(10) 2 1 d
S1 S 0.25 0.25 0.4077(3) Uiso 0.0192(9) 2 1 d
S2 S 0.25 0.25 0.7960(3) Uiso 0.0080(7) 2 1 d
O1 O 0.75 0.25 0 Uiso 0.0097 2 1 d
loop_
_atom_site_aniso_label
_atom_site_aniso_type_symbol
_atom_site_aniso_U_11
_atom_site_aniso_U_22
_atom_site_aniso_U_33
_atom_site_aniso_U_12
_atom_site_aniso_U_13
_atom_site_aniso_U_23
In1 In 0.0156(14) 0.119(2) 0.0185(9) 0 0 0
loop_
_atom_type_symbol
_atom_type_scat_dispersion_real
_atom_type_scat_dispersion_imag
_atom_type_scat_source
Ce -1.1304 1.3720 'International Tables Vol C tables 4.2.6.8 and 6.1.1.1'
In -2.1272 0.6711 'International Tables Vol C tables 4.2.6.8 and 6.1.1.1'
O 0.0007 0.0027 'International Tables Vol C tables 4.2.6.8 and 6.1.1.1'
S 0.0527 0.0607 'International Tables Vol C tables 4.2.6.8 and 6.1.1.1'
loop_
_geom_angle_atom_site_label_1
_geom_angle_atom_site_label_2
_geom_angle_atom_site_label_3
_geom_angle_site_symmetry_1
_geom_angle_site_symmetry_3
_geom_angle
O1 Ce1 O1 1_455 . 115.80(4)
O1 Ce1 O1 1_455 2_645 73.583(16)
O1 Ce1 O1 1_455 2_655 73.583(16)
O1 Ce1 O1 . 2_645 73.583(16)
O1 Ce1 O1 . 2_655 73.583(16)
O1 Ce1 O1 2_645 2_655 115.74(4)
S1 In1 S1 . 2_546 85.96(8)
S1 In1 S1 . 2_556 85.96(8)
S1 In1 S1 . 2_646 85.96(8)
S1 In1 S1 . 2_656 85.96(8)
S1 In1 S2 . . 180.0(5)
S1 In1 S1 2_546 2_556 89.639(8)
S1 In1 S1 2_546 2_646 89.791(8)
S1 In1 S1 2_546 2_656 171.92(12)
S1 In1 S2 2_546 . 94.04(8)
S1 In1 S1 2_556 2_646 171.92(12)
S1 In1 S1 2_556 2_656 89.791(8)
S1 In1 S2 2_556 . 94.04(8)
S1 In1 S1 2_646 2_656 89.639(8)
S1 In1 S2 2_646 . 94.04(8)
S1 In1 S2 2_656 . 94.04(8)
In1 S1 In1 . 2_546 94.04(8)
In1 S1 In1 . 2_556 94.04(8)
In1 S1 In1 . 2_646 94.04(8)
In1 S1 In1 . 2_656 94.04(8)
In1 S1 In1 2_546 2_556 89.639(11)
In1 S1 In1 2_546 2_646 89.791(11)
In1 S1 In1 2_546 2_656 171.92(15)
In1 S1 In1 2_556 2_646 171.92(15)
In1 S1 In1 2_556 2_656 89.791(11)
In1 S1 In1 2_646 2_656 89.639(11)
Ce1 O1 Ce1 . 1_655 115.80(2)
Ce1 O1 Ce1 . 2_645 106.417(12)
Ce1 O1 Ce1 . 2_655 106.417(12)
Ce1 O1 O1 . 2_645 53.172(8)
Ce1 O1 O1 . 2_655 53.172(8)
Ce1 O1 O1 . 2_745 126.828(8)
Ce1 O1 O1 . 2_755 126.828(8)
Ce1 O1 Ce1 1_655 2_645 106.417(12)
Ce1 O1 Ce1 1_655 2_655 106.417(12)
Ce1 O1 O1 1_655 2_645 126.828(8)
Ce1 O1 O1 1_655 2_655 126.828(8)
Ce1 O1 O1 1_655 2_745 53.172(8)
Ce1 O1 O1 1_655 2_755 53.172(8)
Ce1 O1 Ce1 2_645 2_655 115.74(2)
Ce1 O1 O1 2_645 2_645 53.245(8)
Ce1 O1 O1 2_645 2_655 126.755(8)
Ce1 O1 O1 2_645 2_745 53.245(8)
Ce1 O1 O1 2_645 2_755 126.755(8)
Ce1 O1 O1 2_655 2_645 126.755(8)
Ce1 O1 O1 2_655 2_655 53.245(8)
Ce1 O1 O1 2_655 2_745 126.755(8)
Ce1 O1 O1 2_655 2_755 53.245(8)
O1 O1 O1 2_645 2_655 89.9238(14)
O1 O1 O1 2_645 2_745 90.0762(14)
O1 O1 O1 2_645 2_755 180.0(5)
O1 O1 O1 2_655 2_745 180.0(5)
O1 O1 O1 2_655 2_755 90.0762(14)
O1 O1 O1 2_745 2_755 89.9238(14)
loop_
_geom_bond_atom_site_label_1
_geom_bond_atom_site_label_2
_geom_bond_site_symmetry_2
_geom_bond_distance
Ce1 O1 1_455 2.3559(5)
Ce1 O1 . 2.3559(5)
Ce1 O1 2_645 2.3537(5)
Ce1 O1 2_655 2.3537(5)
In1 S1 . 2.546(4)
In1 S1 2_546 2.8276(3)
In1 S1 2_556 2.8276(3)
In1 S1 2_646 2.8276(3)
In1 S1 2_656 2.8276(3)
In1 S2 . 2.390(4)
O1 O1 2_645 2.82059(7)
O1 O1 2_655 2.82059(7)
O1 O1 2_745 2.82059(7)
O1 O1 2_755 2.82059(7)
loop_
_pd_proc_point_id
_pd_proc_2theta_corrected
_pd_proc_intensity_net
_pd_calc_intensity_net
_pd_proc_ls_weight
1 2.1000 6164.00 5904.12 79.00
2 2.1060 6218.00 5913.53 79.00
3 2.1120 6169.00 5924.06 79.00
4 2.1180 6184.00 5935.95 79.00
5 2.1240 6205.00 5949.50 79.00
6 2.1300 6291.00 5965.10 79.00
7 2.1360 6355.00 5983.26 80.00
8 2.1420 6377.00 6004.67 80.00
9 2.1480 6507.00 6030.26 81.00
10 2.1540 6609.00 6061.30 81.00
11 2.1600 6746.00 6100.61 82.00
12 2.1660 6886.00 6148.81 83.00
13 2.1720 7072.00 6210.81 84.00
14 2.1780 7307.00 6292.62 85.00
15 2.1840 7759.00 6403.87 88.00
16 2.1900 8345.00 6561.09 91.00
17 2.1960 9150.00 6801.37 96.00
18 2.2020 10931.00 7290.66 105.00
19 2.2080 15657.00 8998.53 125.00
20 2.2140 28102.00 15800.00 168.00
21 2.2200 57600.00 35229.60 240.00
22 2.2260 103324.00 67832.10 321.00
23 2.2320 136239.00 91040.00 369.00
24 2.2380 125527.00 77982.40 354.00
25 2.2440 84736.00 44774.20 291.00
26 2.2500 45140.00 20299.10 212.00
27 2.2560 22457.00 10318.80 150.00
28 2.2620 13945.00 7625.00 118.00
29 2.2680 10671.00 6937.22 103.00
30 2.2740 9115.00 6654.14 95.00
31 2.2800 8390.00 6480.43 92.00
32 2.2860 7892.00 6360.77 89.00
33 2.2920 7490.00 6274.85 87.00
34 2.2980 7271.00 6211.31 85.00
35 2.3040 7032.00 6164.21 84.00
36 2.3100 6903.00 6127.08 83.00
37 2.3160 6723.00 6097.94 82.00
38 2.3220 6554.00 6074.78 81.00
39 2.3280 6554.00 6056.16 81.00
40 2.3340 6543.00 6041.04 81.00
41 2.3400 6403.00 6028.69 80.00
42 2.3460 6396.00 6018.54 80.00
43 2.3520 6250.00 6010.17 79.00
44 2.3580 6263.00 6003.23 79.00
45 2.3640 6167.00 5997.49 79.00
46 2.3700 6088.00 5992.73 78.00
47 2.3760 6050.00 5988.80 78.00
48 2.3820 6076.00 5986.57 78.00
49 2.3880 6051.00 5983.93 78.00
50 2.3940 6068.00 5981.79 78.00
51 2.4000 6174.00 5931.13 79.00
52 2.4060 6146.00 5933.14 78.00
53 2.4120 6130.00 5935.14 78.00
54 2.4180 6043.00 5937.14 78.00
55 2.4240 5916.00 5939.14 77.00
56 2.4300 5868.00 5941.15 77.00
57 2.4360 5899.00 5943.15 77.00
58 2.4420 5975.00 5945.15 77.00
59 2.4480 5974.00 5947.15 77.00
60 2.4540 6059.00 5950.16 78.00
61 2.4600 5965.00 5952.16 77.00
62 2.4660 5959.00 5954.16 77.00
63 2.4720 5994.00 5956.16 77.00
64 2.4780 6022.00 5958.17 78.00
65 2.4840 5947.00 5960.17 77.00
66 2.4900 5961.00 5962.17 77.00
67 2.4960 6101.00 5964.17 78.00
68 2.5020 6067.00 5966.18 78.00
69 2.5080 5914.00 5968.18 77.00
70 2.5140 5918.00 5970.18 77.00
71 2.5200 5991.00 5972.18 77.00
72 2.5260 5976.00 5975.19 77.00
73 2.5320 5970.00 5977.19 77.00
74 2.5380 5835.00 5979.19 76.00
75 2.5440 6019.00 5981.19 78.00
76 2.5500 5922.00 5983.20 77.00
77 2.5560 5803.00 5985.20 76.00
78 2.5620 5881.00 5987.20 77.00
79 2.5680 6038.00 5989.20 78.00
80 2.5740 5871.00 5991.21 77.00
81 2.5800 5806.00 5993.21 76.00
82 2.5860 5935.00 5995.21 77.00
83 2.5920 5878.00 5997.21 77.00
84 2.5980 5932.00 5999.22 77.00
85 2.6040 5859.00 6002.22 77.00
86 2.6100 5894.00 6004.22 77.00
87 2.6160 5832.00 6006.22 76.00
88 2.6220 6072.00 6008.23 78.00
89 2.6280 6001.00 6010.23 77.00
90 2.6340 5908.00 6012.23 77.00
91 2.6400 5794.00 6014.23 76.00
92 2.6460 5973.00 6016.24 77.00
93 2.6520 6037.00 6018.24 78.00
94 2.6580 5938.00 6020.24 77.00
95 2.6640 6041.00 6022.24 78.00
96 2.6700 6004.00 6024.25 77.00
97 2.6760 5987.00 6027.25 77.00
98 2.6820 6026.00 6029.25 78.00
99 2.6880 5928.00 6031.25 77.00
100 2.6940 6059.00 6033.26 78.00
101 2.7000 6092.00 6035.26 78.00
102 2.7060 6104.00 6037.26 78.00
103 2.7120 6072.00 6039.26 78.00
104 2.7180 6066.00 6041.27 78.00
105 2.7240 5871.00 6043.27 77.00
106 2.7300 5996.00 6045.27 77.00
107 2.7360 6090.00 6047.27 78.00
108 2.7420 5996.00 6049.28 77.00
109 2.7480 6028.00 6051.28 78.00
110 2.7540 6143.00 6054.28 78.00
111 2.7600 6018.00 6056.28 78.00
112 2.7660 5929.00 6058.29 77.00
113 2.7720 5865.00 6060.29 77.00
114 2.7780 5928.00 6062.29 77.00
115 2.7840 5883.00 6064.29 77.00
116 2.7900 6060.00 6066.30 78.00
117 2.7960 6060.00 6068.30 78.00
118 2.8020 6052.00 6070.30 78.00
119 2.8080 5972.00 6072.30 77.00
120 2.8140 6063.00 6074.31 78.00
121 2.8200 5997.00 6076.31 77.00
122 2.8260 5964.00 6079.31 77.00
123 2.8320 5988.00 6081.31 77.00
124 2.8380 6019.00 6083.32 78.00
125 2.8440 5868.00 6085.32 77.00
126 2.8500 6212.00 6087.32 79.00
127 2.8560 5874.00 6089.32 77.00
128 2.8620 6004.00 6091.33 77.00
129 2.8680 6042.00 6093.33 78.00
130 2.8740 6135.00 6095.33 78.00
131 2.8800 6043.00 6097.33 78.00
132 2.8860 6019.00 6099.34 78.00
133 2.8920 5933.00 6101.34 77.00
134 2.8980 5985.00 6104.34 77.00
135 2.9040 6039.00 6106.34 78.00
136 2.9100 6172.00 6108.35 79.00
137 2.9160 6124.00 6110.35 78.00
138 2.9220 6119.00 6112.35 78.00
139 2.9280 6025.00 6114.35 78.00
140 2.9340 6067.00 6116.36 78.00
141 2.9400 6048.00 6118.36 78.00
142 2.9460 6241.00 6120.36 79.00
143 2.9520 6206.00 6122.36 79.00
144 2.9580 5982.00 6124.37 77.00
145 2.9640 6090.00 6126.37 78.00
146 2.9700 6058.00 6128.37 78.00
147 2.9760 6167.00 6131.38 79.00
148 2.9820 6040.00 6133.38 78.00
149 2.9880 5972.00 6135.38 77.00
150 2.9940 6076.00 6137.38 78.00
151 3.0000 6073.00 6139.38 78.00
152 3.0060 6016.00 6141.39 78.00
153 3.0120 6122.00 6143.39 78.00
154 3.0180 6250.00 6145.39 79.00
155 3.0240 6173.00 6147.39 79.00
156 3.0300 6101.00 6149.40 78.00
157 3.0360 6093.00 6151.40 78.00
158 3.0420 6098.00 6153.40 78.00
159 3.0480 6151.00 6156.40 78.00
160 3.0540 6069.00 6158.41 78.00
161 3.0600 6051.00 6160.41 78.00
162 3.0660 6264.00 6162.41 79.00
163 3.0720 6221.00 6164.41 79.00
164 3.0780 6157.00 6166.42 78.00
165 3.0840 6319.00 6168.42 79.00
166 3.0900 6183.00 6170.42 79.00
167 3.0960 6159.00 6172.42 78.00
168 3.1020 6183.00 6174.43 79.00
169 3.1080 6211.00 6176.43 79.00
170 3.1140 6237.00 6178.43 79.00
171 3.1200 6125.00 6180.43 78.00
172 3.1260 6176.00 6183.44 79.00
173 3.1320 6198.00 6185.44 79.00
174 3.1380 6120.00 6187.44 78.00
175 3.1440 6214.00 6189.44 79.00
176 3.1500 6252.00 6191.45 79.00
177 3.1560 6296.00 6193.45 79.00
178 3.1620 6275.00 6195.45 79.00
179 3.1680 6202.00 6197.45 79.00
180 3.1740 6224.00 6199.46 79.00
181 3.1800 6311.00 6201.46 79.00
182 3.1860 6498.00 6203.46 81.00
183 3.1920 6755.00 6205.46 82.00
184 3.1980 7696.00 6208.47 88.00
185 3.2040 9441.00 6210.47 97.00
186 3.2100 10924.00 6212.47 105.00
187 3.2160 10464.00 6214.47 102.00
188 3.2220 8652.00 6216.48 93.00
189 3.2280 7300.00 6218.48 85.00
190 3.2340 6836.00 6220.48 83.00
191 3.2400 6602.00 6222.48 81.00
192 3.2460 6430.00 6224.49 80.00
193 3.2520 6348.00 6226.49 80.00
194 3.2580 6378.00 6228.49 80.00
195 3.2640 6468.00 6230.49 80.00
196 3.2700 6453.00 6233.50 80.00
197 3.2760 6412.00 6235.50 80.00
198 3.2820 6536.00 6237.50 81.00
199 3.2880 6834.00 6239.50 83.00
200 3.2940 6951.00 6241.51 83.00
201 3.3000 6856.00 6243.51 83.00
202 3.3060 6921.00 6245.51 83.00
203 3.3120 7041.00 6247.51 84.00
204 3.3180 6856.00 6249.52 83.00
205 3.3240 6581.00 6251.52 81.00
206 3.3300 6542.00 6253.52 81.00
207 3.3360 6470.00 6255.52 80.00
208 3.3420 6389.00 6257.53 80.00
209 3.3480 6477.00 6260.53 80.00
210 3.3540 6525.00 6262.53 81.00
211 3.3600 6600.00 6264.54 81.00
212 3.3660 6647.00 6266.54 82.00
213 3.3720 6749.00 6268.54 82.00
214 3.3780 7255.00 6270.54 85.00
215 3.3840 8573.00 6272.54 93.00
216 3.3900 11373.00 6274.55 107.00
217 3.3960 14059.00 6276.55 119.00
218 3.4020 14044.00 6278.55 119.00
219 3.4080 11505.00 6280.55 107.00
220 3.4140 8576.00 6282.56 93.00
221 3.4200 7247.00 6285.56 85.00
222 3.4260 6866.00 6287.56 83.00
223 3.4320 6675.00 6289.56 82.00
224 3.4380 6581.00 6291.57 81.00
225 3.4440 6429.00 6293.57 80.00
226 3.4500 6430.00 6295.57 80.00
227 3.4560 6390.00 6297.57 80.00
228 3.4620 6306.00 6299.58 79.00
229 3.4680 6411.00 6301.58 80.00
230 3.4740 6524.00 6303.58 81.00
231 3.4800 6571.00 6305.58 81.00
232 3.4860 6420.00 6307.59 80.00
233 3.4920 6406.00 6309.59 80.00
234 3.4980 6413.00 6312.59 80.00
235 3.5040 6365.00 6314.60 80.00
236 3.5100 6501.00 6316.60 81.00
237 3.5160 6469.00 6318.60 80.00
238 3.5220 6325.00 6320.60 80.00
239 3.5280 6362.00 6322.60 80.00
240 3.5340 6305.00 6324.61 79.00
241 3.5400 6266.00 6326.61 79.00
242 3.5460 6264.00 6328.61 79.00
243 3.5520 6318.00 6330.61 79.00
244 3.5580 6410.00 6332.62 80.00
245 3.5640 6376.00 6334.62 80.00
246 3.5700 6302.00 6337.62 79.00
247 3.5760 6336.00 6339.63 80.00
248 3.5820 6430.00 6341.63 80.00
249 3.5880 6343.00 6343.63 80.00
250 3.5940 6284.00 6345.63 79.00
251 3.6000 6323.00 6347.63 80.00
252 3.6060 6378.00 6349.64 80.00
253 3.6120 6415.00 6351.64 80.00
254 3.6180 6366.00 6353.64 80.00
255 3.6240 6333.00 6355.64 80.00
256 3.6300 6317.00 6357.65 79.00
257 3.6360 6247.00 6359.65 79.00
258 3.6420 6229.00 6362.65 79.00
259 3.6480 6270.00 6364.66 79.00
260 3.6540 6291.00 6366.66 79.00
261 3.6600 6254.00 6368.66 79.00
262 3.6660 6347.00 6370.66 80.00
263 3.6720 6405.00 6372.67 80.00
264 3.6780 6368.00 6374.67 80.00
265 3.6840 6320.00 6376.67 79.00
266 3.6900 6263.00 6378.67 79.00
267 3.6960 6328.00 6380.67 80.00
268 3.7020 6337.00 6382.68 80.00
269 3.7080 6304.00 6384.68 79.00
270 3.7140 6275.00 6386.68 79.00
271 3.7200 6334.00 6389.69 80.00
272 3.7260 6328.00 6391.69 80.00
273 3.7320 6424.00 6393.69 80.00
274 3.7380 6382.00 6395.69 80.00
275 3.7440 6436.00 6397.70 80.00
276 3.7500 6562.00 6399.70 81.00
277 3.7560 6407.00 6401.70 80.00
278 3.7620 6426.00 6403.70 80.00
279 3.7680 6407.00 6405.70 80.00
280 3.7740 6347.00 6407.71 80.00
281 3.7800 6500.00 6409.71 81.00
282 3.7860 6432.00 6411.71 80.00
283 3.7920 6382.00 6414.72 80.00
284 3.7980 6453.00 6416.72 80.00
285 3.8040 6392.00 6418.72 80.00
286 3.8100 6357.00 6420.72 80.00
287 3.8160 6377.00 6422.73 80.00
288 3.8220 6426.00 6424.73 80.00
289 3.8280 6409.00 6426.73 80.00
290 3.8340 6353.00 6428.73 80.00
291 3.8400 6371.00 6430.73 80.00
292 3.8460 6324.00 6432.74 80.00
293 3.8520 6293.00 6434.74 79.00
294 3.8580 6391.00 6436.74 80.00
295 3.8640 6345.00 6440.75 80.00
296 3.8700 6407.00 6445.75 80.00
297 3.8760 6407.00 6451.76 80.00
298 3.8820 6403.00 6457.77 80.00
299 3.8880 6302.00 6463.77 79.00
300 3.8940 6302.00 6468.78 79.00
301 3.9000 6333.00 6474.79 80.00
302 3.9060 6399.00 6480.79 80.00
303 3.9120 6495.00 6485.80 81.00
304 3.9180 6402.00 6491.81 80.00
305 3.9240 6316.00 6497.82 79.00
306 3.9300 6371.00 6502.82 80.00
307 3.9360 6501.00 6508.83 81.00
308 3.9420 6430.00 6514.84 80.00
309 3.9480 6433.00 6520.84 80.00
310 3.9540 6518.00 6525.85 81.00
311 3.9600 6515.00 6531.86 81.00
312 3.9660 6612.00 6537.86 81.00
313 3.9720 6610.00 6542.87 81.00
314 3.9780 6514.00 6548.88 81.00
315 3.9840 6472.00 6554.88 80.00
316 3.9900 6477.00 6560.89 80.00
317 3.9960 6350.00 6565.90 80.00
318 4.0020 6543.00 6571.90 81.00
319 4.0080 6499.00 6577.91 81.00
320 4.0140 6516.00 6582.92 81.00
321 4.0200 6580.00 6588.93 81.00
322 4.0260 6511.00 6594.93 81.00
323 4.0320 6502.00 6600.94 81.00
324 4.0380 6501.00 6605.95 81.00
325 4.0440 6630.00 6611.95 81.00
326 4.0500 6627.00 6617.96 81.00
327 4.0560 6579.00 6622.97 81.00
328 4.0620 6558.00 6628.97 81.00
329 4.0680 6648.00 6634.98 82.00
330 4.0740 6579.00 6639.99 81.00
331 4.0800 6514.00 6645.99 81.00
332 4.0860 6676.00 6652.00 82.00
333 4.0920 6666.00 6658.01 82.00
334 4.0980 6485.00 6663.01 81.00
335 4.1040 6628.00 6669.02 81.00
336 4.1100 6684.00 6675.03 82.00
337 4.1160 6693.00 6680.03 82.00
338 4.1220 6567.00 6686.04 81.00
339 4.1280 7195.00 6692.05 85.00
340 4.1340 8028.00 6698.06 90.00
341 4.1400 8502.00 6703.06 92.00
342 4.1460 8212.00 6709.07 91.00
343 4.1520 7714.00 6715.08 88.00
344 4.1580 7106.00 6720.08 84.00
345 4.1640 6746.00 6726.09 82.00
346 4.1700 6751.00 6732.10 82.00
347 4.1760 6801.00 6738.10 82.00
348 4.1820 6818.00 6743.11 83.00
349 4.1880 6686.00 6749.12 82.00
350 4.1940 6736.00 6755.12 82.00
351 4.2000 6772.00 6760.13 82.00
352 4.2060 6786.00 6766.14 82.00
353 4.2120 6732.00 6772.15 82.00
354 4.2180 6562.00 6777.15 81.00
355 4.2240 6626.00 6783.16 81.00
356 4.2300 6936.00 6789.17 83.00
357 4.2360 7006.00 6795.17 84.00
358 4.2420 7085.00 6800.18 84.00
359 4.2480 7453.00 6806.19 86.00
360 4.2540 7960.00 6812.19 89.00
361 4.2600 8646.00 6817.20 93.00
362 4.2660 8288.00 6823.21 91.00
363 4.2720 7657.00 6829.21 88.00
364 4.2780 7251.00 6835.22 85.00
365 4.2840 7200.00 7021.43 85.00
366 4.2900 7065.00 7039.89 84.00
367 4.2960 7048.00 7059.68 84.00
368 4.3020 7027.00 7079.99 84.00
369 4.3080 7056.00 7103.06 84.00
370 4.3140 7078.00 7128.16 84.00
371 4.3200 7056.00 7154.64 84.00
372 4.3260 7086.00 7184.88 84.00
373 4.3320 7097.00 7218.41 84.00
374 4.3380 7113.00 7255.83 84.00
375 4.3440 7277.00 7296.91 85.00
376 4.3500 7291.00 7344.62 85.00
377 4.3560 7292.00 7399.19 85.00
378 4.3620 7347.00 7461.20 86.00
379 4.3680 7378.00 7534.72 86.00
380 4.3740 7570.00 7621.50 87.00
381 4.3800 7746.00 7725.19 88.00
382 4.3860 7673.00 7849.85 88.00
383 4.3920 7833.00 8004.55 89.00
384 4.3980 8138.00 8198.36 90.00
385 4.4040 8352.00 8445.14 91.00
386 4.4100 8696.00 8769.43 93.00
387 4.4160 9145.00 9205.71 96.00
388 4.4220 9758.00 9816.25 99.00
389 4.4280 10683.00 10752.00 103.00
390 4.4340 12824.00 12603.90 113.00
391 4.4400 16170.00 17763.60 127.00
392 4.4460 25305.00 33131.40 159.00
393 4.4520 53815.00 69471.30 232.00
394 4.4580 117703.00 127997.00 343.00
395 4.4640 178984.00 180337.00 423.00
396 4.4700 179979.00 177700.00 424.00
397 4.4760 126061.00 123094.00 355.00
398 4.4820 66688.00 65750.50 258.00
399 4.4880 34473.00 31357.30 186.00
400 4.4940 20787.00 17173.60 144.00
401 4.5000 15077.00 12455.70 123.00
402 4.5060 12337.00 10734.00 111.00
403 4.5120 10995.00 9845.71 105.00
404 4.5180 10160.00 9264.15 101.00
405 4.5240 9277.00 8850.33 96.00
406 4.5300 9033.00 8544.09 95.00
407 4.5360 8652.00 8313.20 93.00
408 4.5420 8489.00 8134.90 92.00
409 4.5480 8172.00 7993.80 90.00
410 4.5540 8074.00 7882.07 90.00
411 4.5600 7866.00 7791.87 89.00
412 4.5660 7652.00 7717.27 87.00
413 4.5720 7716.00 7656.66 88.00
414 4.5780 7654.00 7606.39 87.00
415 4.5840 7561.00 7564.42 87.00
416 4.5900 7325.00 7528.20 86.00
417 4.5960 7585.00 7498.52 87.00
418 4.6020 7337.00 7473.45 86.00
419 4.6080 7439.00 7451.21 86.00
420 4.6140 7270.00 7433.21 85.00
421 4.6200 7262.00 7417.95 85.00
422 4.6260 7228.00 7405.03 85.00
423 4.6320 7143.00 7393.12 85.00
424 4.6380 7252.00 7383.95 85.00
425 4.6440 7230.00 7376.28 85.00
426 4.6500 7185.00 7368.93 85.00
427 4.6560 7148.00 7194.65 85.00
428 4.6620 6987.00 7200.66 84.00
429 4.6680 7162.00 7206.67 85.00
430 4.6740 7130.00 7211.67 84.00
431 4.6800 7062.00 7217.68 84.00
432 4.6860 7087.00 7223.69 84.00
433 4.6920 7000.00 7228.69 84.00
434 4.6980 7112.00 7234.70 84.00
435 4.7040 7001.00 7240.71 84.00
436 4.7100 7132.00 7245.72 84.00
437 4.7160 7063.00 7251.72 84.00
438 4.7220 7164.00 7257.73 85.00
439 4.7280 7037.00 7263.74 84.00
440 4.7340 7158.00 7268.74 85.00
441 4.7400 7037.00 7274.75 84.00
442 4.7460 7046.00 7280.76 84.00
443 4.7520 7008.00 7285.76 84.00
444 4.7580 7071.00 7291.77 84.00
445 4.7640 7129.00 7297.78 84.00
446 4.7700 6996.00 7303.79 84.00
447 4.7760 7012.00 7308.79 84.00
448 4.7820 7053.00 7314.80 84.00
449 4.7880 7077.00 7320.81 84.00
450 4.7940 7247.00 7325.81 85.00
451 4.8000 7104.00 7331.82 84.00
452 4.8060 7200.00 7337.83 85.00
453 4.8120 7291.00 7343.83 85.00
454 4.8180 7300.00 7348.84 85.00
455 4.8240 7195.00 7354.85 85.00
456 4.8300 7206.00 7360.85 85.00
457 4.8360 7182.00 7365.86 85.00
458 4.8420 7256.00 7371.87 85.00
459 4.8480 7225.00 7377.87 85.00
460 4.8540 7231.00 7382.88 85.00
461 4.8600 7332.00 7388.89 86.00
462 4.8660 7343.00 7394.89 86.00
463 4.8720 7243.00 7400.90 85.00
464 4.8780 7149.00 7405.91 85.00
465 4.8840 7217.00 7411.92 85.00
466 4.8900 7225.00 7417.92 85.00
467 4.8960 7324.00 7422.93 86.00
468 4.9020 7131.00 7428.94 84.00
469 4.9080 7194.00 7434.94 85.00
470 4.9140 7103.00 7440.95 84.00
471 4.9200 7300.00 7445.96 85.00
472 4.9260 7170.00 7451.96 85.00
473 4.9320 7347.00 7457.97 86.00
474 4.9380 7267.00 7462.98 85.00
475 4.9440 7321.00 7468.98 86.00
476 4.9500 7230.00 7474.99 85.00
477 4.9560 7265.00 7480.00 85.00
478 4.9620 7335.00 7486.00 86.00
479 4.9680 7385.00 7492.01 86.00
480 4.9740 7465.00 7498.02 86.00
481 4.9800 7561.00 7503.02 87.00
482 4.9860 7372.00 7509.03 86.00
483 4.9920 7345.00 7515.04 86.00
484 4.9980 7187.00 7520.04 85.00
485 5.0040 7285.00 7526.05 85.00
486 5.0100 7330.00 7532.06 86.00
487 5.0160 7388.00 7538.07 86.00
488 5.0220 7320.00 7543.07 86.00
489 5.0280 7361.00 7549.08 86.00
490 5.0340 7398.00 7555.09 86.00
491 5.0400 7305.00 7560.09 85.00
492 5.0460 7338.00 7566.10 86.00
493 5.0520 7354.00 7572.11 86.00
494 5.0580 7196.00 7578.11 85.00
495 5.0640 7444.00 7583.12 86.00
496 5.0700 7637.00 7589.13 87.00
497 5.0760 7611.00 7595.14 87.00
498 5.0820 7901.00 7600.14 89.00
499 5.0880 8758.00 7606.15 94.00
500 5.0940 9716.00 7612.16 99.00
501 5.1000 10087.00 7617.16 100.00
502 5.1060 9392.00 7623.17 97.00
503 5.1120 8370.00 7629.18 91.00
504 5.1180 7771.00 7635.18 88.00
505 5.1240 7701.00 7640.19 88.00
506 5.1300 7735.00 7646.20 88.00
507 5.1360 7665.00 7652.20 88.00
508 5.1420 8127.00 7657.21 90.00
509 5.1480 8935.00 7663.22 95.00
510 5.1540 9161.00 7669.22 96.00
511 5.1600 9095.00 7675.23 95.00
512 5.1660 8328.00 7680.24 91.00
513 5.1720 7891.00 7686.25 89.00
514 5.1780 7745.00 7692.25 88.00
515 5.1840 7781.00 7697.26 88.00
516 5.1900 7556.00 7703.27 87.00
517 5.1960 7491.00 7709.27 87.00
518 5.2020 7535.00 7715.28 87.00
519 5.2080 7439.00 7720.29 86.00
520 5.2140 7531.00 7726.29 87.00
521 5.2200 7570.00 7732.30 87.00
522 5.2260 7544.00 7737.31 87.00
523 5.2320 7439.00 7743.31 86.00
524 5.2380 7471.00 7749.32 86.00
525 5.2440 7399.00 7754.33 86.00
526 5.2500 7517.00 7760.33 87.00
527 5.2560 7588.00 7766.34 87.00
528 5.2620 7525.00 7772.35 87.00
529 5.2680 7462.00 7777.35 86.00
530 5.2740 7530.00 7791.37 87.00
531 5.2800 7660.00 7805.39 88.00
532 5.2860 7607.00 7818.40 87.00
533 5.2920 7501.00 7832.42 87.00
534 5.2980 7531.00 7845.44 87.00
535 5.3040 7556.00 7859.45 87.00
536 5.3100 7552.00 7873.47 87.00
537 5.3160 7549.00 7886.49 87.00
538 5.3220 7582.00 7900.50 87.00
539 5.3280 7760.00 7914.52 88.00
540 5.3340 7756.00 7927.54 88.00
541 5.3400 7648.00 7941.55 87.00
542 5.3460 7561.00 7954.57 87.00
543 5.3520 7574.00 7968.58 87.00
544 5.3580 7673.00 7982.60 88.00
545 5.3640 7692.00 7995.62 88.00
546 5.3700 7712.00 8009.63 88.00
547 5.3760 7679.00 8023.65 88.00
548 5.3820 7868.00 8036.67 89.00
549 5.3880 8129.00 8050.68 90.00
550 5.3940 8660.00 8063.70 93.00
551 5.4000 9714.00 8077.72 99.00
552 5.4060 10726.00 8091.73 104.00
553 5.4120 10430.00 8104.75 102.00
554 5.4180 9453.00 8118.77 97.00
555 5.4240 8452.00 8132.78 92.00
556 5.4300 7984.00 8145.80 89.00
557 5.4360 8097.00 8159.81 90.00
558 5.4420 8146.00 8172.83 90.00
559 5.4480 7933.00 8186.85 89.00
560 5.4540 8004.00 8200.86 89.00
561 5.4600 7911.00 8213.88 89.00
562 5.4660 7892.00 8227.90 89.00
563 5.4720 7791.00 8241.91 88.00
564 5.4780 7881.00 8254.93 89.00
565 5.4840 7838.00 8268.95 89.00
566 5.4900 7909.00 8281.96 89.00
567 5.4960 7915.00 8295.98 89.00
568 5.5020 7868.00 8310.00 89.00
569 5.5080 7732.00 8323.01 88.00
570 5.5140 7927.00 8337.03 89.00
571 5.5200 7870.00 8351.04 89.00
572 5.5260 7846.00 8364.06 89.00
573 5.5320 8039.00 8378.08 90.00
574 5.5380 8034.00 8391.09 90.00
575 5.5440 8185.00 8405.11 90.00
576 5.5500 8118.00 8419.13 90.00
577 5.5560 8057.00 8432.14 90.00
578 5.5620 8104.00 8446.16 90.00
579 5.5680 8005.00 8460.18 89.00
580 5.5740 8067.00 8473.19 90.00
581 5.5800 8122.00 8487.21 90.00
582 5.5860 8084.00 8500.22 90.00
583 5.5920 7933.00 8514.24 89.00
584 5.5980 8135.00 8528.26 90.00
585 5.6040 8312.00 8541.27 91.00
586 5.6100 8270.00 8555.29 91.00
587 5.6160 8169.00 8569.31 90.00
588 5.6220 8136.00 8582.32 90.00
589 5.6280 8177.00 8596.34 90.00
590 5.6340 8252.00 8609.36 91.00
591 5.6400 8263.00 8623.37 91.00
592 5.6460 8221.00 8637.39 91.00
593 5.6520 8235.00 8650.40 91.00
594 5.6580 8386.00 8664.42 92.00
595 5.6640 8360.00 8678.44 91.00
596 5.6700 8379.00 8691.45 92.00
597 5.6760 8446.00 8705.47 92.00
598 5.6820 8472.00 8718.49 92.00
599 5.6880 8520.00 8732.50 92.00
600 5.6940 8453.00 8746.52 92.00
601 5.7000 8380.00 8759.54 92.00
602 5.7060 8364.00 8773.55 91.00
603 5.7120 8445.00 8787.57 92.00
604 5.7180 8472.00 8800.58 92.00
605 5.7240 8517.00 8814.60 92.00
606 5.7300 8412.00 8827.62 92.00
607 5.7360 8313.00 8841.63 91.00
608 5.7420 8344.00 8855.65 91.00
609 5.7480 8365.00 8868.67 91.00
610 5.7540 8346.00 8918.73 91.00
611 5.7600 8541.00 8974.79 92.00
612 5.7660 8750.00 9030.86 94.00
613 5.7720 8643.00 9087.93 93.00
614 5.7780 8527.00 9144.00 92.00
615 5.7840 8567.00 9200.07 93.00
616 5.7900 8661.00 9257.13 93.00
617 5.7960 8576.00 9313.20 93.00
618 5.8020 8563.00 9370.27 93.00
619 5.8080 8630.00 9426.34 93.00
620 5.8140 8677.00 9482.41 93.00
621 5.8200 8689.00 9539.47 93.00
622 5.8260 8612.00 9595.54 93.00
623 5.8320 8627.00 9652.61 93.00
624 5.8380 8641.00 9708.68 93.00
625 5.8440 8604.00 9764.75 93.00
626 5.8500 8725.00 9821.81 93.00
627 5.8560 8801.00 9877.88 94.00
628 5.8620 8700.00 9934.95 93.00
629 5.8680 8620.00 9991.02 93.00
630 5.8740 8640.00 10047.10 93.00
631 5.8800 8827.00 10104.20 94.00
632 5.8860 9012.00 10160.20 95.00
633 5.8920 8942.00 10216.30 95.00
634 5.8980 8867.00 10273.40 94.00
635 5.9040 8810.00 10329.40 94.00
636 5.9100 8806.00 10386.50 94.00
637 5.9160 8969.00 10442.60 95.00
638 5.9220 8926.00 10498.60 94.00
639 5.9280 8825.00 10555.70 94.00
640 5.9340 8824.00 10611.80 94.00
641 5.9400 8887.00 10668.80 94.00
642 5.9460 8907.00 10724.90 94.00
643 5.9520 8900.00 10781.00 94.00
644 5.9580 8903.00 10806.00 94.00
645 5.9640 8899.00 10765.90 94.00
646 5.9700 8787.00 10726.90 94.00
647 5.9760 8883.00 10686.90 94.00
648 5.9820 8917.00 10646.80 94.00
649 5.9880 8960.00 10607.80 95.00
650 5.9940 9120.00 10567.70 95.00
651 6.0000 9184.00 10527.70 96.00
652 6.0060 9072.00 10488.60 95.00
653 6.0120 9004.00 10448.60 95.00
654 6.0180 9098.00 10409.50 95.00
655 6.0240 9062.00 10369.50 95.00
656 6.0300 9035.00 10329.40 95.00
657 6.0360 9159.00 10290.40 96.00
658 6.0420 9193.00 10250.30 96.00
659 6.0480 9072.00 10211.30 95.00
660 6.0540 9116.00 10171.20 95.00
661 6.0600 9157.00 10131.20 96.00
662 6.0660 9074.00 10092.10 95.00
663 6.0720 9124.00 10052.10 96.00
664 6.0780 9232.00 10013.00 96.00
665 6.0840 9281.00 9973.00 96.00
666 6.0900 9316.00 9932.95 97.00
667 6.0960 9321.00 9893.90 97.00
668 6.1020 9345.00 9853.85 97.00
669 6.1080 9525.00 9831.83 98.00
670 6.1140 9565.00 9844.84 98.00
671 6.1200 9381.00 9857.86 97.00
672 6.1260 9263.00 9870.87 96.00
673 6.1320 9357.00 9883.89 97.00
674 6.1380 9480.00 9896.90 97.00
675 6.1440 9395.00 9909.92 97.00
676 6.1500 9379.00 9922.94 97.00
677 6.1560 9606.00 9935.95 98.00
678 6.1620 9629.00 9948.97 98.00
679 6.1680 9512.00 9961.98 98.00
680 6.1740 9452.00 9975.00 97.00
681 6.1800 9509.00 9988.01 98.00
682 6.1860 9526.00 10001.00 98.00
683 6.1920 9544.00 10014.00 98.00
684 6.1980 9574.00 10027.10 98.00
685 6.2040 9586.00 10040.10 98.00
686 6.2100 9617.00 10053.10 98.00
687 6.2160 9654.00 10066.10 98.00
688 6.2220 9721.00 10079.10 99.00
689 6.2280 9626.00 10092.10 98.00
690 6.2340 9602.00 10105.20 98.00
691 6.2400 9714.00 10118.20 99.00
692 6.2460 9738.00 10131.20 99.00
693 6.2520 9690.00 10144.20 98.00
694 6.2580 9850.00 10157.20 99.00
695 6.2640 10165.00 10170.20 101.00
696 6.2700 10703.00 10183.20 103.00
697 6.2760 11577.00 10196.30 108.00
698 6.2820 11764.00 10209.30 108.00
699 6.2880 11397.00 10222.30 107.00
700 6.2940 10624.00 10235.30 103.00
701 6.3000 10198.00 10248.30 101.00
702 6.3060 10036.00 10261.30 100.00
703 6.3120 9876.00 10274.40 99.00
704 6.3180 9837.00 10287.40 99.00
705 6.3240 9922.00 10300.40 100.00
706 6.3300 10053.00 10313.40 100.00
707 6.3360 10005.00 10326.40 100.00
708 6.3420 10070.00 10339.40 100.00
709 6.3480 9972.00 10352.50 100.00
710 6.3540 10033.00 10365.50 100.00
711 6.3600 10066.00 10378.50 100.00
712 6.3660 9936.00 10391.50 100.00
713 6.3720 10030.00 10404.50 100.00
714 6.3780 10205.00 10417.50 101.00
715 6.3840 10049.00 10430.50 100.00
716 6.3900 10078.00 10443.60 100.00
717 6.3960 10134.00 10456.60 101.00
718 6.4020 10078.00 10469.60 100.00
719 6.4080 10137.00 10482.60 101.00
720 6.4140 10163.00 10495.60 101.00
721 6.4200 10168.00 10508.60 101.00
722 6.4260 10167.00 10521.70 101.00
723 6.4320 10095.00 10534.70 100.00
724 6.4380 10138.00 10547.70 101.00
725 6.4440 10132.00 10560.70 101.00
726 6.4500 10049.00 10573.70 100.00
727 6.4560 10221.00 10586.70 101.00
728 6.4620 10385.00 10599.70 102.00
729 6.4680 10340.00 10612.80 102.00
730 6.4740 10354.00 10624.80 102.00
731 6.4800 10430.00 10630.80 102.00
732 6.4860 10341.00 10637.90 102.00
733 6.4920 10376.00 10643.00 102.00
734 6.4980 10418.00 10649.10 102.00
735 6.5040 10372.00 10655.20 102.00
736 6.5100 10425.00 10661.30 102.00
737 6.5160 10381.00 10666.40 102.00
738 6.5220 10436.00 10672.50 102.00
739 6.5280 10439.00 10678.60 102.00
740 6.5340 10544.00 10683.70 103.00
741 6.5400 10545.00 10689.90 103.00
742 6.5460 10554.00 10696.00 103.00
743 6.5520 10611.00 10702.20 103.00
744 6.5580 10778.00 10707.40 104.00
745 6.5640 11020.00 10713.60 105.00
746 6.5700 12107.00 10719.90 110.00
747 6.5760 14194.00 10725.20 119.00
748 6.5820 16250.00 10731.50 127.00
749 6.5880 16680.00 10737.90 129.00
750 6.5940 14758.00 10744.40 121.00
751 6.6000 12794.00 10749.90 113.00
752 6.6060 11438.00 10756.60 107.00
753 6.6120 11010.00 10763.30 105.00
754 6.6180 10670.00 10770.30 103.00
755 6.6240 10639.00 10776.40 103.00
756 6.6300 10754.00 10783.80 104.00
757 6.6360 10612.00 10791.60 103.00
758 6.6420 10574.00 10799.00 103.00
759 6.6480 10685.00 10808.00 103.00
760 6.6540 10669.00 10818.30 103.00
761 6.6600 10590.00 10830.90 103.00
762 6.6660 10565.00 10848.40 103.00
763 6.6720 10702.00 10883.80 103.00
764 6.6780 10547.00 10961.00 103.00
765 6.6840 10531.00 11115.10 103.00
766 6.6900 10512.00 11358.00 103.00
767 6.6960 10550.00 11631.00 103.00
768 6.7020 10510.00 11774.50 103.00
769 6.7080 10640.00 11662.80 103.00
770 6.7140 10672.00 11405.90 103.00
771 6.7200 10656.00 11167.30 103.00
772 6.7260 10559.00 11016.90 103.00
773 6.7320 10609.00 10945.10 103.00
774 6.7380 10560.00 10919.20 103.00
775 6.7440 10611.00 10911.80 103.00
776 6.7500 10823.00 10910.90 104.00
777 6.7560 10622.00 10911.50 103.00
778 6.7620 10651.00 10914.30 103.00
779 6.7680 10653.00 10918.00 103.00
780 6.7740 10820.00 10921.10 104.00
781 6.7800 10865.00 10925.70 104.00
782 6.7860 10862.00 10930.60 104.00
783 6.7920 11101.00 10935.60 105.00
784 6.7980 11189.00 10939.90 106.00
785 6.8040 11043.00 10945.20 105.00
786 6.8100 11106.00 10950.70 105.00
787 6.8160 11084.00 10956.20 105.00
788 6.8220 11216.00 10960.90 106.00
789 6.8280 11026.00 10966.50 105.00
790 6.8340 11050.00 10972.20 105.00
791 6.8400 10900.00 10977.00 104.00
792 6.8460 11103.00 10982.80 105.00
793 6.8520 11416.00 10988.60 107.00
794 6.8580 11908.00 10994.40 109.00
795 6.8640 12237.00 10999.30 111.00
796 6.8700 12028.00 11005.10 110.00
797 6.8760 11427.00 11011.00 107.00
798 6.8820 11105.00 11016.90 105.00
799 6.8880 11002.00 11021.80 105.00
800 6.8940 10869.00 11027.70 104.00
801 6.9000 10810.00 11033.60 104.00
802 6.9060 10731.00 11038.60 104.00
803 6.9120 11022.00 11044.50 105.00
804 6.9180 10859.00 11050.40 104.00
805 6.9240 10927.00 11055.30 105.00
806 6.9300 10900.00 11060.30 104.00
807 6.9360 10947.00 11066.30 105.00
808 6.9420 10740.00 11072.30 104.00
809 6.9480 10749.00 11077.30 104.00
810 6.9540 10768.00 11083.30 104.00
811 6.9600 10754.00 11089.30 104.00
812 6.9660 10680.00 11095.30 103.00
813 6.9720 10826.00 11100.40 104.00
814 6.9780 11008.00 11100.40 105.00
815 6.9840 10817.00 11098.30 104.00
816 6.9900 10978.00 11095.30 105.00
817 6.9960 10870.00 11092.30 104.00
818 7.0020 10819.00 11090.30 104.00
819 7.0080 10954.00 11087.30 105.00
820 7.0140 10730.00 11084.30 104.00
821 7.0200 10675.00 11081.30 103.00
822 7.0260 10644.00 11079.30 103.00
823 7.0320 10567.00 11076.30 103.00
824 7.0380 10693.00 11073.30 103.00
825 7.0440 10645.00 11070.30 103.00
826 7.0500 10785.00 11068.30 104.00
827 7.0560 10683.00 11065.30 103.00
828 7.0620 10934.00 11062.30 105.00
829 7.0680 10891.00 11059.30 104.00
830 7.0740 10800.00 11057.30 104.00
831 7.0800 10831.00 11054.30 104.00
832 7.0860 10684.00 11051.30 103.00
833 7.0920 11035.00 11048.30 105.00
834 7.0980 11205.00 11046.30 106.00
835 7.1040 11137.00 11043.30 106.00
836 7.1100 10963.00 11040.30 105.00
837 7.1160 10840.00 11038.30 104.00
838 7.1220 11075.00 11035.30 105.00
839 7.1280 10988.00 11032.30 105.00
840 7.1340 10955.00 11029.30 105.00
841 7.1400 10877.00 11027.30 104.00
842 7.1460 10814.00 11024.30 104.00
843 7.1520 10750.00 11021.30 104.00
844 7.1580 11009.00 11018.30 105.00
845 7.1640 10903.00 11016.20 104.00
846 7.1700 10737.00 11013.20 104.00
847 7.1760 10633.00 11010.20 103.00
848 7.1820 10648.00 11007.20 103.00
849 7.1880 10556.00 11005.20 103.00
850 7.1940 10788.00 11002.20 104.00
851 7.2000 10744.00 10999.20 104.00
852 7.2060 10629.00 10996.20 103.00
853 7.2120 10737.00 10994.20 104.00
854 7.2180 10711.00 10991.20 103.00
855 7.2240 10530.00 10988.20 103.00
856 7.2300 10744.00 10986.20 104.00
857 7.2360 10495.00 10984.40 102.00
858 7.2420 10508.00 10981.50 103.00
859 7.2480 10713.00 10978.50 104.00
860 7.2540 10667.00 10976.60 103.00
861 7.2600 10673.00 10973.70 103.00
862 7.2660 10348.00 10970.80 102.00
863 7.2720 10668.00 10967.90 103.00
864 7.2780 10664.00 10966.00 103.00
865 7.2840 10794.00 10963.10 104.00
866 7.2900 10809.00 10960.30 104.00
867 7.2960 10918.00 10957.40 104.00
868 7.3020 10768.00 10955.60 104.00
869 7.3080 10718.00 10952.80 104.00
870 7.3140 10475.00 10950.00 102.00
871 7.3200 10568.00 10947.20 103.00
872 7.3260 10546.00 10941.50 103.00
873 7.3320 10380.00 10927.80 102.00
874 7.3380 10468.00 10914.20 102.00
875 7.3440 10693.00 10900.60 103.00
876 7.3500 10557.00 10887.10 103.00
877 7.3560 10462.00 10873.70 102.00
878 7.3620 10555.00 10859.30 103.00
879 7.3680 10626.00 10846.20 103.00
880 7.3740 10591.00 10833.20 103.00
881 7.3800 10388.00 10820.50 102.00
882 7.3860 10495.00 10808.00 102.00
883 7.3920 10348.00 10796.00 102.00
884 7.3980 10626.00 10784.60 103.00
885 7.4040 10647.00 10774.10 103.00
886 7.4100 10447.00 10765.10 102.00
887 7.4160 10447.00 10759.40 102.00
888 7.4220 10564.00 10762.40 103.00
889 7.4280 10341.00 10787.50 102.00
890 7.4340 10243.00 10858.80 101.00
891 7.4400 10488.00 11001.00 102.00
892 7.4460 10564.00 11209.70 103.00
893 7.4520 10674.00 11415.20 103.00
894 7.4580 10750.00 11486.20 104.00
895 7.4640 11005.00 11354.80 105.00
896 7.4700 10826.00 11117.90 104.00
897 7.4760 10894.00 10892.50 104.00
898 7.4820 10561.00 10734.30 103.00
899 7.4880 10862.00 10642.20 104.00
900 7.4940 10705.00 10591.80 103.00
901 7.5000 10243.00 10561.50 101.00
902 7.5060 10732.00 10539.40 104.00
903 7.5120 10527.00 10520.40 103.00
904 7.5180 10474.00 10503.00 102.00
905 7.5240 10665.00 10486.40 103.00
906 7.5300 10632.00 10470.40 103.00
907 7.5360 11174.00 10453.90 106.00
908 7.5420 11887.00 10438.60 109.00
909 7.5480 11721.00 10423.60 108.00
910 7.5540 11325.00 10408.70 106.00
911 7.5600 10914.00 10394.00 104.00
912 7.5660 10577.00 10379.40 103.00
913 7.5720 10505.00 10364.90 102.00
914 7.5780 10484.00 10350.50 102.00
915 7.5840 10346.00 10336.10 102.00
916 7.5900 10397.00 10321.70 102.00
917 7.5960 10258.00 10307.40 101.00
918 7.6020 10357.00 10293.20 102.00
919 7.6080 10461.00 10278.90 102.00
920 7.6140 10271.00 10264.70 101.00
921 7.6200 10542.00 10249.50 103.00
922 7.6260 10468.00 10235.40 102.00
923 7.6320 10604.00 10221.20 103.00
924 7.6380 10737.00 10207.10 104.00
925 7.6440 10652.00 10192.90 103.00
926 7.6500 10776.00 10178.80 104.00
927 7.6560 10746.00 10164.70 104.00
928 7.6620 10507.00 10150.60 103.00
929 7.6680 10533.00 10136.50 103.00
930 7.6740 10354.00 10122.40 102.00
931 7.6800 10238.00 10108.30 101.00
932 7.6860 10146.00 10094.30 101.00
933 7.6920 10069.00 10079.20 100.00
934 7.6980 10199.00 10065.10 101.00
935 7.7040 10193.00 10050.10 101.00
936 7.7100 9992.00 10036.10 100.00
937 7.7160 9983.00 10022.10 100.00
938 7.7220 9912.00 10008.00 100.00
939 7.7280 9851.00 9994.02 99.00
940 7.7340 10064.00 9980.00 100.00
941 7.7400 10102.00 9965.99 101.00
942 7.7460 9889.00 9951.97 99.00
943 7.7520 9947.00 9937.95 100.00
944 7.7580 10033.00 9923.94 100.00
945 7.7640 9914.00 9909.92 100.00
946 7.7700 9938.00 9895.90 100.00
947 7.7760 9802.00 9881.89 99.00
948 7.7820 9959.00 9867.87 100.00
949 7.7880 9721.00 9853.85 99.00
950 7.7940 9841.00 9838.83 99.00
951 7.8000 9709.00 9826.82 99.00
952 7.8060 9960.00 9824.82 100.00
953 7.8120 9906.00 9821.81 100.00
954 7.8180 9800.00 9818.81 99.00
955 7.8240 9670.00 9816.81 98.00
956 7.8300 9694.00 9813.80 98.00
957 7.8360 9771.00 9810.80 99.00
958 7.8420 9633.00 9808.80 98.00
959 7.8480 9817.00 9805.79 99.00
960 7.8540 9841.00 9802.79 99.00
961 7.8600 9940.00 9800.79 100.00
962 7.8660 9664.00 9797.79 98.00
963 7.8720 9747.00 9794.78 99.00
964 7.8780 9768.00 9792.78 99.00
965 7.8840 9769.00 9789.78 99.00
966 7.8900 9805.00 9786.77 99.00
967 7.8960 9880.00 9784.77 99.00
968 7.9020 9650.00 9781.77 98.00
969 7.9080 9772.00 9778.76 99.00
970 7.9140 9705.00 9776.76 99.00
971 7.9200 9768.00 9773.76 99.00
972 7.9260 9805.00 9770.75 99.00
973 7.9320 9849.00 9768.75 99.00
974 7.9380 9748.00 9765.75 99.00
975 7.9440 9823.00 9762.74 99.00
976 7.9500 9691.00 9760.74 98.00
977 7.9560 9725.00 9757.74 99.00
978 7.9620 9589.00 9754.73 98.00
979 7.9680 9811.00 9751.73 99.00
980 7.9740 9929.00 9749.73 100.00
981 7.9800 10021.00 9746.72 100.00
982 7.9860 10014.00 9743.72 100.00
983 7.9920 9995.00 9741.72 100.00
984 7.9980 10079.00 9738.71 100.00
985 8.0040 10154.00 9735.71 101.00
986 8.0100 9966.00 9733.71 100.00
987 8.0160 10086.00 9730.70 100.00
988 8.0220 10200.00 9727.70 101.00
989 8.0280 10203.00 9725.70 101.00
990 8.0340 10674.00 9722.69 103.00
991 8.0400 11541.00 9719.69 107.00
992 8.0460 13161.00 9717.69 115.00
993 8.0520 15422.00 9714.68 124.00
994 8.0580 16734.00 9711.68 129.00
995 8.0640 15487.00 9709.68 124.00
996 8.0700 13582.00 9706.67 117.00
997 8.0760 11987.00 9703.67 109.00
998 8.0820 11624.00 9701.67 108.00
999 8.0880 12424.00 9698.67 111.00
1000 8.0940 13421.00 9695.66 116.00
1001 8.1000 14561.00 9693.66 121.00
1002 8.1060 14902.00 9690.66 122.00
1003 8.1120 15174.00 9687.65 123.00
1004 8.1180 15888.00 9685.65 126.00
1005 8.1240 16049.00 9682.65 127.00
1006 8.1300 14772.00 9679.64 122.00
1007 8.1360 13168.00 9677.64 115.00
1008 8.1420 11955.00 9674.64 109.00
1009 8.1480 11180.00 9671.63 106.00
1010 8.1540 10726.00 9669.63 104.00
1011 8.1600 10414.00 10235.50 102.00
1012 8.1660 10336.00 10744.00 102.00
1013 8.1720 10408.00 10797.80 102.00
1014 8.1780 10277.00 10855.00 101.00
1015 8.1840 10216.00 10917.10 101.00
1016 8.1900 10269.00 10985.60 101.00
1017 8.1960 10342.00 11059.30 102.00
1018 8.2020 10327.00 11139.70 102.00
1019 8.2080 10243.00 11228.80 101.00
1020 8.2140 10243.00 11325.40 101.00
1021 8.2200 10523.00 11431.70 103.00
1022 8.2260 10567.00 11550.00 103.00
1023 8.2320 10631.00 11679.80 103.00
1024 8.2380 10758.00 11824.00 104.00
1025 8.2440 10954.00 11985.50 105.00
1026 8.2500 11180.00 12165.00 106.00
1027 8.2560 11465.00 12366.50 107.00
1028 8.2620 11487.00 12594.70 107.00
1029 8.2680 11685.00 12852.00 108.00
1030 8.2740 11916.00 13144.90 109.00
1031 8.2800 12271.00 13481.10 111.00
1032 8.2860 12731.00 13867.30 113.00
1033 8.2920 13107.00 14314.80 114.00
1034 8.2980 13195.00 14838.60 115.00
1035 8.3040 13139.00 15453.80 115.00
1036 8.3100 13396.00 16184.70 116.00
1037 8.3160 13934.00 17062.50 118.00
1038 8.3220 14568.00 18126.40 121.00
1039 8.3280 15540.00 19433.70 125.00
1040 8.3340 17179.00 21064.20 131.00
1041 8.3400 19353.00 23131.30 139.00
1042 8.3460 21243.00 25816.30 146.00
1043 8.3520 23851.00 29463.70 154.00
1044 8.3580 28331.00 34897.90 168.00
1045 8.3640 35671.00 44390.90 189.00
1046 8.3700 49722.00 63691.30 223.00
1047 8.3760 81664.00 104558.00 286.00
1048 8.3820 154046.00 184270.00 392.00
1049 8.3880 291511.00 316795.00 540.00
1050 8.3940 492591.00 494421.00 702.00
1051 8.4000 674713.00 667187.00 821.00
1052 8.4060 735546.00 749959.00 858.00
1053 8.4120 650649.00 693840.00 807.00
1054 8.4180 486076.00 533527.00 697.00
1055 8.4240 326415.00 351963.00 571.00
1056 8.4300 208051.00 208427.00 456.00
1057 8.4360 133104.00 118248.00 365.00
1058 8.4420 86974.00 70442.70 295.00
1059 8.4480 59117.00 47560.60 243.00
1060 8.4540 42885.00 36504.60 207.00
1061 8.4600 33346.00 30418.90 183.00
1062 8.4660 27526.00 26465.50 166.00
1063 8.4720 23876.00 23599.70 155.00
1064 8.4780 20891.00 21409.70 145.00
1065 8.4840 18965.00 19690.50 138.00
1066 8.4900 17700.00 18314.50 133.00
1067 8.4960 16537.00 17196.70 129.00
1068 8.5020 15645.00 16278.00 125.00
1069 8.5080 14793.00 15512.00 122.00
1070 8.5140 13914.00 14867.70 118.00
1071 8.5200 13257.00 14321.40 115.00
1072 8.5260 12649.00 13852.70 112.00
1073 8.5320 12287.00 13448.20 111.00
1074 8.5380 12041.00 13097.60 110.00
1075 8.5440 11908.00 12790.10 109.00
1076 8.5500 11668.00 12519.50 108.00
1077 8.5560 11308.00 12281.20 106.00
1078 8.5620 11156.00 12068.40 106.00
1079 8.5680 11067.00 11878.40 105.00
1080 8.5740 10798.00 11708.90 104.00
1081 8.5800 10715.00 11555.40 104.00
1082 8.5860 10527.00 11416.60 103.00
1083 8.5920 10402.00 11291.70 102.00
1084 8.5980 10397.00 11177.10 102.00
1085 8.6040 10374.00 11072.50 102.00
1086 8.6100 10310.00 10977.60 102.00
1087 8.6160 10157.00 10889.60 101.00
1088 8.6220 10003.00 10808.60 100.00
1089 8.6280 9854.00 10734.70 99.00
1090 8.6340 9835.00 10665.50 99.00
1091 8.6400 9841.00 10601.30 99.00
1092 8.6460 9865.00 10542.60 99.00
1093 8.6520 9806.00 9945.70 99.00
1094 8.6580 9827.00 9444.36 99.00
1095 8.6640 9742.00 9442.36 99.00
1096 8.6700 9608.00 9439.35 98.00
1097 8.6760 9613.00 9436.35 98.00
1098 8.6820 9703.00 9434.35 99.00
1099 8.6880 9751.00 9704.39 99.00
1100 8.6940 9554.00 9714.79 98.00
1101 8.7000 9680.00 9727.21 98.00
1102 8.7060 9777.00 9739.73 99.00
1103 8.7120 9820.00 9753.50 99.00
1104 8.7180 10014.00 9769.62 100.00
1105 8.7240 9973.00 9786.27 100.00
1106 8.7300 9753.00 9795.59 99.00
1107 8.7360 9697.00 9805.81 98.00
1108 8.7420 9505.00 9817.15 97.00
1109 8.7480 9318.00 9831.88 97.00
1110 8.7540 9416.00 9848.30 97.00
1111 8.7600 9431.00 9868.79 97.00
1112 8.7660 9330.00 9892.74 97.00
1113 8.7720 9246.00 9919.68 96.00
1114 8.7780 9483.00 9952.18 97.00
1115 8.7840 9669.00 9988.96 98.00
1116 8.7900 9757.00 10032.80 99.00
1117 8.7960 9630.00 10082.80 98.00
1118 8.8020 9812.00 10142.20 99.00
1119 8.8080 9657.00 10210.50 98.00
1120 8.8140 9840.00 10291.50 99.00
1121 8.8200 9877.00 10385.60 99.00
1122 8.8260 9712.00 10497.70 99.00
1123 8.8320 9820.00 10630.60 99.00
1124 8.8380 9818.00 10788.00 99.00
1125 8.8440 9903.00 10978.40 100.00
1126 8.8500 9974.00 11208.00 100.00
1127 8.8560 10471.00 11490.00 102.00
1128 8.8620 10413.00 11837.70 102.00
1129 8.8680 10941.00 12274.50 105.00
1130 8.8740 11316.00 12829.60 106.00
1131 8.8800 11935.00 13553.70 109.00
1132 8.8860 12890.00 14536.70 114.00
1133 8.8920 14461.00 16002.60 120.00
1134 8.8980 16439.00 18547.90 128.00
1135 8.9040 20328.00 23682.70 143.00
1136 8.9100 27540.00 34476.40 166.00
1137 8.9160 42766.00 55455.90 207.00
1138 8.9220 77173.00 90290.20 278.00
1139 8.9280 135043.00 137140.00 367.00
1140 8.9340 188219.00 183650.00 434.00
1141 8.9400 208990.00 206150.00 457.00
1142 8.9460 182655.00 187856.00 427.00
1143 8.9520 129585.00 142693.00 360.00
1144 8.9580 83143.00 95010.50 288.00
1145 8.9640 53914.00 58544.30 232.00
1146 8.9700 37608.00 36105.90 194.00
1147 8.9760 30522.00 24380.60 175.00
1148 8.9820 26376.00 18768.60 162.00
1149 8.9880 22566.00 16004.00 150.00
1150 8.9940 18568.00 14430.40 136.00
1151 9.0000 15498.00 13381.10 124.00
1152 9.0060 13644.00 12606.70 117.00
1153 9.0120 12908.00 12008.50 114.00
1154 9.0180 12608.00 11533.00 112.00
1155 9.0240 12203.00 11149.60 110.00
1156 9.0300 11699.00 10833.90 108.00
1157 9.0360 10998.00 10572.10 105.00
1158 9.0420 10437.00 10350.70 102.00
1159 9.0480 9977.00 10162.90 100.00
1160 9.0540 9726.00 10001.40 99.00
1161 9.0600 9613.00 9860.09 98.00
1162 9.0660 9787.00 9737.22 99.00
1163 9.0720 9967.00 9627.72 100.00
1164 9.0780 9796.00 9531.21 99.00
1165 9.0840 9582.00 9443.78 98.00
1166 9.0900 9256.00 9365.86 96.00
1167 9.0960 9036.00 9294.20 95.00
1168 9.1020 8810.00 9229.75 94.00
1169 9.1080 8627.00 9169.66 93.00
1170 9.1140 8756.00 9115.20 94.00
1171 9.1200 8804.00 9064.79 94.00
1172 9.1260 8673.00 9016.91 93.00
1173 9.1320 8545.00 8973.13 92.00
1174 9.1380 8571.00 8931.08 93.00
1175 9.1440 8542.00 8892.45 92.00
1176 9.1500 8437.00 8854.98 92.00
1177 9.1560 8517.00 8820.42 92.00
1178 9.1620 8615.00 8786.57 93.00
1179 9.1680 8753.00 8755.26 94.00
1180 9.1740 8796.00 8724.34 94.00
1181 9.1800 8724.00 8695.65 93.00
1182 9.1860 8674.00 8667.10 93.00
1183 9.1920 8590.00 8640.57 93.00
1184 9.1980 8380.00 8353.05 92.00
1185 9.2040 8196.00 8339.03 91.00
1186 9.2100 8265.00 8326.01 91.00
1187 9.2160 8206.00 8312.00 91.00
1188 9.2220 8027.00 8298.98 90.00
1189 9.2280 8040.00 8284.96 90.00
1190 9.2340 7962.00 8271.95 89.00
1191 9.2400 7893.00 8257.93 89.00
1192 9.2460 7945.00 8244.92 89.00
1193 9.2520 7933.00 8230.90 89.00
1194 9.2580 7959.00 8217.88 89.00
1195 9.2640 8009.00 8203.87 89.00
1196 9.2700 8086.00 8190.85 90.00
1197 9.2760 7990.00 8177.84 89.00
1198 9.2820 7924.00 8163.82 89.00
1199 9.2880 7898.00 8150.80 89.00
1200 9.2940 7994.00 8136.79 89.00
1201 9.3000 7965.00 8123.77 89.00
1202 9.3060 7822.00 8109.75 88.00
1203 9.3120 8005.00 8096.74 89.00
1204 9.3180 8068.00 8082.72 90.00
1205 9.3240 8075.00 8069.71 90.00
1206 9.3300 7987.00 8055.69 89.00
1207 9.3360 7854.00 8042.67 89.00
1208 9.3420 7910.00 8030.66 89.00
1209 9.3480 7943.00 8024.65 89.00
1210 9.3540 7960.00 8019.65 89.00
1211 9.3600 7879.00 8014.64 89.00
1212 9.3660 7774.00 8008.63 88.00
1213 9.3720 7747.00 8003.63 88.00
1214 9.3780 7825.00 7998.62 88.00
1215 9.3840 7861.00 7992.61 89.00
1216 9.3900 7883.00 7987.61 89.00
1217 9.3960 7816.00 7981.60 88.00
1218 9.4020 7863.00 7976.59 89.00
1219 9.4080 8007.00 7971.59 89.00
1220 9.4140 7809.00 7965.58 88.00
1221 9.4200 7777.00 7960.58 88.00
1222 9.4260 7990.00 7955.57 89.00
1223 9.4320 8091.00 7949.56 90.00
1224 9.4380 7992.00 7944.56 89.00
1225 9.4440 7935.00 7938.55 89.00
1226 9.4500 7835.00 7933.54 89.00
1227 9.4560 8002.00 7928.54 89.00
1228 9.4620 8138.00 7922.53 90.00
1229 9.4680 8455.00 7917.52 92.00
1230 9.4740 9232.00 7912.52 96.00
1231 9.4800 10398.00 7906.51 102.00
1232 9.4860 11346.00 7901.50 107.00
1233 9.4920 11770.00 7895.50 108.00
1234 9.4980 12293.00 7890.49 111.00
1235 9.5040 12845.00 7885.48 113.00
1236 9.5100 12680.00 7958.30 113.00
1237 9.5160 11254.00 8058.03 106.00
1238 9.5220 9673.00 8061.51 98.00
1239 9.5280 8864.00 8064.59 94.00
1240 9.5340 8577.00 8069.33 93.00
1241 9.5400 8303.00 8073.79 91.00
1242 9.5460 8051.00 8080.06 90.00
1243 9.5520 8062.00 8087.21 90.00
1244 9.5580 8137.00 8094.33 90.00
1245 9.5640 8157.00 8103.53 90.00
1246 9.5700 8065.00 8113.95 90.00
1247 9.5760 7943.00 8124.71 89.00
1248 9.5820 8005.00 8137.97 89.00
1249 9.5880 7922.00 8151.93 89.00
1250 9.5940 8110.00 8168.79 90.00
1251 9.6000 8024.00 8187.82 90.00
1252 9.6060 8212.00 8208.29 91.00
1253 9.6120 8320.00 8232.56 91.00
1254 9.6180 8119.00 8260.03 90.00
1255 9.6240 8147.00 8290.18 90.00
1256 9.6300 8291.00 8325.60 91.00
1257 9.6360 8280.00 8364.96 91.00
1258 9.6420 8512.00 8411.13 92.00
1259 9.6480 8786.00 8464.11 94.00
1260 9.6540 9220.00 8524.18 96.00
1261 9.6600 9923.00 8594.88 100.00
1262 9.6660 11369.00 8677.20 107.00
1263 9.6720 12720.00 8772.59 113.00
1264 9.6780 12675.00 8886.27 113.00
1265 9.6840 11777.00 9020.29 109.00
1266 9.6900 10733.00 9182.08 104.00
1267 9.6960 10133.00 9377.87 101.00
1268 9.7020 9976.00 9616.36 100.00
1269 9.7080 10015.00 9913.17 100.00
1270 9.7140 10348.00 10287.00 102.00
1271 9.7200 10858.00 10768.50 104.00
1272 9.7260 11367.00 11421.20 107.00
1273 9.7320 12272.00 12387.10 111.00
1274 9.7380 13540.00 14026.10 116.00
1275 9.7440 16693.00 17154.80 129.00
1276 9.7500 21362.00 23321.00 146.00
1277 9.7560 32975.00 34753.80 182.00
1278 9.7620 55770.00 53467.20 236.00
1279 9.7680 94154.00 79331.30 307.00
1280 9.7740 136687.00 107735.00 370.00
1281 9.7800 167373.00 128473.00 409.00
1282 9.7860 161381.00 130690.00 402.00
1283 9.7920 133033.00 112905.00 365.00
1284 9.7980 97399.00 85691.40 312.00
1285 9.8040 67657.00 58739.30 260.00
1286 9.8100 46605.00 38507.90 216.00
1287 9.8160 33135.00 25811.00 182.00
1288 9.8220 24626.00 18857.40 157.00
1289 9.8280 19921.00 15338.80 141.00
1290 9.8340 17120.00 13544.90 131.00
1291 9.8400 15066.00 12533.80 123.00
1292 9.8460 13968.00 11883.40 118.00
1293 9.8520 13041.00 11426.10 114.00
1294 9.8580 12485.00 11090.80 112.00
1295 9.8640 12095.00 10842.00 110.00
1296 9.8700 12415.00 10661.00 111.00
1297 9.8760 12065.00 10532.10 110.00
1298 9.8820 11895.00 10447.90 109.00
1299 9.8880 11282.00 10400.80 106.00
1300 9.8940 11068.00 10385.30 105.00
1301 9.9000 10452.00 10400.50 102.00
1302 9.9060 10108.00 10443.80 101.00
1303 9.9120 9854.00 10513.60 99.00
1304 9.9180 9874.00 10612.20 99.00
1305 9.9240 9735.00 10738.70 99.00
1306 9.9300 9952.00 10897.50 100.00
1307 9.9360 9938.00 11090.50 100.00
1308 9.9420 9819.00 11321.10 99.00
1309 9.9480 9916.00 11596.80 100.00
1310 9.9540 10153.00 11924.00 101.00
1311 9.9600 10283.00 12311.10 101.00
1312 9.9660 10398.00 12772.40 102.00
1313 9.9720 10844.00 13322.00 104.00
1314 9.9780 11200.00 13982.60 106.00
1315 9.9840 11743.00 14781.50 108.00
1316 9.9900 11993.00 15755.00 110.00
1317 9.9960 12802.00 16957.30 113.00
1318 10.0020 14526.00 18460.20 121.00
1319 10.0080 15726.00 20375.20 125.00
1320 10.0140 18379.00 22902.30 136.00
1321 10.0200 21747.00 26474.80 147.00
1322 10.0260 27204.00 32172.50 165.00
1323 10.0320 37114.00 42596.80 193.00
1324 10.0380 60059.00 63155.50 245.00
1325 10.0440 105270.00 102662.00 324.00
1326 10.0500 182535.00 171099.00 427.00
1327 10.0560 294226.00 272663.00 542.00
1328 10.0620 415483.00 396382.00 645.00
1329 10.0680 484882.00 507429.00 696.00
1330 10.0740 488605.00 550295.00 699.00
1331 10.0800 430188.00 495513.00 656.00
1332 10.0860 343927.00 379837.00 586.00
1333 10.0920 260537.00 257513.00 510.00
1334 10.0980 189192.00 160002.00 435.00
1335 10.1040 135399.00 95783.30 368.00
1336 10.1100 98051.00 59332.90 313.00
1337 10.1160 69921.00 40516.00 264.00
1338 10.1220 51006.00 30924.30 226.00
1339 10.1280 39210.00 25586.00 198.00
1340 10.1340 31982.00 22167.60 179.00
1341 10.1400 26811.00 19713.60 164.00
1342 10.1460 24050.00 17835.10 155.00
1343 10.1520 22421.00 16350.90 150.00
1344 10.1580 19527.00 15155.10 140.00
1345 10.1640 17059.00 14176.40 131.00
1346 10.1700 14872.00 13366.90 122.00
1347 10.1760 13536.00 12689.60 116.00
1348 10.1820 12381.00 12115.90 111.00
1349 10.1880 11714.00 11627.70 108.00
1350 10.1940 11218.00 11206.90 106.00
1351 10.2000 10712.00 10843.40 103.00
1352 10.2060 10270.00 10526.40 101.00
1353 10.2120 10251.00 10247.30 101.00
1354 10.2180 9702.00 10001.80 98.00
1355 10.2240 9423.00 9784.14 97.00
1356 10.2300 9285.00 9589.08 96.00
1357 10.2360 8981.00 9415.26 95.00
1358 10.2420 8958.00 9257.97 95.00
1359 10.2480 8654.00 9116.82 93.00
1360 10.2540 8799.00 8988.95 94.00
1361 10.2600 8479.00 8871.66 92.00
1362 10.2660 8615.00 8765.65 93.00
1363 10.2720 8454.00 8668.77 92.00
1364 10.2780 8496.00 8579.26 92.00
1365 10.2840 8659.00 8498.67 93.00
1366 10.2900 8929.00 8424.99 94.00
1367 10.2960 9328.00 8360.28 97.00
1368 10.3020 10441.00 8303.21 102.00
1369 10.3080 12203.00 8251.28 110.00
1370 10.3140 13772.00 8203.19 117.00
1371 10.3200 13789.00 8153.23 117.00
1372 10.3260 12681.00 8097.94 113.00
1373 10.3320 11434.00 8042.04 107.00
1374 10.3380 10638.00 7987.42 103.00
1375 10.3440 10829.00 7938.29 104.00
1376 10.3500 12302.00 7894.10 111.00
1377 10.3560 14708.00 7124.93 121.00
1378 10.3620 15446.00 7118.35 124.00
1379 10.3680 13947.00 7112.53 118.00
1380 10.3740 11319.00 7106.08 106.00
1381 10.3800 9631.00 7100.78 98.00
1382 10.3860 8613.00 7094.57 93.00
1383 10.3920 8070.00 7089.41 90.00
1384 10.3980 7724.00 7084.28 88.00
1385 10.4040 7587.00 7078.17 87.00
1386 10.4100 7451.00 7073.08 86.00
1387 10.4160 7400.00 7068.01 86.00
1388 10.4220 7260.00 7061.95 85.00
1389 10.4280 7381.00 7056.89 86.00
1390 10.4340 7315.00 7050.85 86.00
1391 10.4400 7120.00 7045.81 84.00
1392 10.4460 7214.00 7040.77 85.00
1393 10.4520 7247.00 7034.74 85.00
1394 10.4580 7195.00 7029.71 85.00
1395 10.4640 7245.00 7024.68 85.00
1396 10.4700 7227.00 7018.66 85.00
1397 10.4760 7075.00 7013.63 84.00
1398 10.4820 7318.00 7007.61 86.00
1399 10.4880 7283.00 7002.59 85.00
1400 10.4940 7232.00 6997.58 85.00
1401 10.5000 7156.00 6991.56 85.00
1402 10.5060 7104.00 6986.54 84.00
1403 10.5120 7035.00 6981.53 84.00
1404 10.5180 7093.00 6975.51 84.00
1405 10.5240 7118.00 6970.50 84.00
1406 10.5300 7188.00 6964.49 85.00
1407 10.5360 7226.00 6959.48 85.00
1408 10.5420 7175.00 6954.46 85.00
1409 10.5480 7104.00 6948.45 84.00
1410 10.5540 7056.00 6943.44 84.00
1411 10.5600 7032.00 6938.43 84.00
1412 10.5660 6937.00 6932.42 83.00
1413 10.5720 6857.00 6927.41 83.00
1414 10.5780 6845.00 6921.40 83.00
1415 10.5840 6793.00 6916.39 82.00
1416 10.5900 6711.00 6911.38 82.00
1417 10.5960 6862.00 6905.37 83.00
1418 10.6020 6718.00 6900.30 82.00
1419 10.6080 6700.00 6895.29 82.00
1420 10.6140 6660.00 6889.29 82.00
1421 10.6200 6726.00 6884.28 82.00
1422 10.6260 6751.00 6878.27 82.00
1423 10.6320 6814.00 6873.27 83.00
1424 10.6380 6538.00 6868.26 81.00
1425 10.6440 6732.00 6862.25 82.00
1426 10.6500 6622.00 6857.25 81.00
1427 10.6560 6596.00 6852.24 81.00
1428 10.6620 6618.00 6846.23 81.00
1429 10.6680 6544.00 6841.23 81.00
1430 10.6740 6557.00 6835.22 81.00
1431 10.6800 6571.00 6830.22 81.00
1432 10.6860 6662.00 6825.21 82.00
1433 10.6920 6680.00 6819.20 82.00
1434 10.6980 6623.00 6814.20 81.00
1435 10.7040 6543.00 6809.19 81.00
1436 10.7100 6662.00 6803.18 82.00
1437 10.7160 6664.00 6798.18 82.00
1438 10.7220 6680.00 6792.17 82.00
1439 10.7280 6486.00 6787.16 81.00
1440 10.7340 6652.00 6798.01 82.00
1441 10.7400 6847.00 6792.68 83.00
1442 10.7460 6818.00 6788.39 83.00
1443 10.7520 6825.00 6784.15 83.00
1444 10.7580 6864.00 6778.96 83.00
1445 10.7640 7115.00 6774.82 84.00
1446 10.7700 7339.00 6769.75 86.00
1447 10.7760 8015.00 6765.75 90.00
1448 10.7820 9124.00 6761.82 96.00
1449 10.7880 10473.00 6756.98 102.00
1450 10.7940 10767.00 6753.23 104.00
1451 10.8000 10081.00 6749.57 100.00
1452 10.8060 9435.00 6745.03 97.00
1453 10.8120 9253.00 6741.62 96.00
1454 10.8180 9686.00 6737.34 98.00
1455 10.8240 10176.00 6734.22 101.00
1456 10.8300 9986.00 6731.28 100.00
1457 10.8360 9005.00 6727.53 95.00
1458 10.8420 8101.00 6725.01 90.00
1459 10.8480 7573.00 6722.74 87.00
1460 10.8540 7056.00 6719.76 84.00
1461 10.8600 6835.00 6718.12 83.00
1462 10.8660 6801.00 6715.86 82.00
1463 10.8720 6576.00 6715.04 81.00
1464 10.8780 6709.00 6714.74 82.00
1465 10.8840 6910.00 6714.03 83.00
1466 10.8900 6940.00 6724.50 83.00
1467 10.8960 6850.00 6725.75 83.00
1468 10.9020 6754.00 6729.03 82.00
1469 10.9080 6686.00 6733.55 82.00
1470 10.9140 6585.00 6738.56 81.00
1471 10.9200 6509.00 6746.41 81.00
1472 10.9260 6462.00 6756.53 80.00
1473 10.9320 6538.00 6768.47 81.00
1474 10.9380 6499.00 6785.00 81.00
1475 10.9440 6652.00 6805.14 82.00
1476 10.9500 6787.00 6832.33 82.00
1477 10.9560 6775.00 6867.82 82.00
1478 10.9620 6773.00 6914.61 82.00
1479 10.9680 6736.00 6983.42 82.00
1480 10.9740 6811.00 7093.59 83.00
1481 10.9800 7073.00 7290.15 84.00
1482 10.9860 7599.00 7665.44 87.00
1483 10.9920 8274.00 8360.51 91.00
1484 10.9980 9743.00 9543.03 99.00
1485 11.0040 11822.00 11305.70 109.00
1486 11.0100 14073.00 13533.90 119.00
1487 11.0160 15858.00 15772.10 126.00
1488 11.0220 16197.00 17172.00 127.00
1489 11.0280 15461.00 16929.40 124.00
1490 11.0340 14004.00 15200.70 118.00
1491 11.0400 12318.00 12890.40 111.00
1492 11.0460 11048.00 10753.80 105.00
1493 11.0520 9873.00 9142.93 99.00
1494 11.0580 9272.00 8101.17 96.00
1495 11.0640 9312.00 7504.43 96.00
1496 11.0700 10105.00 7186.30 101.00
1497 11.0760 11675.00 7016.13 108.00
1498 11.0820 13604.00 6919.61 117.00
1499 11.0880 14452.00 6857.67 120.00
1500 11.0940 13084.00 6816.55 114.00
1501 11.1000 10761.00 6788.86 104.00
1502 11.1060 9154.00 6771.04 96.00
1503 11.1120 8081.00 6764.31 90.00
1504 11.1180 7579.00 6768.45 87.00
1505 11.1240 7220.00 6785.85 85.00
1506 11.1300 6925.00 6827.87 83.00
1507 11.1360 6867.00 7036.21 83.00
1508 11.1420 6936.00 7332.52 83.00
1509 11.1480 7144.00 7689.16 85.00
1510 11.1540 7642.00 8307.40 87.00
1511 11.1600 8623.00 9258.08 93.00
1512 11.1660 10264.00 10510.30 101.00
1513 11.1720 12221.00 11855.20 111.00
1514 11.1780 13223.00 12860.60 115.00
1515 11.1840 12868.00 13006.00 113.00
1516 11.1900 11487.00 12204.20 107.00
1517 11.1960 9940.00 10911.00 100.00
1518 11.2020 8644.00 9614.22 93.00
1519 11.2080 7908.00 8583.51 89.00
1520 11.2140 7518.00 7889.76 87.00
1521 11.2200 7251.00 7481.94 85.00
1522 11.2260 7129.00 7268.69 84.00
1523 11.2320 7053.00 7164.48 84.00
1524 11.2380 7127.00 7117.64 84.00
1525 11.2440 7289.00 7099.32 85.00
1526 11.2500 7261.00 7096.19 85.00
1527 11.2560 7185.00 7105.22 85.00
1528 11.2620 7100.00 7123.38 84.00
1529 11.2680 7145.00 7148.87 85.00
1530 11.2740 7045.00 7183.50 84.00
1531 11.2800 6897.00 7225.43 83.00
1532 11.2860 6870.00 7277.21 83.00
1533 11.2920 6900.00 7338.63 83.00
1534 11.2980 6887.00 7409.84 83.00
1535 11.3040 6883.00 7494.37 83.00
1536 11.3100 6984.00 7593.21 84.00
1537 11.3160 7090.00 7707.83 84.00
1538 11.3220 7242.00 7828.43 85.00
1539 11.3280 7554.00 7987.88 87.00
1540 11.3340 7806.00 8177.73 88.00
1541 11.3400 8031.00 8404.03 90.00
1542 11.3460 8351.00 8674.88 91.00
1543 11.3520 8587.00 9004.72 93.00
1544 11.3580 8820.00 9409.58 94.00
1545 11.3640 9072.00 9913.76 95.00
1546 11.3700 9474.00 10561.50 97.00
1547 11.3760 10312.00 11435.20 102.00
1548 11.3820 11399.00 12724.40 107.00
1549 11.3880 13020.00 14850.20 114.00
1550 11.3940 16104.00 18675.00 127.00
1551 11.4000 21202.00 25692.00 146.00
1552 11.4060 30468.00 37948.20 175.00
1553 11.4120 48188.00 57354.70 220.00
1554 11.4180 79393.00 84323.80 282.00
1555 11.4240 121515.00 115999.00 349.00
1556 11.4300 159571.00 144815.00 399.00
1557 11.4360 172070.00 159414.00 415.00
1558 11.4420 154112.00 152228.00 393.00
1559 11.4480 121973.00 127172.00 349.00
1560 11.4540 88192.00 95392.40 297.00
1561 11.4600 60335.00 66191.30 246.00
1562 11.4660 41399.00 43980.30 203.00
1563 11.4720 29129.00 29322.20 171.00
1564 11.4780 21820.00 20660.70 148.00
1565 11.4840 17302.00 15870.90 132.00
1566 11.4900 14286.00 13248.30 120.00
1567 11.4960 12312.00 11711.40 111.00
1568 11.5020 10977.00 10705.60 105.00
1569 11.5080 9989.00 9976.59 100.00
1570 11.5140 9172.00 9414.72 96.00
1571 11.5200 8580.00 8964.46 93.00
1572 11.5260 8167.00 8597.98 90.00
1573 11.5320 7846.00 8294.70 89.00
1574 11.5380 7514.00 8039.70 87.00
1575 11.5440 7281.00 7824.91 85.00
1576 11.5500 7055.00 7641.49 84.00
1577 11.5560 6912.00 7482.58 83.00
1578 11.5620 6848.00 7345.54 83.00
1579 11.5680 6812.00 7224.78 83.00
1580 11.5740 6704.00 7119.40 82.00
1581 11.5800 6598.00 7026.14 81.00
1582 11.5860 6495.00 6942.11 81.00
1583 11.5920 6354.00 6867.82 80.00
1584 11.5980 6427.00 6801.00 80.00
1585 11.6040 6421.00 6739.61 80.00
1586 11.6100 6319.00 6684.80 79.00
1587 11.6160 6339.00 6635.85 80.00
1588 11.6220 6391.00 6591.15 80.00
1589 11.6280 6435.00 6550.18 80.00
1590 11.6340 6604.00 6513.50 81.00
1591 11.6400 6917.00 6478.73 83.00
1592 11.6460 7143.00 6446.55 85.00
1593 11.6520 7002.00 6416.67 84.00
1594 11.6580 6775.00 6388.85 82.00
1595 11.6640 6434.00 6363.88 80.00
1596 11.6700 6229.00 6339.57 79.00
1597 11.6760 6105.00 6316.76 78.00
1598 11.6820 6077.00 6295.30 78.00
1599 11.6880 6173.00 6275.07 79.00
1600 11.6940 6160.00 6256.96 78.00
1601 11.7000 6238.00 6238.86 79.00
1602 11.7060 6690.00 6221.69 82.00
1603 11.7120 7058.00 6205.37 84.00
1604 11.7180 7128.00 6189.83 84.00
1605 11.7240 6901.00 6175.99 83.00
1606 11.7300 6564.00 6161.82 81.00
1607 11.7360 6367.00 6148.24 80.00
1608 11.7420 6221.00 6021.21 79.00
1609 11.7480 5964.00 5908.11 77.00
1610 11.7540 5790.00 5905.10 76.00
1611 11.7600 5875.00 5901.10 77.00
1612 11.7660 5868.00 5897.09 77.00
1613 11.7720 5774.00 5893.09 76.00
1614 11.7780 5799.00 5889.08 76.00
1615 11.7840 5693.00 5886.08 75.00
1616 11.7900 5664.00 5882.08 75.00
1617 11.7960 5631.00 5888.82 75.00
1618 11.8020 5718.00 5885.24 76.00
1619 11.8080 5636.00 5881.68 75.00
1620 11.8140 5545.00 5879.15 74.00
1621 11.8200 5459.00 5875.65 74.00
1622 11.8260 5496.00 5872.18 74.00
1623 11.8320 5575.00 5868.75 75.00
1624 11.8380 5547.00 5865.35 74.00
1625 11.8440 5613.00 5863.00 75.00
1626 11.8500 5673.00 5859.70 75.00
1627 11.8560 5598.00 5856.44 75.00
1628 11.8620 5616.00 5853.23 75.00
1629 11.8680 5606.00 5850.09 75.00
1630 11.8740 5575.00 5848.01 75.00
1631 11.8800 5585.00 5845.01 75.00
1632 11.8860 5711.00 5842.09 76.00
1633 11.8920 5608.00 5839.26 75.00
1634 11.8980 5593.00 5836.52 75.00
1635 11.9040 5610.00 5833.90 75.00
1636 11.9100 5573.00 5832.41 75.00
1637 11.9160 5566.00 5830.05 75.00
1638 11.9220 5600.00 5827.86 75.00
1639 11.9280 5625.00 5825.84 75.00
1640 11.9340 5847.00 5824.03 76.00
1641 11.9400 5922.00 5823.45 77.00
1642 11.9460 6146.00 5822.14 78.00
1643 11.9520 6499.00 5821.14 81.00
1644 11.9580 6843.00 5820.50 83.00
1645 11.9640 6912.00 5820.27 83.00
1646 11.9700 6516.00 5821.52 81.00
1647 11.9760 6101.00 5822.35 78.00
1648 11.9820 5785.00 5823.86 76.00
1649 11.9880 5646.00 5826.18 75.00
1650 11.9940 5694.00 5829.47 75.00
1651 12.0000 5664.00 5834.96 75.00
1652 12.0060 5670.00 5840.89 75.00
1653 12.0120 5801.00 5848.63 76.00
1654 12.0180 5682.00 5858.62 75.00
1655 12.0240 5631.00 5871.49 75.00
1656 12.0300 5743.00 5889.07 76.00
1657 12.0360 5779.00 5910.68 76.00
1658 12.0420 5763.00 5939.54 76.00
1659 12.0480 5899.00 5980.21 77.00
1660 12.0540 5906.00 6042.73 77.00
1661 12.0600 5997.00 6149.86 77.00
1662 12.0660 6410.00 6341.79 80.00
1663 12.0720 6838.00 6688.81 83.00
1664 12.0780 7471.00 7280.79 86.00
1665 12.0840 9218.00 8195.07 96.00
1666 12.0900 11520.00 9440.26 107.00
1667 12.0960 13698.00 10883.20 117.00
1668 12.1020 15586.00 12197.60 125.00
1669 12.1080 16079.00 12874.90 127.00
1670 12.1140 15395.00 12545.50 124.00
1671 12.1200 13869.00 11397.50 118.00
1672 12.1260 12245.00 9944.15 111.00
1673 12.1320 10917.00 8593.55 104.00
1674 12.1380 9738.00 7543.68 99.00
1675 12.1440 8641.00 6830.64 93.00
1676 12.1500 7773.00 6396.50 88.00
1677 12.1560 7125.00 6148.46 84.00
1678 12.1620 6770.00 6008.76 82.00
1679 12.1680 6534.00 5925.45 81.00
1680 12.1740 6485.00 5870.29 81.00
1681 12.1800 6746.00 5830.75 82.00
1682 12.1860 7200.00 5798.79 85.00
1683 12.1920 7589.00 5772.52 87.00
1684 12.1980 7527.00 5750.38 87.00
1685 12.2040 6970.00 5731.39 83.00
1686 12.2100 6461.00 5715.87 80.00
1687 12.2160 6067.00 5701.30 78.00
1688 12.2220 5869.00 5688.30 77.00
1689 12.2280 5778.00 5676.58 76.00
1690 12.2340 5738.00 5665.91 76.00
1691 12.2400 5746.00 5657.11 76.00
1692 12.2460 5949.00 5648.04 77.00
1693 12.2520 6001.00 5639.57 77.00
1694 12.2580 6112.00 5631.62 78.00
1695 12.2640 5885.00 5624.11 77.00
1696 12.2700 5698.00 5617.97 75.00
1697 12.2760 5584.00 5611.17 75.00
1698 12.2820 5499.00 5604.64 74.00
1699 12.2880 5516.00 5598.36 74.00
1700 12.2940 5492.00 5592.29 74.00
1701 12.3000 5477.00 5587.41 74.00
1702 12.3060 5422.00 5581.70 74.00
1703 12.3120 5583.00 5576.14 75.00
1704 12.3180 5463.00 5570.70 74.00
1705 12.3240 5557.00 5565.39 75.00
1706 12.3300 5697.00 5561.17 75.00
1707 12.3360 5671.00 5556.05 75.00
1708 12.3420 5634.00 5551.02 75.00
1709 12.3480 5545.00 5546.06 74.00
1710 12.3540 5459.00 5541.17 74.00
1711 12.3600 5590.00 5537.34 75.00
1712 12.3660 5604.00 5532.57 75.00
1713 12.3720 5634.00 5527.85 75.00
1714 12.3780 5676.00 5523.18 75.00
1715 12.3840 5510.00 5518.55 74.00
1716 12.3900 5529.00 5514.96 74.00
1717 12.3960 5414.00 5510.41 74.00
1718 12.4020 5356.00 5505.88 73.00
1719 12.4080 5540.00 5501.39 74.00
1720 12.4140 5513.00 5496.93 74.00
1721 12.4200 5555.00 5493.50 75.00
1722 12.4260 5703.00 5478.59 76.00
1723 12.4320 5886.00 5474.58 77.00
1724 12.4380 6203.00 5470.58 79.00
1725 12.4440 6375.00 5466.58 80.00
1726 12.4500 6131.00 5463.57 78.00
1727 12.4560 6061.00 5459.57 78.00
1728 12.4620 5838.00 5455.56 76.00
1729 12.4680 5702.00 5451.56 76.00
1730 12.4740 5603.00 5447.55 75.00
1731 12.4800 5562.00 5444.55 75.00
1732 12.4860 5436.00 5440.54 74.00
1733 12.4920 5506.00 5436.54 74.00
1734 12.4980 5442.00 5432.53 74.00
1735 12.5040 5415.00 5428.53 74.00
1736 12.5100 5582.00 5425.53 75.00
1737 12.5160 5750.00 5421.52 76.00
1738 12.5220 5695.00 5417.52 75.00
1739 12.5280 6041.00 5413.51 78.00
1740 12.5340 6466.00 5409.51 80.00
1741 12.5400 6678.00 5406.50 82.00
1742 12.5460 6540.00 5402.50 81.00
1743 12.5520 6460.00 5398.49 80.00
1744 12.5580 6275.00 5394.49 79.00
1745 12.5640 6237.00 5390.48 79.00
1746 12.5700 6728.00 5387.48 82.00
1747 12.5760 7674.00 5383.48 88.00
1748 12.5820 8796.00 5379.47 94.00
1749 12.5880 9158.00 5375.47 96.00
1750 12.5940 8376.00 5371.46 92.00
1751 12.6000 7450.00 5368.46 86.00
1752 12.6060 6697.00 5364.45 82.00
1753 12.6120 6017.00 5360.45 78.00
1754 12.6180 5946.00 5356.44 77.00
1755 12.6240 5741.00 5352.44 76.00
1756 12.6300 5567.00 5349.43 75.00
1757 12.6360 5466.00 5345.43 74.00
1758 12.6420 5521.00 5341.42 74.00
1759 12.6480 5447.00 5337.42 74.00
1760 12.6540 5392.00 5333.42 73.00
1761 12.6600 5254.00 5330.41 72.00
1762 12.6660 5371.00 5326.41 73.00
1763 12.6720 5449.00 5322.40 74.00
1764 12.6780 5443.00 5318.40 74.00
1765 12.6840 5497.00 5314.39 74.00
1766 12.6900 5306.00 5311.39 73.00
1767 12.6960 5262.00 5307.38 73.00
1768 12.7020 5324.00 5303.38 73.00
1769 12.7080 5217.00 5299.37 72.00
1770 12.7140 5364.00 5295.37 73.00
1771 12.7200 5315.00 5292.37 73.00
1772 12.7260 5286.00 5288.36 73.00
1773 12.7320 5362.00 5284.36 73.00
1774 12.7380 5361.00 5280.35 73.00
1775 12.7440 5411.00 5279.35 74.00
1776 12.7500 5333.00 5283.35 73.00
1777 12.7560 5318.00 5288.36 73.00
1778 12.7620 5394.00 5292.37 73.00
1779 12.7680 5471.00 5296.37 74.00
1780 12.7740 5497.00 5301.38 74.00
1781 12.7800 5556.00 5305.38 75.00
1782 12.7860 5611.00 5309.39 75.00
1783 12.7920 5486.00 5314.39 74.00
1784 12.7980 5457.00 5318.40 74.00
1785 12.8040 5450.00 5322.40 74.00
1786 12.8100 5435.00 5327.41 74.00
1787 12.8160 5436.00 5331.41 74.00
1788 12.8220 5529.00 5336.42 74.00
1789 12.8280 5375.00 5340.42 73.00
1790 12.8340 5449.00 5344.43 74.00
1791 12.8400 5565.00 5349.43 75.00
1792 12.8460 5670.00 5353.44 75.00
1793 12.8520 5872.00 5357.44 77.00
1794 12.8580 6016.00 5362.45 78.00
1795 12.8640 6142.00 5366.45 78.00
1796 12.8700 6161.00 5370.46 78.00
1797 12.8760 5806.00 5375.47 76.00
1798 12.8820 5819.00 5379.47 76.00
1799 12.8880 5617.00 5383.48 75.00
1800 12.8940 5713.00 5388.48 76.00
1801 12.9000 5715.00 5392.49 76.00
1802 12.9060 5532.00 5396.49 74.00
1803 12.9120 5318.00 5401.50 73.00
1804 12.9180 5463.00 5405.50 74.00
1805 12.9240 5615.00 5409.51 75.00
1806 12.9300 5440.00 5419.77 74.00
1807 12.9360 5383.00 5428.36 73.00
1808 12.9420 5540.00 5432.73 74.00
1809 12.9480 5467.00 5438.12 74.00
1810 12.9540 5523.00 5442.54 74.00
1811 12.9600 5673.00 5446.97 75.00
1812 12.9660 5533.00 5452.44 74.00
1813 12.9720 5453.00 5456.93 74.00
1814 12.9780 5471.00 5461.45 74.00
1815 12.9840 5549.00 5467.00 74.00
1816 12.9900 5539.00 5471.59 74.00
1817 12.9960 5465.00 5477.22 74.00
1818 13.0020 5628.00 5481.89 75.00
1819 13.0080 5491.00 5486.61 74.00
1820 13.0140 5545.00 5492.38 74.00
1821 13.0200 5382.00 5497.20 73.00
1822 13.0260 5440.00 5502.09 74.00
1823 13.0320 5453.00 5508.04 74.00
1824 13.0380 5419.00 5513.06 74.00
1825 13.0440 5638.00 5518.17 75.00
1826 13.0500 5486.00 5524.37 74.00
1827 13.0560 5489.00 5529.68 74.00
1828 13.0620 5597.00 5535.09 75.00
1829 13.0680 5556.00 5541.64 75.00
1830 13.0740 5394.00 5547.33 73.00
1831 13.0800 5489.00 5553.17 74.00
1832 13.0860 5682.00 5624.81 75.00
1833 13.0920 5530.00 5633.37 74.00
1834 13.0980 5652.00 5642.29 75.00
1835 13.1040 5627.00 5652.63 75.00
1836 13.1100 5679.00 5662.42 75.00
1837 13.1160 5644.00 5672.73 75.00
1838 13.1220 5751.00 5684.64 76.00
1839 13.1280 5772.00 5696.22 76.00
1840 13.1340 5915.00 5708.57 77.00
1841 13.1400 6016.00 5722.83 78.00
1842 13.1460 6278.00 6091.04 79.00
1843 13.1520 6388.00 6119.44 80.00
1844 13.1580 6590.00 6151.03 81.00
1845 13.1640 6578.00 6184.13 81.00
1846 13.1700 6398.00 6221.21 80.00
1847 13.1760 6423.00 6260.79 80.00
1848 13.1820 6385.00 6304.64 80.00
1849 13.1880 6306.00 6354.77 79.00
1850 13.1940 6260.00 6410.88 79.00
1851 13.2000 6295.00 6477.04 79.00
1852 13.2060 6191.00 6560.50 79.00
1853 13.2120 6460.00 6671.92 80.00
1854 13.2180 6246.00 6836.38 79.00
1855 13.2240 6365.00 7095.04 80.00
1856 13.2300 6588.00 7502.53 81.00
1857 13.2360 6791.00 8121.80 82.00
1858 13.2420 7532.00 8994.19 87.00
1859 13.2480 8448.00 10098.90 92.00
1860 13.2540 9827.00 11317.60 99.00
1861 13.2600 11034.00 12400.30 105.00
1862 13.2660 11298.00 12996.30 106.00
1863 13.2720 10747.00 12868.90 104.00
1864 13.2780 9685.00 12116.90 98.00
1865 13.2840 8784.00 11072.00 94.00
1866 13.2900 8063.00 10045.40 90.00
1867 13.2960 7795.00 9218.23 88.00
1868 13.3020 7418.00 8651.12 86.00
1869 13.3080 7358.00 8329.65 86.00
1870 13.3140 7490.00 8201.32 87.00
1871 13.3200 7531.00 8206.02 87.00
1872 13.3260 8011.00 8300.14 90.00
1873 13.3320 8413.00 8458.11 92.00
1874 13.3380 8719.00 8666.45 93.00
1875 13.3440 8989.00 8925.94 95.00
1876 13.3500 8671.00 9241.02 93.00
1877 13.3560 8744.00 9627.11 94.00
1878 13.3620 8832.00 10114.00 94.00
1879 13.3680 9206.00 10756.40 96.00
1880 13.3740 9914.00 11667.30 100.00
1881 13.3800 10952.00 13050.80 105.00
1882 13.3860 12345.00 15226.90 111.00
1883 13.3920 14807.00 18622.80 122.00
1884 13.3980 19001.00 23663.80 138.00
1885 13.4040 26763.00 30565.70 164.00
1886 13.4100 38601.00 39081.80 196.00
1887 13.4160 54060.00 48269.80 233.00
1888 13.4220 64487.00 56358.80 254.00
1889 13.4280 65536.00 61304.40 256.00
1890 13.4340 60140.00 62777.40 245.00
1891 13.4400 54548.00 63604.80 234.00
1892 13.4460 56557.00 68261.90 238.00
1893 13.4520 68599.00 80843.50 262.00
1894 13.4580 95512.00 103884.00 309.00
1895 13.4640 136997.00 137223.00 370.00
1896 13.4700 187070.00 176890.00 433.00
1897 13.4760 224177.00 214071.00 473.00
1898 13.4820 239879.00 235692.00 490.00
1899 13.4880 219990.00 231019.00 469.00
1900 13.4940 188401.00 201968.00 434.00
1901 13.5000 150159.00 160710.00 388.00
1902 13.5060 113680.00 118916.00 337.00
1903 13.5120 82560.00 83504.20 287.00
1904 13.5180 60225.00 57104.20 245.00
1905 13.5240 44445.00 39353.60 211.00
1906 13.5300 33437.00 28347.20 183.00
1907 13.5360 26388.00 21843.30 162.00
1908 13.5420 21044.00 18008.70 145.00
1909 13.5480 17619.00 15633.80 133.00
1910 13.5540 15120.00 14035.20 123.00
1911 13.5600 13662.00 12862.80 117.00
1912 13.5660 11957.00 11949.70 109.00
1913 13.5720 11109.00 11213.10 105.00
1914 13.5780 10305.00 10604.40 102.00
1915 13.5840 9739.00 10095.60 99.00
1916 13.5900 9159.00 9666.70 96.00
1917 13.5960 9042.00 9300.44 95.00
1918 13.6020 8696.00 8985.94 93.00
1919 13.6080 8443.00 8710.08 92.00
1920 13.6140 8036.00 8469.57 90.00
1921 13.6200 7838.00 8263.00 89.00
1922 13.6260 7683.00 8082.33 88.00
1923 13.6320 7449.00 7921.84 86.00
1924 13.6380 7310.00 7779.41 85.00
1925 13.6440 7038.00 7653.48 84.00
1926 13.6500 7184.00 7539.96 85.00
1927 13.6560 6882.00 7438.07 83.00
1928 13.6620 6833.00 7347.35 83.00
1929 13.6680 6755.00 7264.52 82.00
1930 13.6740 6789.00 7189.52 82.00
1931 13.6800 6624.00 7122.42 81.00
1932 13.6860 6565.00 7060.47 81.00
1933 13.6920 6620.00 7004.96 81.00
1934 13.6980 6509.00 6953.33 81.00
1935 13.7040 6424.00 6906.05 80.00
1936 13.7100 6458.00 6863.70 80.00
1937 13.7160 6523.00 6823.88 81.00
1938 13.7220 6393.00 6787.23 80.00
1939 13.7280 6466.00 6754.47 80.00
1940 13.7340 6465.00 6723.33 80.00
1941 13.7400 6466.00 6694.57 80.00
1942 13.7460 6468.00 6668.98 80.00
1943 13.7520 6314.00 6644.38 79.00
1944 13.7580 6502.00 6621.58 81.00
1945 13.7640 6444.00 6601.46 80.00
1946 13.7700 6259.00 6517.55 79.00
1947 13.7760 6170.00 6501.55 79.00
1948 13.7820 6212.00 6487.74 79.00
1949 13.7880 6308.00 6474.02 79.00
1950 13.7940 6073.00 6461.32 78.00
1951 13.8000 6167.00 6450.55 79.00
1952 13.8060 6266.00 6439.66 79.00
1953 13.8120 6247.00 6429.56 79.00
1954 13.8180 6241.00 6421.22 79.00
1955 13.8240 6332.00 6412.58 80.00
1956 13.8300 6196.00 6066.30 79.00
1957 13.8360 6155.00 6071.30 78.00
1958 13.8420 6153.00 6075.31 78.00
1959 13.8480 6059.00 6079.31 78.00
1960 13.8540 6128.00 6084.32 78.00
1961 13.8600 6101.00 6088.32 78.00
1962 13.8660 6048.00 6093.33 78.00
1963 13.8720 6060.00 6097.33 78.00
1964 13.8780 6126.00 6101.34 78.00
1965 13.8840 6227.00 6106.34 79.00
1966 13.8900 6047.00 6110.35 78.00
1967 13.8960 6184.00 6269.37 79.00
1968 13.9020 6133.00 6279.66 78.00
1969 13.9080 6205.00 6289.23 79.00
1970 13.9140 6194.00 6299.10 79.00
1971 13.9200 6114.00 6429.30 78.00
1972 13.9260 6187.00 6443.94 79.00
1973 13.9320 6252.00 6459.16 79.00
1974 13.9380 6374.00 6476.01 80.00
1975 13.9440 6517.00 6492.52 81.00
1976 13.9500 6535.00 6509.76 81.00
1977 13.9560 6597.00 6528.78 81.00
1978 13.9620 6564.00 6547.64 81.00
1979 13.9680 6500.00 6567.42 81.00
1980 13.9740 6627.00 6589.18 81.00
1981 13.9800 6654.00 6611.01 82.00
1982 13.9860 6971.00 6634.00 83.00
1983 13.9920 7390.00 6659.27 86.00
1984 13.9980 7913.00 6684.92 89.00
1985 14.0040 8388.00 6712.07 92.00
1986 14.0100 8420.00 6741.89 92.00
1987 14.0160 7940.00 6772.52 89.00
1988 14.0220 7427.00 6805.16 86.00
1989 14.0280 7086.00 6840.99 84.00
1990 14.0340 6748.00 6878.27 82.00
1991 14.0400 6425.00 6918.24 80.00
1992 14.0460 6343.00 6962.21 80.00
1993 14.0520 6377.00 7008.52 80.00
1994 14.0580 6309.00 7059.56 79.00
1995 14.0640 6274.00 7113.78 79.00
1996 14.0700 6319.00 7174.73 79.00
1997 14.0760 6241.00 7240.05 79.00
1998 14.0820 6310.00 7310.37 79.00
1999 14.0880 6422.00 7397.90 80.00
2000 14.0940 6412.00 7484.23 80.00
2001 14.1000 6543.00 7578.56 81.00
2002 14.1060 6624.00 7683.22 81.00
2003 14.1120 6728.00 7800.91 82.00
2004 14.1180 6717.00 7931.53 82.00
2005 14.1240 6759.00 8078.52 82.00
2006 14.1300 6906.00 8245.82 83.00
2007 14.1360 6881.00 8434.99 83.00
2008 14.1420 6929.00 8651.60 83.00
2009 14.1480 7175.00 8902.24 85.00
2010 14.1540 7386.00 9192.10 86.00
2011 14.1600 7738.00 9531.40 88.00
2012 14.1660 7895.00 9933.64 89.00
2013 14.1720 8114.00 10414.30 90.00
2014 14.1780 8512.00 11002.00 92.00
2015 14.1840 9118.00 11746.00 95.00
2016 14.1900 9941.00 12736.40 100.00
2017 14.1960 11144.00 14154.50 106.00
2018 14.2020 13042.00 16336.70 114.00
2019 14.2080 16212.00 19854.00 127.00
2020 14.2140 21908.00 25563.20 148.00
2021 14.2200 31177.00 34553.60 177.00
2022 14.2260 45266.00 47899.60 213.00
2023 14.2320 66591.00 66261.80 258.00
2024 14.2380 93755.00 89296.80 306.00
2025 14.2440 123104.00 115022.00 351.00
2026 14.2500 151260.00 139220.00 389.00
2027 14.2560 167551.00 156268.00 409.00
2028 14.2620 167749.00 162546.00 410.00
2029 14.2680 157931.00 158232.00 397.00
2030 14.2740 140371.00 144653.00 375.00
2031 14.2800 119475.00 123661.00 346.00
2032 14.2860 99407.00 99138.30 315.00
2033 14.2920 81163.00 75526.60 285.00
2034 14.2980 65308.00 55635.60 256.00
2035 14.3040 52666.00 40441.50 229.00
2036 14.3100 42538.00 29711.70 206.00
2037 14.3160 33865.00 22612.20 184.00
2038 14.3220 27555.00 18126.50 166.00
2039 14.3280 22739.00 15341.50 151.00
2040 14.3340 19175.00 13582.80 138.00
2041 14.3400 16430.00 12413.60 128.00
2042 14.3460 14334.00 11580.80 120.00
2043 14.3520 13034.00 10951.20 114.00
2044 14.3580 11893.00 10456.80 109.00
2045 14.3640 10889.00 10059.60 104.00
2046 14.3700 10260.00 9741.18 101.00
2047 14.3760 9771.00 9493.38 99.00
2048 14.3820 9490.00 9313.91 97.00
2049 14.3880 9485.00 9213.19 97.00
2050 14.3940 9629.00 9213.32 98.00
2051 14.4000 9956.00 9345.74 100.00
2052 14.4060 10574.00 9655.63 103.00
2053 14.4120 11617.00 10184.00 108.00
2054 14.4180 13042.00 10954.70 114.00
2055 14.4240 14225.00 11942.00 119.00
2056 14.4300 14914.00 13043.90 122.00
2057 14.4360 15211.00 14096.70 123.00
2058 14.4420 15141.00 14887.00 123.00
2059 14.4480 14689.00 15145.90 121.00
2060 14.4540 14288.00 14691.00 120.00
2061 14.4600 13752.00 13634.40 117.00
2062 14.4660 13172.00 12299.90 115.00
2063 14.4720 12480.00 10984.20 112.00
2064 14.4780 11291.00 9863.00 106.00
2065 14.4840 10049.00 9001.67 100.00
2066 14.4900 9032.00 8394.14 95.00
2067 14.4960 8392.00 7993.11 92.00
2068 14.5020 8033.00 7736.30 90.00
2069 14.5080 7605.00 7571.57 87.00
2070 14.5140 7208.00 7462.09 85.00
2071 14.5200 7066.00 7382.48 84.00
2072 14.5260 6972.00 7320.80 83.00
2073 14.5320 6936.00 7271.38 83.00
2074 14.5380 6869.00 7228.71 83.00
2075 14.5440 6803.00 7191.89 82.00
2076 14.5500 6816.00 7160.75 83.00
2077 14.5560 6781.00 7132.45 82.00
2078 14.5620 6732.00 7107.36 82.00
2079 14.5680 6685.00 7086.02 82.00
2080 14.5740 6678.00 7077.62 82.00
2081 14.5800 6922.00 7061.04 83.00
2082 14.5860 7049.00 7045.26 84.00
2083 14.5920 7036.00 7039.71 84.00
2084 14.5980 7065.00 7028.20 84.00
2085 14.6040 7226.00 7016.96 85.00
2086 14.6100 7386.00 7006.87 86.00
2087 14.6160 7238.00 6845.21 85.00
2088 14.6220 6883.00 6842.06 83.00
2089 14.6280 6827.00 6839.52 83.00
2090 14.6340 6881.00 6838.56 83.00
2091 14.6400 6782.00 6722.45 82.00
2092 14.6460 6842.00 6720.05 83.00
2093 14.6520 6867.00 6717.93 83.00
2094 14.6580 6946.00 6716.07 83.00
2095 14.6640 7039.00 6714.47 84.00
2096 14.6700 7125.00 6713.10 84.00
2097 14.6760 6945.00 6711.96 83.00
2098 14.6820 7010.00 6712.05 84.00
2099 14.6880 7291.00 6711.36 85.00
2100 14.6940 7655.00 6710.89 87.00
2101 14.7000 7777.00 6710.67 88.00
2102 14.7060 8365.00 6710.65 91.00
2103 14.7120 9239.00 6710.87 96.00
2104 14.7180 10491.00 6711.33 102.00
2105 14.7240 12268.00 6713.06 111.00
2106 14.7300 13273.00 6714.06 115.00
2107 14.7360 13323.00 6715.34 115.00
2108 14.7420 12128.00 6716.94 110.00
2109 14.7480 10701.00 6718.89 103.00
2110 14.7540 9471.00 6721.21 97.00
2111 14.7600 8632.00 6723.95 93.00
2112 14.7660 7950.00 6728.14 89.00
2113 14.7720 7548.00 6731.85 87.00
2114 14.7780 7268.00 6736.12 85.00
2115 14.7840 7104.00 6741.05 84.00
2116 14.7900 7006.00 6746.72 84.00
2117 14.7960 7030.00 6751.26 84.00
2118 14.8020 7089.00 6759.81 84.00
2119 14.8080 7129.00 6768.48 84.00
2120 14.8140 7446.00 6768.27 86.00
2121 14.8200 8016.00 6780.11 90.00
2122 14.8260 8608.00 6793.78 93.00
2123 14.8320 9151.00 6885.98 96.00
2124 14.8380 9247.00 6975.33 96.00
2125 14.8440 8837.00 7002.73 94.00
2126 14.8500 8606.00 7033.29 93.00
2127 14.8560 8239.00 7068.98 91.00
2128 14.8620 7922.00 7111.32 89.00
2129 14.8680 7794.00 7162.67 88.00
2130 14.8740 7491.00 7227.29 87.00
2131 14.8800 7529.00 7313.29 87.00
2132 14.8860 7781.00 7436.73 88.00
2133 14.8920 8191.00 7622.66 91.00
2134 14.8980 8522.00 7915.65 92.00
2135 14.9040 9313.00 8377.82 97.00
2136 14.9100 10252.00 9083.94 101.00
2137 14.9160 11368.00 10105.80 107.00
2138 14.9220 13531.00 11481.80 116.00
2139 14.9280 15913.00 13180.50 126.00
2140 14.9340 18456.00 15059.60 136.00
2141 14.9400 20650.00 16828.10 144.00
2142 14.9460 21568.00 18100.30 147.00
2143 14.9520 21319.00 18604.40 146.00
2144 14.9580 20010.00 18315.90 141.00
2145 14.9640 18190.00 17326.20 135.00
2146 14.9700 16418.00 15794.00 128.00
2147 14.9760 14549.00 14012.20 121.00
2148 14.9820 12833.00 12291.80 113.00
2149 14.9880 11405.00 10832.00 107.00
2150 14.9940 10375.00 9706.69 102.00
2151 15.0000 9713.00 8905.63 99.00
2152 15.0060 8912.00 8375.04 94.00
2153 15.0120 8481.00 8042.92 92.00
2154 15.0180 8253.00 7845.85 91.00
2155 15.0240 7760.00 7734.09 88.00
2156 15.0300 7636.00 7674.42 87.00
2157 15.0360 7541.00 7647.12 87.00
2158 15.0420 7308.00 7642.48 85.00
2159 15.0480 7285.00 7653.08 85.00
2160 15.0540 7329.00 7677.23 86.00
2161 15.0600 7144.00 7713.49 85.00
2162 15.0660 7350.00 7761.01 86.00
2163 15.0720 7486.00 7819.38 87.00
2164 15.0780 7518.00 7889.14 87.00
2165 15.0840 7697.00 7973.08 88.00
2166 15.0900 7899.00 8071.91 89.00
2167 15.0960 8094.00 8189.89 90.00
2168 15.1020 8719.00 8330.76 93.00
2169 15.1080 9448.00 8499.04 97.00
2170 15.1140 10428.00 8700.65 102.00
2171 15.1200 11482.00 8943.51 107.00
2172 15.1260 11644.00 9240.40 108.00
2173 15.1320 10971.00 9608.73 105.00
2174 15.1380 10560.00 10084.60 103.00
2175 15.1440 10953.00 10736.10 105.00
2176 15.1500 11321.00 11692.30 106.00
2177 15.1560 12181.00 13186.80 110.00
2178 15.1620 14047.00 15601.20 119.00
2179 15.1680 16757.00 19490.20 129.00
2180 15.1740 21348.00 25513.00 146.00
2181 15.1800 29118.00 34289.90 171.00
2182 15.1860 41823.00 46100.60 205.00
2183 15.1920 60755.00 60544.80 246.00
2184 15.1980 86946.00 76187.80 295.00
2185 15.2040 108632.00 90300.60 330.00
2186 15.2100 115902.00 99021.90 340.00
2187 15.2160 110158.00 99138.70 332.00
2188 15.2220 91479.00 90601.40 302.00
2189 15.2280 70781.00 76585.20 266.00
2190 15.2340 52651.00 60934.80 229.00
2191 15.2400 40494.00 46431.50 201.00
2192 15.2460 30560.00 34538.10 175.00
2193 15.2520 24152.00 25676.00 155.00
2194 15.2580 19262.00 19578.90 139.00
2195 15.2640 16065.00 15637.60 127.00
2196 15.2700 13837.00 13183.00 118.00
2197 15.2760 12131.00 11661.70 110.00
2198 15.2820 10780.00 10686.50 104.00
2199 15.2880 10104.00 10021.60 101.00
2200 15.2940 9551.00 9536.08 98.00
2201 15.3000 8834.00 9156.17 94.00
2202 15.3060 8551.00 8848.60 92.00
2203 15.3120 8472.00 8593.43 92.00
2204 15.3180 8183.00 8378.46 90.00
2205 15.3240 8036.00 8185.23 90.00
2206 15.3300 8088.00 8028.43 90.00
2207 15.3360 7632.00 7892.77 87.00
2208 15.3420 7739.00 7766.32 88.00
2209 15.3480 7594.00 7663.14 87.00
2210 15.3540 7398.00 7572.29 86.00
2211 15.3600 7366.00 7491.90 86.00
2212 15.3660 7311.00 7421.39 86.00
2213 15.3720 7191.00 7357.51 85.00
2214 15.3780 7079.00 7300.25 84.00
2215 15.3840 7100.00 7248.66 84.00
2216 15.3900 6975.00 7202.04 84.00
2217 15.3960 6996.00 7160.24 84.00
2218 15.4020 6878.00 7121.80 83.00
2219 15.4080 6931.00 7087.75 83.00
2220 15.4140 6789.00 7055.69 82.00
2221 15.4200 6865.00 7026.27 83.00
2222 15.4260 6755.00 6999.23 82.00
2223 15.4320 6522.00 6974.32 81.00
2224 15.4380 6667.00 6951.32 82.00
2225 15.4440 6681.00 6931.04 82.00
2226 15.4500 6768.00 6911.30 82.00
2227 15.4560 6723.00 6892.99 82.00
2228 15.4620 6867.00 6875.97 83.00
2229 15.4680 7055.00 6860.13 84.00
2230 15.4740 7269.00 6845.37 85.00
2231 15.4800 7843.00 6831.61 89.00
2232 15.4860 8395.00 6819.76 92.00
2233 15.4920 8598.00 6807.77 93.00
2234 15.4980 8530.00 6796.58 92.00
2235 15.5040 8249.00 6786.13 91.00
2236 15.5100 7868.00 6776.39 89.00
2237 15.5160 7374.00 6767.32 86.00
2238 15.5220 7236.00 6758.89 85.00
2239 15.5280 7323.00 6752.09 86.00
2240 15.5340 7449.00 6744.89 86.00
2241 15.5400 7444.00 6738.30 86.00
2242 15.5460 7435.00 6732.32 86.00
2243 15.5520 7856.00 6726.96 89.00
2244 15.5580 7627.00 6722.24 87.00
2245 15.5640 7232.00 6718.21 85.00
2246 15.5700 7119.00 6715.92 84.00
2247 15.5760 6977.00 6713.44 84.00
2248 15.5820 6889.00 6711.91 83.00
2249 15.5880 6829.00 6711.49 83.00
2250 15.5940 7013.00 6637.69 84.00
2251 15.6000 6921.00 6576.87 83.00
2252 15.6060 6974.00 6587.76 84.00
2253 15.6120 7038.00 6602.12 84.00
2254 15.6180 6962.00 6624.27 83.00
2255 15.6240 7052.00 6659.84 84.00
2256 15.6300 6932.00 6717.29 83.00
2257 15.6360 6842.00 6807.66 83.00
2258 15.6420 6752.00 6942.62 82.00
2259 15.6480 6954.00 7131.43 83.00
2260 15.6540 7401.00 7371.79 86.00
2261 15.6600 7655.00 7649.65 87.00
2262 15.6660 7967.00 7929.98 89.00
2263 15.6720 8283.00 8154.35 91.00
2264 15.6780 8204.00 8252.61 91.00
2265 15.6840 8029.00 8185.41 90.00
2266 15.6900 7668.00 7981.17 88.00
2267 15.6960 7311.00 7706.22 86.00
2268 15.7020 7268.00 7424.30 85.00
2269 15.7080 7046.00 7174.96 84.00
2270 15.7140 6789.00 6977.52 82.00
2271 15.7200 6858.00 6834.86 83.00
2272 15.7260 6771.00 6744.44 82.00
2273 15.7320 6635.00 6689.38 81.00
2274 15.7380 6591.00 6663.36 81.00
2275 15.7440 6605.00 6659.14 81.00
2276 15.7500 6425.00 6672.04 80.00
2277 15.7560 6570.00 6698.58 81.00
2278 15.7620 6676.00 6734.77 82.00
2279 15.7680 6669.00 6775.83 82.00
2280 15.7740 6720.00 6811.62 82.00
2281 15.7800 6717.00 6832.68 82.00
2282 15.7860 6858.00 6829.42 83.00
2283 15.7920 6827.00 6800.16 83.00
2284 15.7980 6790.00 6753.33 82.00
2285 15.8040 6765.00 6700.49 82.00
2286 15.8100 6867.00 6651.41 83.00
2287 15.8160 6869.00 6609.03 83.00
2288 15.8220 6874.00 6576.08 83.00
2289 15.8280 6871.00 6552.17 83.00
2290 15.8340 6882.00 6535.64 83.00
2291 15.8400 6729.00 6524.48 82.00
2292 15.8460 6706.00 6517.88 82.00
2293 15.8520 6583.00 6512.47 81.00
2294 15.8580 6483.00 6508.39 81.00
2295 15.8640 6451.00 6505.10 80.00
2296 15.8700 6531.00 6502.32 81.00
2297 15.8760 6527.00 6499.89 81.00
2298 15.8820 6517.00 6497.74 81.00
2299 15.8880 6439.00 6495.81 80.00
2300 15.8940 6394.00 6494.06 80.00
2301 15.9000 6335.00 6491.47 80.00
2302 15.9060 6425.00 6489.03 80.00
2303 15.9120 6366.00 6487.72 80.00
2304 15.9180 6329.00 6485.54 80.00
2305 15.9240 6395.00 6483.48 80.00
2306 15.9300 6453.00 6482.53 80.00
2307 15.9360 6409.00 6480.69 80.00
2308 15.9420 6516.00 6479.98 81.00
2309 15.9480 6572.00 6478.38 81.00
2310 15.9540 6585.00 6476.92 81.00
2311 15.9600 6574.00 6476.59 81.00
2312 15.9660 6602.00 6475.41 81.00
2313 15.9720 6563.00 6474.40 81.00
2314 15.9780 6505.00 6474.57 81.00
2315 15.9840 6521.00 6473.96 81.00
2316 15.9900 6473.00 6473.59 80.00
2317 15.9960 6453.00 6474.50 80.00
2318 16.0020 6538.00 6474.74 81.00
2319 16.0080 6578.00 6476.38 81.00
2320 16.0140 6594.00 6477.49 81.00
2321 16.0200 6639.00 6479.18 81.00
2322 16.0260 6670.00 6482.60 82.00
2323 16.0320 6732.00 6485.98 82.00
2324 16.0380 6739.00 6490.68 82.00
2325 16.0440 6692.00 6498.38 82.00
2326 16.0500 6689.00 6508.28 82.00
2327 16.0560 6751.00 6523.61 82.00
2328 16.0620 6820.00 6549.14 83.00
2329 16.0680 7027.00 6586.12 84.00
2330 16.0740 7253.00 6650.25 85.00
2331 16.0800 7414.00 6746.71 86.00
2332 16.0860 7690.00 6885.87 88.00
2333 16.0920 7986.00 7073.80 89.00
2334 16.0980 8250.00 7304.70 91.00
2335 16.1040 8273.00 7561.88 91.00
2336 16.1100 8224.00 7811.45 91.00
2337 16.1160 8227.00 7999.46 91.00
2338 16.1220 8246.00 8070.03 91.00
2339 16.1280 8114.00 7995.28 90.00
2340 16.1340 7989.00 7799.09 89.00
2341 16.1400 7883.00 7542.99 89.00
2342 16.1460 7891.00 7279.35 89.00
2343 16.1520 7820.00 7044.26 88.00
2344 16.1580 7670.00 6855.52 88.00
2345 16.1640 7420.00 6714.29 86.00
2346 16.1700 7241.00 6723.08 85.00
2347 16.1760 7067.00 6661.67 84.00
2348 16.1820 6931.00 6697.32 83.00
2349 16.1880 6899.00 6675.61 83.00
2350 16.1940 6834.00 6663.97 83.00
2351 16.2000 6763.00 6656.75 82.00
2352 16.2060 6725.00 6653.85 82.00
2353 16.2120 6811.00 6652.14 83.00
2354 16.2180 6832.00 6652.04 83.00
2355 16.2240 6698.00 6654.22 82.00
2356 16.2300 6684.00 6656.50 82.00
2357 16.2360 6713.00 6659.77 82.00
2358 16.2420 6669.00 6664.95 82.00
2359 16.2480 6677.00 6669.99 82.00
2360 16.2540 6796.00 6675.88 82.00
2361 16.2600 6843.00 6683.59 83.00
2362 16.2660 6969.00 6691.14 83.00
2363 16.2720 7005.00 6700.53 84.00
2364 16.2780 7071.00 6709.80 84.00
2365 16.2840 7117.00 6719.96 84.00
2366 16.2900 7027.00 6732.09 84.00
2367 16.2960 7023.00 6744.22 84.00
2368 16.3020 6926.00 6757.42 83.00
2369 16.3080 6805.00 6772.77 82.00
2370 16.3140 6892.00 6788.36 83.00
2371 16.3200 6927.00 6805.28 83.00
2372 16.3260 6938.00 6824.65 83.00
2373 16.3320 6915.00 6844.60 83.00
2374 16.3380 6876.00 6866.27 83.00
2375 16.3440 6898.00 6890.83 83.00
2376 16.3500 6917.00 6916.48 83.00
2377 16.3560 6926.00 6945.42 83.00
2378 16.3620 6935.00 6975.90 83.00
2379 16.3680 7027.00 7009.21 84.00
2380 16.3740 7144.00 7046.66 85.00
2381 16.3800 7094.00 7086.62 84.00
2382 16.3860 7030.00 7130.54 84.00
2383 16.3920 7075.00 7179.91 84.00
2384 16.3980 7248.00 7233.30 85.00
2385 16.4040 7579.00 7431.32 87.00
2386 16.4100 7778.00 7502.06 88.00
2387 16.4160 7975.00 7579.44 89.00
2388 16.4220 7908.00 7666.55 89.00
2389 16.4280 7593.00 7762.73 87.00
2390 16.4340 7545.00 7870.65 87.00
2391 16.4400 7829.00 8055.19 88.00
2392 16.4460 7936.00 8194.58 89.00
2393 16.4520 7758.00 8353.01 88.00
2394 16.4580 7744.00 8575.42 88.00
2395 16.4640 7934.00 8784.80 89.00
2396 16.4700 8226.00 9027.07 91.00
2397 16.4760 8473.00 9311.14 92.00
2398 16.4820 8647.00 9645.92 93.00
2399 16.4880 8944.00 10050.60 95.00
2400 16.4940 9464.00 10551.80 97.00
2401 16.5000 10250.00 11202.50 101.00
2402 16.5060 11107.00 12097.70 105.00
2403 16.5120 12558.00 13399.20 112.00
2404 16.5180 15005.00 15378.00 122.00
2405 16.5240 18360.00 18434.00 135.00
2406 16.5300 24534.00 23100.50 157.00
2407 16.5360 33552.00 29971.60 183.00
2408 16.5420 45026.00 39575.30 212.00
2409 16.5480 62720.00 52139.10 250.00
2410 16.5540 81746.00 67338.80 286.00
2411 16.5600 100178.00 83997.00 317.00
2412 16.5660 114807.00 99876.60 339.00
2413 16.5720 118888.00 111796.00 345.00
2414 16.5780 116436.00 116810.00 341.00
2415 16.5840 107408.00 113721.00 328.00
2416 16.5900 95031.00 103469.00 308.00
2417 16.5960 81669.00 88567.00 286.00
2418 16.6020 69431.00 72083.50 263.00
2419 16.6080 58362.00 56499.30 242.00
2420 16.6140 48037.00 43273.40 219.00
2421 16.6200 39719.00 32947.20 199.00
2422 16.6260 33278.00 25425.00 182.00
2423 16.6320 28125.00 20250.20 168.00
2424 16.6380 24017.00 16845.30 155.00
2425 16.6440 20809.00 14663.50 144.00
2426 16.6500 18187.00 13269.80 135.00
2427 16.6560 15938.00 12363.80 126.00
2428 16.6620 14369.00 11753.10 120.00
2429 16.6680 13118.00 11327.80 115.00
2430 16.6740 12132.00 11027.30 110.00
2431 16.6800 11360.00 10816.80 107.00
2432 16.6860 10870.00 10680.50 104.00
2433 16.6920 10697.00 10607.10 103.00
2434 16.6980 10294.00 10592.60 101.00
2435 16.7040 10252.00 10636.70 101.00
2436 16.7100 10329.00 10738.70 102.00
2437 16.7160 10468.00 10904.30 102.00
2438 16.7220 10488.00 11143.60 102.00
2439 16.7280 10688.00 11471.40 103.00
2440 16.7340 11291.00 11920.00 106.00
2441 16.7400 11883.00 12548.60 109.00
2442 16.7460 12603.00 13460.60 112.00
2443 16.7520 13578.00 14838.20 117.00
2444 16.7580 15407.00 16963.30 124.00
2445 16.7640 18465.00 20241.30 136.00
2446 16.7700 22737.00 25170.90 151.00
2447 16.7760 29413.00 32255.10 172.00
2448 16.7820 40345.00 41867.20 201.00
2449 16.7880 55955.00 54029.10 237.00
2450 16.7940 78075.00 68231.10 279.00
2451 16.8000 100625.00 83227.60 317.00
2452 16.8060 114352.00 96910.20 338.00
2453 16.8120 120647.00 106570.00 347.00
2454 16.8180 115777.00 110330.00 340.00
2455 16.8240 108249.00 108713.00 329.00
2456 16.8300 99983.00 104248.00 316.00
2457 16.8360 97564.00 99384.50 312.00
2458 16.8420 95997.00 95246.40 310.00
2459 16.8480 94001.00 91519.10 307.00
2460 16.8540 89290.00 87105.00 299.00
2461 16.8600 81487.00 81126.80 285.00
2462 16.8660 71774.00 73354.00 268.00
2463 16.8720 62568.00 64046.30 250.00
2464 16.8780 52458.00 53953.70 229.00
2465 16.8840 43342.00 44106.20 208.00
2466 16.8900 35388.00 35349.80 188.00
2467 16.8960 28675.00 28153.30 169.00
2468 16.9020 24209.00 22556.60 156.00
2469 16.9080 20546.00 18483.40 143.00
2470 16.9140 17729.00 15579.00 133.00
2471 16.9200 15591.00 13583.00 125.00
2472 16.9260 13765.00 12221.10 117.00
2473 16.9320 12186.00 11277.80 110.00
2474 16.9380 11368.00 10601.10 107.00
2475 16.9440 10519.00 10090.80 103.00
2476 16.9500 9894.00 9688.09 99.00
2477 16.9560 9479.00 9359.15 97.00
2478 16.9620 9319.00 9081.44 97.00
2479 16.9680 9001.00 8844.71 95.00
2480 16.9740 8675.00 8638.88 93.00
2481 16.9800 8610.00 8459.32 93.00
2482 16.9860 8722.00 8199.79 93.00
2483 16.9920 8570.00 8063.58 93.00
2484 16.9980 8396.00 7871.54 92.00
2485 17.0040 8125.00 7767.78 90.00
2486 17.0100 7978.00 7674.73 89.00
2487 17.0160 7781.00 7591.93 88.00
2488 17.0220 7614.00 7519.16 87.00
2489 17.0280 7711.00 7453.36 88.00
2490 17.0340 7581.00 7395.70 87.00
2491 17.0400 7578.00 7343.46 87.00
2492 17.0460 7407.00 7297.07 86.00
2493 17.0520 7167.00 7257.01 85.00
2494 17.0580 7201.00 7220.87 85.00
2495 17.0640 7184.00 7189.36 85.00
2496 17.0700 7050.00 7163.17 84.00
2497 17.0760 6893.00 7140.13 83.00
2498 17.0820 6892.00 7121.12 83.00
2499 17.0880 6974.00 7107.04 84.00
2500 17.0940 6944.00 7095.88 83.00
2501 17.1000 7061.00 7089.69 84.00
2502 17.1060 6806.00 7086.57 82.00
2503 17.1120 6982.00 7087.72 84.00
2504 17.1180 6873.00 7094.41 83.00
2505 17.1240 6885.00 7105.02 83.00
2506 17.1300 6953.00 7121.06 83.00
2507 17.1360 6816.00 7144.28 83.00
2508 17.1420 6939.00 7173.70 83.00
2509 17.1480 7089.00 7211.95 84.00
2510 17.1540 6954.00 7262.71 83.00
2511 17.1600 7003.00 7328.72 84.00
2512 17.1660 7385.00 7420.23 86.00
2513 17.1720 7479.00 7549.29 86.00
2514 17.1780 7448.00 7739.18 86.00
2515 17.1840 7462.00 8023.43 86.00
2516 17.1900 7792.00 8441.71 88.00
2517 17.1960 8181.00 9040.40 90.00
2518 17.2020 8771.00 9858.97 94.00
2519 17.2080 9583.00 10909.90 98.00
2520 17.2140 10956.00 12165.50 105.00
2521 17.2200 12827.00 13537.70 113.00
2522 17.2260 14130.00 14859.70 119.00
2523 17.2320 15341.00 15759.00 124.00
2524 17.2380 15506.00 16260.10 125.00
2525 17.2440 14376.00 16131.90 120.00
2526 17.2500 13513.00 15525.90 116.00
2527 17.2560 12698.00 14748.40 113.00
2528 17.2620 12438.00 14127.10 112.00
2529 17.2680 13112.00 13892.90 115.00
2530 17.2740 14786.00 14427.00 122.00
2531 17.2800 16995.00 15903.80 130.00
2532 17.2860 21579.00 18478.40 147.00
2533 17.2920 27587.00 22340.90 166.00
2534 17.2980 35056.00 27416.00 187.00
2535 17.3040 42702.00 33431.80 207.00
2536 17.3100 49602.00 39797.30 223.00
2537 17.3160 52411.00 45570.80 229.00
2538 17.3220 52092.00 49594.50 228.00
2539 17.3280 49628.00 50888.80 223.00
2540 17.3340 44147.00 49058.00 210.00
2541 17.3400 38856.00 44528.30 197.00
2542 17.3460 33960.00 38387.90 184.00
2543 17.3520 28716.00 31832.70 169.00
2544 17.3580 24643.00 25730.10 157.00
2545 17.3640 20840.00 20570.60 144.00
2546 17.3700 18172.00 16525.00 135.00
2547 17.3760 15905.00 13550.10 126.00
2548 17.3820 13977.00 11474.20 118.00
2549 17.3880 12212.00 10079.40 111.00
2550 17.3940 10874.00 9160.44 104.00
2551 17.4000 10058.00 8552.40 100.00
2552 17.4060 9236.00 8136.17 96.00
2553 17.4120 8818.00 7837.18 94.00
2554 17.4180 8310.00 7611.31 91.00
2555 17.4240 8133.00 7430.58 90.00
2556 17.4300 7827.00 7282.65 88.00
2557 17.4360 7723.00 7157.01 88.00
2558 17.4420 7989.00 7049.44 89.00
2559 17.4480 7768.00 6957.32 88.00
2560 17.4540 7735.00 6876.09 88.00
2561 17.4600 7691.00 6804.77 88.00
2562 17.4660 7469.00 6742.74 86.00
2563 17.4720 7314.00 6686.75 86.00
2564 17.4780 7175.00 6636.77 85.00
2565 17.4840 6938.00 6592.95 83.00
2566 17.4900 6691.00 6552.55 82.00
2567 17.4960 6777.00 6515.99 82.00
2568 17.5020 6651.00 6488.88 82.00
2569 17.5080 6644.00 6458.77 82.00
2570 17.5140 6431.00 6432.23 80.00
2571 17.5200 6476.00 6406.97 80.00
2572 17.5260 6543.00 6383.73 81.00
2573 17.5320 6725.00 6363.29 82.00
2574 17.5380 6987.00 6343.44 84.00
2575 17.5440 6943.00 6325.03 83.00
2576 17.5500 7376.00 6308.92 86.00
2577 17.5560 7791.00 6292.96 88.00
2578 17.5620 7641.00 6278.04 87.00
2579 17.5680 7315.00 6265.08 86.00
2580 17.5740 7131.00 6251.98 84.00
2581 17.5800 6903.00 6240.67 83.00
2582 17.5860 6413.00 6229.07 80.00
2583 17.5920 6323.00 6218.14 80.00
2584 17.5980 6323.00 6208.80 80.00
2585 17.6040 6348.00 6199.02 80.00
2586 17.6100 6272.00 6189.75 79.00
2587 17.6160 6165.00 6181.96 79.00
2588 17.6220 6170.00 6173.61 79.00
2589 17.6280 6026.00 6165.66 78.00
2590 17.6340 5995.00 6159.09 77.00
2591 17.6400 6198.00 6151.88 79.00
2592 17.6460 6128.00 6146.01 78.00
2593 17.6520 6223.00 6139.45 79.00
2594 17.6580 6098.00 6133.18 78.00
2595 17.6640 6087.00 6115.15 78.00
2596 17.6700 6106.00 6109.79 78.00
2597 17.6760 6130.00 6104.67 78.00
2598 17.6820 6148.00 6100.79 78.00
2599 17.6880 6052.00 6096.12 78.00
2600 17.6940 6127.00 6091.67 78.00
2601 17.7000 6152.00 6088.44 78.00
2602 17.7060 6108.00 6084.41 78.00
2603 17.7120 6106.00 6083.11 78.00
2604 17.7180 6088.00 6079.54 78.00
2605 17.7240 6115.00 6076.17 78.00
2606 17.7300 6117.00 6074.06 78.00
2607 17.7360 5942.00 6071.12 77.00
2608 17.7420 6014.00 6068.41 78.00
2609 17.7480 5933.00 6039.79 77.00
2610 17.7540 5895.00 6038.31 77.00
2611 17.7600 5869.00 5993.53 77.00
2612 17.7660 5937.00 5994.72 77.00
2613 17.7720 5951.00 5995.15 77.00
2614 17.7780 5811.00 5995.84 76.00
2615 17.7840 5867.00 5996.84 77.00
2616 17.7900 5976.00 5998.19 77.00
2617 17.7960 5929.00 5999.96 77.00
2618 17.8020 5900.00 6002.22 77.00
2619 17.8080 5937.00 6005.05 77.00
2620 17.8140 6019.00 6008.56 78.00
2621 17.8200 5928.00 6012.88 77.00
2622 17.8260 5997.00 6018.20 77.00
2623 17.8320 5936.00 6024.74 77.00
2624 17.8380 5967.00 6032.84 77.00
2625 17.8440 5994.00 6042.08 77.00
2626 17.8500 5873.00 6055.37 77.00
2627 17.8560 6040.00 6073.36 78.00
2628 17.8620 6001.00 6098.95 77.00
2629 17.8680 6097.00 6136.99 78.00
2630 17.8740 6220.00 6234.67 79.00
2631 17.8800 6487.00 6356.66 81.00
2632 17.8860 6473.00 6492.82 80.00
2633 17.8920 6635.00 6689.31 81.00
2634 17.8980 7006.00 6959.10 84.00
2635 17.9040 7383.00 7307.56 86.00
2636 17.9100 8079.00 7726.95 90.00
2637 17.9160 9087.00 8190.04 95.00
2638 17.9220 10139.00 8644.94 101.00
2639 17.9280 10702.00 9010.93 103.00
2640 17.9340 10496.00 9197.89 102.00
2641 17.9400 9991.00 9145.07 100.00
2642 17.9460 9093.00 8870.97 95.00
2643 17.9520 8222.00 8456.68 91.00
2644 17.9580 7546.00 7992.75 87.00
2645 17.9640 7097.00 7546.81 84.00
2646 17.9700 6845.00 7159.43 83.00
2647 17.9760 6631.00 6848.44 81.00
2648 17.9820 6296.00 6615.27 79.00
2649 17.9880 6504.00 6450.46 81.00
2650 17.9940 6414.00 6339.61 80.00
2651 18.0000 6593.00 6267.64 81.00
2652 18.0060 6716.00 6221.85 82.00
2653 18.0120 6997.00 6191.83 84.00
2654 18.0180 7041.00 6173.30 84.00
2655 18.0240 7105.00 6161.41 84.00
2656 18.0300 6781.00 6153.96 82.00
2657 18.0360 6591.00 6149.75 81.00
2658 18.0420 6385.00 6148.13 80.00
2659 18.0480 6257.00 6148.75 79.00
2660 18.0540 6060.00 6151.47 78.00
2661 18.0600 5901.00 6156.29 77.00
2662 18.0660 5900.00 6163.38 77.00
2663 18.0720 6028.00 6173.11 78.00
2664 18.0780 5819.00 6186.25 76.00
2665 18.0840 5924.00 6204.13 77.00
2666 18.0900 5908.00 6228.89 77.00
2667 18.0960 5871.00 6262.63 77.00
2668 18.1020 5926.00 6311.41 77.00
2669 18.1080 5828.00 6378.89 76.00
2670 18.1140 5919.00 6469.32 77.00
2671 18.1200 6214.00 6585.20 79.00
2672 18.1260 5985.00 6725.49 77.00
2673 18.1320 6079.00 6884.10 78.00
2674 18.1380 6251.00 7047.99 79.00
2675 18.1440 6333.00 7195.90 80.00
2676 18.1500 6352.00 7300.93 80.00
2677 18.1560 6527.00 7340.93 81.00
2678 18.1620 6455.00 7313.91 80.00
2679 18.1680 6461.00 7239.73 80.00
2680 18.1740 6594.00 7146.04 81.00
2681 18.1800 6547.00 7055.46 81.00
2682 18.1860 6615.00 6986.10 81.00
2683 18.1920 6562.00 6946.24 81.00
2684 18.1980 6725.00 6939.78 82.00
2685 18.2040 6916.00 6967.17 83.00
2686 18.2100 6936.00 7027.22 83.00
2687 18.2160 7135.00 7132.19 84.00
2688 18.2220 7207.00 7257.82 85.00
2689 18.2280 7237.00 7422.63 85.00
2690 18.2340 7599.00 7639.81 87.00
2691 18.2400 7832.00 7934.88 88.00
2692 18.2460 7980.00 8352.29 89.00
2693 18.2520 8675.00 8964.26 93.00
2694 18.2580 9670.00 9878.65 98.00
2695 18.2640 11171.00 11243.20 106.00
2696 18.2700 13505.00 13234.80 116.00
2697 18.2760 17092.00 16037.80 131.00
2698 18.2820 21929.00 19796.80 148.00
2699 18.2880 28085.00 24549.10 168.00
2700 18.2940 36022.00 30161.80 190.00
2701 18.3000 43781.00 36250.80 209.00
2702 18.3060 49224.00 42127.90 222.00
2703 18.3120 51699.00 46816.20 227.00
2704 18.3180 51268.00 49310.30 226.00
2705 18.3240 48018.00 49013.60 219.00
2706 18.3300 42948.00 46015.50 207.00
2707 18.3360 37047.00 41028.40 192.00
2708 18.3420 31592.00 35062.50 178.00
2709 18.3480 27187.00 29032.60 165.00
2710 18.3540 23038.00 23566.80 152.00
2711 18.3600 19251.00 19000.70 139.00
2712 18.3660 16538.00 15428.50 129.00
2713 18.3720 14139.00 12784.20 119.00
2714 18.3780 12068.00 10910.60 110.00
2715 18.3840 10846.00 9633.66 104.00
2716 18.3900 9793.00 8776.05 99.00
2717 18.3960 9027.00 8197.63 95.00
2718 18.4020 8289.00 7797.64 91.00
2719 18.4080 7841.00 7509.04 89.00
2720 18.4140 7375.00 7290.39 86.00
2721 18.4200 7087.00 7117.01 84.00
2722 18.4260 7000.00 6974.83 84.00
2723 18.4320 6766.00 6855.45 82.00
2724 18.4380 6628.00 6752.59 81.00
2725 18.4440 6532.00 6664.84 81.00
2726 18.4500 6558.00 6588.71 81.00
2727 18.4560 6527.00 6522.35 81.00
2728 18.4620 6461.00 6464.22 80.00
2729 18.4680 6539.00 6413.19 81.00
2730 18.4740 6535.00 6368.29 81.00
2731 18.4800 6325.00 6328.75 80.00
2732 18.4860 6306.00 6293.93 79.00
2733 18.4920 6357.00 6263.32 80.00
2734 18.4980 6037.00 6236.51 78.00
2735 18.5040 5933.00 6213.16 77.00
2736 18.5100 5846.00 6193.02 76.00
2737 18.5160 5851.00 6175.91 76.00
2738 18.5220 5889.00 6160.68 77.00
2739 18.5280 5678.00 6149.27 75.00
2740 18.5340 5843.00 6140.68 76.00
2741 18.5400 5850.00 6134.96 76.00
2742 18.5460 5789.00 6132.23 76.00
2743 18.5520 5805.00 6132.72 76.00
2744 18.5580 5762.00 6136.75 76.00
2745 18.5640 5707.00 6144.82 76.00
2746 18.5700 5840.00 6157.76 76.00
2747 18.5760 5891.00 6176.87 77.00
2748 18.5820 5911.00 6204.46 77.00
2749 18.5880 5879.00 6244.53 77.00
2750 18.5940 5846.00 6304.07 76.00
2751 18.6000 6021.00 6393.06 78.00
2752 18.6060 6191.00 6531.29 79.00
2753 18.6120 6309.00 6744.35 79.00
2754 18.6180 6418.00 7063.58 80.00
2755 18.6240 6685.00 7524.47 82.00
2756 18.6300 7248.00 8158.46 85.00
2757 18.6360 8114.00 8982.75 90.00
2758 18.6420 9082.00 9986.85 95.00
2759 18.6480 10570.00 11119.10 103.00
2760 18.6540 12318.00 12275.80 111.00
2761 18.6600 13302.00 13291.70 115.00
2762 18.6660 13580.00 13952.00 117.00
2763 18.6720 13164.00 14070.40 115.00
2764 18.6780 12216.00 13607.60 111.00
2765 18.6840 10921.00 12701.00 105.00
2766 18.6900 9602.00 11566.20 98.00
2767 18.6960 8705.00 10395.80 93.00
2768 18.7020 7989.00 9317.35 89.00
2769 18.7080 7314.00 8402.32 86.00
2770 18.7140 6753.00 7677.20 82.00
2771 18.7200 6491.00 7134.83 81.00
2772 18.7260 6365.00 6747.91 80.00
2773 18.7320 6239.00 6481.55 79.00
2774 18.7380 6082.00 6301.47 78.00
2775 18.7440 5871.00 6179.34 77.00
2776 18.7500 5824.00 6094.25 76.00
2777 18.7560 5891.00 6032.28 77.00
2778 18.7620 5793.00 5946.13 76.00
2779 18.7680 5725.00 5908.91 76.00
2780 18.7740 5741.00 5845.31 76.00
2781 18.7800 5742.00 5819.75 76.00
2782 18.7860 5525.00 5797.65 74.00
2783 18.7920 5522.00 5778.31 74.00
2784 18.7980 5659.00 5761.21 75.00
2785 18.8040 5717.00 5745.99 76.00
2786 18.8100 5813.00 5732.35 76.00
2787 18.8160 5916.00 5720.04 77.00
2788 18.8220 5896.00 5708.88 77.00
2789 18.8280 5794.00 5698.70 76.00
2790 18.8340 5719.00 5689.37 76.00
2791 18.8400 5814.00 5680.77 76.00
2792 18.8460 5860.00 5672.81 77.00
2793 18.8520 5908.00 5708.94 77.00
2794 18.8580 6002.00 5702.17 77.00
2795 18.8640 6077.00 5696.89 78.00
2796 18.8700 6056.00 5692.04 78.00
2797 18.8760 6034.00 5687.58 78.00
2798 18.8820 5964.00 5683.48 77.00
2799 18.8880 5897.00 5679.71 77.00
2800 18.8940 6094.00 5676.24 78.00
2801 18.9000 6171.00 5673.06 79.00
2802 18.9060 6132.00 5670.14 78.00
2803 18.9120 6083.00 5667.47 78.00
2804 18.9180 5913.00 5665.04 77.00
2805 18.9240 5881.00 5662.84 77.00
2806 18.9300 5795.00 5660.85 76.00
2807 18.9360 5602.00 5659.07 75.00
2808 18.9420 5619.00 5656.51 75.00
2809 18.9480 5566.00 5655.14 75.00
2810 18.9540 5403.00 5653.98 74.00
2811 18.9600 5429.00 5653.01 74.00
2812 18.9660 5557.00 5652.25 75.00
2813 18.9720 5509.00 5651.70 74.00
2814 18.9780 5546.00 5651.35 74.00
2815 18.9840 5575.00 5651.22 75.00
2816 18.9900 5525.00 5651.30 74.00
2817 18.9960 5551.00 5653.61 75.00
2818 19.0020 5553.00 5658.16 75.00
2819 19.0080 5545.00 5661.96 74.00
2820 19.0140 5627.00 5667.01 75.00
2821 19.0200 5634.00 5671.34 75.00
2822 19.0260 5651.00 5676.96 75.00
2823 19.0320 5595.00 5681.88 75.00
2824 19.0380 5673.00 5688.14 75.00
2825 19.0440 5798.00 5693.75 76.00
2826 19.0500 5826.00 5702.48 76.00
2827 19.0560 5971.00 5708.91 77.00
2828 19.0620 6032.00 5717.85 78.00
2829 19.0680 6031.00 5725.25 78.00
2830 19.0740 6128.00 5734.16 78.00
2831 19.0800 6278.00 5742.66 79.00
2832 19.0860 6216.00 5752.78 79.00
2833 19.0920 5992.00 5762.60 77.00
2834 19.0980 5921.00 5774.18 77.00
2835 19.1040 5917.00 5785.60 77.00
2836 19.1100 5839.00 5798.96 76.00
2837 19.1160 5660.00 5812.36 75.00
2838 19.1220 5696.00 5827.93 75.00
2839 19.1280 5757.00 5830.99 76.00
2840 19.1340 5755.00 5849.67 76.00
2841 19.1400 5886.00 5868.98 77.00
2842 19.1460 5884.00 5891.17 77.00
2843 19.1520 5900.00 5914.49 77.00
2844 19.1580 5888.00 5970.76 77.00
2845 19.1640 5931.00 6000.07 77.00
2846 19.1700 5998.00 6055.69 77.00
2847 19.1760 5871.00 6092.62 77.00
2848 19.1820 5861.00 6134.99 77.00
2849 19.1880 5984.00 6181.57 77.00
2850 19.1940 6076.00 6235.33 78.00
2851 19.2000 6211.00 6295.47 79.00
2852 19.2060 6248.00 6365.59 79.00
2853 19.2120 6296.00 6446.02 79.00
2854 19.2180 6306.00 6542.16 79.00
2855 19.2240 6241.00 6657.57 79.00
2856 19.2300 6355.00 6803.60 80.00
2857 19.2360 6581.00 6994.25 81.00
2858 19.2420 6802.00 7257.90 82.00
2859 19.2480 7095.00 7634.13 84.00
2860 19.2540 7526.00 8186.71 87.00
2861 19.2600 8150.00 8996.84 90.00
2862 19.2660 8883.00 10167.50 94.00
2863 19.2720 10106.00 11801.80 101.00
2864 19.2780 11949.00 13989.20 109.00
2865 19.2840 14659.00 16763.40 121.00
2866 19.2900 19006.00 20072.40 138.00
2867 19.2960 25101.00 23737.90 158.00
2868 19.3020 31472.00 27430.00 177.00
2869 19.3080 36429.00 30631.20 191.00
2870 19.3140 38259.00 32702.70 196.00
2871 19.3200 35996.00 33104.10 190.00
2872 19.3260 31513.00 31720.30 178.00
2873 19.3320 26791.00 28939.90 164.00
2874 19.3380 22256.00 25402.00 149.00
2875 19.3440 18190.00 21686.10 135.00
2876 19.3500 15205.00 18205.80 123.00
2877 19.3560 12928.00 15201.60 114.00
2878 19.3620 11216.00 12776.40 106.00
2879 19.3680 10086.00 10925.10 100.00
2880 19.3740 9122.00 9581.86 96.00
2881 19.3800 8533.00 8644.23 92.00
2882 19.3860 8096.00 8008.56 90.00
2883 19.3920 7724.00 7581.37 88.00
2884 19.3980 7362.00 7293.79 86.00
2885 19.4040 7061.00 7094.17 84.00
2886 19.4100 6895.00 6952.18 83.00
2887 19.4160 6815.00 6846.16 83.00
2888 19.4220 6750.00 6766.58 82.00
2889 19.4280 6565.00 6704.93 81.00
2890 19.4340 6388.00 6659.54 80.00
2891 19.4400 6234.00 6626.66 79.00
2892 19.4460 6355.00 6607.91 80.00
2893 19.4520 6400.00 6602.16 80.00
2894 19.4580 6192.00 6613.70 79.00
2895 19.4640 6304.00 6644.31 79.00
2896 19.4700 6313.00 6701.14 79.00
2897 19.4760 6169.00 6788.31 79.00
2898 19.4820 6219.00 6913.73 79.00
2899 19.4880 6590.00 7079.62 81.00
2900 19.4940 6905.00 7288.36 83.00
2901 19.5000 7103.00 7532.74 84.00
2902 19.5060 7233.00 7801.10 85.00
2903 19.5120 7300.00 8068.11 85.00
2904 19.5180 7382.00 8303.44 86.00
2905 19.5240 7526.00 8471.16 87.00
2906 19.5300 7666.00 8553.30 88.00
2907 19.5360 7629.00 8553.83 87.00
2908 19.5420 7592.00 8506.05 87.00
2909 19.5480 7622.00 8455.12 87.00
2910 19.5540 7679.00 8456.63 88.00
2911 19.5600 7749.00 8565.83 88.00
2912 19.5660 8007.00 8849.42 89.00
2913 19.5720 8520.00 9382.19 92.00
2914 19.5780 9285.00 10257.50 96.00
2915 19.5840 10435.00 11576.00 102.00
2916 19.5900 12247.00 13439.00 111.00
2917 19.5960 15015.00 15918.40 123.00
2918 19.6020 19029.00 19032.40 138.00
2919 19.6080 24053.00 22705.20 155.00
2920 19.6140 29956.00 26730.50 173.00
2921 19.6200 36112.00 30731.70 190.00
2922 19.6260 40341.00 34169.90 201.00
2923 19.6320 41543.00 36446.40 204.00
2924 19.6380 40268.00 37121.20 201.00
2925 19.6440 36819.00 36077.50 192.00
2926 19.6500 32369.00 33536.60 180.00
2927 19.6560 28136.00 29967.40 168.00
2928 19.6620 23753.00 25942.60 154.00
2929 19.6680 20096.00 21961.50 142.00
2930 19.6740 17049.00 18364.00 131.00
2931 19.6800 14513.00 15329.10 120.00
2932 19.6860 12211.00 12912.00 111.00
2933 19.6920 10636.00 11077.30 103.00
2934 19.6980 9731.00 9740.87 99.00
2935 19.7040 8922.00 8796.15 94.00
2936 19.7100 8379.00 8142.30 92.00
2937 19.7160 7906.00 7689.50 89.00
2938 19.7220 7449.00 7372.78 86.00
2939 19.7280 7159.00 7142.88 85.00
2940 19.7340 7102.00 6970.65 84.00
2941 19.7400 6737.00 6890.54 82.00
2942 19.7460 6642.00 6781.94 81.00
2943 19.7520 6495.00 6690.42 81.00
2944 19.7580 6416.00 6613.59 80.00
2945 19.7640 6385.00 6546.52 80.00
2946 19.7700 6274.00 6489.24 79.00
2947 19.7760 6223.00 6438.32 79.00
2948 19.7820 6296.00 6394.57 79.00
2949 19.7880 6364.00 6332.55 80.00
2950 19.7940 6407.00 6279.41 80.00
2951 19.8000 6355.00 6249.52 80.00
2952 19.8060 6381.00 6224.02 80.00
2953 19.8120 6414.00 6200.50 80.00
2954 19.8180 6394.00 6180.60 80.00
2955 19.8240 6354.00 6162.03 80.00
2956 19.8300 6260.00 6146.52 79.00
2957 19.8360 6086.00 6131.86 78.00
2958 19.8420 6160.00 6119.87 78.00
2959 19.8480 6163.00 6108.37 79.00
2960 19.8540 5987.00 6099.24 77.00
2961 19.8600 5771.00 6096.21 76.00
2962 19.8660 5880.00 6089.62 77.00
2963 19.8720 5878.00 6083.09 77.00
2964 19.8780 5887.00 6078.55 77.00
2965 19.8840 5918.00 6073.94 77.00
2966 19.8900 6006.00 6071.21 77.00
2967 19.8960 6106.00 6068.30 78.00
2968 19.9020 6086.00 6067.19 78.00
2969 19.9080 6084.00 6065.85 78.00
2970 19.9140 6364.00 6066.24 80.00
2971 19.9200 6366.00 6066.37 80.00
2972 19.9260 6334.00 6068.21 80.00
2973 19.9320 6312.00 6069.76 79.00
2974 19.9380 6199.00 6073.02 79.00
2975 19.9440 5990.00 6076.01 77.00
2976 19.9500 6000.00 6080.72 77.00
2977 19.9560 5915.00 6085.19 77.00
2978 19.9620 5865.00 6091.43 77.00
2979 19.9680 5743.00 6097.48 76.00
2980 19.9740 5750.00 6105.37 76.00
2981 19.9800 5774.00 6113.16 76.00
2982 19.9860 5747.00 6122.89 76.00
2983 19.9920 5710.00 6132.64 76.00
2984 19.9980 5822.00 6142.73 76.00
2985 20.0040 5769.00 6154.78 76.00
2986 20.0100 5808.00 6168.08 76.00
2987 20.0160 5694.00 6182.82 75.00
2988 20.0220 5812.00 6200.09 76.00
2989 20.0280 5853.00 6218.04 77.00
2990 20.0340 5834.00 6238.87 76.00
2991 20.0400 5834.00 6260.79 76.00
2992 20.0460 5896.00 6286.03 77.00
2993 20.0520 5884.00 6312.90 77.00
2994 20.0580 5969.00 6343.74 77.00
2995 20.0640 5952.00 6376.95 77.00
2996 20.0700 5926.00 6415.03 77.00
2997 20.0760 6069.00 6456.52 78.00
2998 20.0820 5976.00 6504.11 77.00
2999 20.0880 6005.00 6556.63 77.00
3000 20.0940 6111.00 6617.11 78.00
3001 20.1000 6113.00 6684.80 78.00
3002 20.1060 6167.00 6763.35 79.00
3003 20.1120 6214.00 6824.25 79.00
3004 20.1180 6342.00 6934.92 80.00
3005 20.1240 6583.00 7038.92 81.00
3006 20.1300 6686.00 7194.17 82.00
3007 20.1360 6849.00 7389.48 83.00
3008 20.1420 7217.00 7648.40 85.00
3009 20.1480 7844.00 8003.21 89.00
3010 20.1540 8725.00 8508.27 93.00
3011 20.1600 10100.00 9236.69 100.00
3012 20.1660 12162.00 10288.60 110.00
3013 20.1720 14345.00 11778.30 120.00
3014 20.1780 17733.00 13826.30 133.00
3015 20.1840 21547.00 16528.20 147.00
3016 20.1900 26509.00 19925.20 163.00
3017 20.1960 30712.00 23959.10 175.00
3018 20.2020 35628.00 28448.80 189.00
3019 20.2080 39077.00 33040.20 198.00
3020 20.2140 39859.00 37184.60 200.00
3021 20.2200 39684.00 40163.50 199.00
3022 20.2260 37770.00 41292.30 194.00
3023 20.2320 35610.00 40250.70 189.00
3024 20.2380 32475.00 37332.10 180.00
3025 20.2440 29084.00 33222.50 171.00
3026 20.2500 26199.00 28646.50 162.00
3027 20.2560 23021.00 24162.50 152.00
3028 20.2620 20361.00 20134.80 143.00
3029 20.2680 18090.00 16751.60 134.00
3030 20.2740 16146.00 14077.10 127.00
3031 20.2800 14743.00 12075.90 121.00
3032 20.2860 13475.00 10663.20 116.00
3033 20.2920 12302.00 9726.51 111.00
3034 20.2980 11678.00 9163.27 108.00
3035 20.3040 11281.00 8884.53 106.00
3036 20.3100 11020.00 8826.23 105.00
3037 20.3160 10678.00 8936.64 103.00
3038 20.3220 10822.00 9176.18 104.00
3039 20.3280 10723.00 9500.18 104.00
3040 20.3340 11023.00 9859.06 105.00
3041 20.3400 10542.00 10183.60 103.00
3042 20.3460 10194.00 10395.20 101.00
3043 20.3520 10132.00 10418.60 101.00
3044 20.3580 9903.00 10226.60 100.00
3045 20.3640 9632.00 9850.31 98.00
3046 20.3700 9016.00 9363.28 95.00
3047 20.3760 9121.00 8837.03 96.00
3048 20.3820 8612.00 8328.96 93.00
3049 20.3880 8560.00 7872.72 93.00
3050 20.3940 7931.00 7488.71 89.00
3051 20.4000 7620.00 7179.59 87.00
3052 20.4060 7210.00 6979.53 85.00
3053 20.4120 7028.00 6803.38 84.00
3054 20.4180 6866.00 6704.11 83.00
3055 20.4240 6484.00 6612.51 81.00
3056 20.4300 6640.00 6547.26 81.00
3057 20.4360 6273.00 6498.42 79.00
3058 20.4420 6562.00 6462.38 81.00
3059 20.4480 6491.00 6433.40 81.00
3060 20.4540 6383.00 6411.20 80.00
3061 20.4600 6258.00 6392.33 79.00
3062 20.4660 6208.00 6377.95 79.00
3063 20.4720 6291.00 6365.51 79.00
3064 20.4780 6023.00 6356.72 78.00
3065 20.4840 6180.00 6349.35 79.00
3066 20.4900 6096.00 6345.32 78.00
3067 20.4960 6025.00 6342.59 78.00
3068 20.5020 5870.00 6343.25 77.00
3069 20.5080 6014.00 6345.52 78.00
3070 20.5140 6137.00 6351.85 78.00
3071 20.5200 5896.00 6362.04 77.00
3072 20.5260 5863.00 6377.48 77.00
3073 20.5320 6165.00 6400.46 79.00
3074 20.5380 5925.00 6435.47 77.00
3075 20.5440 6077.00 6485.55 78.00
3076 20.5500 6109.00 6558.33 78.00
3077 20.5560 6230.00 6661.84 79.00
3078 20.5620 6238.00 6805.43 79.00
3079 20.5680 6425.00 6994.31 80.00
3080 20.5740 6568.00 7233.00 81.00
3081 20.5800 7011.00 7520.39 84.00
3082 20.5860 7527.00 7843.68 87.00
3083 20.5920 8141.00 8182.07 90.00
3084 20.5980 8683.00 8501.87 93.00
3085 20.6040 8834.00 8753.36 94.00
3086 20.6100 8755.00 8886.85 94.00
3087 20.6160 8726.00 8872.25 93.00
3088 20.6220 8378.00 8715.93 92.00
3089 20.6280 7869.00 8461.45 89.00
3090 20.6340 7632.00 8161.72 87.00
3091 20.6400 7396.00 7863.04 86.00
3092 20.6460 6939.00 7595.83 83.00
3093 20.6520 6976.00 7382.94 84.00
3094 20.6580 6753.00 7238.45 82.00
3095 20.6640 7046.00 7167.55 84.00
3096 20.6700 7179.00 7174.38 85.00
3097 20.6760 7307.00 7260.39 85.00
3098 20.6820 7682.00 7421.28 88.00
3099 20.6880 7949.00 7652.23 89.00
3100 20.6940 8441.00 7941.61 92.00
3101 20.7000 8747.00 8271.45 94.00
3102 20.7060 9134.00 8609.64 96.00
3103 20.7120 9280.00 8915.01 96.00
3104 20.7180 9144.00 9081.18 96.00
3105 20.7240 8972.00 9169.59 95.00
3106 20.7300 8658.00 9106.78 93.00
3107 20.7360 8357.00 8916.54 91.00
3108 20.7420 7975.00 8647.72 89.00
3109 20.7480 7976.00 8348.72 89.00
3110 20.7540 7572.00 8063.28 87.00
3111 20.7600 7566.00 7812.12 87.00
3112 20.7660 7327.00 7612.35 86.00
3113 20.7720 7115.00 7469.40 84.00
3114 20.7780 7119.00 7383.07 84.00
3115 20.7840 7097.00 7346.42 84.00
3116 20.7900 7150.00 7354.05 85.00
3117 20.7960 7155.00 7401.23 85.00
3118 20.8020 7348.00 7482.58 86.00
3119 20.8080 7489.00 7599.40 87.00
3120 20.8140 7693.00 7758.13 88.00
3121 20.8200 7733.00 7970.15 88.00
3122 20.8260 8006.00 8258.76 89.00
3123 20.8320 8526.00 8662.14 92.00
3124 20.8380 8945.00 9237.71 95.00
3125 20.8440 9600.00 10056.80 98.00
3126 20.8500 10381.00 11232.90 102.00
3127 20.8560 11910.00 12878.50 109.00
3128 20.8620 14185.00 15107.50 119.00
3129 20.8680 17936.00 18017.30 134.00
3130 20.8740 22735.00 21648.20 151.00
3131 20.8800 28231.00 25947.10 168.00
3132 20.8860 35366.00 30740.60 188.00
3133 20.8920 41799.00 35689.10 204.00
3134 20.8980 46869.00 40265.30 216.00
3135 20.9040 49437.00 43792.80 222.00
3136 20.9100 48834.00 45608.70 221.00
3137 20.9160 46247.00 45324.00 215.00
3138 20.9220 41905.00 43007.50 205.00
3139 20.9280 36829.00 39157.40 192.00
3140 20.9340 32002.00 34440.50 179.00
3141 20.9400 27449.00 29501.00 166.00
3142 20.9460 23384.00 24816.80 153.00
3143 20.9520 19700.00 20681.40 140.00
3144 20.9580 17142.00 17235.70 131.00
3145 20.9640 14647.00 14504.60 121.00
3146 20.9700 12867.00 12431.90 113.00
3147 20.9760 11513.00 10914.40 107.00
3148 20.9820 10354.00 9832.19 102.00
3149 20.9880 9460.00 9072.65 97.00
3150 20.9940 8822.00 8541.36 94.00
3151 21.0000 8329.00 8162.60 91.00
3152 21.0060 8047.00 7885.58 90.00
3153 21.0120 7747.00 7676.31 88.00
3154 21.0180 7490.00 7510.36 87.00
3155 21.0240 7152.00 7374.97 85.00
3156 21.0300 7004.00 7262.62 84.00
3157 21.0360 6938.00 7166.02 83.00
3158 21.0420 6918.00 7082.62 83.00
3159 21.0480 6838.00 7010.04 83.00
3160 21.0540 6949.00 6947.52 83.00
3161 21.0600 6952.00 6891.70 83.00
3162 21.0660 6845.00 6842.47 83.00
3163 21.0720 6681.00 6799.96 82.00
3164 21.0780 6553.00 6761.46 81.00
3165 21.0840 6472.00 6728.53 80.00
3166 21.0900 6346.00 6699.33 80.00
3167 21.0960 6378.00 6672.60 80.00
3168 21.1020 6296.00 6649.01 79.00
3169 21.1080 6143.00 6628.26 78.00
3170 21.1140 6232.00 6607.13 79.00
3171 21.1200 6241.00 6591.51 79.00
3172 21.1260 6270.00 6578.19 79.00
3173 21.1320 6186.00 6566.08 79.00
3174 21.1380 6265.00 6555.16 79.00
3175 21.1440 6251.00 6546.48 79.00
3176 21.1500 6251.00 6540.23 79.00
3177 21.1560 6297.00 6536.76 79.00
3178 21.1620 6373.00 6537.75 80.00
3179 21.1680 6343.00 6542.32 80.00
3180 21.1740 6372.00 6553.26 80.00
3181 21.1800 6297.00 6573.23 79.00
3182 21.1860 6340.00 6606.97 80.00
3183 21.1920 6380.00 6657.29 80.00
3184 21.1980 6270.00 6730.91 79.00
3185 21.2040 6305.00 6833.76 79.00
3186 21.2100 6473.00 6970.94 80.00
3187 21.2160 6585.00 7146.54 81.00
3188 21.2220 6793.00 7357.48 82.00
3189 21.2280 6975.00 7594.07 84.00
3190 21.2340 7169.00 7850.34 85.00
3191 21.2400 7513.00 8099.21 87.00
3192 21.2460 7692.00 8310.59 88.00
3193 21.2520 7782.00 8449.43 88.00
3194 21.2580 7738.00 8492.36 88.00
3195 21.2640 7501.00 8432.60 87.00
3196 21.2700 7362.00 8284.29 86.00
3197 21.2760 7255.00 8074.11 85.00
3198 21.2820 7020.00 7837.21 84.00
3199 21.2880 6834.00 7603.64 83.00
3200 21.2940 6772.00 7394.66 82.00
3201 21.3000 6705.00 7222.98 82.00
3202 21.3060 6632.00 7090.19 81.00
3203 21.3120 6536.00 6994.63 81.00
3204 21.3180 6567.00 6928.81 81.00
3205 21.3240 6529.00 6882.47 81.00
3206 21.3300 6443.00 6846.32 80.00
3207 21.3360 6331.00 6811.40 80.00
3208 21.3420 6472.00 6776.95 80.00
3209 21.3480 6383.00 6745.41 80.00
3210 21.3540 6393.00 6722.40 80.00
3211 21.3600 6394.00 6711.54 80.00
3212 21.3660 6399.00 6720.32 80.00
3213 21.3720 6339.00 6756.43 80.00
3214 21.3780 6461.00 6828.96 80.00
3215 21.3840 6392.00 6949.12 80.00
3216 21.3900 6708.00 7125.19 82.00
3217 21.3960 6746.00 7366.97 82.00
3218 21.4020 6983.00 7697.75 84.00
3219 21.4080 7170.00 8077.96 85.00
3220 21.4140 7436.00 8477.90 86.00
3221 21.4200 8096.00 8943.24 90.00
3222 21.4260 8737.00 9376.60 93.00
3223 21.4320 9256.00 9758.07 96.00
3224 21.4380 9421.00 10000.60 97.00
3225 21.4440 8891.00 10047.40 94.00
3226 21.4500 8667.00 9887.49 93.00
3227 21.4560 8161.00 9559.17 90.00
3228 21.4620 7621.00 9127.95 87.00
3229 21.4680 7645.00 8659.70 87.00
3230 21.4740 7307.00 8202.00 85.00
3231 21.4800 7040.00 7788.42 84.00
3232 21.4860 6998.00 7436.44 84.00
3233 21.4920 6849.00 7152.25 83.00
3234 21.4980 6735.00 6934.43 82.00
3235 21.5040 6492.00 6772.93 81.00
3236 21.5100 6496.00 6658.57 81.00
3237 21.5160 6310.00 6580.92 79.00
3238 21.5220 6282.00 6532.13 79.00
3239 21.5280 6511.00 6503.61 81.00
3240 21.5340 6306.00 6492.25 79.00
3241 21.5400 6263.00 6496.07 79.00
3242 21.5460 6433.00 6514.57 80.00
3243 21.5520 6481.00 6549.09 81.00
3244 21.5580 6567.00 6597.88 81.00
3245 21.5640 6828.00 6661.32 83.00
3246 21.5700 6620.00 6737.31 81.00
3247 21.5760 6647.00 6821.37 82.00
3248 21.5820 6755.00 6907.27 82.00
3249 21.5880 6610.00 6982.48 81.00
3250 21.5940 6626.00 7035.03 81.00
3251 21.6000 6667.00 7052.85 82.00
3252 21.6060 6578.00 7031.72 81.00
3253 21.6120 6649.00 6974.46 82.00
3254 21.6180 6458.00 6893.83 80.00
3255 21.6240 6338.00 6828.31 80.00
3256 21.6300 6137.00 6738.04 78.00
3257 21.6360 6278.00 6656.06 79.00
3258 21.6420 6329.00 6584.56 80.00
3259 21.6480 6237.00 6526.38 79.00
3260 21.6540 6227.00 6481.47 79.00
3261 21.6600 6227.00 6448.53 79.00
3262 21.6660 6102.00 6426.65 78.00
3263 21.6720 6228.00 6411.69 79.00
3264 21.6780 6278.00 6402.70 79.00
3265 21.6840 6209.00 6398.06 79.00
3266 21.6900 6491.00 6397.56 81.00
3267 21.6960 6174.00 6398.34 79.00
3268 21.7020 6269.00 6400.88 79.00
3269 21.7080 6340.00 6404.83 80.00
3270 21.7140 6264.00 6410.02 79.00
3271 21.7200 6205.00 6417.36 79.00
3272 21.7260 6143.00 6424.84 78.00
3273 21.7320 6179.00 6433.49 79.00
3274 21.7380 6160.00 6443.36 78.00
3275 21.7440 6335.00 6454.52 80.00
3276 21.7500 6301.00 6468.10 79.00
3277 21.7560 6431.00 6482.23 80.00
3278 21.7620 6481.00 6498.07 81.00
3279 21.7680 6279.00 6514.09 79.00
3280 21.7740 6168.00 6535.07 79.00
3281 21.7800 6190.00 6555.87 79.00
3282 21.7860 6334.00 6581.18 80.00
3283 21.7920 6356.00 6609.80 80.00
3284 21.7980 6300.00 6642.30 79.00
3285 21.8040 6357.00 6680.50 80.00
3286 21.8100 6295.00 6723.50 79.00
3287 21.8160 6390.00 6774.06 80.00
3288 21.8220 6527.00 6834.81 81.00
3289 21.8280 6545.00 6909.95 81.00
3290 21.8340 6592.00 7007.17 81.00
3291 21.8400 6603.00 7134.68 81.00
3292 21.8460 6814.00 7308.12 83.00
3293 21.8520 6989.00 7549.35 84.00
3294 21.8580 7278.00 7886.71 85.00
3295 21.8640 7452.00 8351.21 86.00
3296 21.8700 7933.00 8980.17 89.00
3297 21.8760 8800.00 9807.70 94.00
3298 21.8820 9899.00 10859.70 99.00
3299 21.8880 10997.00 12145.10 105.00
3300 21.8940 12523.00 13642.90 112.00
3301 21.9000 14168.00 15300.00 119.00
3302 21.9060 16224.00 17020.00 127.00
3303 21.9120 18264.00 18644.70 135.00
3304 21.9180 19569.00 19959.30 140.00
3305 21.9240 20466.00 20783.20 143.00
3306 21.9300 20799.00 21018.80 144.00
3307 21.9360 20602.00 20717.20 144.00
3308 21.9420 19554.00 19949.80 140.00
3309 21.9480 18635.00 18847.50 137.00
3310 21.9540 17664.00 17506.20 133.00
3311 21.9600 16277.00 16024.80 128.00
3312 21.9660 15070.00 14508.30 123.00
3313 21.9720 14037.00 13070.80 118.00
3314 21.9780 13108.00 11783.20 114.00
3315 21.9840 12011.00 10686.20 110.00
3316 21.9900 11005.00 9800.00 105.00
3317 21.9960 10429.00 9092.16 102.00
3318 22.0020 9899.00 8553.24 99.00
3319 22.0080 9305.00 8154.08 96.00
3320 22.0140 8938.00 7867.79 95.00
3321 22.0200 8617.00 7669.06 93.00
3322 22.0260 8356.00 7537.49 91.00
3323 22.0320 8080.00 7454.35 90.00
3324 22.0380 8021.00 7408.82 90.00
3325 22.0440 7824.00 7393.58 88.00
3326 22.0500 7597.00 7405.54 87.00
3327 22.0560 7556.00 7446.89 87.00
3328 22.0620 7578.00 7521.50 87.00
3329 22.0680 7848.00 7641.89 89.00
3330 22.0740 8058.00 7826.13 90.00
3331 22.0800 8224.00 8100.45 91.00
3332 22.0860 8662.00 8499.25 93.00
3333 22.0920 9437.00 9095.39 97.00
3334 22.0980 10236.00 9862.58 101.00
3335 22.1040 11430.00 10871.50 107.00
3336 22.1100 13260.00 12144.90 115.00
3337 22.1160 15377.00 13698.40 124.00
3338 22.1220 17502.00 15448.10 132.00
3339 22.1280 19204.00 17329.10 139.00
3340 22.1340 20602.00 19193.00 144.00
3341 22.1400 21571.00 20828.80 147.00
3342 22.1460 21886.00 21976.80 148.00
3343 22.1520 21415.00 22401.40 146.00
3344 22.1580 20409.00 22002.30 143.00
3345 22.1640 19031.00 20874.40 138.00
3346 22.1700 17938.00 19250.60 134.00
3347 22.1760 16974.00 17388.50 130.00
3348 22.1820 15583.00 15503.40 125.00
3349 22.1880 14105.00 13743.40 119.00
3350 22.1940 13133.00 12200.20 115.00
3351 22.2000 11945.00 10914.40 109.00
3352 22.2060 11076.00 9891.47 105.00
3353 22.2120 10364.00 9109.88 102.00
3354 22.2180 9744.00 8533.43 99.00
3355 22.2240 9186.00 8125.05 96.00
3356 22.2300 8721.00 7835.08 93.00
3357 22.2360 8340.00 7633.42 91.00
3358 22.2420 7893.00 7493.21 89.00
3359 22.2480 7673.00 7394.90 88.00
3360 22.2540 7596.00 7326.07 87.00
3361 22.2600 7401.00 7276.08 86.00
3362 22.2660 7452.00 7240.48 86.00
3363 22.2720 7322.00 7215.97 86.00
3364 22.2780 7188.00 7201.54 85.00
3365 22.2840 7339.00 7194.02 86.00
3366 22.2900 7322.00 7193.73 86.00
3367 22.2960 7343.00 7200.32 86.00
3368 22.3020 7316.00 7213.67 86.00
3369 22.3080 7283.00 7234.88 85.00
3370 22.3140 7248.00 7262.24 85.00
3371 22.3200 7265.00 7297.31 85.00
3372 22.3260 7278.00 7340.96 85.00
3373 22.3320 7303.00 7395.54 85.00
3374 22.3380 7393.00 7461.14 86.00
3375 22.3440 7435.00 7542.09 86.00
3376 22.3500 7407.00 7643.49 86.00
3377 22.3560 7466.00 7773.23 86.00
3378 22.3620 7585.00 7943.86 87.00
3379 22.3680 7807.00 8170.24 88.00
3380 22.3740 8112.00 8476.25 90.00
3381 22.3800 8610.00 8891.39 93.00
3382 22.3860 8992.00 9451.87 95.00
3383 22.3920 9622.00 10199.00 98.00
3384 22.3980 10580.00 11172.00 103.00
3385 22.4040 11587.00 12407.70 108.00
3386 22.4100 13083.00 13930.70 114.00
3387 22.4160 14966.00 15744.00 122.00
3388 22.4220 17132.00 17814.60 131.00
3389 22.4280 19182.00 20067.00 138.00
3390 22.4340 21102.00 22379.50 145.00
3391 22.4400 23544.00 24577.80 153.00
3392 22.4460 26287.00 26497.40 162.00
3393 22.4520 29095.00 27985.90 171.00
3394 22.4580 31550.00 29008.30 178.00
3395 22.4640 32906.00 29505.30 181.00
3396 22.4700 32596.00 29450.60 181.00
3397 22.4760 30638.00 28864.40 175.00
3398 22.4820 28800.00 27846.70 170.00
3399 22.4880 27185.00 26593.50 165.00
3400 22.4940 25169.00 25274.50 159.00
3401 22.5000 23740.00 24010.40 154.00
3402 22.5060 22375.00 22858.20 150.00
3403 22.5120 20978.00 21823.80 145.00
3404 22.5180 19519.00 20863.40 140.00
3405 22.5240 18134.00 19901.40 135.00
3406 22.5300 16983.00 18875.50 130.00
3407 22.5360 15761.00 17776.50 126.00
3408 22.5420 14752.00 16667.70 121.00
3409 22.5480 14041.00 15646.70 118.00
3410 22.5540 13861.00 14813.70 118.00
3411 22.5600 13533.00 14258.80 116.00
3412 22.5660 13542.00 14061.00 116.00
3413 22.5720 14071.00 14295.80 119.00
3414 22.5780 15351.00 15028.10 124.00
3415 22.5840 16821.00 16311.30 130.00
3416 22.5900 18762.00 18171.30 137.00
3417 22.5960 21630.00 20602.00 147.00
3418 22.6020 24679.00 23544.70 157.00
3419 22.6080 28741.00 26874.80 170.00
3420 22.6140 32337.00 30378.40 180.00
3421 22.6200 35464.00 33738.70 188.00
3422 22.6260 37592.00 36566.90 194.00
3423 22.6320 38153.00 38495.20 195.00
3424 22.6380 37920.00 39301.60 195.00
3425 22.6440 37372.00 38964.00 193.00
3426 22.6500 35355.00 37581.20 188.00
3427 22.6560 33271.00 35305.10 182.00
3428 22.6620 30533.00 32338.80 175.00
3429 22.6680 27958.00 28961.60 167.00
3430 22.6740 25355.00 25477.20 159.00
3431 22.6800 22811.00 22152.40 151.00
3432 22.6860 20971.00 19143.00 145.00
3433 22.6920 19172.00 16597.40 138.00
3434 22.6980 17598.00 14521.00 133.00
3435 22.7040 16380.00 12898.80 128.00
3436 22.7100 15429.00 11689.90 124.00
3437 22.7160 14524.00 10836.20 121.00
3438 22.7220 13759.00 10275.90 117.00
3439 22.7280 13281.00 9955.72 115.00
3440 22.7340 12515.00 9800.78 112.00
3441 22.7400 12031.00 9766.42 110.00
3442 22.7460 11724.00 9804.01 108.00
3443 22.7520 11233.00 9873.62 106.00
3444 22.7580 10710.00 9919.58 103.00
3445 22.7640 10407.00 9906.03 102.00
3446 22.7700 10074.00 9802.87 100.00
3447 22.7760 9449.00 9603.12 97.00
3448 22.7820 9166.00 9325.85 96.00
3449 22.7880 9017.00 9001.21 95.00
3450 22.7940 8566.00 8662.85 93.00
3451 22.8000 8407.00 8336.12 92.00
3452 22.8060 8133.00 8037.77 90.00
3453 22.8120 7863.00 7778.51 89.00
3454 22.8180 7760.00 7560.00 88.00
3455 22.8240 7442.00 7382.48 86.00
3456 22.8300 7454.00 7241.97 86.00
3457 22.8360 7417.00 7133.99 86.00
3458 22.8420 7300.00 7050.47 85.00
3459 22.8480 7319.00 6986.68 86.00
3460 22.8540 7080.00 6937.83 84.00
3461 22.8600 7097.00 6900.14 84.00
3462 22.8660 7009.00 6871.98 84.00
3463 22.8720 6900.00 6849.57 83.00
3464 22.8780 6846.00 6833.00 83.00
3465 22.8840 6873.00 6822.04 83.00
3466 22.8900 7002.00 6817.17 84.00
3467 22.8960 6783.00 6820.66 82.00
3468 22.9020 6895.00 6832.65 83.00
3469 22.9080 6957.00 6857.37 83.00
3470 22.9140 6917.00 6899.22 83.00
3471 22.9200 6989.00 6964.73 84.00
3472 22.9260 6998.00 7058.21 84.00
3473 22.9320 7105.00 7186.98 84.00
3474 22.9380 7099.00 7356.53 84.00
3475 22.9440 7212.00 7569.88 85.00
3476 22.9500 7519.00 7827.10 87.00
3477 22.9560 7999.00 8119.60 89.00
3478 22.9620 8506.00 8434.70 92.00
3479 22.9680 9178.00 8749.67 96.00
3480 22.9740 9545.00 9032.50 98.00
3481 22.9800 10003.00 9240.02 100.00
3482 22.9860 9913.00 9347.62 100.00
3483 22.9920 9834.00 9321.08 99.00
3484 22.9980 9442.00 9187.56 97.00
3485 23.0040 9149.00 8963.28 96.00
3486 23.0100 8749.00 8683.65 94.00
3487 23.0160 8540.00 8367.68 92.00
3488 23.0220 8319.00 8086.44 91.00
3489 23.0280 7974.00 7842.07 89.00
3490 23.0340 7842.00 7649.77 89.00
3491 23.0400 7707.00 7508.72 88.00
3492 23.0460 7927.00 7427.22 89.00
3493 23.0520 7971.00 7395.48 89.00
3494 23.0580 7749.00 7403.21 88.00
3495 23.0640 7954.00 7438.28 89.00
3496 23.0700 8160.00 7469.71 90.00
3497 23.0760 8234.00 7504.48 91.00
3498 23.0820 7911.00 7517.74 89.00
3499 23.0880 8146.00 7506.26 90.00
3500 23.0940 7825.00 7463.43 88.00
3501 23.1000 7890.00 7396.93 89.00
3502 23.1060 7761.00 7312.69 88.00
3503 23.1120 7874.00 7217.95 89.00
3504 23.1180 7866.00 7121.83 89.00
3505 23.1240 7850.00 7030.02 89.00
3506 23.1300 7505.00 6949.27 87.00
3507 23.1360 7423.00 6882.83 86.00
3508 23.1420 7227.00 6831.77 85.00
3509 23.1480 7101.00 6796.49 84.00
3510 23.1540 7204.00 6773.13 85.00
3511 23.1600 7077.00 6760.14 84.00
3512 23.1660 7035.00 6754.82 84.00
3513 23.1720 7037.00 6756.68 84.00
3514 23.1780 7013.00 6729.23 84.00
3515 23.1840 6807.00 6743.96 83.00
3516 23.1900 7062.00 6769.25 84.00
3517 23.1960 6935.00 6809.93 83.00
3518 23.2020 6982.00 6852.11 84.00
3519 23.2080 7166.00 6946.01 85.00
3520 23.2140 7369.00 7081.51 86.00
3521 23.2200 7542.00 7271.18 87.00
3522 23.2260 7524.00 7528.88 87.00
3523 23.2320 7944.00 7868.70 89.00
3524 23.2380 8278.00 8298.98 91.00
3525 23.2440 8848.00 8825.42 94.00
3526 23.2500 9618.00 9444.56 98.00
3527 23.2560 10281.00 10141.40 101.00
3528 23.2620 11016.00 10882.00 105.00
3529 23.2680 12221.00 11616.60 111.00
3530 23.2740 13100.00 12276.00 114.00
3531 23.2800 13711.00 12784.70 117.00
3532 23.2860 13610.00 13086.40 117.00
3533 23.2920 13756.00 13158.60 117.00
3534 23.2980 13084.00 13015.20 114.00
3535 23.3040 12723.00 12680.80 113.00
3536 23.3100 12089.00 12183.80 110.00
3537 23.3160 11592.00 11559.10 108.00
3538 23.3220 10817.00 10864.40 104.00
3539 23.3280 10157.00 10154.50 101.00
3540 23.3340 9869.00 9478.01 99.00
3541 23.3400 9304.00 8869.03 96.00
3542 23.3460 8815.00 8342.84 94.00
3543 23.3520 8560.00 7905.63 93.00
3544 23.3580 8162.00 7553.59 90.00
3545 23.3640 8179.00 7278.30 90.00
3546 23.3700 7909.00 7069.05 89.00
3547 23.3760 7641.00 6911.51 87.00
3548 23.3820 7386.00 6794.82 86.00
3549 23.3880 7226.00 6708.73 85.00
3550 23.3940 7229.00 6644.89 85.00
3551 23.4000 7091.00 6597.83 84.00
3552 23.4060 6931.00 6560.86 83.00
3553 23.4120 6780.00 6531.67 82.00
3554 23.4180 6801.00 6508.06 82.00
3555 23.4240 6783.00 6489.52 82.00
3556 23.4300 6566.00 6473.10 81.00
3557 23.4360 6522.00 6459.16 81.00
3558 23.4420 6366.00 6447.27 80.00
3559 23.4480 6432.00 6437.14 80.00
3560 23.4540 6603.00 6429.55 81.00
3561 23.4600 6574.00 6422.36 81.00
3562 23.4660 6524.00 6416.45 81.00
3563 23.4720 6363.00 6411.76 80.00
3564 23.4780 6377.00 6408.24 80.00
3565 23.4840 6417.00 6406.92 80.00
3566 23.4900 6405.00 6405.83 80.00
3567 23.4960 6443.00 6406.13 80.00
3568 23.5020 6465.00 6408.04 80.00
3569 23.5080 6442.00 6412.94 80.00
3570 23.5140 6449.00 6419.42 80.00
3571 23.5200 6462.00 6444.83 80.00
3572 23.5260 6504.00 6471.02 81.00
3573 23.5320 6371.00 6491.98 80.00
3574 23.5380 6426.00 6518.66 80.00
3575 23.5440 6526.00 6557.30 81.00
3576 23.5500 6711.00 6606.44 82.00
3577 23.5560 6760.00 6671.28 82.00
3578 23.5620 7057.00 6752.19 84.00
3579 23.5680 7195.00 6851.59 85.00
3580 23.5740 7412.00 6967.88 86.00
3581 23.5800 7724.00 7101.32 88.00
3582 23.5860 7974.00 7249.15 89.00
3583 23.5920 8221.00 7407.53 91.00
3584 23.5980 8295.00 7568.55 91.00
3585 23.6040 8629.00 7727.94 93.00
3586 23.6100 8636.00 7882.65 93.00
3587 23.6160 8951.00 8030.58 95.00
3588 23.6220 8717.00 8168.81 93.00
3589 23.6280 8806.00 8287.78 94.00
3590 23.6340 8819.00 8376.96 94.00
3591 23.6400 8628.00 8426.36 93.00
3592 23.6460 8229.00 8421.91 91.00
3593 23.6520 8186.00 8354.78 90.00
3594 23.6580 7988.00 8222.27 89.00
3595 23.6640 7805.00 8038.91 88.00
3596 23.6700 7708.00 7824.68 88.00
3597 23.6760 7673.00 7602.24 88.00
3598 23.6820 7467.00 7385.82 86.00
3599 23.6880 7274.00 7188.11 85.00
3600 23.6940 7387.00 7015.73 86.00
3601 23.7000 7381.00 6871.45 86.00
3602 23.7060 7422.00 6755.86 86.00
3603 23.7120 7450.00 6664.67 86.00
3604 23.7180 7218.00 6595.38 85.00
3605 23.7240 7084.00 6543.99 84.00
3606 23.7300 6877.00 6506.39 83.00
3607 23.7360 6754.00 6480.36 82.00
3608 23.7420 6698.00 6460.88 82.00
3609 23.7480 6660.00 6446.78 82.00
3610 23.7540 6706.00 6436.45 82.00
3611 23.7600 6540.00 6429.79 81.00
3612 23.7660 6388.00 6424.08 80.00
3613 23.7720 6653.00 6419.81 82.00
3614 23.7780 6555.00 6434.10 81.00
3615 23.7840 6565.00 6432.30 81.00
3616 23.7900 6713.00 6432.33 82.00
3617 23.7960 6422.00 6459.82 80.00
3618 23.8020 6593.00 6460.85 81.00
3619 23.8080 6724.00 6462.54 82.00
3620 23.8140 6465.00 6464.86 80.00
3621 23.8200 6464.00 6484.70 80.00
3622 23.8260 6380.00 6488.57 80.00
3623 23.8320 6511.00 6493.07 81.00
3624 23.8380 6414.00 6498.19 80.00
3625 23.8440 6402.00 6497.59 80.00
3626 23.8500 6445.00 6504.18 80.00
3627 23.8560 6373.00 6511.45 80.00
3628 23.8620 6428.00 6519.46 80.00
3629 23.8680 6385.00 6522.55 80.00
3630 23.8740 6321.00 6530.27 80.00
3631 23.8800 6435.00 6537.87 80.00
3632 23.8860 6524.00 6547.46 81.00
3633 23.8920 6396.00 6558.10 80.00
3634 23.8980 6624.00 6569.91 81.00
3635 23.9040 6616.00 6582.00 81.00
3636 23.9100 6590.00 6596.52 81.00
3637 23.9160 6522.00 6612.64 81.00
3638 23.9220 6668.00 6630.54 82.00
3639 23.9280 6686.00 6649.44 82.00
3640 23.9340 6798.00 6671.63 82.00
3641 23.9400 6893.00 6696.40 83.00
3642 23.9460 6809.00 6724.14 83.00
3643 23.9520 6893.00 6754.35 83.00
3644 23.9580 6759.00 6789.63 82.00
3645 23.9640 6819.00 6829.82 83.00
3646 23.9700 6742.00 6876.07 82.00
3647 23.9760 6959.00 6929.12 83.00
3648 23.9820 7018.00 6993.59 84.00
3649 23.9880 7126.00 7072.45 84.00
3650 23.9940 7083.00 7171.79 84.00
3651 24.0000 7214.00 7299.76 85.00
3652 24.0060 7413.00 7471.40 86.00
3653 24.0120 7488.00 7703.77 87.00
3654 24.0180 7662.00 8020.69 88.00
3655 24.0240 8277.00 8450.21 91.00
3656 24.0300 8796.00 9027.36 94.00
3657 24.0360 9282.00 9784.68 96.00
3658 24.0420 10238.00 10752.30 101.00
3659 24.0480 11545.00 11949.00 107.00
3660 24.0540 13372.00 13374.70 116.00
3661 24.0600 15621.00 15006.10 125.00
3662 24.0660 18348.00 16784.50 135.00
3663 24.0720 20755.00 18610.10 144.00
3664 24.0780 23560.00 20333.50 153.00
3665 24.0840 25090.00 21768.70 158.00
3666 24.0900 25661.00 22750.90 160.00
3667 24.0960 25385.00 23040.70 159.00
3668 24.1020 24130.00 22625.80 155.00
3669 24.1080 22124.00 21587.20 149.00
3670 24.1140 20074.00 20097.70 142.00
3671 24.1200 18281.00 18360.60 135.00
3672 24.1260 15985.00 16556.80 126.00
3673 24.1320 14487.00 14824.20 120.00
3674 24.1380 13033.00 13253.60 114.00
3675 24.1440 11646.00 11896.70 108.00
3676 24.1500 10796.00 10770.90 104.00
3677 24.1560 10025.00 9874.21 100.00
3678 24.1620 9426.00 9184.85 97.00
3679 24.1680 9058.00 8670.02 95.00
3680 24.1740 8812.00 8297.68 94.00
3681 24.1800 8460.00 8037.44 92.00
3682 24.1860 8153.00 7861.05 90.00
3683 24.1920 8106.00 7746.93 90.00
3684 24.1980 7868.00 7677.17 89.00
3685 24.2040 7843.00 7644.08 89.00
3686 24.2100 7700.00 7638.30 88.00
3687 24.2160 7634.00 7654.88 87.00
3688 24.2220 7549.00 7688.40 87.00
3689 24.2280 7487.00 7741.25 87.00
3690 24.2340 7496.00 7808.94 87.00
3691 24.2400 7763.00 7890.44 88.00
3692 24.2460 7799.00 7985.14 88.00
3693 24.2520 7908.00 8093.22 89.00
3694 24.2580 7954.00 8221.38 89.00
3695 24.2640 8009.00 8378.73 89.00
3696 24.2700 8170.00 8581.56 90.00
3697 24.2760 8472.00 8851.85 92.00
3698 24.2820 8799.00 9222.08 94.00
3699 24.2880 9295.00 9729.56 96.00
3700 24.2940 10114.00 10419.80 101.00
3701 24.3000 11176.00 11343.20 106.00
3702 24.3060 12368.00 12555.90 111.00
3703 24.3120 14195.00 14106.80 119.00
3704 24.3180 16492.00 16034.60 128.00
3705 24.3240 19091.00 18355.30 138.00
3706 24.3300 22040.00 21057.20 148.00
3707 24.3360 25535.00 24077.40 160.00
3708 24.3420 28805.00 27295.50 170.00
3709 24.3480 31988.00 30530.30 179.00
3710 24.3540 34750.00 33555.00 186.00
3711 24.3600 36772.00 36133.10 192.00
3712 24.3660 38820.00 38054.90 197.00
3713 24.3720 40028.00 39159.40 200.00
3714 24.3780 39475.00 39348.50 199.00
3715 24.3840 38583.00 38613.80 196.00
3716 24.3900 36350.00 37044.30 191.00
3717 24.3960 33961.00 34787.20 184.00
3718 24.4020 31604.00 32020.10 178.00
3719 24.4080 29194.00 28938.30 171.00
3720 24.4140 26016.00 25753.00 161.00
3721 24.4200 23517.00 22658.10 153.00
3722 24.4260 21682.00 19803.60 147.00
3723 24.4320 19632.00 17284.40 140.00
3724 24.4380 17719.00 15137.80 133.00
3725 24.4440 16131.00 13366.60 127.00
3726 24.4500 14933.00 11943.60 122.00
3727 24.4560 13774.00 10829.60 117.00
3728 24.4620 12614.00 9974.22 112.00
3729 24.4680 11890.00 9328.42 109.00
3730 24.4740 10960.00 8845.31 105.00
3731 24.4800 10239.00 8487.40 101.00
3732 24.4860 9740.00 8221.33 99.00
3733 24.4920 9356.00 8022.32 97.00
3734 24.4980 8852.00 7871.06 94.00
3735 24.5040 8608.00 7756.41 93.00
3736 24.5100 8420.00 7668.55 92.00
3737 24.5160 8203.00 7601.52 91.00
3738 24.5220 7840.00 7550.54 89.00
3739 24.5280 7824.00 7515.23 88.00
3740 24.5340 7690.00 7493.26 88.00
3741 24.5400 7661.00 7484.05 88.00
3742 24.5460 7553.00 7486.65 87.00
3743 24.5520 7516.00 7503.82 87.00
3744 24.5580 7449.00 7536.20 86.00
3745 24.5640 7558.00 7586.67 87.00
3746 24.5700 7634.00 7659.08 87.00
3747 24.5760 7809.00 7763.07 88.00
3748 24.5820 7835.00 7909.21 89.00
3749 24.5880 7914.00 8114.52 89.00
3750 24.5940 8114.00 8403.05 90.00
3751 24.6000 8437.00 8805.60 92.00
3752 24.6060 8982.00 9364.08 95.00
3753 24.6120 9465.00 10123.70 97.00
3754 24.6180 10161.00 11134.50 101.00
3755 24.6240 11028.00 12441.40 105.00
3756 24.6300 12166.00 14080.80 110.00
3757 24.6360 14040.00 16065.50 118.00
3758 24.6420 16742.00 18376.20 129.00
3759 24.6480 20558.00 20950.30 143.00
3760 24.6540 25052.00 23672.70 158.00
3761 24.6600 29407.00 26365.80 171.00
3762 24.6660 32949.00 28781.00 182.00
3763 24.6720 35343.00 30600.30 188.00
3764 24.6780 35263.00 31549.90 188.00
3765 24.6840 33421.00 31455.90 183.00
3766 24.6900 30545.00 30327.30 175.00
3767 24.6960 27020.00 28375.90 164.00
3768 24.7020 23376.00 25907.40 153.00
3769 24.7080 20452.00 23217.40 143.00
3770 24.7140 17826.00 20540.40 134.00
3771 24.7200 15872.00 18043.70 126.00
3772 24.7260 13812.00 15832.40 118.00
3773 24.7320 12231.00 13952.60 111.00
3774 24.7380 11577.00 12415.70 108.00
3775 24.7440 11024.00 11198.50 105.00
3776 24.7500 10210.00 10260.70 101.00
3777 24.7560 9577.00 9552.02 98.00
3778 24.7620 9215.00 9024.75 96.00
3779 24.7680 8864.00 8637.01 94.00
3780 24.7740 8648.00 8358.60 93.00
3781 24.7800 8376.00 8163.13 92.00
3782 24.7860 8423.00 8030.37 92.00
3783 24.7920 8377.00 7951.77 92.00
3784 24.7980 8215.00 7894.48 91.00
3785 24.8040 8043.00 7853.92 90.00
3786 24.8100 8071.00 7814.23 90.00
3787 24.8160 7911.00 7765.68 89.00
3788 24.8220 7695.00 7688.99 88.00
3789 24.8280 7465.00 7586.71 86.00
3790 24.8340 7243.00 7461.49 85.00
3791 24.8400 7095.00 7321.38 84.00
3792 24.8460 6947.00 7175.58 83.00
3793 24.8520 6766.00 7033.89 82.00
3794 24.8580 6536.00 6901.11 81.00
3795 24.8640 6475.00 6780.92 80.00
3796 24.8700 6452.00 6674.49 80.00
3797 24.8760 6338.00 6584.17 80.00
3798 24.8820 6296.00 6508.26 79.00
3799 24.8880 6235.00 6445.33 79.00
3800 24.8940 6198.00 6392.56 79.00
3801 24.9000 6204.00 6349.92 79.00
3802 24.9060 6283.00 6314.57 79.00
3803 24.9120 6163.00 6284.88 79.00
3804 24.9180 6168.00 6258.49 79.00
3805 24.9240 6195.00 6236.38 79.00
3806 24.9300 6208.00 6216.76 79.00
3807 24.9360 6259.00 6199.11 79.00
3808 24.9420 6301.00 6165.08 79.00
3809 24.9480 6277.00 6150.61 79.00
3810 24.9540 6300.00 6137.22 79.00
3811 24.9600 6308.00 6124.77 79.00
3812 24.9660 6211.00 6086.24 79.00
3813 24.9720 6174.00 6074.89 79.00
3814 24.9780 6228.00 6065.21 79.00
3815 24.9840 6187.00 6040.50 79.00
3816 24.9900 6133.00 6032.29 78.00
3817 24.9960 6133.00 6023.57 78.00
3818 25.0020 6092.00 6016.32 78.00
3819 25.0080 6064.00 6009.50 78.00
3820 25.0140 6074.00 6003.10 78.00
3821 25.0200 6082.00 5996.07 78.00
3822 25.0260 6099.00 5990.40 78.00
3823 25.0320 6044.00 5985.08 78.00
3824 25.0380 5969.00 5980.09 77.00
3825 25.0440 5999.00 5974.41 77.00
3826 25.0500 5997.00 5970.04 77.00
3827 25.0560 5926.00 5965.96 77.00
3828 25.0620 6011.00 5962.17 78.00
3829 25.0680 6029.00 5957.66 78.00
3830 25.0740 6014.00 5954.43 78.00
3831 25.0800 5942.00 5953.09 77.00
3832 25.0860 6022.00 5950.46 78.00
3833 25.0920 6151.00 5947.10 78.00
3834 25.0980 5964.00 5945.04 77.00
3835 25.1040 5858.00 5943.26 77.00
3836 25.1100 5825.00 5941.79 76.00
3837 25.1160 5767.00 5939.63 76.00
3838 25.1220 5748.00 5939.79 76.00
3839 25.1280 5846.00 5939.30 76.00
3840 25.1340 5852.00 5939.17 76.00
3841 25.1400 5783.00 5940.42 76.00
3842 25.1460 5849.00 5941.08 76.00
3843 25.1520 5915.00 5942.17 77.00
3844 25.1580 5889.00 5944.75 77.00
3845 25.1640 5882.00 5946.85 77.00
3846 25.1700 5881.00 5950.00 77.00
3847 25.1760 6054.00 5953.59 78.00
3848 25.1820 6023.00 5958.61 78.00
3849 25.1880 5835.00 5963.42 76.00
3850 25.1940 5883.00 5969.15 77.00
3851 25.2000 5948.00 5976.93 77.00
3852 25.2060 5937.00 5984.98 77.00
3853 25.2120 6022.00 5994.59 78.00
3854 25.2180 6058.00 6006.18 78.00
3855 25.2240 6004.00 6021.32 77.00
3856 25.2300 6050.00 6041.57 78.00
3857 25.2360 6087.00 6066.73 78.00
3858 25.2420 6126.00 6095.93 78.00
3859 25.2480 6210.00 6132.13 79.00
3860 25.2540 6186.00 6178.78 79.00
3861 25.2600 6216.00 6239.65 79.00
3862 25.2660 6355.00 6315.78 80.00
3863 25.2720 6445.00 6370.94 80.00
3864 25.2780 6727.00 6489.20 82.00
3865 25.2840 6988.00 6632.50 84.00
3866 25.2900 7160.00 6799.93 85.00
3867 25.2960 7201.00 6992.16 85.00
3868 25.3020 7199.00 7208.77 85.00
3869 25.3080 7327.00 7444.65 86.00
3870 25.3140 7370.00 7696.29 86.00
3871 25.3200 7480.00 7959.39 86.00
3872 25.3260 7602.00 8227.37 87.00
3873 25.3320 7738.00 8501.51 88.00
3874 25.3380 7893.00 8790.61 89.00
3875 25.3440 8064.00 9113.48 90.00
3876 25.3500 8508.00 9486.19 92.00
3877 25.3560 9144.00 9927.49 96.00
3878 25.3620 9635.00 10438.20 98.00
3879 25.3680 10255.00 11005.80 101.00
3880 25.3740 11190.00 11601.00 106.00
3881 25.3800 12062.00 12175.30 110.00
3882 25.3860 12703.00 12666.60 113.00
3883 25.3920 13212.00 13007.50 115.00
3884 25.3980 13379.00 13151.30 116.00
3885 25.4040 13015.00 13082.40 114.00
3886 25.4100 12657.00 12811.50 113.00
3887 25.4160 12408.00 12366.60 111.00
3888 25.4220 11742.00 11788.70 108.00
3889 25.4280 11001.00 11119.10 105.00
3890 25.4340 10527.00 10407.70 103.00
3891 25.4400 9918.00 9701.94 100.00
3892 25.4460 9300.00 9039.82 96.00
3893 25.4520 8845.00 8443.39 94.00
3894 25.4580 8521.00 7926.51 92.00
3895 25.4640 8101.00 7493.50 90.00
3896 25.4700 7695.00 7139.10 88.00
3897 25.4760 7351.00 6856.42 86.00
3898 25.4820 7058.00 6636.53 84.00
3899 25.4880 6997.00 6466.65 84.00
3900 25.4940 6935.00 6337.40 83.00
3901 25.5000 6846.00 6239.41 83.00
3902 25.5060 6822.00 6165.92 83.00
3903 25.5120 6809.00 6108.75 83.00
3904 25.5180 6741.00 6064.13 82.00
3905 25.5240 6578.00 6029.60 81.00
3906 25.5300 6440.00 6000.72 80.00
3907 25.5360 6278.00 5976.78 79.00
3908 25.5420 6312.00 5956.61 79.00
3909 25.5480 6304.00 5940.47 79.00
3910 25.5540 6179.00 5925.84 79.00
3911 25.5600 6131.00 5913.39 78.00
3912 25.5660 6164.00 5903.92 79.00
3913 25.5720 6241.00 5895.35 79.00
3914 25.5780 6198.00 5888.69 79.00
3915 25.5840 6145.00 5885.10 78.00
3916 25.5900 6150.00 5882.88 78.00
3917 25.5960 6149.00 5883.52 78.00
3918 25.6020 6177.00 5887.75 79.00
3919 25.6080 6119.00 5897.61 78.00
3920 25.6140 6206.00 5912.38 79.00
3921 25.6200 6360.00 5934.62 80.00
3922 25.6260 6319.00 5967.02 79.00
3923 25.6320 6290.00 6019.25 79.00
3924 25.6380 6360.00 6073.99 80.00
3925 25.6440 6356.00 6148.50 80.00
3926 25.6500 6309.00 6230.56 79.00
3927 25.6560 6477.00 6323.31 80.00
3928 25.6620 6618.00 6424.85 81.00
3929 25.6680 6623.00 6531.29 81.00
3930 25.6740 6721.00 6633.61 82.00
3931 25.6800 6868.00 6723.47 83.00
3932 25.6860 7020.00 6791.24 84.00
3933 25.6920 6952.00 6825.52 83.00
3934 25.6980 7049.00 6822.90 84.00
3935 25.7040 6974.00 6786.17 84.00
3936 25.7100 6996.00 6725.42 84.00
3937 25.7160 7158.00 6650.47 85.00
3938 25.7220 7029.00 6573.75 84.00
3939 25.7280 6949.00 6505.78 83.00
3940 25.7340 6881.00 6451.74 83.00
3941 25.7400 6864.00 6417.72 83.00
3942 25.7460 6881.00 6408.11 83.00
3943 25.7520 6945.00 6422.89 83.00
3944 25.7580 7088.00 6463.91 84.00
3945 25.7640 7139.00 6531.32 84.00
3946 25.7700 7371.00 6625.60 86.00
3947 25.7760 7547.00 6761.65 87.00
3948 25.7820 7483.00 6904.47 87.00
3949 25.7880 7513.00 7072.74 87.00
3950 25.7940 7525.00 7266.30 87.00
3951 25.8000 7563.00 7502.03 87.00
3952 25.8060 7697.00 7757.30 88.00
3953 25.8120 7878.00 8043.97 89.00
3954 25.8180 8197.00 8352.22 91.00
3955 25.8240 8569.00 8667.08 93.00
3956 25.8300 8871.00 8965.06 94.00
3957 25.8360 8970.00 9211.55 95.00
3958 25.8420 9017.00 9371.91 95.00
3959 25.8480 8943.00 9417.90 95.00
3960 25.8540 8788.00 9335.09 94.00
3961 25.8600 8397.00 9134.29 92.00
3962 25.8660 8052.00 8843.73 90.00
3963 25.8720 7870.00 8500.16 89.00
3964 25.8780 7674.00 8136.04 88.00
3965 25.8840 7370.00 7780.35 86.00
3966 25.8900 7399.00 7454.63 86.00
3967 25.8960 7290.00 7170.29 85.00
3968 25.9020 7064.00 6936.26 84.00
3969 25.9080 7006.00 6756.58 84.00
3970 25.9140 6902.00 6628.57 83.00
3971 25.9200 6947.00 6549.46 83.00
3972 25.9260 6990.00 6513.80 84.00
3973 25.9320 7033.00 6515.38 84.00
3974 25.9380 6914.00 6541.74 83.00
3975 25.9440 7082.00 6589.29 84.00
3976 25.9500 7301.00 6646.67 85.00
3977 25.9560 7249.00 6701.06 85.00
3978 25.9620 7206.00 6742.61 85.00
3979 25.9680 7100.00 6761.75 84.00
3980 25.9740 7140.00 6753.14 84.00
3981 25.9800 7040.00 6713.37 84.00
3982 25.9860 7131.00 6647.25 84.00
3983 25.9920 6910.00 6563.38 83.00
3984 25.9980 6748.00 6468.55 82.00
3985 26.0040 6792.00 6363.44 82.00
3986 26.0100 6641.00 6271.67 81.00
3987 26.0160 6446.00 6187.13 80.00
3988 26.0220 6357.00 6113.33 80.00
3989 26.0280 6233.00 6047.36 79.00
3990 26.0340 6309.00 5998.45 79.00
3991 26.0400 6163.00 5959.79 79.00
3992 26.0460 6267.00 5932.34 79.00
3993 26.0520 6135.00 5913.36 78.00
3994 26.0580 6087.00 5900.55 78.00
3995 26.0640 6255.00 5893.58 79.00
3996 26.0700 6211.00 5896.37 79.00
3997 26.0760 5981.00 5915.58 77.00
3998 26.0820 6077.00 5920.83 78.00
3999 26.0880 6124.00 5942.76 78.00
4000 26.0940 6182.00 5954.70 79.00
4001 26.1000 6157.00 5968.19 78.00
4002 26.1060 6248.00 5984.26 79.00
4003 26.1120 6282.00 6011.63 79.00
4004 26.1180 6410.00 6033.71 80.00
4005 26.1240 6321.00 6069.76 80.00
4006 26.1300 6397.00 6099.84 80.00
4007 26.1360 6275.00 6136.21 79.00
4008 26.1420 6445.00 6178.43 80.00
4009 26.1480 6295.00 6231.11 79.00
4010 26.1540 6336.00 6295.93 80.00
4011 26.1600 6553.00 6376.99 81.00
4012 26.1660 6696.00 6481.90 82.00
4013 26.1720 6594.00 6620.47 81.00
4014 26.1780 6988.00 6801.88 84.00
4015 26.1840 7369.00 7040.78 86.00
4016 26.1900 7742.00 7352.51 88.00
4017 26.1960 8306.00 7753.97 91.00
4018 26.2020 9212.00 8258.33 96.00
4019 26.2080 10064.00 8878.01 100.00
4020 26.2140 11047.00 9619.25 105.00
4021 26.2200 12072.00 10475.70 110.00
4022 26.2260 13378.00 11432.70 116.00
4023 26.2320 14534.00 12457.20 121.00
4024 26.2380 15184.00 13499.70 123.00
4025 26.2440 15921.00 14486.60 126.00
4026 26.2500 16728.00 15331.00 129.00
4027 26.2560 16681.00 15940.50 129.00
4028 26.2620 16515.00 16237.40 129.00
4029 26.2680 16011.00 16187.80 127.00
4030 26.2740 15562.00 15808.00 125.00
4031 26.2800 15067.00 15156.90 123.00
4032 26.2860 14406.00 14323.60 120.00
4033 26.2920 13752.00 13401.20 117.00
4034 26.2980 13084.00 12476.00 114.00
4035 26.3040 12428.00 11613.50 111.00
4036 26.3100 12054.00 10864.10 110.00
4037 26.3160 11385.00 10268.30 107.00
4038 26.3220 11251.00 9848.91 106.00
4039 26.3280 10989.00 9626.27 105.00
4040 26.3340 11115.00 9616.11 105.00
4041 26.3400 11192.00 9829.03 106.00
4042 26.3460 11567.00 10276.70 108.00
4043 26.3520 12274.00 10966.80 111.00
4044 26.3580 13425.00 11903.20 116.00
4045 26.3640 14910.00 13078.00 122.00
4046 26.3700 16440.00 14471.30 128.00
4047 26.3760 18606.00 16044.80 136.00
4048 26.3820 20952.00 17733.20 145.00
4049 26.3880 22750.00 19442.30 151.00
4050 26.3940 24417.00 21045.70 156.00
4051 26.4000 25431.00 22398.30 159.00
4052 26.4060 25905.00 23355.30 161.00
4053 26.4120 25561.00 23817.20 160.00
4054 26.4180 25112.00 23742.80 158.00
4055 26.4240 23989.00 23146.70 155.00
4056 26.4300 22479.00 22093.20 150.00
4057 26.4360 20898.00 20685.00 145.00
4058 26.4420 19430.00 19049.70 139.00
4059 26.4480 17173.00 17319.60 131.00
4060 26.4540 16023.00 15610.10 127.00
4061 26.4600 15021.00 14008.60 123.00
4062 26.4660 13530.00 12565.00 116.00
4063 26.4720 12479.00 11312.10 112.00
4064 26.4780 11398.00 10262.70 107.00
4065 26.4840 10546.00 9404.76 103.00
4066 26.4900 9807.00 8721.46 99.00
4067 26.4960 9148.00 8190.92 96.00
4068 26.5020 8824.00 7785.72 94.00
4069 26.5080 8497.00 7482.43 92.00
4070 26.5140 8079.00 7259.78 90.00
4071 26.5200 7711.00 7097.59 88.00
4072 26.5260 7348.00 6980.09 86.00
4073 26.5320 7350.00 6896.77 86.00
4074 26.5380 7048.00 6840.33 84.00
4075 26.5440 6859.00 6802.93 83.00
4076 26.5500 7037.00 6781.73 84.00
4077 26.5560 6701.00 6774.32 82.00
4078 26.5620 6753.00 6780.46 82.00
4079 26.5680 6664.00 6797.78 82.00
4080 26.5740 6720.00 6827.69 82.00
4081 26.5800 6507.00 6872.48 81.00
4082 26.5860 6727.00 6931.94 82.00
4083 26.5920 6714.00 7011.48 82.00
4084 26.5980 6871.00 7116.00 83.00
4085 26.6040 6861.00 7253.30 83.00
4086 26.6100 6912.00 7434.09 83.00
4087 26.6160 7347.00 7672.95 86.00
4088 26.6220 7584.00 7990.18 87.00
4089 26.6280 7829.00 8407.87 88.00
4090 26.6340 8336.00 8956.09 91.00
4091 26.6400 9103.00 9668.69 95.00
4092 26.6460 9637.00 10579.30 98.00
4093 26.6520 10814.00 11723.40 104.00
4094 26.6580 11936.00 13129.30 109.00
4095 26.6640 13642.00 14816.40 117.00
4096 26.6700 15721.00 16785.80 125.00
4097 26.6760 18263.00 19018.30 135.00
4098 26.6820 21595.00 21467.20 147.00
4099 26.6880 25354.00 24052.50 159.00
4100 26.6940 28613.00 26657.70 169.00
4101 26.7000 32792.00 29128.10 181.00
4102 26.7060 35067.00 31278.80 187.00
4103 26.7120 35925.00 32935.00 190.00
4104 26.7180 36188.00 33969.20 190.00
4105 26.7240 35512.00 34336.60 188.00
4106 26.7300 33621.00 34073.00 183.00
4107 26.7360 31881.00 33266.90 179.00
4108 26.7420 29252.00 32017.80 171.00
4109 26.7480 27141.00 30408.70 165.00
4110 26.7540 24529.00 28511.30 157.00
4111 26.7600 22592.00 26405.60 150.00
4112 26.7660 20484.00 24164.30 143.00
4113 26.7720 18727.00 21890.80 137.00
4114 26.7780 16866.00 19680.40 130.00
4115 26.7840 15625.00 17599.80 125.00
4116 26.7900 14143.00 15700.50 119.00
4117 26.7960 13039.00 14013.10 114.00
4118 26.8020 12016.00 12547.60 110.00
4119 26.8080 11465.00 11300.30 107.00
4120 26.8140 10468.00 10259.80 102.00
4121 26.8200 9860.00 9406.10 99.00
4122 26.8260 9320.00 8717.02 97.00
4123 26.8320 8893.00 8165.70 94.00
4124 26.8380 8405.00 7728.96 92.00
4125 26.8440 8028.00 7385.26 90.00
4126 26.8500 7674.00 7113.22 88.00
4127 26.8560 7493.00 6897.45 87.00
4128 26.8620 7017.00 6725.69 84.00
4129 26.8680 6993.00 6585.36 84.00
4130 26.8740 6727.00 6469.59 82.00
4131 26.8800 6734.00 6372.40 82.00
4132 26.8860 6484.00 6280.44 81.00
4133 26.8920 6393.00 6208.55 80.00
4134 26.8980 6173.00 6145.34 79.00
4135 26.9040 6257.00 6083.58 79.00
4136 26.9100 6144.00 6033.30 78.00
4137 26.9160 5989.00 5987.92 77.00
4138 26.9220 6067.00 5947.74 78.00
4139 26.9280 5844.00 5910.26 76.00
4140 26.9340 5991.00 5876.03 77.00
4141 26.9400 5813.00 5844.74 76.00
4142 26.9460 5745.00 5817.16 76.00
4143 26.9520 5666.00 5791.05 75.00
4144 26.9580 5651.00 5767.29 75.00
4145 26.9640 5569.00 5746.79 75.00
4146 26.9700 5643.00 5727.48 75.00
4147 26.9760 5546.00 5710.31 74.00
4148 26.9820 5535.00 5695.28 74.00
4149 26.9880 5541.00 5683.35 74.00
4150 26.9940 5541.00 5674.76 74.00
4151 27.0000 5570.00 5665.87 75.00
4152 27.0060 5531.00 5659.75 74.00
4153 27.0120 5540.00 5656.33 74.00
4154 27.0180 5491.00 5651.96 74.00
4155 27.0240 5418.00 5649.62 74.00
4156 27.0300 5547.00 5646.23 74.00
4157 27.0360 5546.00 5642.27 74.00
4158 27.0420 5523.00 5619.89 74.00
4159 27.0480 5388.00 5615.19 73.00
4160 27.0540 5395.00 5608.73 73.00
4161 27.0600 5505.00 5589.96 74.00
4162 27.0660 5524.00 5586.23 74.00
4163 27.0720 5549.00 5584.30 74.00
4164 27.0780 5540.00 5586.65 74.00
4165 27.0840 5541.00 5595.79 74.00
4166 27.0900 5638.00 5611.14 75.00
4167 27.0960 5557.00 5634.96 75.00
4168 27.1020 5586.00 5668.20 75.00
4169 27.1080 5601.00 5712.36 75.00
4170 27.1140 5626.00 5765.25 75.00
4171 27.1200 5739.00 5826.83 76.00
4172 27.1260 5858.00 5896.04 77.00
4173 27.1320 5879.00 5967.63 77.00
4174 27.1380 6120.00 6037.91 78.00
4175 27.1440 6124.00 6100.72 78.00
4176 27.1500 6157.00 6149.88 78.00
4177 27.1560 6298.00 6176.35 79.00
4178 27.1620 6229.00 6176.43 79.00
4179 27.1680 6269.00 6150.62 79.00
4180 27.1740 6283.00 6100.81 79.00
4181 27.1800 6055.00 6034.67 78.00
4182 27.1860 6009.00 5960.46 78.00
4183 27.1920 5790.00 5882.54 76.00
4184 27.1980 5811.00 5806.80 76.00
4185 27.2040 5825.00 5736.71 76.00
4186 27.2100 5729.00 5675.52 76.00
4187 27.2160 5677.00 5622.35 75.00
4188 27.2220 5577.00 5578.55 75.00
4189 27.2280 5457.00 5544.80 74.00
4190 27.2340 5583.00 5518.34 75.00
4191 27.2400 5556.00 5499.17 75.00
4192 27.2460 5452.00 5486.20 74.00
4193 27.2520 5443.00 5479.44 74.00
4194 27.2580 5423.00 5476.02 74.00
4195 27.2640 5470.00 5476.27 74.00
4196 27.2700 5358.00 5480.75 73.00
4197 27.2760 5310.00 5487.24 73.00
4198 27.2820 5279.00 5496.79 73.00
4199 27.2880 5305.00 5510.73 73.00
4200 27.2940 5264.00 5527.72 73.00
4201 27.3000 5362.00 5549.85 73.00
4202 27.3060 5471.00 5578.83 74.00
4203 27.3120 5487.00 5618.08 74.00
4204 27.3180 5551.00 5668.97 75.00
4205 27.3240 5631.00 5735.81 75.00
4206 27.3300 5782.00 5833.58 76.00
4207 27.3360 6013.00 5959.64 78.00
4208 27.3420 6262.00 6118.12 79.00
4209 27.3480 6504.00 6319.84 81.00
4210 27.3540 6874.00 6561.74 83.00
4211 27.3600 7337.00 6882.55 86.00
4212 27.3660 7821.00 7255.21 88.00
4213 27.3720 8358.00 7708.41 91.00
4214 27.3780 9027.00 8220.90 95.00
4215 27.3840 9578.00 8781.07 98.00
4216 27.3900 10174.00 9361.18 101.00
4217 27.3960 10613.00 9942.90 103.00
4218 27.4020 10878.00 10467.90 104.00
4219 27.4080 11068.00 10907.60 105.00
4220 27.4140 10977.00 11203.50 105.00
4221 27.4200 10895.00 11316.50 104.00
4222 27.4260 10585.00 11231.10 103.00
4223 27.4320 9969.00 10967.00 100.00
4224 27.4380 9737.00 10547.00 99.00
4225 27.4440 9532.00 10024.00 98.00
4226 27.4500 8948.00 9448.20 95.00
4227 27.4560 8517.00 8862.48 92.00
4228 27.4620 8232.00 8296.56 91.00
4229 27.4680 7978.00 7775.46 89.00
4230 27.4740 7724.00 7314.15 88.00
4231 27.4800 7281.00 6917.27 85.00
4232 27.4860 7040.00 6586.26 84.00
4233 27.4920 6912.00 6318.60 83.00
4234 27.4980 6754.00 6105.88 82.00
4235 27.5040 6481.00 5940.99 81.00
4236 27.5100 6238.00 5816.64 79.00
4237 27.5160 6098.00 5722.99 78.00
4238 27.5220 6011.00 5654.13 78.00
4239 27.5280 5917.00 5604.41 77.00
4240 27.5340 5741.00 5570.60 76.00
4241 27.5400 5703.00 5547.76 76.00
4242 27.5460 5583.00 5535.15 75.00
4243 27.5520 5408.00 5533.14 74.00
4244 27.5580 5421.00 5540.06 74.00
4245 27.5640 5482.00 5558.15 74.00
4246 27.5700 5541.00 5589.39 74.00
4247 27.5760 5499.00 5637.49 74.00
4248 27.5820 5506.00 5703.69 74.00
4249 27.5880 5583.00 5792.00 75.00
4250 27.5940 5650.00 5906.90 75.00
4251 27.6000 5740.00 6048.74 76.00
4252 27.6060 6027.00 6220.00 78.00
4253 27.6120 6360.00 6421.20 80.00
4254 27.6180 6427.00 6647.60 80.00
4255 27.6240 6775.00 6894.10 82.00
4256 27.6300 7184.00 7150.75 85.00
4257 27.6360 7327.00 7404.61 86.00
4258 27.6420 7387.00 7635.90 86.00
4259 27.6480 7433.00 7826.34 86.00
4260 27.6540 7511.00 7959.39 87.00
4261 27.6600 7452.00 8020.84 86.00
4262 27.6660 7362.00 8005.86 86.00
4263 27.6720 7236.00 7915.59 85.00
4264 27.6780 7051.00 7759.09 84.00
4265 27.6840 6843.00 7548.52 83.00
4266 27.6900 6711.00 7303.04 82.00
4267 27.6960 6510.00 7042.25 81.00
4268 27.7020 6250.00 6780.60 79.00
4269 27.7080 6123.00 6531.69 78.00
4270 27.7140 6006.00 6305.20 77.00
4271 27.7200 5786.00 6104.24 76.00
4272 27.7260 5603.00 5931.77 75.00
4273 27.7320 5516.00 5787.78 74.00
4274 27.7380 5487.00 5671.38 74.00
4275 27.7440 5478.00 5577.77 74.00
4276 27.7500 5351.00 5504.49 73.00
4277 27.7560 5243.00 5449.11 72.00
4278 27.7620 5261.00 5406.31 73.00
4279 27.7680 5317.00 5374.16 73.00
4280 27.7740 5255.00 5351.24 72.00
4281 27.7800 5126.00 5333.58 72.00
4282 27.7860 5192.00 5320.71 72.00
4283 27.7920 5190.00 5311.51 72.00
4284 27.7980 5100.00 5306.21 71.00
4285 27.8040 5104.00 5302.30 71.00
4286 27.8100 5136.00 5300.17 72.00
4287 27.8160 5200.00 5301.14 72.00
4288 27.8220 5169.00 5302.82 72.00
4289 27.8280 5103.00 5307.20 71.00
4290 27.8340 5102.00 5312.30 71.00
4291 27.8400 5143.00 5320.21 72.00
4292 27.8460 5168.00 5330.10 72.00
4293 27.8520 5194.00 5341.19 72.00
4294 27.8580 5281.00 5355.85 73.00
4295 27.8640 5257.00 5372.62 73.00
4296 27.8700 5286.00 5394.25 73.00
4297 27.8760 5371.00 5420.91 73.00
4298 27.8820 5484.00 5453.25 74.00
4299 27.8880 5513.00 5495.66 74.00
4300 27.8940 5521.00 5549.40 74.00
4301 27.9000 5568.00 5620.93 75.00
4302 27.9060 5613.00 5714.97 75.00
4303 27.9120 5800.00 5837.62 76.00
4304 27.9180 5763.00 5999.19 76.00
4305 27.9240 5911.00 6207.99 77.00
4306 27.9300 6212.00 6472.42 79.00
4307 27.9360 6606.00 6803.17 81.00
4308 27.9420 6926.00 7204.43 83.00
4309 27.9480 7356.00 7681.38 86.00
4310 27.9540 8008.00 8230.60 89.00
4311 27.9600 8842.00 8841.88 94.00
4312 27.9660 10092.00 9500.28 100.00
4313 27.9720 11512.00 10176.60 107.00
4314 27.9780 13166.00 10834.50 115.00
4315 27.9840 14372.00 11423.40 120.00
4316 27.9900 14902.00 11885.20 122.00
4317 27.9960 14733.00 12167.70 121.00
4318 28.0020 14093.00 12231.40 119.00
4319 28.0080 13014.00 12077.60 114.00
4320 28.0140 11931.00 11735.60 109.00
4321 28.0200 11008.00 11262.70 105.00
4322 28.0260 10076.00 10724.10 100.00
4323 28.0320 9378.00 10175.30 97.00
4324 28.0380 8827.00 9664.77 94.00
4325 28.0440 8373.00 9225.66 92.00
4326 28.0500 8096.00 8879.43 90.00
4327 28.0560 7912.00 8647.86 89.00
4328 28.0620 8151.00 8515.02 90.00
4329 28.0680 8403.00 8480.40 92.00
4330 28.0740 8426.00 8524.35 92.00
4331 28.0800 8618.00 8631.82 93.00
4332 28.0860 8986.00 8764.27 95.00
4333 28.0920 9391.00 8898.88 97.00
4334 28.0980 9338.00 8989.05 97.00
4335 28.1040 9409.00 9013.69 97.00
4336 28.1100 9204.00 8956.04 96.00
4337 28.1160 9016.00 8816.09 95.00
4338 28.1220 8808.00 8600.55 94.00
4339 28.1280 8364.00 8322.87 91.00
4340 28.1340 7982.00 8003.75 89.00
4341 28.1400 7562.00 7662.11 87.00
4342 28.1460 7165.00 7318.72 85.00
4343 28.1520 6849.00 6988.94 83.00
4344 28.1580 6721.00 6683.63 82.00
4345 28.1640 6355.00 6412.08 80.00
4346 28.1700 6095.00 6175.67 78.00
4347 28.1760 6028.00 5977.09 78.00
4348 28.1820 5735.00 5815.43 76.00
4349 28.1880 5703.00 5683.36 76.00
4350 28.1940 5605.00 5580.66 75.00
4351 28.2000 5555.00 5502.14 75.00
4352 28.2060 5474.00 5442.63 74.00
4353 28.2120 5288.00 5400.20 73.00
4354 28.2180 5386.00 5369.34 73.00
4355 28.2240 5309.00 5348.93 73.00
4356 28.2300 5200.00 5335.21 72.00
4357 28.2360 5246.00 5324.75 72.00
4358 28.2420 5225.00 5317.11 72.00
4359 28.2480 5115.00 5308.31 72.00
4360 28.2540 5074.00 5298.65 71.00
4361 28.2600 5192.00 5286.06 72.00
4362 28.2660 5077.00 5269.21 71.00
4363 28.2720 5079.00 5250.45 71.00
4364 28.2780 5176.00 5228.58 72.00
4365 28.2840 5169.00 5206.63 72.00
4366 28.2900 5047.00 5184.57 71.00
4367 28.2960 5022.00 5162.24 71.00
4368 28.3020 4981.00 5142.20 71.00
4369 28.3080 5141.00 5122.87 72.00
4370 28.3140 5002.00 5104.23 71.00
4371 28.3200 4994.00 5089.85 71.00
4372 28.3260 5055.00 5076.41 71.00
4373 28.3320 5120.00 5063.64 72.00
4374 28.3380 5013.00 5055.43 71.00
4375 28.3440 4862.00 5046.59 70.00
4376 28.3500 4885.00 5040.16 70.00
4377 28.3560 4999.00 5033.92 71.00
4378 28.3620 4964.00 5029.42 70.00
4379 28.3680 4847.00 5025.60 70.00
4380 28.3740 4967.00 5021.34 70.00
4381 28.3800 4986.00 5018.55 71.00
4382 28.3860 5061.00 5015.17 71.00
4383 28.3920 4997.00 5013.15 71.00
4384 28.3980 5001.00 5011.45 71.00
4385 28.4040 4969.00 5009.55 70.00
4386 28.4100 5099.00 5008.44 71.00
4387 28.4160 4923.00 5006.61 70.00
4388 28.4220 4927.00 5006.05 70.00
4389 28.4280 4943.00 5005.76 70.00
4390 28.4340 4975.00 5004.73 71.00
4391 28.4400 4908.00 5005.24 70.00
4392 28.4460 4945.00 5005.78 70.00
4393 28.4520 4964.00 5005.61 70.00
4394 28.4580 4927.00 5006.75 70.00
4395 28.4640 4977.00 5007.20 71.00
4396 28.4700 4926.00 5008.99 70.00
4397 28.4760 4988.00 5011.13 71.00
4398 28.4820 4953.00 5012.64 70.00
4399 28.4880 4945.00 5015.56 70.00
4400 28.4940 4889.00 5017.92 70.00
4401 28.5000 4818.00 5021.75 69.00
4402 28.5060 4913.00 5026.09 70.00
4403 28.5120 4871.00 5031.99 70.00
4404 28.5180 5021.00 5039.52 71.00
4405 28.5240 5060.00 5047.74 71.00
4406 28.5300 4919.00 5056.74 70.00
4407 28.5360 5090.00 5066.61 71.00
4408 28.5420 4999.00 5077.52 71.00
4409 28.5480 4905.00 5089.63 70.00
4410 28.5540 4843.00 5108.90 70.00
4411 28.5600 4839.00 5124.35 70.00
4412 28.5660 5030.00 5146.22 71.00
4413 28.5720 4963.00 5166.82 70.00
4414 28.5780 5053.00 5191.08 71.00
4415 28.5840 5157.00 5220.05 72.00
4416 28.5900 5086.00 5255.05 71.00
4417 28.5960 4987.00 5297.73 71.00
4418 28.6020 5304.00 5350.03 73.00
4419 28.6080 5030.00 5414.28 71.00
4420 28.6140 5190.00 5493.03 72.00
4421 28.6200 5244.00 5589.07 72.00
4422 28.6260 5391.00 5705.31 73.00
4423 28.6320 5527.00 5844.82 74.00
4424 28.6380 5866.00 6010.55 77.00
4425 28.6440 5688.00 6205.23 75.00
4426 28.6500 5903.00 6431.44 77.00
4427 28.6560 6169.00 6690.51 79.00
4428 28.6620 6578.00 6982.95 81.00
4429 28.6680 6689.00 7301.53 82.00
4430 28.6740 7004.00 7650.73 84.00
4431 28.6800 7317.00 8031.65 86.00
4432 28.6860 7815.00 8436.63 88.00
4433 28.6920 8316.00 8863.68 91.00
4434 28.6980 8724.00 9312.77 93.00
4435 28.7040 9256.00 9780.82 96.00
4436 28.7100 10071.00 10259.30 100.00
4437 28.7160 10486.00 10731.00 102.00
4438 28.7220 11012.00 11168.30 105.00
4439 28.7280 11696.00 11536.00 108.00
4440 28.7340 11557.00 11798.00 108.00
4441 28.7400 11848.00 11928.60 109.00
4442 28.7460 11710.00 11920.60 108.00
4443 28.7520 11605.00 11785.90 108.00
4444 28.7580 11528.00 11547.00 107.00
4445 28.7640 11193.00 11226.90 106.00
4446 28.7700 10763.00 10843.60 104.00
4447 28.7760 10394.00 10407.20 102.00
4448 28.7820 9703.00 9940.94 99.00
4449 28.7880 8990.00 9459.55 95.00
4450 28.7940 8656.00 8984.76 93.00
4451 28.8000 8704.00 8535.60 93.00
4452 28.8060 8601.00 8131.55 93.00
4453 28.8120 8317.00 7780.82 91.00
4454 28.8180 8186.00 7487.38 90.00
4455 28.8240 8004.00 7250.33 89.00
4456 28.8300 7938.00 7065.23 89.00
4457 28.8360 7578.00 6925.20 87.00
4458 28.8420 7354.00 6821.46 86.00
4459 28.8480 7081.00 6743.67 84.00
4460 28.8540 6986.00 6680.23 84.00
4461 28.8600 6790.00 6619.34 82.00
4462 28.8660 6748.00 6550.95 82.00
4463 28.8720 6445.00 6468.83 80.00
4464 28.8780 6156.00 6372.12 78.00
4465 28.8840 6024.00 6263.65 78.00
4466 28.8900 5921.00 6148.57 77.00
4467 28.8960 5871.00 6032.72 77.00
4468 28.9020 5701.00 5920.89 76.00
4469 28.9080 5595.00 5816.64 75.00
4470 28.9140 5575.00 5722.36 75.00
4471 28.9200 5634.00 5639.43 75.00
4472 28.9260 5411.00 5569.17 74.00
4473 28.9320 5371.00 5510.29 73.00
4474 28.9380 5411.00 5463.63 74.00
4475 28.9440 5466.00 5428.74 74.00
4476 28.9500 5492.00 5406.37 74.00
4477 28.9560 5434.00 5394.28 74.00
4478 28.9620 5253.00 5392.88 72.00
4479 28.9680 5357.00 5401.62 73.00
4480 28.9740 5269.00 5419.81 73.00
4481 28.9800 5247.00 5446.61 72.00
4482 28.9860 5379.00 5480.87 73.00
4483 28.9920 5452.00 5521.07 74.00
4484 28.9980 5336.00 5565.20 73.00
4485 29.0040 5385.00 5610.73 73.00
4486 29.0100 5453.00 5654.48 74.00
4487 29.0160 5486.00 5692.92 74.00
4488 29.0220 5579.00 5722.78 75.00
4489 29.0280 5581.00 5741.79 75.00
4490 29.0340 5692.00 5749.72 75.00
4491 29.0400 5725.00 5748.27 76.00
4492 29.0460 5627.00 5740.45 75.00
4493 29.0520 5542.00 5729.69 74.00
4494 29.0580 5573.00 5719.94 75.00
4495 29.0640 5823.00 5711.86 76.00
4496 29.0700 5780.00 5707.62 76.00
4497 29.0760 5899.00 5707.45 77.00
4498 29.0820 5619.00 5710.52 75.00
4499 29.0880 5904.00 5715.16 77.00
4500 29.0940 5870.00 5719.41 77.00
4501 29.1000 5803.00 5721.68 76.00
4502 29.1060 5924.00 5721.37 77.00
4503 29.1120 5772.00 5718.98 76.00
4504 29.1180 5803.00 5715.73 76.00
4505 29.1240 5708.00 5713.18 76.00
4506 29.1300 5482.00 5713.05 74.00
4507 29.1360 5732.00 5717.50 76.00
4508 29.1420 5852.00 5729.61 76.00
4509 29.1480 5752.00 5753.60 76.00
4510 29.1540 5731.00 5794.90 76.00
4511 29.1600 5926.00 5859.89 77.00
4512 29.1660 5977.00 5955.64 77.00
4513 29.1720 6235.00 6089.51 79.00
4514 29.1780 6408.00 6268.66 80.00
4515 29.1840 6641.00 6499.88 81.00
4516 29.1900 7020.00 6788.45 84.00
4517 29.1960 7593.00 7136.63 87.00
4518 29.2020 8114.00 7544.44 90.00
4519 29.2080 8777.00 8006.75 94.00
4520 29.2140 9410.00 8513.13 97.00
4521 29.2200 9938.00 9046.63 100.00
4522 29.2260 10545.00 9582.74 103.00
4523 29.2320 11110.00 10089.00 105.00
4524 29.2380 11247.00 10525.90 106.00
4525 29.2440 11215.00 10851.70 106.00
4526 29.2500 11079.00 11030.20 105.00
4527 29.2560 10780.00 11039.20 104.00
4528 29.2620 10490.00 10878.00 102.00
4529 29.2680 9989.00 10566.40 100.00
4530 29.2740 9761.00 10139.20 99.00
4531 29.2800 9383.00 9644.63 97.00
4532 29.2860 8895.00 9107.83 94.00
4533 29.2920 8467.00 8568.81 92.00
4534 29.2980 8233.00 8052.73 91.00
4535 29.3040 7757.00 7577.09 88.00
4536 29.3100 7442.00 7152.90 86.00
4537 29.3160 7100.00 6787.49 84.00
4538 29.3220 6786.00 6476.46 82.00
4539 29.3280 6660.00 6219.58 82.00
4540 29.3340 6463.00 6011.62 80.00
4541 29.3400 6199.00 5845.99 79.00
4542 29.3460 5964.00 5715.63 77.00
4543 29.3520 5864.00 5613.73 77.00
4544 29.3580 5662.00 5534.19 75.00
4545 29.3640 5607.00 5471.05 75.00
4546 29.3700 5630.00 5421.87 75.00
4547 29.3760 5469.00 5381.44 74.00
4548 29.3820 5409.00 5349.61 74.00
4549 29.3880 5351.00 5323.44 73.00
4550 29.3940 5375.00 5301.63 73.00
4551 29.4000 5441.00 5283.24 74.00
4552 29.4060 5302.00 5267.63 73.00
4553 29.4120 5251.00 5254.31 72.00
4554 29.4180 5377.00 5242.93 73.00
4555 29.4240 5331.00 5226.43 73.00
4556 29.4300 5312.00 5216.95 73.00
4557 29.4360 5287.00 5214.38 73.00
4558 29.4420 5220.00 5208.94 72.00
4559 29.4480 5284.00 5204.63 73.00
4560 29.4540 5267.00 5201.42 73.00
4561 29.4600 5303.00 5199.32 73.00
4562 29.4660 5250.00 5194.74 72.00
4563 29.4720 5220.00 5196.69 72.00
4564 29.4780 5244.00 5198.48 72.00
4565 29.4840 5286.00 5201.89 73.00
4566 29.4900 5375.00 5207.20 73.00
4567 29.4960 5335.00 5214.73 73.00
4568 29.5020 5286.00 5224.90 73.00
4569 29.5080 5159.00 5238.11 72.00
4570 29.5140 5233.00 5259.72 72.00
4571 29.5200 5348.00 5280.19 73.00
4572 29.5260 5361.00 5305.24 73.00
4573 29.5320 5450.00 5334.91 74.00
4574 29.5380 5434.00 5369.42 74.00
4575 29.5440 5558.00 5408.83 75.00
4576 29.5500 5550.00 5453.04 74.00
4577 29.5560 5673.00 5501.69 75.00
4578 29.5620 5694.00 5552.56 75.00
4579 29.5680 5754.00 5607.74 76.00
4580 29.5740 5889.00 5664.33 77.00
4581 29.5800 5867.00 5721.17 77.00
4582 29.5860 5868.00 5777.41 77.00
4583 29.5920 6037.00 5832.97 78.00
4584 29.5980 6071.00 5888.23 78.00
4585 29.6040 5986.00 5943.56 77.00
4586 29.6100 6049.00 5998.64 78.00
4587 29.6160 6136.00 6051.89 78.00
4588 29.6220 6309.00 6100.48 79.00
4589 29.6280 6344.00 6140.67 80.00
4590 29.6340 6240.00 6168.37 79.00
4591 29.6400 6208.00 6180.12 79.00
4592 29.6460 6171.00 6173.71 79.00
4593 29.6520 6103.00 6148.48 78.00
4594 29.6580 6023.00 6105.76 78.00
4595 29.6640 5937.00 6051.80 77.00
4596 29.6700 5960.00 5985.66 77.00
4597 29.6760 6018.00 5920.23 78.00
4598 29.6820 5911.00 5852.15 77.00
4599 29.6880 5948.00 5804.43 77.00
4600 29.6940 6014.00 5752.21 78.00
4601 29.7000 5918.00 5714.71 77.00
4602 29.7060 6027.00 5687.58 78.00
4603 29.7120 6081.00 5673.92 78.00
4604 29.7180 6212.00 5673.18 79.00
4605 29.7240 6414.00 5683.25 80.00
4606 29.7300 6217.00 5703.57 79.00
4607 29.7360 6078.00 5737.39 78.00
4608 29.7420 6178.00 5768.16 79.00
4609 29.7480 6082.00 5798.91 78.00
4610 29.7540 5925.00 5825.42 77.00
4611 29.7600 5861.00 5843.51 77.00
4612 29.7660 5807.00 5849.71 76.00
4613 29.7720 5793.00 5842.28 76.00
4614 29.7780 5700.00 5821.67 75.00
4615 29.7840 5741.00 5790.28 76.00
4616 29.7900 5678.00 5751.76 75.00
4617 29.7960 5560.00 5708.92 75.00
4618 29.8020 5532.00 5666.11 74.00
4619 29.8080 5585.00 5626.60 75.00
4620 29.8140 5473.00 5595.04 74.00
4621 29.8200 5466.00 5563.46 74.00
4622 29.8260 5488.00 5537.85 74.00
4623 29.8320 5432.00 5518.32 74.00
4624 29.8380 5466.00 5505.52 74.00
4625 29.8440 5487.00 5499.07 74.00
4626 29.8500 5407.00 5498.81 74.00
4627 29.8560 5373.00 5504.64 73.00
4628 29.8620 5405.00 5516.64 74.00
4629 29.8680 5437.00 5535.16 74.00
4630 29.8740 5467.00 5561.01 74.00
4631 29.8800 5481.00 5595.52 74.00
4632 29.8860 5538.00 5640.73 74.00
4633 29.8920 5599.00 5699.36 75.00
4634 29.8980 5742.00 5776.12 76.00
4635 29.9040 5898.00 5873.06 77.00
4636 29.9100 5966.00 5996.29 77.00
4637 29.9160 6066.00 6151.24 78.00
4638 29.9220 6285.00 6343.36 79.00
4639 29.9280 6569.00 6577.65 81.00
4640 29.9340 6821.00 6858.06 83.00
4641 29.9400 7094.00 7186.70 84.00
4642 29.9460 7511.00 7562.92 87.00
4643 29.9520 8013.00 7977.84 90.00
4644 29.9580 8556.00 8434.46 92.00
4645 29.9640 9151.00 8909.99 96.00
4646 29.9700 9797.00 9393.71 99.00
4647 29.9760 10248.00 9856.00 101.00
4648 29.9820 10694.00 10265.90 103.00
4649 29.9880 10849.00 10591.70 104.00
4650 29.9940 10853.00 10807.00 104.00
4651 30.0000 10762.00 10897.90 104.00
4652 30.0060 10607.00 10866.30 103.00
4653 30.0120 10604.00 10725.90 103.00
4654 30.0180 10402.00 10495.80 102.00
4655 30.0240 10003.00 10195.30 100.00
4656 30.0300 9597.00 9842.45 98.00
4657 30.0360 9329.00 9455.61 97.00
4658 30.0420 9071.00 9054.47 95.00
4659 30.0480 8624.00 8659.16 93.00
4660 30.0540 8293.00 8288.38 91.00
4661 30.0600 8222.00 7957.39 91.00
4662 30.0660 8108.00 7677.44 90.00
4663 30.0720 7843.00 7456.06 89.00
4664 30.0780 7792.00 7297.67 88.00
4665 30.0840 7697.00 7203.97 88.00
4666 30.0900 7498.00 7174.93 87.00
4667 30.0960 7534.00 7208.68 87.00
4668 30.1020 7553.00 7301.77 87.00
4669 30.1080 7731.00 7449.15 88.00
4670 30.1140 8037.00 7644.09 90.00
4671 30.1200 8222.00 7877.87 91.00
4672 30.1260 8374.00 8139.52 92.00
4673 30.1320 8486.00 8415.41 92.00
4674 30.1380 8726.00 8689.40 93.00
4675 30.1440 8874.00 8943.99 94.00
4676 30.1500 8936.00 9163.85 95.00
4677 30.1560 9106.00 9338.56 95.00
4678 30.1620 9080.00 9466.83 95.00
4679 30.1680 9032.00 9555.52 95.00
4680 30.1740 9115.00 9615.95 95.00
4681 30.1800 9078.00 9659.49 95.00
4682 30.1860 9002.00 9694.76 95.00
4683 30.1920 9005.00 9727.18 95.00
4684 30.1980 8918.00 9759.76 94.00
4685 30.2040 8889.00 9793.21 94.00
4686 30.2100 9088.00 9824.88 95.00
4687 30.2160 9350.00 9847.41 97.00
4688 30.2220 9338.00 9848.62 97.00
4689 30.2280 9129.00 9811.92 96.00
4690 30.2340 8939.00 9723.40 95.00
4691 30.2400 8631.00 9575.68 93.00
4692 30.2460 8337.00 9371.81 91.00
4693 30.2520 8085.00 9124.49 90.00
4694 30.2580 7768.00 8852.29 88.00
4695 30.2640 7445.00 8574.15 86.00
4696 30.2700 7250.00 8308.16 85.00
4697 30.2760 7302.00 8069.12 85.00
4698 30.2820 7172.00 7872.60 85.00
4699 30.2880 7143.00 7721.92 85.00
4700 30.2940 7283.00 7630.18 85.00
4701 30.3000 7260.00 7606.43 85.00
4702 30.3060 7300.00 7659.34 85.00
4703 30.3120 7543.00 7798.32 87.00
4704 30.3180 7771.00 8035.57 88.00
4705 30.3240 8130.00 8376.95 90.00
4706 30.3300 8719.00 8835.44 93.00
4707 30.3360 9477.00 9420.73 97.00
4708 30.3420 10381.00 10138.20 102.00
4709 30.3480 11223.00 10993.70 106.00
4710 30.3540 12397.00 11983.30 111.00
4711 30.3600 13914.00 13096.40 118.00
4712 30.3660 15471.00 14311.30 124.00
4713 30.3720 16975.00 15596.80 130.00
4714 30.3780 18720.00 16906.80 137.00
4715 30.3840 20543.00 18184.20 143.00
4716 30.3900 21631.00 19363.70 147.00
4717 30.3960 22551.00 20378.60 150.00
4718 30.4020 23142.00 21164.70 152.00
4719 30.4080 23507.00 21670.10 153.00
4720 30.4140 23148.00 21867.00 152.00
4721 30.4200 22186.00 21758.30 149.00
4722 30.4260 21445.00 21377.50 146.00
4723 30.4320 20391.00 20780.20 143.00
4724 30.4380 19415.00 20028.70 139.00
4725 30.4440 18345.00 19179.80 135.00
4726 30.4500 17154.00 18276.70 131.00
4727 30.4560 16093.00 17350.10 127.00
4728 30.4620 15068.00 16422.10 123.00
4729 30.4680 14420.00 15516.10 120.00
4730 30.4740 13775.00 14657.70 117.00
4731 30.4800 13192.00 13874.80 115.00
4732 30.4860 12865.00 13191.10 113.00
4733 30.4920 12448.00 12621.10 112.00
4734 30.4980 12357.00 12169.30 111.00
4735 30.5040 12285.00 11830.40 111.00
4736 30.5100 12097.00 11589.80 110.00
4737 30.5160 12015.00 11425.20 110.00
4738 30.5220 11655.00 11308.00 108.00
4739 30.5280 11327.00 11205.10 106.00
4740 30.5340 11172.00 11083.90 106.00
4741 30.5400 10829.00 10916.70 104.00
4742 30.5460 10356.00 10687.80 102.00
4743 30.5520 10035.00 10395.80 100.00
4744 30.5580 9731.00 10053.10 99.00
4745 30.5640 9375.00 9677.90 97.00
4746 30.5700 9128.00 9291.75 96.00
4747 30.5760 8743.00 8913.35 94.00
4748 30.5820 8393.00 8557.13 92.00
4749 30.5880 8148.00 8233.17 90.00
4750 30.5940 8195.00 7946.71 91.00
4751 30.6000 8026.00 7699.64 90.00
4752 30.6060 7725.00 7490.13 88.00
4753 30.6120 7476.00 7313.44 86.00
4754 30.6180 7301.00 7162.69 85.00
4755 30.6240 7315.00 7030.27 86.00
4756 30.6300 7116.00 6909.36 84.00
4757 30.6360 6927.00 6795.34 83.00
4758 30.6420 6911.00 6686.14 83.00
4759 30.6480 6693.00 6581.80 82.00
4760 30.6540 6454.00 6482.45 80.00
4761 30.6600 6417.00 6391.21 80.00
4762 30.6660 6311.00 6308.07 79.00
4763 30.6720 6252.00 6233.43 79.00
4764 30.6780 6238.00 6167.14 79.00
4765 30.6840 6181.00 6108.46 79.00
4766 30.6900 6078.00 6056.19 78.00
4767 30.6960 6017.00 6008.79 78.00
4768 30.7020 6083.00 5964.68 78.00
4769 30.7080 5988.00 5922.56 77.00
4770 30.7140 5782.00 5874.72 76.00
4771 30.7200 5766.00 5835.04 76.00
4772 30.7260 5685.00 5796.64 75.00
4773 30.7320 5740.00 5759.99 76.00
4774 30.7380 5670.00 5725.58 75.00
4775 30.7440 5612.00 5693.77 75.00
4776 30.7500 5663.00 5662.25 75.00
4777 30.7560 5577.00 5636.39 75.00
4778 30.7620 5488.00 5613.64 74.00
4779 30.7680 5482.00 5593.94 74.00
4780 30.7740 5678.00 5577.25 75.00
4781 30.7800 5688.00 5563.45 75.00
4782 30.7860 5586.00 5552.37 75.00
4783 30.7920 5566.00 5541.86 75.00
4784 30.7980 5543.00 5533.75 74.00
4785 30.8040 5581.00 5533.66 75.00
4786 30.8100 5497.00 5534.42 74.00
4787 30.8160 5471.00 5532.97 74.00
4788 30.8220 5492.00 5533.53 74.00
4789 30.8280 5593.00 5536.03 75.00
4790 30.8340 5691.00 5540.41 75.00
4791 30.8400 5591.00 5546.62 75.00
4792 30.8460 5697.00 5554.57 75.00
4793 30.8520 5802.00 5564.17 76.00
4794 30.8580 5732.00 5575.30 76.00
4795 30.8640 5654.00 5587.81 75.00
4796 30.8700 5641.00 5601.51 75.00
4797 30.8760 5754.00 5612.23 76.00
4798 30.8820 5655.00 5628.31 75.00
4799 30.8880 5628.00 5645.98 75.00
4800 30.8940 5716.00 5665.97 76.00
4801 30.9000 5789.00 5692.53 76.00
4802 30.9060 5624.00 5722.11 75.00
4803 30.9120 5607.00 5760.10 75.00
4804 30.9180 5755.00 5801.20 76.00
4805 30.9240 5906.00 5853.45 77.00
4806 30.9300 6035.00 5916.90 78.00
4807 30.9360 5945.00 5993.12 77.00
4808 30.9420 5907.00 6083.58 77.00
4809 30.9480 6113.00 6189.54 78.00
4810 30.9540 6254.00 6312.06 79.00
4811 30.9600 6304.00 6447.15 79.00
4812 30.9660 6343.00 6605.75 80.00
4813 30.9720 6629.00 6783.65 81.00
4814 30.9780 7051.00 6981.12 84.00
4815 30.9840 7334.00 7196.52 86.00
4816 30.9900 7549.00 7426.62 87.00
4817 30.9960 7833.00 7664.81 89.00
4818 31.0020 8102.00 7901.19 90.00
4819 31.0080 8498.00 8122.69 92.00
4820 31.0140 8629.00 8314.46 93.00
4821 31.0200 8461.00 8461.87 92.00
4822 31.0260 8537.00 8554.41 92.00
4823 31.0320 8556.00 8587.40 92.00
4824 31.0380 8282.00 8561.51 91.00
4825 31.0440 8106.00 8480.71 90.00
4826 31.0500 8079.00 8350.40 90.00
4827 31.0560 7833.00 8176.18 89.00
4828 31.0620 7719.00 7965.55 88.00
4829 31.0680 7410.00 7728.22 86.00
4830 31.0740 7189.00 7475.65 85.00
4831 31.0800 7104.00 7219.53 84.00
4832 31.0860 6888.00 6973.04 83.00
4833 31.0920 6637.00 6738.37 81.00
4834 31.0980 6464.00 6523.46 80.00
4835 31.1040 6375.00 6331.48 80.00
4836 31.1100 6155.00 6163.61 78.00
4837 31.1160 6018.00 6018.35 78.00
4838 31.1220 5979.00 5897.09 77.00
4839 31.1280 5906.00 5796.33 77.00
4840 31.1340 5835.00 5714.31 76.00
4841 31.1400 5891.00 5634.03 77.00
4842 31.1460 5823.00 5581.57 76.00
4843 31.1520 5613.00 5540.22 75.00
4844 31.1580 5716.00 5505.17 76.00
4845 31.1640 5605.00 5480.31 75.00
4846 31.1700 5586.00 5461.37 75.00
4847 31.1760 5580.00 5447.30 75.00
4848 31.1820 5544.00 5437.30 74.00
4849 31.1880 5525.00 5430.86 74.00
4850 31.1940 5491.00 5421.15 74.00
4851 31.2000 5367.00 5421.20 73.00
4852 31.2060 5477.00 5424.41 74.00
4853 31.2120 5398.00 5430.89 73.00
4854 31.2180 5303.00 5440.81 73.00
4855 31.2240 5586.00 5454.36 75.00
4856 31.2300 5524.00 5471.66 74.00
4857 31.2360 5542.00 5492.77 74.00
4858 31.2420 5476.00 5517.54 74.00
4859 31.2480 5764.00 5545.49 76.00
4860 31.2540 5819.00 5576.33 76.00
4861 31.2600 5865.00 5609.09 77.00
4862 31.2660 5924.00 5641.55 77.00
4863 31.2720 5919.00 5674.98 77.00
4864 31.2780 5830.00 5702.57 76.00
4865 31.2840 5814.00 5731.01 76.00
4866 31.2900 5880.00 5754.03 77.00
4867 31.2960 5998.00 5769.49 77.00
4868 31.3020 5928.00 5775.59 77.00
4869 31.3080 5851.00 5771.39 76.00
4870 31.3140 5710.00 5757.29 76.00
4871 31.3200 5815.00 5734.88 76.00
4872 31.3260 5867.00 5706.55 77.00
4873 31.3320 5836.00 5674.86 76.00
4874 31.3380 5724.00 5652.90 76.00
4875 31.3440 5718.00 5621.27 76.00
4876 31.3500 5727.00 5592.01 76.00
4877 31.3560 5653.00 5573.60 75.00
4878 31.3620 5768.00 5550.88 76.00
4879 31.3680 5681.00 5533.79 75.00
4880 31.3740 5828.00 5521.40 76.00
4881 31.3800 5694.00 5513.69 75.00
4882 31.3860 5670.00 5510.55 75.00
4883 31.3920 5584.00 5511.85 75.00
4884 31.3980 5584.00 5517.44 75.00
4885 31.4040 5520.00 5528.70 74.00
4886 31.4100 5545.00 5543.01 74.00
4887 31.4160 5619.00 5562.11 75.00
4888 31.4220 5647.00 5586.72 75.00
4889 31.4280 5637.00 5617.96 75.00
4890 31.4340 5650.00 5657.40 75.00
4891 31.4400 5773.00 5707.53 76.00
4892 31.4460 5814.00 5771.02 76.00
4893 31.4520 5932.00 5852.02 77.00
4894 31.4580 5948.00 5960.65 77.00
4895 31.4640 6090.00 6090.57 78.00
4896 31.4700 6352.00 6253.07 80.00
4897 31.4760 6370.00 6454.17 80.00
4898 31.4820 6591.00 6703.53 81.00
4899 31.4880 6795.00 6997.38 82.00
4900 31.4940 7232.00 7342.68 85.00
4901 31.5000 7728.00 7740.52 88.00
4902 31.5060 8099.00 8188.33 90.00
4903 31.5120 9116.00 8679.92 95.00
4904 31.5180 9992.00 9204.61 100.00
4905 31.5240 11308.00 9746.45 106.00
4906 31.5300 12120.00 10283.60 110.00
4907 31.5360 13254.00 10789.00 115.00
4908 31.5420 13850.00 11228.50 118.00
4909 31.5480 14066.00 11569.20 119.00
4910 31.5540 13707.00 11781.90 117.00
4911 31.5600 13699.00 11853.60 117.00
4912 31.5660 13190.00 11784.20 115.00
4913 31.5720 12442.00 11597.60 112.00
4914 31.5780 11614.00 11328.70 108.00
4915 31.5840 11343.00 11016.70 107.00
4916 31.5900 10503.00 10698.50 102.00
4917 31.5960 10374.00 10404.60 102.00
4918 31.6020 10188.00 10157.50 101.00
4919 31.6080 10228.00 9971.25 101.00
4920 31.6140 10004.00 9852.08 100.00
4921 31.6200 10262.00 9798.41 101.00
4922 31.6260 10432.00 9801.08 102.00
4923 31.6320 10710.00 9844.20 103.00
4924 31.6380 10859.00 9906.36 104.00
4925 31.6440 10939.00 9959.11 105.00
4926 31.6500 10788.00 9976.25 104.00
4927 31.6560 10554.00 9934.69 103.00
4928 31.6620 10005.00 9820.25 100.00
4929 31.6680 9592.00 9630.59 98.00
4930 31.6740 9428.00 9374.17 97.00
4931 31.6800 9101.00 9067.41 95.00
4932 31.6860 8818.00 8729.83 94.00
4933 31.6920 8129.00 8380.40 90.00
4934 31.6980 7941.00 8035.37 89.00
4935 31.7040 7752.00 7707.19 88.00
4936 31.7100 7549.00 7406.24 87.00
4937 31.7160 7096.00 7140.06 84.00
4938 31.7220 6961.00 6909.77 83.00
4939 31.7280 6740.00 6718.71 82.00
4940 31.7340 6654.00 6567.22 82.00
4941 31.7400 6532.00 6454.33 81.00
4942 31.7460 6467.00 6378.63 80.00
4943 31.7520 6351.00 6338.40 80.00
4944 31.7580 6473.00 6332.00 80.00
4945 31.7640 6359.00 6354.65 80.00
4946 31.7700 6467.00 6412.72 80.00
4947 31.7760 6563.00 6502.91 81.00
4948 31.7820 6772.00 6624.89 82.00
4949 31.7880 6817.00 6779.82 83.00
4950 31.7940 7096.00 6968.38 84.00
4951 31.8000 7668.00 7188.58 88.00
4952 31.8060 7895.00 7443.38 89.00
4953 31.8120 8307.00 7727.76 91.00
4954 31.8180 8686.00 8036.30 93.00
4955 31.8240 9082.00 8360.75 95.00
4956 31.8300 9355.00 8690.00 97.00
4957 31.8360 9813.00 9011.03 99.00
4958 31.8420 10224.00 9311.33 101.00
4959 31.8480 10207.00 9577.74 101.00
4960 31.8540 10426.00 9801.89 102.00
4961 31.8600 10726.00 9976.08 104.00
4962 31.8660 10364.00 10092.20 102.00
4963 31.8720 10342.00 10141.10 102.00
4964 31.8780 10047.00 10113.40 100.00
4965 31.8840 9844.00 10003.10 99.00
4966 31.8900 9360.00 9815.88 97.00
4967 31.8960 9084.00 9553.71 95.00
4968 31.9020 9015.00 9237.98 95.00
4969 31.9080 8853.00 8889.37 94.00
4970 31.9140 8498.00 8528.00 92.00
4971 31.9200 8109.00 8171.00 90.00
4972 31.9260 7833.00 7833.51 89.00
4973 31.9320 7543.00 7521.39 87.00
4974 31.9380 7205.00 7242.34 85.00
4975 31.9440 7054.00 7000.02 84.00
4976 31.9500 7116.00 6795.83 84.00
4977 31.9560 7111.00 6629.54 84.00
4978 31.9620 6854.00 6499.91 83.00
4979 31.9680 6568.00 6405.11 81.00
4980 31.9740 6563.00 6343.32 81.00
4981 31.9800 6732.00 6313.12 82.00
4982 31.9860 6422.00 6314.02 80.00
4983 31.9920 6492.00 6346.58 81.00
4984 31.9980 6625.00 6413.92 81.00
4985 32.0040 6749.00 6517.92 82.00
4986 32.0100 6717.00 6664.70 82.00
4987 32.0160 6831.00 6861.22 83.00
4988 32.0220 7047.00 7115.56 84.00
4989 32.0280 7147.00 7436.25 85.00
4990 32.0340 7607.00 7831.73 87.00
4991 32.0400 7845.00 8309.42 89.00
4992 32.0460 8531.00 8874.60 92.00
4993 32.0520 9015.00 9528.86 95.00
4994 32.0580 9955.00 10269.70 100.00
4995 32.0640 10952.00 11089.90 105.00
4996 32.0700 12104.00 11973.30 110.00
4997 32.0760 13822.00 12896.20 118.00
4998 32.0820 14779.00 13825.70 122.00
4999 32.0880 16033.00 14718.80 127.00
5000 32.0940 17190.00 15525.10 131.00
5001 32.1000 17562.00 16190.70 133.00
5002 32.1060 17283.00 16668.10 131.00
5003 32.1120 17260.00 16923.90 131.00
5004 32.1180 16925.00 16945.80 130.00
5005 32.1240 16408.00 16746.20 128.00
5006 32.1300 15516.00 16358.30 125.00
5007 32.1360 15063.00 15830.10 123.00
5008 32.1420 14187.00 15216.60 119.00
5009 32.1480 13641.00 14570.70 117.00
5010 32.1540 12859.00 13938.40 113.00
5011 32.1600 12387.00 13356.40 111.00
5012 32.1660 12486.00 12850.50 112.00
5013 32.1720 12154.00 12437.10 110.00
5014 32.1780 11984.00 12125.30 109.00
5015 32.1840 12135.00 11917.50 110.00
5016 32.1900 12291.00 11809.60 111.00
5017 32.1960 12314.00 11790.40 111.00
5018 32.2020 12505.00 11841.60 112.00
5019 32.2080 12499.00 11938.40 112.00
5020 32.2140 12609.00 12050.80 112.00
5021 32.2200 12497.00 12147.20 112.00
5022 32.2260 12474.00 12199.60 112.00
5023 32.2320 12288.00 12187.10 111.00
5024 32.2380 12088.00 12098.80 110.00
5025 32.2440 11738.00 11933.00 108.00
5026 32.2500 11378.00 11693.10 107.00
5027 32.2560 11368.00 11391.80 107.00
5028 32.2620 10856.00 11043.30 104.00
5029 32.2680 10593.00 10668.40 103.00
5030 32.2740 10471.00 10287.20 102.00
5031 32.2800 10508.00 9916.44 103.00
5032 32.2860 10127.00 9568.85 101.00
5033 32.2920 9831.00 9251.62 99.00
5034 32.2980 9567.00 8966.85 98.00
5035 32.3040 9577.00 8712.53 98.00
5036 32.3100 9184.00 8478.18 96.00
5037 32.3160 8791.00 8264.42 94.00
5038 32.3220 8689.00 8067.12 93.00
5039 32.3280 8427.00 7874.92 92.00
5040 32.3340 8154.00 7682.69 90.00
5041 32.3400 7929.00 7487.81 89.00
5042 32.3460 7535.00 7290.67 87.00
5043 32.3520 7374.00 7094.08 86.00
5044 32.3580 7083.00 6903.08 84.00
5045 32.3640 6864.00 6719.93 83.00
5046 32.3700 6839.00 6549.02 83.00
5047 32.3760 6680.00 6393.25 82.00
5048 32.3820 6494.00 6254.64 81.00
5049 32.3880 6373.00 6134.54 80.00
5050 32.3940 6256.00 6033.69 79.00
5051 32.4000 6225.00 5952.39 79.00
5052 32.4060 5978.00 5890.67 77.00
5053 32.4120 5934.00 5844.92 77.00
5054 32.4180 5861.00 5819.48 77.00
5055 32.4240 5928.00 5810.57 77.00
5056 32.4300 5822.00 5820.29 76.00
5057 32.4360 5825.00 5845.06 76.00
5058 32.4420 5725.00 5883.25 76.00
5059 32.4480 5960.00 5932.91 77.00
5060 32.4540 5995.00 5991.65 77.00
5061 32.4600 6045.00 6056.68 78.00
5062 32.4660 6202.00 6124.47 79.00
5063 32.4720 6263.00 6190.89 79.00
5064 32.4780 6310.00 6251.25 79.00
5065 32.4840 6466.00 6300.83 80.00
5066 32.4900 6215.00 6335.69 79.00
5067 32.4960 6258.00 6353.72 79.00
5068 32.5020 6259.00 6355.27 79.00
5069 32.5080 6178.00 6347.11 79.00
5070 32.5140 6271.00 6325.32 79.00
5071 32.5200 6143.00 6298.50 78.00
5072 32.5260 6189.00 6270.77 79.00
5073 32.5320 6222.00 6245.36 79.00
5074 32.5380 6072.00 6224.44 78.00
5075 32.5440 6207.00 6209.83 79.00
5076 32.5500 6167.00 6202.62 79.00
5077 32.5560 6181.00 6203.99 79.00
5078 32.5620 6175.00 6215.36 79.00
5079 32.5680 6322.00 6238.38 80.00
5080 32.5740 6282.00 6274.87 79.00
5081 32.5800 6290.00 6326.83 79.00
5082 32.5860 6415.00 6396.13 80.00
5083 32.5920 6379.00 6484.59 80.00
5084 32.5980 6510.00 6593.37 81.00
5085 32.6040 6523.00 6722.87 81.00
5086 32.6100 6696.00 6869.68 82.00
5087 32.6160 6777.00 7038.13 82.00
5088 32.6220 6888.00 7223.35 83.00
5089 32.6280 7035.00 7422.77 84.00
5090 32.6340 7122.00 7633.39 84.00
5091 32.6400 7609.00 7850.33 87.00
5092 32.6460 8283.00 8064.84 91.00
5093 32.6520 8523.00 8266.06 92.00
5094 32.6580 8676.00 8447.60 93.00
5095 32.6640 8657.00 8591.41 93.00
5096 32.6700 8730.00 8684.83 93.00
5097 32.6760 8647.00 8719.47 93.00
5098 32.6820 8580.00 8692.60 93.00
5099 32.6880 8217.00 8606.91 91.00
5100 32.6940 8220.00 8468.44 91.00
5101 32.7000 7950.00 8288.78 89.00
5102 32.7060 7878.00 8072.28 89.00
5103 32.7120 7608.00 7825.77 87.00
5104 32.7180 7430.00 7562.95 86.00
5105 32.7240 7073.00 7295.13 84.00
5106 32.7300 6867.00 7030.26 83.00
5107 32.7360 6597.00 6779.26 81.00
5108 32.7420 6470.00 6544.35 80.00
5109 32.7480 6428.00 6331.09 80.00
5110 32.7540 6249.00 6141.38 79.00
5111 32.7600 6059.00 5975.66 78.00
5112 32.7660 5974.00 5833.01 77.00
5113 32.7720 5850.00 5715.06 76.00
5114 32.7780 5778.00 5617.49 76.00
5115 32.7840 5581.00 5534.06 75.00
5116 32.7900 5596.00 5466.11 75.00
5117 32.7960 5456.00 5411.57 74.00
5118 32.8020 5414.00 5368.54 74.00
5119 32.8080 5303.00 5335.32 73.00
5120 32.8140 5338.00 5310.52 73.00
5121 32.8200 5345.00 5293.01 73.00
5122 32.8260 5339.00 5281.89 73.00
5123 32.8320 5292.00 5276.49 73.00
5124 32.8380 5225.00 5276.34 72.00
5125 32.8440 5367.00 5281.03 73.00
5126 32.8500 5387.00 5290.26 73.00
5127 32.8560 5273.00 5303.75 73.00
5128 32.8620 5265.00 5321.19 73.00
5129 32.8680 5284.00 5342.16 73.00
5130 32.8740 5340.00 5355.44 73.00
5131 32.8800 5443.00 5381.94 74.00
5132 32.8860 5356.00 5409.98 73.00
5133 32.8920 5440.00 5431.27 74.00
5134 32.8980 5513.00 5461.12 74.00
5135 32.9040 5506.00 5489.27 74.00
5136 32.9100 5400.00 5516.62 73.00
5137 32.9160 5423.00 5543.27 74.00
5138 32.9220 5543.00 5569.44 74.00
5139 32.9280 5467.00 5595.38 74.00
5140 32.9340 5516.00 5624.61 74.00
5141 32.9400 5498.00 5651.22 74.00
5142 32.9460 5512.00 5677.60 74.00
5143 32.9520 5569.00 5707.29 75.00
5144 32.9580 5584.00 5739.62 75.00
5145 32.9640 5607.00 5775.20 75.00
5146 32.9700 5592.00 5814.36 75.00
5147 32.9760 5546.00 5857.25 74.00
5148 32.9820 5706.00 5904.29 76.00
5149 32.9880 5864.00 5954.53 77.00
5150 32.9940 5879.00 6008.99 77.00
5151 33.0000 6081.00 6059.61 78.00
5152 33.0060 6117.00 6117.20 78.00
5153 33.0120 6077.00 6173.42 78.00
5154 33.0180 6194.00 6224.56 79.00
5155 33.0240 6171.00 6261.80 79.00
5156 33.0300 6121.00 6288.17 78.00
5157 33.0360 6136.00 6294.82 78.00
5158 33.0420 6118.00 6278.67 78.00
5159 33.0480 5967.00 6239.02 77.00
5160 33.0540 5940.00 6177.87 77.00
5161 33.0600 5760.00 6099.32 76.00
5162 33.0660 5527.00 6008.63 74.00
5163 33.0720 5433.00 5911.27 74.00
5164 33.0780 5425.00 5811.97 74.00
5165 33.0840 5467.00 5714.87 74.00
5166 33.0900 5490.00 5622.78 74.00
5167 33.0960 5410.00 5537.96 74.00
5168 33.1020 5397.00 5461.79 73.00
5169 33.1080 5405.00 5393.17 74.00
5170 33.1140 5217.00 5336.05 72.00
5171 33.1200 5140.00 5288.26 72.00
5172 33.1260 5121.00 5249.30 72.00
5173 33.1320 5129.00 5218.47 72.00
5174 33.1380 5085.00 5194.91 71.00
5175 33.1440 5025.00 5177.81 71.00
5176 33.1500 4927.00 5166.40 70.00
5177 33.1560 4896.00 5160.06 70.00
5178 33.1620 5050.00 5158.36 71.00
5179 33.1680 5048.00 5161.12 71.00
5180 33.1740 5006.00 5168.40 71.00
5181 33.1800 4999.00 5180.60 71.00
5182 33.1860 4988.00 5198.32 71.00
5183 33.1920 5107.00 5222.81 71.00
5184 33.1980 5139.00 5254.90 72.00
5185 33.2040 5103.00 5296.38 71.00
5186 33.2100 5139.00 5349.11 72.00
5187 33.2160 5311.00 5415.00 73.00
5188 33.2220 5356.00 5496.03 73.00
5189 33.2280 5306.00 5594.00 73.00
5190 33.2340 5411.00 5710.35 74.00
5191 33.2400 5602.00 5845.93 75.00
5192 33.2460 5838.00 6000.69 76.00
5193 33.2520 6012.00 6173.74 78.00
5194 33.2580 6186.00 6362.67 79.00
5195 33.2640 6509.00 6563.60 81.00
5196 33.2700 6809.00 6770.63 83.00
5197 33.2760 7143.00 6975.87 85.00
5198 33.2820 7698.00 7170.71 88.00
5199 33.2880 8053.00 7342.56 90.00
5200 33.2940 8034.00 7478.84 90.00
5201 33.3000 7940.00 7567.50 89.00
5202 33.3060 7939.00 7599.93 89.00
5203 33.3120 7782.00 7573.48 88.00
5204 33.3180 7331.00 7492.17 86.00
5205 33.3240 7027.00 7365.54 84.00
5206 33.3300 6894.00 7205.72 83.00
5207 33.3360 6735.00 7026.59 82.00
5208 33.3420 6489.00 6839.35 81.00
5209 33.3480 6194.00 6653.93 79.00
5210 33.3540 6052.00 6478.20 78.00
5211 33.3600 6029.00 6317.94 78.00
5212 33.3660 6031.00 6178.24 78.00
5213 33.3720 6051.00 6062.17 78.00
5214 33.3780 5903.00 5972.19 77.00
5215 33.3840 5815.00 5909.98 76.00
5216 33.3900 5904.00 5877.01 77.00
5217 33.3960 5935.00 5874.75 77.00
5218 33.4020 5989.00 5903.61 77.00
5219 33.4080 6165.00 5966.96 79.00
5220 33.4140 6206.00 6065.81 79.00
5221 33.4200 6483.00 6202.73 81.00
5222 33.4260 6805.00 6378.79 82.00
5223 33.4320 7002.00 6596.22 84.00
5224 33.4380 7463.00 6856.14 86.00
5225 33.4440 7842.00 7159.65 89.00
5226 33.4500 8264.00 7503.44 91.00
5227 33.4560 8754.00 7881.28 94.00
5228 33.4620 9139.00 8295.83 96.00
5229 33.4680 9468.00 8734.37 97.00
5230 33.4740 9839.00 9185.90 99.00
5231 33.4800 10305.00 9635.33 102.00
5232 33.4860 10325.00 10065.20 102.00
5233 33.4920 10611.00 10455.20 103.00
5234 33.4980 10598.00 10792.90 103.00
5235 33.5040 10508.00 11065.00 103.00
5236 33.5100 10493.00 11267.80 102.00
5237 33.5160 10405.00 11405.00 102.00
5238 33.5220 10506.00 11485.10 102.00
5239 33.5280 10361.00 11519.40 102.00
5240 33.5340 10278.00 11518.60 101.00
5241 33.5400 10365.00 11491.70 102.00
5242 33.5460 10498.00 11444.50 102.00
5243 33.5520 10618.00 11378.70 103.00
5244 33.5580 10603.00 11290.80 103.00
5245 33.5640 10350.00 11172.80 102.00
5246 33.5700 9938.00 11013.70 100.00
5247 33.5760 9615.00 10803.00 98.00
5248 33.5820 9279.00 10535.30 96.00
5249 33.5880 9013.00 10212.80 95.00
5250 33.5940 8623.00 9845.72 93.00
5251 33.6000 8148.00 9450.06 90.00
5252 33.6060 7869.00 9043.15 89.00
5253 33.6120 7615.00 8642.21 87.00
5254 33.6180 7422.00 8261.70 86.00
5255 33.6240 7144.00 7913.10 85.00
5256 33.6300 6816.00 7605.03 83.00
5257 33.6360 6777.00 7343.55 82.00
5258 33.6420 6728.00 7132.63 82.00
5259 33.6480 6701.00 6973.92 82.00
5260 33.6540 6804.00 6867.65 82.00
5261 33.6600 6851.00 6812.29 83.00
5262 33.6660 6877.00 6804.81 83.00
5263 33.6720 7080.00 6840.73 84.00
5264 33.6780 7261.00 6914.22 85.00
5265 33.6840 7497.00 7018.80 87.00
5266 33.6900 7435.00 7144.59 86.00
5267 33.6960 7601.00 7283.67 87.00
5268 33.7020 7579.00 7426.26 87.00
5269 33.7080 7668.00 7562.83 88.00
5270 33.7140 7501.00 7684.54 87.00
5271 33.7200 7391.00 7783.11 86.00
5272 33.7260 7048.00 7850.76 84.00
5273 33.7320 7157.00 7881.99 85.00
5274 33.7380 7104.00 7873.32 84.00
5275 33.7440 6904.00 7825.23 83.00
5276 33.7500 6857.00 7742.59 83.00
5277 33.7560 6849.00 7632.72 83.00
5278 33.7620 6695.00 7503.93 82.00
5279 33.7680 6528.00 7363.26 81.00
5280 33.7740 6415.00 7216.79 80.00
5281 33.7800 6194.00 7067.53 79.00
5282 33.7860 6186.00 6916.99 79.00
5283 33.7920 6009.00 6765.66 78.00
5284 33.7980 5991.00 6613.75 77.00
5285 33.8040 5909.00 6462.72 77.00
5286 33.8100 5665.00 6311.75 75.00
5287 33.8160 5432.00 6163.68 74.00
5288 33.8220 5566.00 6020.81 75.00
5289 33.8280 5439.00 5884.28 74.00
5290 33.8340 5404.00 5757.71 74.00
5291 33.8400 5259.00 5640.39 73.00
5292 33.8460 5329.00 5535.07 73.00
5293 33.8520 5187.00 5440.88 72.00
5294 33.8580 5287.00 5357.63 73.00
5295 33.8640 5212.00 5284.94 72.00
5296 33.8700 5116.00 5222.08 72.00
5297 33.8760 5031.00 5168.36 71.00
5298 33.8820 5000.00 5122.95 71.00
5299 33.8880 4910.00 5085.01 70.00
5300 33.8940 4933.00 5053.69 70.00
5301 33.9000 4941.00 5028.20 70.00
5302 33.9060 4855.00 5007.84 70.00
5303 33.9120 4970.00 4991.95 70.00
5304 33.9180 5044.00 4980.01 71.00
5305 33.9240 5061.00 4971.57 71.00
5306 33.9300 4936.00 4966.26 70.00
5307 33.9360 4928.00 4964.11 70.00
5308 33.9420 4853.00 4964.48 70.00
5309 33.9480 4874.00 4968.73 70.00
5310 33.9540 4958.00 4973.19 70.00
5311 33.9600 4965.00 4979.41 70.00
5312 33.9660 4840.00 4987.01 70.00
5313 33.9720 4826.00 4995.73 69.00
5314 33.9780 4850.00 5005.03 70.00
5315 33.9840 4974.00 5014.36 71.00
5316 33.9900 4933.00 5023.15 70.00
5317 33.9960 4916.00 5030.84 70.00
5318 34.0020 4906.00 5037.04 70.00
5319 34.0080 5010.00 5041.58 71.00
5320 34.0140 5014.00 5044.62 71.00
5321 34.0200 4967.00 5046.60 70.00
5322 34.0260 4847.00 5047.09 70.00
5323 34.0320 4773.00 5051.08 69.00
5324 34.0380 4773.00 5053.22 69.00
5325 34.0440 4797.00 5057.48 69.00
5326 34.0500 4856.00 5061.90 70.00
5327 34.0560 4992.00 5065.71 71.00
5328 34.0620 4971.00 5070.28 71.00
5329 34.0680 5018.00 5072.56 71.00
5330 34.0740 4917.00 5072.73 70.00
5331 34.0800 4917.00 5069.97 70.00
5332 34.0860 4965.00 5062.82 70.00
5333 34.0920 5106.00 5053.29 71.00
5334 34.0980 4997.00 5040.84 71.00
5335 34.1040 4844.00 5022.16 70.00
5336 34.1100 4975.00 5006.41 71.00
5337 34.1160 4874.00 4990.39 70.00
5338 34.1220 4824.00 4975.03 69.00
5339 34.1280 4900.00 4961.22 70.00
5340 34.1340 4985.00 4949.70 71.00
5341 34.1400 4931.00 4941.19 70.00
5342 34.1460 5092.00 4936.27 71.00
5343 34.1520 4979.00 4934.37 71.00
5344 34.1580 4899.00 4937.76 70.00
5345 34.1640 5099.00 4945.56 71.00
5346 34.1700 5045.00 4957.66 71.00
5347 34.1760 5104.00 4973.79 71.00
5348 34.1820 4874.00 4993.42 70.00
5349 34.1880 5029.00 5015.80 71.00
5350 34.1940 5080.00 5039.95 71.00
5351 34.2000 5174.00 5064.63 72.00
5352 34.2060 5172.00 5088.42 72.00
5353 34.2120 5202.00 5111.38 72.00
5354 34.2180 5208.00 5128.57 72.00
5355 34.2240 5178.00 5140.05 72.00
5356 34.2300 5112.00 5144.46 71.00
5357 34.2360 5128.00 5142.89 72.00
5358 34.2420 4990.00 5131.45 71.00
5359 34.2480 4987.00 5112.74 71.00
5360 34.2540 5082.00 5088.10 71.00
5361 34.2600 4936.00 5059.26 70.00
5362 34.2660 4915.00 5027.90 70.00
5363 34.2720 4832.00 4994.55 70.00
5364 34.2780 4968.00 4962.55 70.00
5365 34.2840 4903.00 4931.84 70.00
5366 34.2900 4942.00 4903.17 70.00
5367 34.2960 4878.00 4876.98 70.00
5368 34.3020 4913.00 4849.99 70.00
5369 34.3080 4909.00 4829.54 70.00
5370 34.3140 4742.00 4808.80 69.00
5371 34.3200 4940.00 4793.98 70.00
5372 34.3260 4605.00 4781.69 68.00
5373 34.3320 4680.00 4770.66 68.00
5374 34.3380 4696.00 4760.83 69.00
5375 34.3440 4705.00 4754.58 69.00
5376 34.3500 4854.00 4749.85 70.00
5377 34.3560 4781.00 4746.43 69.00
5378 34.3620 4716.00 4744.17 69.00
5379 34.3680 4737.00 4742.98 69.00
5380 34.3740 4635.00 4742.82 68.00
5381 34.3800 4749.00 4740.71 69.00
5382 34.3860 4774.00 4739.24 69.00
5383 34.3920 4671.00 4741.64 68.00
5384 34.3980 4750.00 4746.52 69.00
5385 34.4040 4796.00 4753.12 69.00
5386 34.4100 4716.00 4761.73 69.00
5387 34.4160 4797.00 4772.65 69.00
5388 34.4220 4684.00 4786.19 68.00
5389 34.4280 4788.00 4802.63 69.00
5390 34.4340 4675.00 4822.19 68.00
5391 34.4400 4676.00 4845.04 68.00
5392 34.4460 4813.00 4871.15 69.00
5393 34.4520 4783.00 4899.38 69.00
5394 34.4580 4926.00 4931.36 70.00
5395 34.4640 4797.00 4965.52 69.00
5396 34.4700 4933.00 5000.99 70.00
5397 34.4760 4901.00 5036.59 70.00
5398 34.4820 4962.00 5070.81 70.00
5399 34.4880 4999.00 5101.88 71.00
5400 34.4940 4923.00 5127.72 70.00
5401 34.5000 4988.00 5146.32 71.00
5402 34.5060 4990.00 5156.03 71.00
5403 34.5120 4939.00 5154.98 70.00
5404 34.5180 4985.00 5144.20 71.00
5405 34.5240 5030.00 5126.03 71.00
5406 34.5300 4910.00 5101.12 70.00
5407 34.5360 5068.00 5071.64 71.00
5408 34.5420 4953.00 5039.41 70.00
5409 34.5480 5071.00 5003.14 71.00
5410 34.5540 4856.00 4970.58 70.00
5411 34.5600 4951.00 4939.71 70.00
5412 34.5660 4737.00 4911.99 69.00
5413 34.5720 4807.00 4886.68 69.00
5414 34.5780 4689.00 4863.76 68.00
5415 34.5840 4839.00 4845.39 70.00
5416 34.5900 4831.00 4830.57 70.00
5417 34.5960 4570.00 4818.68 68.00
5418 34.6020 4780.00 4810.62 69.00
5419 34.6080 4738.00 4806.64 69.00
5420 34.6140 4621.00 4804.68 68.00
5421 34.6200 4630.00 4807.34 68.00
5422 34.6260 4818.00 4811.65 69.00
5423 34.6320 4894.00 4819.65 70.00
5424 34.6380 4856.00 4829.48 70.00
5425 34.6440 4831.00 4843.44 70.00
5426 34.6500 4799.00 4860.00 69.00
5427 34.6560 4817.00 4881.80 69.00
5428 34.6620 4830.00 4907.69 69.00
5429 34.6680 4808.00 4940.70 69.00
5430 34.6740 4827.00 4980.03 69.00
5431 34.6800 4826.00 5029.02 69.00
5432 34.6860 4888.00 5087.39 70.00
5433 34.6920 4966.00 5158.06 70.00
5434 34.6980 5190.00 5240.54 72.00
5435 34.7040 5130.00 5337.99 72.00
5436 34.7100 5214.00 5449.46 72.00
5437 34.7160 5375.00 5577.10 73.00
5438 34.7220 5591.00 5718.81 75.00
5439 34.7280 5856.00 5875.71 77.00
5440 34.7340 5884.00 6044.06 77.00
5441 34.7400 6204.00 6222.17 79.00
5442 34.7460 6436.00 6407.18 80.00
5443 34.7520 6700.00 6592.43 82.00
5444 34.7580 6868.00 6773.95 83.00
5445 34.7640 7160.00 6943.37 85.00
5446 34.7700 7533.00 7096.70 87.00
5447 34.7760 7588.00 7227.52 87.00
5448 34.7820 7439.00 7336.05 86.00
5449 34.7880 7462.00 7422.68 86.00
5450 34.7940 7398.00 7493.06 86.00
5451 34.8000 7290.00 7550.84 85.00
5452 34.8060 7418.00 7606.58 86.00
5453 34.8120 7307.00 7665.73 85.00
5454 34.8180 7474.00 7736.35 86.00
5455 34.8240 7596.00 7820.06 87.00
5456 34.8300 7822.00 7920.40 88.00
5457 34.8360 7994.00 8032.66 89.00
5458 34.8420 8130.00 8153.74 90.00
5459 34.8480 8342.00 8272.80 91.00
5460 34.8540 8768.00 8380.94 94.00
5461 34.8600 8707.00 8464.09 93.00
5462 34.8660 8790.00 8512.77 94.00
5463 34.8720 8688.00 8515.80 93.00
5464 34.8780 8731.00 8469.64 93.00
5465 34.8840 8523.00 8370.89 92.00
5466 34.8900 8251.00 8224.48 91.00
5467 34.8960 7637.00 8035.07 87.00
5468 34.9020 7451.00 7813.75 86.00
5469 34.9080 7393.00 7570.23 86.00
5470 34.9140 7022.00 7317.47 84.00
5471 34.9200 6793.00 7064.15 82.00
5472 34.9260 6769.00 6821.12 82.00
5473 34.9320 6550.00 6593.99 81.00
5474 34.9380 6222.00 6390.49 79.00
5475 34.9440 6193.00 6213.03 79.00
5476 34.9500 6024.00 6066.63 78.00
5477 34.9560 5980.00 5951.28 77.00
5478 34.9620 5902.00 5870.15 77.00
5479 34.9680 5983.00 5821.70 77.00
5480 34.9740 6024.00 5807.77 78.00
5481 34.9800 6083.00 5825.77 78.00
5482 34.9860 6058.00 5876.61 78.00
5483 34.9920 6214.00 5956.58 79.00
5484 34.9980 6507.00 6065.48 81.00
5485 35.0040 6705.00 6198.31 82.00
5486 35.0100 6860.00 6353.16 83.00
5487 35.0160 7124.00 6523.28 84.00
5488 35.0220 7454.00 6704.39 86.00
5489 35.0280 7591.00 6886.86 87.00
5490 35.0340 7426.00 7062.56 86.00
5491 35.0400 7202.00 7222.58 85.00
5492 35.0460 7242.00 7354.46 85.00
5493 35.0520 7513.00 7450.81 87.00
5494 35.0580 7632.00 7502.13 87.00
5495 35.0640 7622.00 7507.59 87.00
5496 35.0700 7479.00 7464.14 86.00
5497 35.0760 7345.00 7376.42 86.00
5498 35.0820 7256.00 7247.79 85.00
5499 35.0880 7008.00 7087.75 84.00
5500 35.0940 6774.00 6903.18 82.00
5501 35.1000 6600.00 6705.43 81.00
5502 35.1060 6495.00 6500.97 81.00
5503 35.1120 6325.00 6299.37 80.00
5504 35.1180 6117.00 6104.54 78.00
5505 35.1240 5912.00 5922.76 77.00
5506 35.1300 5846.00 5755.20 76.00
5507 35.1360 5763.00 5605.43 76.00
5508 35.1420 5633.00 5472.21 75.00
5509 35.1480 5542.00 5357.24 74.00
5510 35.1540 5411.00 5257.81 74.00
5511 35.1600 5304.00 5174.69 73.00
5512 35.1660 5241.00 5104.68 72.00
5513 35.1720 5164.00 5047.43 72.00
5514 35.1780 5145.00 4999.58 72.00
5515 35.1840 5113.00 4961.84 72.00
5516 35.1900 5088.00 4930.01 71.00
5517 35.1960 5110.00 4905.11 71.00
5518 35.2020 5107.00 4883.97 71.00
5519 35.2080 5008.00 4867.65 71.00
5520 35.2140 4862.00 4853.35 70.00
5521 35.2200 4940.00 4842.47 70.00
5522 35.2260 4997.00 4832.51 71.00
5523 35.2320 4956.00 4825.13 70.00
5524 35.2380 4846.00 4818.05 70.00
5525 35.2440 4790.00 4813.08 69.00
5526 35.2500 4792.00 4808.14 69.00
5527 35.2560 4742.00 4805.10 69.00
5528 35.2620 4711.00 4801.97 69.00
5529 35.2680 4778.00 4800.78 69.00
5530 35.2740 4820.00 4800.08 69.00
5531 35.2800 4789.00 4800.98 69.00
5532 35.2860 4826.00 4802.13 69.00
5533 35.2920 4774.00 4805.70 69.00
5534 35.2980 4736.00 4810.52 69.00
5535 35.3040 4730.00 4817.56 69.00
5536 35.3100 4738.00 4825.69 69.00
5537 35.3160 4819.00 4837.18 69.00
5538 35.3220 4913.00 4850.23 70.00
5539 35.3280 4926.00 4866.06 70.00
5540 35.3340 4809.00 4885.81 69.00
5541 35.3400 4829.00 4906.80 69.00
5542 35.3460 4891.00 4932.37 70.00
5543 35.3520 4920.00 4959.53 70.00
5544 35.3580 5023.00 4989.91 71.00
5545 35.3640 5085.00 5021.05 71.00
5546 35.3700 5136.00 5053.76 72.00
5547 35.3760 5141.00 5085.20 72.00
5548 35.3820 5157.00 5116.50 72.00
5549 35.3880 5201.00 5143.71 72.00
5550 35.3940 5138.00 5167.71 72.00
5551 35.4000 5100.00 5185.22 71.00
5552 35.4060 5108.00 5196.61 71.00
5553 35.4120 5065.00 5199.20 71.00
5554 35.4180 5040.00 5194.81 71.00
5555 35.4240 5096.00 5182.10 71.00
5556 35.4300 5005.00 5164.42 71.00
5557 35.4360 4862.00 5141.58 70.00
5558 35.4420 4919.00 5117.50 70.00
5559 35.4480 4901.00 5092.02 70.00
5560 35.4540 4877.00 5068.72 70.00
5561 35.4600 4944.00 5047.39 70.00
5562 35.4660 4913.00 5029.98 70.00
5563 35.4720 4868.00 5015.71 70.00
5564 35.4780 4824.00 5007.05 69.00
5565 35.4840 4821.00 5002.18 69.00
5566 35.4900 4797.00 5003.10 69.00
5567 35.4960 4840.00 5007.58 70.00
5568 35.5020 4836.00 5017.25 70.00
5569 35.5080 4862.00 5029.55 70.00
5570 35.5140 4913.00 5045.82 70.00
5571 35.5200 4896.00 5063.31 70.00
5572 35.5260 4929.00 5083.27 70.00
5573 35.5320 4959.00 5103.10 70.00
5574 35.5380 4897.00 5124.44 70.00
5575 35.5440 4892.00 5145.38 70.00
5576 35.5500 4926.00 5168.44 70.00
5577 35.5560 4904.00 5192.55 70.00
5578 35.5620 4907.00 5222.24 70.00
5579 35.5680 4886.00 5254.07 70.00
5580 35.5740 4928.00 5292.53 70.00
5581 35.5800 4975.00 5337.80 71.00
5582 35.5860 5026.00 5389.77 71.00
5583 35.5920 5091.00 5448.70 71.00
5584 35.5980 5217.00 5513.91 72.00
5585 35.6040 5214.00 5582.67 72.00
5586 35.6100 5279.00 5655.63 73.00
5587 35.6160 5556.00 5725.31 75.00
5588 35.6220 5522.00 5792.75 74.00
5589 35.6280 5500.00 5852.51 74.00
5590 35.6340 5561.00 5896.92 75.00
5591 35.6400 5503.00 5925.28 74.00
5592 35.6460 5416.00 5931.33 74.00
5593 35.6520 5388.00 5915.69 73.00
5594 35.6580 5403.00 5877.25 74.00
5595 35.6640 5400.00 5820.92 73.00
5596 35.6700 5295.00 5748.92 73.00
5597 35.6760 5173.00 5667.83 72.00
5598 35.6820 5111.00 5580.11 71.00
5599 35.6880 5026.00 5491.60 71.00
5600 35.6940 4983.00 5403.46 71.00
5601 35.7000 5012.00 5317.68 71.00
5602 35.7060 4889.00 5238.90 70.00
5603 35.7120 4788.00 5167.85 69.00
5604 35.7180 4768.00 5101.89 69.00
5605 35.7240 4814.00 5045.10 69.00
5606 35.7300 4832.00 4995.81 70.00
5607 35.7360 4707.00 4953.68 69.00
5608 35.7420 4741.00 4918.33 69.00
5609 35.7480 4796.00 4889.98 69.00
5610 35.7540 4721.00 4865.88 69.00
5611 35.7600 4684.00 4847.28 68.00
5612 35.7660 4705.00 4832.31 69.00
5613 35.7720 4598.00 4820.58 68.00
5614 35.7780 4643.00 4811.65 68.00
5615 35.7840 4633.00 4804.47 68.00
5616 35.7900 4674.00 4797.89 68.00
5617 35.7960 4661.00 4793.58 68.00
5618 35.8020 4695.00 4789.28 69.00
5619 35.8080 4690.00 4785.79 68.00
5620 35.8140 4672.00 4782.94 68.00
5621 35.8200 4655.00 4780.62 68.00
5622 35.8260 4675.00 4778.75 68.00
5623 35.8320 4711.00 4776.27 69.00
5624 35.8380 4713.00 4775.14 69.00
5625 35.8440 4732.00 4774.33 69.00
5626 35.8500 4682.00 4773.82 68.00
5627 35.8560 4676.00 4773.60 68.00
5628 35.8620 4622.00 4772.67 68.00
5629 35.8680 4714.00 4773.05 69.00
5630 35.8740 4771.00 4773.76 69.00
5631 35.8800 4759.00 4774.83 69.00
5632 35.8860 4763.00 4776.30 69.00
5633 35.8920 4696.00 4778.25 69.00
5634 35.8980 4796.00 4777.13 69.00
5635 35.9040 4874.00 4783.46 70.00
5636 35.9100 4742.00 4787.55 69.00
5637 35.9160 4683.00 4792.63 68.00
5638 35.9220 4645.00 4797.48 68.00
5639 35.9280 4594.00 4804.20 68.00
5640 35.9340 4681.00 4817.46 68.00
5641 35.9400 4734.00 4828.77 69.00
5642 35.9460 4766.00 4842.22 69.00
5643 35.9520 4802.00 4860.44 69.00
5644 35.9580 4865.00 4877.77 70.00
5645 35.9640 4885.00 4898.72 70.00
5646 35.9700 4966.00 4923.60 70.00
5647 35.9760 4987.00 4949.77 71.00
5648 35.9820 4868.00 4978.21 70.00
5649 35.9880 4931.00 5007.66 70.00
5650 35.9940 4912.00 5039.51 70.00
5651 36.0000 4903.00 5074.82 70.00
5652 36.0060 4846.00 5107.17 70.00
5653 36.0120 4931.00 5138.78 70.00
5654 36.0180 5070.00 5166.48 71.00
5655 36.0240 4961.00 5191.79 70.00
5656 36.0300 5050.00 5212.97 71.00
5657 36.0360 5114.00 5229.62 72.00
5658 36.0420 5065.00 5241.81 71.00
5659 36.0480 5032.00 5250.53 71.00
5660 36.0540 5033.00 5255.72 71.00
5661 36.0600 5068.00 5259.14 71.00
5662 36.0660 5085.00 5262.24 71.00
5663 36.0720 5085.00 5266.70 71.00
5664 36.0780 5136.00 5273.62 72.00
5665 36.0840 5106.00 5283.24 71.00
5666 36.0900 5178.00 5298.29 72.00
5667 36.0960 5272.00 5318.08 73.00
5668 36.1020 5292.00 5342.46 73.00
5669 36.1080 5290.00 5370.82 73.00
5670 36.1140 5439.00 5401.10 74.00
5671 36.1200 5573.00 5434.70 75.00
5672 36.1260 5445.00 5467.43 74.00
5673 36.1320 5552.00 5498.28 75.00
5674 36.1380 5437.00 5525.56 74.00
5675 36.1440 5510.00 5546.91 74.00
5676 36.1500 5572.00 5563.15 75.00
5677 36.1560 5485.00 5572.75 74.00
5678 36.1620 5515.00 5575.55 74.00
5679 36.1680 5531.00 5571.86 74.00
5680 36.1740 5520.00 5561.55 74.00
5681 36.1800 5658.00 5550.32 75.00
5682 36.1860 5506.00 5534.32 74.00
5683 36.1920 5513.00 5517.59 74.00
5684 36.1980 5494.00 5501.73 74.00
5685 36.2040 5514.00 5486.88 74.00
5686 36.2100 5633.00 5475.69 75.00
5687 36.2160 5648.00 5467.29 75.00
5688 36.2220 5676.00 5461.35 75.00
5689 36.2280 5725.00 5457.38 76.00
5690 36.2340 5544.00 5452.98 74.00
5691 36.2400 5503.00 5449.67 74.00
5692 36.2460 5524.00 5445.63 74.00
5693 36.2520 5455.00 5440.52 74.00
5694 36.2580 5461.00 5434.20 74.00
5695 36.2640 5421.00 5426.42 74.00
5696 36.2700 5406.00 5418.07 74.00
5697 36.2760 5422.00 5411.27 74.00
5698 36.2820 5386.00 5405.88 73.00
5699 36.2880 5478.00 5402.40 74.00
5700 36.2940 5445.00 5401.43 74.00
5701 36.3000 5473.00 5402.22 74.00
5702 36.3060 5478.00 5406.76 74.00
5703 36.3120 5435.00 5413.82 74.00
5704 36.3180 5534.00 5423.08 74.00
5705 36.3240 5694.00 5434.30 75.00
5706 36.3300 5620.00 5446.61 75.00
5707 36.3360 5398.00 5462.58 73.00
5708 36.3420 5434.00 5482.52 74.00
5709 36.3480 5394.00 5508.26 73.00
5710 36.3540 5403.00 5541.99 74.00
5711 36.3600 5723.00 5584.95 76.00
5712 36.3660 5754.00 5641.17 76.00
5713 36.3720 5777.00 5711.34 76.00
5714 36.3780 5831.00 5796.50 76.00
5715 36.3840 5891.00 5897.25 77.00
5716 36.3900 6037.00 6012.23 78.00
5717 36.3960 6062.00 6141.95 78.00
5718 36.4020 6411.00 6283.74 80.00
5719 36.4080 6626.00 6434.11 81.00
5720 36.4140 6746.00 6588.99 82.00
5721 36.4200 7041.00 6740.13 84.00
5722 36.4260 7223.00 6884.91 85.00
5723 36.4320 7275.00 7013.10 85.00
5724 36.4380 7424.00 7118.73 86.00
5725 36.4440 7403.00 7196.66 86.00
5726 36.4500 7305.00 7240.75 85.00
5727 36.4560 7300.00 7248.37 85.00
5728 36.4620 7178.00 7221.61 85.00
5729 36.4680 7357.00 7160.53 86.00
5730 36.4740 7084.00 7069.14 84.00
5731 36.4800 6969.00 6952.64 83.00
5732 36.4860 6898.00 6816.12 83.00
5733 36.4920 6764.00 6668.18 82.00
5734 36.4980 6643.00 6513.94 82.00
5735 36.5040 6454.00 6358.48 80.00
5736 36.5100 6488.00 6207.98 81.00
5737 36.5160 6298.00 6066.47 79.00
5738 36.5220 6139.00 5938.43 78.00
5739 36.5280 6137.00 5825.37 78.00
5740 36.5340 5939.00 5729.01 77.00
5741 36.5400 5917.00 5650.45 77.00
5742 36.5460 5982.00 5589.27 77.00
5743 36.5520 5774.00 5547.68 76.00
5744 36.5580 5849.00 5524.49 76.00
5745 36.5640 5887.00 5519.31 77.00
5746 36.5700 5666.00 5531.52 75.00
5747 36.5760 5654.00 5559.27 75.00
5748 36.5820 5675.00 5603.48 75.00
5749 36.5880 5758.00 5661.85 76.00
5750 36.5940 5750.00 5732.75 76.00
5751 36.6000 5795.00 5814.17 76.00
5752 36.6060 5818.00 5903.83 76.00
5753 36.6120 5964.00 5997.83 77.00
5754 36.6180 5987.00 6094.83 77.00
5755 36.6240 6017.00 6189.91 78.00
5756 36.6300 6218.00 6279.02 79.00
5757 36.6360 6268.00 6357.77 79.00
5758 36.6420 6190.00 6421.50 79.00
5759 36.6480 6190.00 6469.62 79.00
5760 36.6540 6150.00 6500.03 78.00
5761 36.6600 6171.00 6513.63 79.00
5762 36.6660 6035.00 6513.37 78.00
5763 36.6720 6025.00 6503.05 78.00
5764 36.6780 5952.00 6491.09 77.00
5765 36.6840 5934.00 6482.58 77.00
5766 36.6900 5904.00 6484.71 77.00
5767 36.6960 6019.00 6504.07 78.00
5768 36.7020 6091.00 6545.66 78.00
5769 36.7080 6333.00 6616.80 80.00
5770 36.7140 6454.00 6721.05 80.00
5771 36.7200 6594.00 6862.09 81.00
5772 36.7260 6982.00 7042.58 84.00
5773 36.7320 7185.00 7262.90 85.00
5774 36.7380 7809.00 7525.44 88.00
5775 36.7440 8063.00 7827.64 90.00
5776 36.7500 8556.00 8166.23 92.00
5777 36.7560 9143.00 8535.84 96.00
5778 36.7620 9781.00 8927.95 99.00
5779 36.7680 10222.00 9334.91 101.00
5780 36.7740 10684.00 9744.26 103.00
5781 36.7800 11004.00 10144.50 105.00
5782 36.7860 11266.00 10523.50 106.00
5783 36.7920 11778.00 10870.70 109.00
5784 36.7980 11605.00 11175.80 108.00
5785 36.8040 11683.00 11432.70 108.00
5786 36.8100 11847.00 11633.50 109.00
5787 36.8160 11741.00 11773.00 108.00
5788 36.8220 11737.00 11848.10 108.00
5789 36.8280 11309.00 11858.30 106.00
5790 36.8340 11157.00 11809.40 106.00
5791 36.8400 10891.00 11707.10 104.00
5792 36.8460 10937.00 11561.00 105.00
5793 36.8520 10692.00 11380.20 103.00
5794 36.8580 10780.00 11172.80 104.00
5795 36.8640 10532.00 10950.30 103.00
5796 36.8700 10442.00 10714.70 102.00
5797 36.8760 10291.00 10468.40 101.00
5798 36.8820 10287.00 10214.10 101.00
5799 36.8880 9700.00 9954.00 98.00
5800 36.8940 9800.00 9687.31 99.00
5801 36.9000 9462.00 9418.60 97.00
5802 36.9060 9336.00 9151.28 97.00
5803 36.9120 9062.00 8888.59 95.00
5804 36.9180 8776.00 8632.24 94.00
5805 36.9240 8754.00 8386.70 94.00
5806 36.9300 8635.00 8151.74 93.00
5807 36.9360 8491.00 7928.27 92.00
5808 36.9420 8104.00 7717.57 90.00
5809 36.9480 7788.00 7520.45 88.00
5810 36.9540 7982.00 7342.33 89.00
5811 36.9600 7798.00 7181.97 88.00
5812 36.9660 7586.00 7042.38 87.00
5813 36.9720 7403.00 6924.66 86.00
5814 36.9780 7221.00 6829.11 85.00
5815 36.9840 7251.00 6754.13 85.00
5816 36.9900 7323.00 6700.54 86.00
5817 36.9960 7010.00 6665.32 84.00
5818 37.0020 7238.00 6646.20 85.00
5819 37.0080 6998.00 6640.36 84.00
5820 37.0140 7058.00 6645.59 84.00
5821 37.0200 7114.00 6661.32 84.00
5822 37.0260 7486.00 6684.46 87.00
5823 37.0320 7541.00 6712.58 87.00
5824 37.0380 7707.00 6742.08 88.00
5825 37.0440 7968.00 6769.57 89.00
5826 37.0500 7940.00 6792.04 89.00
5827 37.0560 7918.00 6803.72 89.00
5828 37.0620 7866.00 6799.97 89.00
5829 37.0680 7542.00 6777.14 87.00
5830 37.0740 7585.00 6732.34 87.00
5831 37.0800 7537.00 6667.96 87.00
5832 37.0860 7117.00 6585.51 84.00
5833 37.0920 6860.00 6488.79 83.00
5834 37.0980 6700.00 6382.33 82.00
5835 37.1040 6565.00 6269.41 81.00
5836 37.1100 6303.00 6155.53 79.00
5837 37.1160 6235.00 6045.51 79.00
5838 37.1220 6132.00 5936.25 78.00
5839 37.1280 6028.00 5832.75 78.00
5840 37.1340 5914.00 5734.68 77.00
5841 37.1400 5548.00 5645.07 74.00
5842 37.1460 5776.00 5563.84 76.00
5843 37.1520 5778.00 5491.15 76.00
5844 37.1580 5502.00 5427.04 74.00
5845 37.1640 5511.00 5372.45 74.00
5846 37.1700 5507.00 5323.91 74.00
5847 37.1760 5443.00 5284.13 74.00
5848 37.1820 5659.00 5251.84 75.00
5849 37.1880 5549.00 5226.86 74.00
5850 37.1940 5368.00 5209.16 73.00
5851 37.2000 5607.00 5197.84 75.00
5852 37.2060 5613.00 5194.61 75.00
5853 37.2120 5329.00 5199.87 73.00
5854 37.2180 5417.00 5213.52 74.00
5855 37.2240 5607.00 5236.10 75.00
5856 37.2300 5501.00 5267.14 74.00
5857 37.2360 5560.00 5309.20 75.00
5858 37.2420 5650.00 5361.71 75.00
5859 37.2480 5670.00 5424.95 75.00
5860 37.2540 5787.00 5498.89 76.00
5861 37.2600 6013.00 5582.11 78.00
5862 37.2660 5936.00 5675.88 77.00
5863 37.2720 6076.00 5777.74 78.00
5864 37.2780 6102.00 5885.75 78.00
5865 37.2840 6267.00 5997.01 79.00
5866 37.2900 6358.00 6107.15 80.00
5867 37.2960 6369.00 6214.10 80.00
5868 37.3020 6448.00 6312.29 80.00
5869 37.3080 6487.00 6397.24 81.00
5870 37.3140 6834.00 6463.21 83.00
5871 37.3200 6451.00 6508.32 80.00
5872 37.3260 6468.00 6530.63 80.00
5873 37.3320 6327.00 6529.48 80.00
5874 37.3380 6554.00 6502.10 81.00
5875 37.3440 6348.00 6451.68 80.00
5876 37.3500 6344.00 6380.14 80.00
5877 37.3560 6190.00 6292.08 79.00
5878 37.3620 6098.00 6192.95 78.00
5879 37.3680 6010.00 6085.04 78.00
5880 37.3740 5975.00 5973.38 77.00
5881 37.3800 5956.00 5860.98 77.00
5882 37.3860 5849.00 5749.72 76.00
5883 37.3920 5782.00 5644.31 76.00
5884 37.3980 5680.00 5544.61 75.00
5885 37.4040 5674.00 5452.32 75.00
5886 37.4100 5538.00 5368.74 74.00
5887 37.4160 5407.00 5292.53 74.00
5888 37.4220 5457.00 5226.36 74.00
5889 37.4280 5526.00 5169.08 74.00
5890 37.4340 5219.00 5121.27 72.00
5891 37.4400 5235.00 5080.70 72.00
5892 37.4460 5240.00 5046.67 72.00
5893 37.4520 5247.00 5020.56 72.00
5894 37.4580 5247.00 5000.74 72.00
5895 37.4640 5216.00 4986.60 72.00
5896 37.4700 5129.00 4977.55 72.00
5897 37.4760 5226.00 4972.04 72.00
5898 37.4820 5083.00 4971.56 71.00
5899 37.4880 5021.00 4974.63 71.00
5900 37.4940 5161.00 4980.78 72.00
5901 37.5000 5220.00 4989.52 72.00
5902 37.5060 5068.00 4999.35 71.00
5903 37.5120 5159.00 5011.78 72.00
5904 37.5180 5387.00 5025.28 73.00
5905 37.5240 5129.00 5038.47 72.00
5906 37.5300 5220.00 5052.63 72.00
5907 37.5360 5138.00 5066.45 72.00
5908 37.5420 5273.00 5077.26 73.00
5909 37.5480 5308.00 5089.26 73.00
5910 37.5540 5375.00 5099.81 73.00
5911 37.5600 5355.00 5108.46 73.00
5912 37.5660 5196.00 5114.77 72.00
5913 37.5720 5240.00 5117.34 72.00
5914 37.5780 5120.00 5117.90 72.00
5915 37.5840 5250.00 5115.49 72.00
5916 37.5900 5045.00 5110.42 71.00
5917 37.5960 5181.00 5103.37 72.00
5918 37.6020 5183.00 5094.25 72.00
5919 37.6080 5093.00 5086.12 71.00
5920 37.6140 5004.00 5079.05 71.00
5921 37.6200 5038.00 5074.13 71.00
5922 37.6260 5125.00 5072.45 72.00
5923 37.6320 5158.00 5074.08 72.00
5924 37.6380 5140.00 5082.45 72.00
5925 37.6440 5125.00 5097.15 72.00
5926 37.6500 5080.00 5119.74 71.00
5927 37.6560 5182.00 5151.87 72.00
5928 37.6620 5215.00 5193.35 72.00
5929 37.6680 5328.00 5247.99 73.00
5930 37.6740 5310.00 5313.24 73.00
5931 37.6800 5323.00 5396.66 73.00
5932 37.6860 5380.00 5496.00 73.00
5933 37.6920 5603.00 5613.31 75.00
5934 37.6980 5674.00 5747.90 75.00
5935 37.7040 5988.00 5897.83 77.00
5936 37.7100 6186.00 6070.02 79.00
5937 37.7160 6394.00 6259.03 80.00
5938 37.7220 6775.00 6460.51 82.00
5939 37.7280 6861.00 6675.07 83.00
5940 37.7340 7182.00 6898.01 85.00
5941 37.7400 7460.00 7121.27 86.00
5942 37.7460 7703.00 7340.47 88.00
5943 37.7520 8156.00 7546.72 90.00
5944 37.7580 8069.00 7730.74 90.00
5945 37.7640 8281.00 7886.19 91.00
5946 37.7700 8415.00 8005.38 92.00
5947 37.7760 8622.00 8081.26 93.00
5948 37.7820 8305.00 8115.18 91.00
5949 37.7880 8191.00 8105.89 91.00
5950 37.7940 7998.00 8055.67 89.00
5951 37.8000 7700.00 7968.96 88.00
5952 37.8060 7591.00 7853.00 87.00
5953 37.8120 7457.00 7713.28 86.00
5954 37.8180 7417.00 7558.03 86.00
5955 37.8240 7167.00 7393.28 85.00
5956 37.8300 6927.00 7227.48 83.00
5957 37.8360 6889.00 7063.79 83.00
5958 37.8420 6720.00 6903.94 82.00
5959 37.8480 6716.00 6748.39 82.00
5960 37.8540 6416.00 6599.89 80.00
5961 37.8600 6468.00 6457.11 80.00
5962 37.8660 6289.00 6320.08 79.00
5963 37.8720 6071.00 6189.26 78.00
5964 37.8780 6071.00 6065.67 78.00
5965 37.8840 5940.00 5949.43 77.00
5966 37.8900 5863.00 5843.99 77.00
5967 37.8960 5791.00 5748.88 76.00
5968 37.9020 5771.00 5666.58 76.00
5969 37.9080 5457.00 5597.19 74.00
5970 37.9140 5457.00 5540.37 74.00
5971 37.9200 5429.00 5498.61 74.00
5972 37.9260 5417.00 5471.29 74.00
5973 37.9320 5506.00 5458.97 74.00
5974 37.9380 5527.00 5461.84 74.00
5975 37.9440 5441.00 5479.07 74.00
5976 37.9500 5598.00 5512.70 75.00
5977 37.9560 5688.00 5561.59 75.00
5978 37.9620 5708.00 5624.12 76.00
5979 37.9680 5672.00 5700.92 75.00
5980 37.9740 5648.00 5790.94 75.00
5981 37.9800 5707.00 5893.53 76.00
5982 37.9860 6057.00 6005.66 78.00
5983 37.9920 6160.00 6124.44 78.00
5984 37.9980 6285.00 6246.43 79.00
5985 38.0040 6393.00 6366.33 80.00
5986 38.0100 6571.00 6481.05 81.00
5987 38.0160 6644.00 6584.00 82.00
5988 38.0220 6643.00 6670.10 82.00
5989 38.0280 6572.00 6734.54 81.00
5990 38.0340 6725.00 6773.29 82.00
5991 38.0400 6779.00 6787.26 82.00
5992 38.0460 6787.00 6776.40 82.00
5993 38.0520 6768.00 6742.90 82.00
5994 38.0580 6595.00 6689.39 81.00
5995 38.0640 6792.00 6618.70 82.00
5996 38.0700 6621.00 6532.34 81.00
5997 38.0760 6378.00 6435.07 80.00
5998 38.0820 6278.00 6328.66 79.00
5999 38.0880 6310.00 6216.16 79.00
6000 38.0940 6272.00 6101.15 79.00
6001 38.1000 6037.00 5986.28 78.00
6002 38.1060 6057.00 5876.85 78.00
6003 38.1120 5933.00 5774.93 77.00
6004 38.1180 5974.00 5683.00 77.00
6005 38.1240 5868.00 5603.11 77.00
6006 38.1300 5703.00 5535.76 76.00
6007 38.1360 5722.00 5484.21 76.00
6008 38.1420 5849.00 5448.33 76.00
6009 38.1480 5721.00 5428.75 76.00
6010 38.1540 5760.00 5425.93 76.00
6011 38.1600 5757.00 5439.14 76.00
6012 38.1660 5648.00 5470.45 75.00
6013 38.1720 5727.00 5518.72 76.00
6014 38.1780 5880.00 5583.37 77.00
6015 38.1840 6011.00 5663.62 78.00
6016 38.1900 6030.00 5757.40 78.00
6017 38.1960 6268.00 5865.06 79.00
6018 38.2020 6433.00 5983.45 80.00
6019 38.2080 6498.00 6109.37 81.00
6020 38.2140 6707.00 6240.31 82.00
6021 38.2200 6854.00 6370.58 83.00
6022 38.2260 6931.00 6496.29 83.00
6023 38.2320 6919.00 6612.73 83.00
6024 38.2380 6917.00 6712.59 83.00
6025 38.2440 7109.00 6792.41 84.00
6026 38.2500 7137.00 6847.73 84.00
6027 38.2560 6954.00 6875.74 83.00
6028 38.2620 6740.00 6880.23 82.00
6029 38.2680 6816.00 6863.48 83.00
6030 38.2740 6812.00 6829.11 83.00
6031 38.2800 6758.00 6781.03 82.00
6032 38.2860 6915.00 6723.20 83.00
6033 38.2920 6651.00 6660.95 82.00
6034 38.2980 6617.00 6596.11 81.00
6035 38.3040 6609.00 6530.16 81.00
6036 38.3100 6568.00 6463.88 81.00
6037 38.3160 6469.00 6396.35 80.00
6038 38.3220 6474.00 6329.22 80.00
6039 38.3280 6431.00 6262.29 80.00
6040 38.3340 6227.00 6191.67 79.00
6041 38.3400 6116.00 6118.99 78.00
6042 38.3460 6005.00 6040.94 77.00
6043 38.3520 5981.00 5960.17 77.00
6044 38.3580 5936.00 5875.96 77.00
6045 38.3640 5796.00 5789.20 76.00
6046 38.3700 5833.00 5702.29 76.00
6047 38.3760 5667.00 5613.48 75.00
6048 38.3820 5496.00 5527.55 74.00
6049 38.3880 5474.00 5444.92 74.00
6050 38.3940 5325.00 5366.78 73.00
6051 38.4000 5355.00 5294.04 73.00
6052 38.4060 5328.00 5226.33 73.00
6053 38.4120 5289.00 5166.55 73.00
6054 38.4180 5193.00 5112.70 72.00
6055 38.4240 5105.00 5065.40 71.00
6056 38.4300 5159.00 5024.56 72.00
6057 38.4360 5125.00 4989.94 72.00
6058 38.4420 5052.00 4960.55 71.00
6059 38.4480 4979.00 4937.47 71.00
6060 38.4540 5031.00 4919.67 71.00
6061 38.4600 4998.00 4906.83 71.00
6062 38.4660 5027.00 4898.63 71.00
6063 38.4720 5003.00 4895.75 71.00
6064 38.4780 4984.00 4896.11 71.00
6065 38.4840 5015.00 4900.07 71.00
6066 38.4900 5044.00 4908.13 71.00
6067 38.4960 4975.00 4919.76 71.00
6068 38.5020 5028.00 4933.76 71.00
6069 38.5080 5098.00 4951.90 71.00
6070 38.5140 5030.00 4974.08 71.00
6071 38.5200 5029.00 4997.58 71.00
6072 38.5260 5094.00 5023.13 71.00
6073 38.5320 5155.00 5049.16 72.00
6074 38.5380 5113.00 5076.99 72.00
6075 38.5440 5098.00 5104.86 71.00
6076 38.5500 5156.00 5131.84 72.00
6077 38.5560 5243.00 5158.47 72.00
6078 38.5620 5158.00 5180.03 72.00
6079 38.5680 5213.00 5200.96 72.00
6080 38.5740 5390.00 5216.65 73.00
6081 38.5800 5378.00 5228.92 73.00
6082 38.5860 5405.00 5238.44 74.00
6083 38.5920 5328.00 5245.40 73.00
6084 38.5980 5255.00 5253.35 72.00
6085 38.6040 5254.00 5263.10 72.00
6086 38.6100 5307.00 5276.55 73.00
6087 38.6160 5417.00 5295.53 74.00
6088 38.6220 5569.00 5321.75 75.00
6089 38.6280 5588.00 5355.66 75.00
6090 38.6340 5526.00 5400.51 74.00
6091 38.6400 5721.00 5456.12 76.00
6092 38.6460 5887.00 5523.00 77.00
6093 38.6520 5946.00 5601.20 77.00
6094 38.6580 5931.00 5689.32 77.00
6095 38.6640 6072.00 5788.33 78.00
6096 38.6700 6252.00 5895.74 79.00
6097 38.6760 6372.00 6010.93 80.00
6098 38.6820 6368.00 6127.24 80.00
6099 38.6880 6353.00 6247.90 80.00
6100 38.6940 6440.00 6363.00 80.00
6101 38.7000 6661.00 6470.60 82.00
6102 38.7060 6809.00 6567.97 83.00
6103 38.7120 6718.00 6647.95 82.00
6104 38.7180 6595.00 6706.84 81.00
6105 38.7240 6590.00 6744.06 81.00
6106 38.7300 6578.00 6756.61 81.00
6107 38.7360 6441.00 6743.58 80.00
6108 38.7420 6460.00 6706.97 80.00
6109 38.7480 6549.00 6644.28 81.00
6110 38.7540 6394.00 6560.91 80.00
6111 38.7600 6271.00 6459.71 79.00
6112 38.7660 6163.00 6344.56 79.00
6113 38.7720 6122.00 6219.78 78.00
6114 38.7780 6077.00 6088.51 78.00
6115 38.7840 6036.00 5955.87 78.00
6116 38.7900 5959.00 5826.20 77.00
6117 38.7960 5789.00 5701.31 76.00
6118 38.8020 5694.00 5583.46 75.00
6119 38.8080 5708.00 5474.06 76.00
6120 38.8140 5575.00 5373.15 75.00
6121 38.8200 5471.00 5283.23 74.00
6122 38.8260 5465.00 5203.40 74.00
6123 38.8320 5483.00 5133.39 74.00
6124 38.8380 5415.00 5072.72 74.00
6125 38.8440 5333.00 5019.70 73.00
6126 38.8500 5270.00 4975.65 73.00
6127 38.8560 5196.00 4938.59 72.00
6128 38.8620 5163.00 4907.73 72.00
6129 38.8680 5054.00 4882.29 71.00
6130 38.8740 4902.00 4860.47 70.00
6131 38.8800 4828.00 4843.57 69.00
6132 38.8860 4917.00 4829.99 70.00
6133 38.8920 5122.00 4819.21 72.00
6134 38.8980 5209.00 4810.75 72.00
6135 38.9040 5129.00 4803.26 72.00
6136 38.9100 5041.00 4798.65 71.00
6137 38.9160 5029.00 4795.28 71.00
6138 38.9220 4990.00 4793.18 71.00
6139 38.9280 4872.00 4792.17 70.00
6140 38.9340 4929.00 4791.17 70.00
6141 38.9400 4973.00 4792.12 71.00
6142 38.9460 4868.00 4795.23 70.00
6143 38.9520 4844.00 4796.38 70.00
6144 38.9580 4910.00 4799.56 70.00
6145 38.9640 4981.00 4803.31 71.00
6146 38.9700 4927.00 4806.57 70.00
6147 38.9760 4861.00 4811.25 70.00
6148 38.9820 4941.00 4816.23 70.00
6149 38.9880 5037.00 4821.43 71.00
6150 38.9940 5015.00 4825.67 71.00
6151 39.0000 5032.00 4830.07 71.00
6152 39.0060 4982.00 4835.50 71.00
6153 39.0120 4903.00 4840.94 70.00
6154 39.0180 4917.00 4846.42 70.00
6155 39.0240 4932.00 4852.07 70.00
6156 39.0300 4911.00 4857.04 70.00
6157 39.0360 5045.00 4863.58 71.00
6158 39.0420 5031.00 4870.94 71.00
6159 39.0480 4922.00 4879.42 70.00
6160 39.0540 4941.00 4889.33 70.00
6161 39.0600 5032.00 4899.96 71.00
6162 39.0660 5103.00 4913.58 71.00
6163 39.0720 5169.00 4929.48 72.00
6164 39.0780 5139.00 4947.92 72.00
6165 39.0840 5136.00 4969.12 72.00
6166 39.0900 5225.00 4992.32 72.00
6167 39.0960 5278.00 5019.75 73.00
6168 39.1020 5270.00 5050.62 73.00
6169 39.1080 5323.00 5085.18 73.00
6170 39.1140 5301.00 5124.37 73.00
6171 39.1200 5332.00 5166.10 73.00
6172 39.1260 5454.00 5213.32 74.00
6173 39.1320 5469.00 5265.34 74.00
6174 39.1380 5422.00 5322.37 74.00
6175 39.1440 5439.00 5384.69 74.00
6176 39.1500 5426.00 5452.55 74.00
6177 39.1560 5465.00 5525.20 74.00
6178 39.1620 5545.00 5605.04 74.00
6179 39.1680 5681.00 5692.00 75.00
6180 39.1740 5821.00 5781.88 76.00
6181 39.1800 5880.00 5880.78 77.00
6182 39.1860 6006.00 5984.25 77.00
6183 39.1920 6092.00 6093.21 78.00
6184 39.1980 6226.00 6205.15 79.00
6185 39.2040 6435.00 6318.81 80.00
6186 39.2100 6320.00 6431.26 79.00
6187 39.2160 6301.00 6541.00 79.00
6188 39.2220 6479.00 6648.85 80.00
6189 39.2280 6620.00 6753.33 81.00
6190 39.2340 6735.00 6854.24 82.00
6191 39.2400 6781.00 6950.91 82.00
6192 39.2460 7057.00 7042.29 84.00
6193 39.2520 7261.00 7128.64 85.00
6194 39.2580 7251.00 7206.39 85.00
6195 39.2640 7314.00 7273.86 86.00
6196 39.2700 7504.00 7328.29 87.00
6197 39.2760 7433.00 7367.03 86.00
6198 39.2820 7308.00 7390.53 85.00
6199 39.2880 7415.00 7399.94 86.00
6200 39.2940 7603.00 7395.82 87.00
6201 39.3000 7617.00 7380.11 87.00
6202 39.3060 7300.00 7354.02 85.00
6203 39.3120 7256.00 7321.83 85.00
6204 39.3180 7149.00 7284.87 85.00
6205 39.3240 7023.00 7245.59 84.00
6206 39.3300 7031.00 7206.92 84.00
6207 39.3360 7124.00 7170.89 84.00
6208 39.3420 7029.00 7139.27 84.00
6209 39.3480 6950.00 7116.20 83.00
6210 39.3540 7000.00 7102.30 84.00
6211 39.3600 6928.00 7098.71 83.00
6212 39.3660 7085.00 7106.13 84.00
6213 39.3720 7171.00 7124.07 85.00
6214 39.3780 7184.00 7153.67 85.00
6215 39.3840 7302.00 7193.46 85.00
6216 39.3900 7524.00 7242.04 87.00
6217 39.3960 7469.00 7297.51 86.00
6218 39.4020 7506.00 7356.51 87.00
6219 39.4080 7555.00 7418.45 87.00
6220 39.4140 7657.00 7479.85 88.00
6221 39.4200 7559.00 7538.54 87.00
6222 39.4260 7610.00 7593.47 87.00
6223 39.4320 7681.00 7643.24 88.00
6224 39.4380 7573.00 7690.35 87.00
6225 39.4440 7637.00 7734.61 87.00
6226 39.4500 7678.00 7776.70 88.00
6227 39.4560 7727.00 7816.94 88.00
6228 39.4620 7781.00 7854.13 88.00
6229 39.4680 7747.00 7889.79 88.00
6230 39.4740 7792.00 7922.26 88.00
6231 39.4800 7608.00 7950.67 87.00
6232 39.4860 7715.00 7973.88 88.00
6233 39.4920 7747.00 7989.33 88.00
6234 39.4980 7662.00 7996.84 88.00
6235 39.5040 7648.00 7994.14 87.00
6236 39.5100 7722.00 7979.73 88.00
6237 39.5160 7764.00 7953.53 88.00
6238 39.5220 7578.00 7918.52 87.00
6239 39.5280 7675.00 7877.85 88.00
6240 39.5340 7743.00 7839.91 88.00
6241 39.5400 7530.00 7811.19 87.00
6242 39.5460 7503.00 7799.56 87.00
6243 39.5520 7653.00 7812.42 87.00
6244 39.5580 7963.00 7855.31 89.00
6245 39.5640 8074.00 7935.55 90.00
6246 39.5700 8310.00 8055.92 91.00
6247 39.5760 8535.00 8219.73 92.00
6248 39.5820 8768.00 8424.72 94.00
6249 39.5880 9235.00 8669.72 96.00
6250 39.5940 9217.00 8952.94 96.00
6251 39.6000 9700.00 9267.48 98.00
6252 39.6060 10248.00 9606.08 101.00
6253 39.6120 10658.00 9956.72 103.00
6254 39.6180 11354.00 10306.20 107.00
6255 39.6240 11515.00 10641.90 107.00
6256 39.6300 11624.00 10947.40 108.00
6257 39.6360 11786.00 11207.10 109.00
6258 39.6420 11723.00 11406.40 108.00
6259 39.6480 11756.00 11535.30 108.00
6260 39.6540 11408.00 11586.30 107.00
6261 39.6600 11595.00 11558.40 108.00
6262 39.6660 11032.00 11453.50 105.00
6263 39.6720 11047.00 11275.60 105.00
6264 39.6780 10576.00 11035.30 103.00
6265 39.6840 10283.00 10742.40 101.00
6266 39.6900 9867.00 10408.40 99.00
6267 39.6960 9608.00 10042.80 98.00
6268 39.7020 9452.00 9655.64 97.00
6269 39.7080 9077.00 9257.08 95.00
6270 39.7140 8612.00 8855.48 93.00
6271 39.7200 8298.00 8461.21 91.00
6272 39.7260 8020.00 8080.86 90.00
6273 39.7320 7575.00 7720.88 87.00
6274 39.7380 7438.00 7385.66 86.00
6275 39.7440 7395.00 7077.69 86.00
6276 39.7500 7050.00 6800.91 84.00
6277 39.7560 6756.00 6555.17 82.00
6278 39.7620 6534.00 6340.36 81.00
6279 39.7680 6470.00 6155.74 80.00
6280 39.7740 6367.00 5999.19 80.00
6281 39.7800 6324.00 5871.07 80.00
6282 39.7860 6095.00 5768.85 78.00
6283 39.7920 5876.00 5690.87 77.00
6284 39.7980 6123.00 5635.52 78.00
6285 39.8040 6003.00 5600.24 77.00
6286 39.8100 5969.00 5585.59 77.00
6287 39.8160 5859.00 5589.16 77.00
6288 39.8220 5884.00 5609.59 77.00
6289 39.8280 5990.00 5645.52 77.00
6290 39.8340 5767.00 5694.48 76.00
6291 39.8400 5823.00 5756.85 76.00
6292 39.8460 6193.00 5829.83 79.00
6293 39.8520 6267.00 5911.17 79.00
6294 39.8580 6420.00 5998.43 80.00
6295 39.8640 6680.00 6088.69 82.00
6296 39.8700 6969.00 6177.76 83.00
6297 39.8760 7138.00 6263.93 84.00
6298 39.8820 7251.00 6342.13 85.00
6299 39.8880 7532.00 6408.05 87.00
6300 39.8940 7335.00 6457.37 86.00
6301 39.9000 7391.00 6485.23 86.00
6302 39.9060 7282.00 6490.83 85.00
6303 39.9120 7180.00 6471.94 85.00
6304 39.9180 7084.00 6429.18 84.00
6305 39.9240 6968.00 6365.00 83.00
6306 39.9300 6701.00 6282.21 82.00
6307 39.9360 6446.00 6187.32 80.00
6308 39.9420 6186.00 6084.05 79.00
6309 39.9480 6055.00 5976.75 78.00
6310 39.9540 6089.00 5869.34 78.00
6311 39.9600 5753.00 5763.94 76.00
6312 39.9660 5878.00 5665.19 77.00
6313 39.9720 5732.00 5574.31 76.00
6314 39.9780 5556.00 5492.81 75.00
6315 39.9840 5545.00 5421.77 74.00
6316 39.9900 5313.00 5361.00 73.00
6317 39.9960 5262.00 5312.85 73.00
6318 40.0020 5406.00 5276.35 74.00
6319 40.0080 5331.00 5251.30 73.00
6320 40.0140 5374.00 5237.28 73.00
6321 40.0200 5107.00 5232.69 71.00
6322 40.0260 5258.00 5238.75 73.00
6323 40.0320 5298.00 5253.54 73.00
6324 40.0380 5264.00 5276.00 73.00
6325 40.0440 5316.00 5304.97 73.00
6326 40.0500 5333.00 5339.10 73.00
6327 40.0560 5427.00 5375.86 74.00
6328 40.0620 5442.00 5416.20 74.00
6329 40.0680 5584.00 5456.60 75.00
6330 40.0740 5602.00 5495.95 75.00
6331 40.0800 5558.00 5532.84 75.00
6332 40.0860 5484.00 5565.89 74.00
6333 40.0920 5521.00 5595.51 74.00
6334 40.0980 5538.00 5620.74 74.00
6335 40.1040 5564.00 5641.96 75.00
6336 40.1100 5738.00 5658.83 76.00
6337 40.1160 5508.00 5670.04 74.00
6338 40.1220 5613.00 5677.09 75.00
6339 40.1280 5470.00 5679.40 74.00
6340 40.1340 5485.00 5674.36 74.00
6341 40.1400 5726.00 5662.65 76.00
6342 40.1460 5535.00 5643.19 74.00
6343 40.1520 5469.00 5618.22 74.00
6344 40.1580 5464.00 5586.52 74.00
6345 40.1640 5508.00 5550.01 74.00
6346 40.1700 5468.00 5508.14 74.00
6347 40.1760 5422.00 5461.92 74.00
6348 40.1820 5391.00 5413.80 73.00
6349 40.1880 5253.00 5364.01 72.00
6350 40.1940 5126.00 5314.41 72.00
6351 40.2000 5105.00 5265.28 71.00
6352 40.2060 5172.00 5217.41 72.00
6353 40.2120 5210.00 5173.85 72.00
6354 40.2180 5095.00 5132.98 71.00
6355 40.2240 5096.00 5098.44 71.00
6356 40.2300 5102.00 5069.30 71.00
6357 40.2360 5123.00 5044.59 72.00
6358 40.2420 5011.00 5025.59 71.00
6359 40.2480 5028.00 5012.62 71.00
6360 40.2540 5073.00 5004.69 71.00
6361 40.2600 5061.00 5001.40 71.00
6362 40.2660 5085.00 5002.20 71.00
6363 40.2720 5129.00 5004.19 72.00
6364 40.2780 5183.00 5010.95 72.00
6365 40.2840 5105.00 5019.36 71.00
6366 40.2900 5026.00 5028.44 71.00
6367 40.2960 5030.00 5037.25 71.00
6368 40.3020 5058.00 5044.01 71.00
6369 40.3080 5092.00 5049.28 71.00
6370 40.3140 5093.00 5052.82 71.00
6371 40.3200 5077.00 5053.71 71.00
6372 40.3260 4986.00 5052.22 71.00
6373 40.3320 5107.00 5046.86 71.00
6374 40.3380 4953.00 5039.13 70.00
6375 40.3440 4890.00 5028.14 70.00
6376 40.3500 4845.00 5014.92 70.00
6377 40.3560 4883.00 4999.39 70.00
6378 40.3620 4911.00 4981.08 70.00
6379 40.3680 4901.00 4962.65 70.00
6380 40.3740 4763.00 4941.88 69.00
6381 40.3800 4777.00 4923.33 69.00
6382 40.3860 4875.00 4905.80 70.00
6383 40.3920 4782.00 4888.76 69.00
6384 40.3980 4732.00 4874.78 69.00
6385 40.4040 4763.00 4863.35 69.00
6386 40.4100 4758.00 4853.88 69.00
6387 40.4160 4723.00 4847.81 69.00
6388 40.4220 4777.00 4844.34 69.00
6389 40.4280 4692.00 4845.51 68.00
6390 40.4340 4731.00 4852.23 69.00
6391 40.4400 4822.00 4862.85 69.00
6392 40.4460 4868.00 4879.98 70.00
6393 40.4520 4859.00 4902.09 70.00
6394 40.4580 4779.00 4931.63 69.00
6395 40.4640 4875.00 4966.38 70.00
6396 40.4700 4934.00 5010.01 70.00
6397 40.4760 4965.00 5058.52 70.00
6398 40.4820 5044.00 5117.33 71.00
6399 40.4880 5074.00 5182.88 71.00
6400 40.4940 5170.00 5256.97 72.00
6401 40.5000 5402.00 5337.63 73.00
6402 40.5060 5369.00 5425.31 73.00
6403 40.5120 5549.00 5517.42 74.00
6404 40.5180 5673.00 5614.61 75.00
6405 40.5240 5868.00 5713.03 77.00
6406 40.5300 6073.00 5812.59 78.00
6407 40.5360 6303.00 5908.70 79.00
6408 40.5420 6191.00 6000.59 79.00
6409 40.5480 6283.00 6083.56 79.00
6410 40.5540 6424.00 6157.30 80.00
6411 40.5600 6340.00 6218.25 80.00
6412 40.5660 6355.00 6267.52 80.00
6413 40.5720 6323.00 6304.06 80.00
6414 40.5780 6469.00 6328.12 80.00
6415 40.5840 6375.00 6342.77 80.00
6416 40.5900 6458.00 6346.44 80.00
6417 40.5960 6479.00 6344.72 80.00
6418 40.6020 6428.00 6331.34 80.00
6419 40.6080 6343.00 6318.01 80.00
6420 40.6140 6269.00 6298.50 79.00
6421 40.6200 6296.00 6272.84 79.00
6422 40.6260 6164.00 6239.38 79.00
6423 40.6320 6107.00 6202.29 78.00
6424 40.6380 6111.00 6156.27 78.00
6425 40.6440 5939.00 6102.72 77.00
6426 40.6500 5960.00 6039.46 77.00
6427 40.6560 5960.00 5968.87 77.00
6428 40.6620 5704.00 5887.71 76.00
6429 40.6680 5708.00 5803.51 76.00
6430 40.6740 5680.00 5713.86 75.00
6431 40.6800 5554.00 5622.65 75.00
6432 40.6860 5513.00 5529.75 74.00
6433 40.6920 5500.00 5438.90 74.00
6434 40.6980 5476.00 5349.62 74.00
6435 40.7040 5296.00 5265.44 73.00
6436 40.7100 5233.00 5185.88 72.00
6437 40.7160 5149.00 5110.88 72.00
6438 40.7220 5069.00 5043.40 71.00
6439 40.7280 4814.00 4980.49 69.00
6440 40.7340 4781.00 4924.70 69.00
6441 40.7400 4615.00 4874.01 68.00
6442 40.7460 4836.00 4829.95 70.00
6443 40.7520 4823.00 4790.23 69.00
6444 40.7580 4824.00 4756.70 69.00
6445 40.7640 4768.00 4726.43 69.00
6446 40.7700 4548.00 4701.45 67.00
6447 40.7760 4806.00 4678.78 69.00
6448 40.7820 4669.00 4660.37 68.00
6449 40.7880 4755.00 4643.53 69.00
6450 40.7940 4495.00 4630.02 67.00
6451 40.8000 4710.00 4617.47 69.00
6452 40.8060 4519.00 4607.62 67.00
6453 40.8120 4598.00 4598.19 68.00
6454 40.8180 4528.00 4590.98 67.00
6455 40.8240 4598.00 4583.80 68.00
6456 40.8300 4623.00 4578.50 68.00
6457 40.8360 4662.00 4572.77 68.00
6458 40.8420 4526.00 4568.91 67.00
6459 40.8480 4484.00 4564.64 67.00
6460 40.8540 4509.00 4561.92 67.00
6461 40.8600 4454.00 4559.71 67.00
6462 40.8660 4516.00 4556.92 67.00
6463 40.8720 4529.00 4554.30 67.00
6464 40.8780 4518.00 4551.51 67.00
6465 40.8840 4454.00 4551.31 67.00
6466 40.8900 4534.00 4550.66 67.00
6467 40.8960 4444.00 4551.62 67.00
6468 40.9020 4591.00 4552.29 68.00
6469 40.9080 4581.00 4554.74 68.00
6470 40.9140 4558.00 4557.13 68.00
6471 40.9200 4448.00 4562.46 67.00
6472 40.9260 4522.00 4568.23 67.00
6473 40.9320 4530.00 4575.49 67.00
6474 40.9380 4555.00 4584.52 67.00
6475 40.9440 4477.00 4596.57 67.00
6476 40.9500 4531.00 4609.97 67.00
6477 40.9560 4500.00 4626.04 67.00
6478 40.9620 4516.00 4646.12 67.00
6479 40.9680 4505.00 4668.55 67.00
6480 40.9740 4740.00 4694.65 69.00
6481 40.9800 4601.00 4724.73 68.00
6482 40.9860 4746.00 4760.04 69.00
6483 40.9920 4799.00 4798.78 69.00
6484 40.9980 4778.00 4842.00 69.00
6485 41.0040 4798.00 4890.72 69.00
6486 41.0100 4848.00 4942.72 70.00
6487 41.0160 5026.00 4998.74 71.00
6488 41.0220 5077.00 5058.21 71.00
6489 41.0280 5207.00 5121.38 72.00
6490 41.0340 5207.00 5185.24 72.00
6491 41.0400 5266.00 5249.61 73.00
6492 41.0460 5306.00 5314.09 73.00
6493 41.0520 5323.00 5374.54 73.00
6494 41.0580 5367.00 5432.07 73.00
6495 41.0640 5454.00 5485.72 74.00
6496 41.0700 5535.00 5532.57 74.00
6497 41.0760 5659.00 5573.30 75.00
6498 41.0820 5499.00 5607.41 74.00
6499 41.0880 5578.00 5635.22 75.00
6500 41.0940 5668.00 5655.16 75.00
6501 41.1000 5484.00 5668.23 74.00
6502 41.1060 5450.00 5674.67 74.00
6503 41.1120 5427.00 5673.96 74.00
6504 41.1180 5547.00 5666.52 74.00
6505 41.1240 5335.00 5652.83 73.00
6506 41.1300 5404.00 5634.81 74.00
6507 41.1360 5364.00 5611.73 73.00
6508 41.1420 5518.00 5586.07 74.00
6509 41.1480 5483.00 5560.21 74.00
6510 41.1540 5311.00 5533.48 73.00
6511 41.1600 5355.00 5507.70 73.00
6512 41.1660 5201.00 5483.32 72.00
6513 41.1720 5194.00 5461.46 72.00
6514 41.1780 5200.00 5440.81 72.00
6515 41.1840 5314.00 5420.45 73.00
6516 41.1900 5262.00 5401.96 73.00
6517 41.1960 5177.00 5383.22 72.00
6518 41.2020 5146.00 5365.20 72.00
6519 41.2080 5019.00 5350.17 71.00
6520 41.2140 5001.00 5333.71 71.00
6521 41.2200 5061.00 5318.03 71.00
6522 41.2260 5087.00 5303.11 71.00
6523 41.2320 5074.00 5289.95 71.00
6524 41.2380 4980.00 5276.67 71.00
6525 41.2440 5017.00 5264.51 71.00
6526 41.2500 5013.00 5254.89 71.00
6527 41.2560 4787.00 5246.29 69.00
6528 41.2620 4856.00 5240.16 70.00
6529 41.2680 4898.00 5236.84 70.00
6530 41.2740 4914.00 5237.45 70.00
6531 41.2800 4956.00 5239.53 70.00
6532 41.2860 5039.00 5244.29 71.00
6533 41.2920 5067.00 5252.20 71.00
6534 41.2980 4971.00 5259.26 71.00
6535 41.3040 4965.00 5265.86 70.00
6536 41.3100 5067.00 5271.80 71.00
6537 41.3160 4976.00 5273.98 71.00
6538 41.3220 4954.00 5272.55 70.00
6539 41.3280 4937.00 5267.77 70.00
6540 41.3340 4967.00 5259.45 70.00
6541 41.3400 4951.00 5246.87 70.00
6542 41.3460 4991.00 5232.12 71.00
6543 41.3520 4987.00 5217.54 71.00
6544 41.3580 4918.00 5202.53 70.00
6545 41.3640 4752.00 5189.50 69.00
6546 41.3700 4829.00 5179.48 69.00
6547 41.3760 4867.00 5174.44 70.00
6548 41.3820 4884.00 5173.09 70.00
6549 41.3880 4876.00 5176.70 70.00
6550 41.3940 4980.00 5186.46 71.00
6551 41.4000 4959.00 5200.18 70.00
6552 41.4060 5062.00 5219.23 71.00
6553 41.4120 5089.00 5242.27 71.00
6554 41.4180 5034.00 5267.08 71.00
6555 41.4240 5217.00 5293.82 72.00
6556 41.4300 5233.00 5320.93 72.00
6557 41.4360 5247.00 5347.07 72.00
6558 41.4420 5373.00 5369.39 73.00
6559 41.4480 5378.00 5387.49 73.00
6560 41.4540 5172.00 5401.06 72.00
6561 41.4600 4910.00 5407.05 70.00
6562 41.4660 4865.00 5405.88 70.00
6563 41.4720 5111.00 5396.63 71.00
6564 41.4780 5165.00 5380.52 72.00
6565 41.4840 5131.00 5355.88 72.00
6566 41.4900 5005.00 5324.29 71.00
6567 41.4960 4865.00 5287.90 70.00
6568 41.5020 4877.00 5244.88 70.00
6569 41.5080 4847.00 5197.59 70.00
6570 41.5140 4788.00 5148.18 69.00
6571 41.5200 4785.00 5095.81 69.00
6572 41.5260 4867.00 5042.77 70.00
6573 41.5320 4783.00 4989.96 69.00
6574 41.5380 4690.00 4938.35 68.00
6575 41.5440 4691.00 4889.45 68.00
6576 41.5500 4594.00 4843.86 68.00
6577 41.5560 4632.00 4802.20 68.00
6578 41.5620 4650.00 4763.52 68.00
6579 41.5680 4493.00 4727.88 67.00
6580 41.5740 4520.00 4696.93 67.00
6581 41.5800 4517.00 4671.08 67.00
6582 41.5860 4526.00 4648.34 67.00
6583 41.5920 4451.00 4629.66 67.00
6584 41.5980 4509.00 4616.03 67.00
6585 41.6040 4508.00 4605.41 67.00
6586 41.6100 4487.00 4598.79 67.00
6587 41.6160 4535.00 4595.59 67.00
6588 41.6220 4583.00 4597.94 68.00
6589 41.6280 4494.00 4602.68 67.00
6590 41.6340 4499.00 4612.06 67.00
6591 41.6400 4496.00 4626.50 67.00
6592 41.6460 4525.00 4643.54 67.00
6593 41.6520 4667.00 4665.17 68.00
6594 41.6580 4672.00 4691.58 68.00
6595 41.6640 4622.00 4721.13 68.00
6596 41.6700 4557.00 4754.38 68.00
6597 41.6760 4592.00 4791.06 68.00
6598 41.6820 4709.00 4831.73 69.00
6599 41.6880 4783.00 4873.77 69.00
6600 41.6940 4805.00 4917.43 69.00
6601 41.7000 4925.00 4962.78 70.00
6602 41.7060 5047.00 5006.73 71.00
6603 41.7120 5016.00 5049.22 71.00
6604 41.7180 5020.00 5088.54 71.00
6605 41.7240 5088.00 5124.66 71.00
6606 41.7300 5080.00 5154.45 71.00
6607 41.7360 5067.00 5177.98 71.00
6608 41.7420 5046.00 5195.64 71.00
6609 41.7480 5138.00 5205.08 72.00
6610 41.7540 5121.00 5207.19 72.00
6611 41.7600 5006.00 5203.09 71.00
6612 41.7660 4987.00 5191.04 71.00
6613 41.7720 4875.00 5172.50 70.00
6614 41.7780 4823.00 5148.11 69.00
6615 41.7840 4928.00 5119.72 70.00
6616 41.7900 4923.00 5086.39 70.00
6617 41.7960 4762.00 5050.34 69.00
6618 41.8020 4627.00 5013.93 68.00
6619 41.8080 4662.00 4976.45 68.00
6620 41.8140 4665.00 4940.23 68.00
6621 41.8200 4652.00 4906.45 68.00
6622 41.8260 4657.00 4877.13 68.00
6623 41.8320 4639.00 4851.15 68.00
6624 41.8380 4628.00 4830.02 68.00
6625 41.8440 4716.00 4815.23 69.00
6626 41.8500 4679.00 4805.03 68.00
6627 41.8560 4622.00 4800.42 68.00
6628 41.8620 4684.00 4802.28 68.00
6629 41.8680 4687.00 4808.30 68.00
6630 41.8740 4742.00 4818.97 69.00
6631 41.8800 4742.00 4833.64 69.00
6632 41.8860 4696.00 4852.46 69.00
6633 41.8920 4809.00 4872.42 69.00
6634 41.8980 4815.00 4893.38 69.00
6635 41.9040 4828.00 4914.99 69.00
6636 41.9100 4898.00 4933.82 70.00
6637 41.9160 4869.00 4949.41 70.00
6638 41.9220 4870.00 4960.42 70.00
6639 41.9280 4848.00 4966.78 70.00
6640 41.9340 4798.00 4965.90 69.00
6641 41.9400 4754.00 4958.69 69.00
6642 41.9460 4693.00 4946.64 69.00
6643 41.9520 4726.00 4928.71 69.00
6644 41.9580 4660.00 4907.17 68.00
6645 41.9640 4570.00 4884.51 68.00
6646 41.9700 4602.00 4859.88 68.00
6647 41.9760 4573.00 4835.69 68.00
6648 41.9820 4504.00 4813.09 67.00
6649 41.9880 4463.00 4794.05 67.00
6650 41.9940 4473.00 4777.58 67.00
6651 42.0000 4471.00 4765.04 67.00
6652 42.0060 4454.00 4758.14 67.00
6653 42.0120 4495.00 4755.26 67.00
6654 42.0180 4524.00 4757.67 67.00
6655 42.0240 4527.00 4765.49 67.00
6656 42.0300 4498.00 4779.72 67.00
6657 42.0360 4443.00 4798.23 67.00
6658 42.0420 4364.00 4821.78 66.00
6659 42.0480 4426.00 4851.01 67.00
6660 42.0540 4487.00 4883.02 67.00
6661 42.0600 4503.00 4919.00 67.00
6662 42.0660 4576.00 4957.93 68.00
6663 42.0720 4659.00 4999.36 68.00
6664 42.0780 4661.00 5041.58 68.00
6665 42.0840 4620.00 5084.15 68.00
6666 42.0900 4611.00 5127.38 68.00
6667 42.0960 4704.00 5168.77 69.00
6668 42.1020 4729.00 5209.25 69.00
6669 42.1080 4821.00 5250.11 69.00
6670 42.1140 4891.00 5289.96 70.00
6671 42.1200 4996.00 5329.68 71.00
6672 42.1260 5010.00 5372.12 71.00
6673 42.1320 4972.00 5417.94 71.00
6674 42.1380 5086.00 5465.59 71.00
6675 42.1440 5187.00 5516.04 72.00
6676 42.1500 5166.00 5570.03 72.00
6677 42.1560 5262.00 5624.69 73.00
6678 42.1620 5449.00 5680.05 74.00
6679 42.1680 5455.00 5734.88 74.00
6680 42.1740 5362.00 5788.80 73.00
6681 42.1800 5419.00 5839.24 74.00
6682 42.1860 5561.00 5883.33 75.00
6683 42.1920 5609.00 5922.47 75.00
6684 42.1980 5623.00 5953.47 75.00
6685 42.2040 5686.00 5974.29 75.00
6686 42.2100 5592.00 5985.78 75.00
6687 42.2160 5629.00 5985.37 75.00
6688 42.2220 5601.00 5974.46 75.00
6689 42.2280 5542.00 5952.94 74.00
6690 42.2340 5537.00 5923.90 74.00
6691 42.2400 5469.00 5886.19 74.00
6692 42.2460 5389.00 5844.28 73.00
6693 42.2520 5485.00 5801.39 74.00
6694 42.2580 5444.00 5758.47 74.00
6695 42.2640 5548.00 5717.84 74.00
6696 42.2700 5520.00 5681.74 74.00
6697 42.2760 5494.00 5652.42 74.00
6698 42.2820 5541.00 5628.70 74.00
6699 42.2880 5592.00 5611.78 75.00
6700 42.2940 5591.00 5602.43 75.00
6701 42.3000 5606.00 5598.08 75.00
6702 42.3060 5608.00 5598.76 75.00
6703 42.3120 5594.00 5604.62 75.00
6704 42.3180 5588.00 5612.50 75.00
6705 42.3240 5673.00 5621.92 75.00
6706 42.3300 5788.00 5632.79 76.00
6707 42.3360 5665.00 5644.39 75.00
6708 42.3420 5577.00 5654.96 75.00
6709 42.3480 5738.00 5664.64 76.00
6710 42.3540 5762.00 5674.39 76.00
6711 42.3600 5770.00 5682.54 76.00
6712 42.3660 5847.00 5690.76 76.00
6713 42.3720 5925.00 5699.90 77.00
6714 42.3780 5910.00 5711.85 77.00
6715 42.3840 5852.00 5725.26 76.00
6716 42.3900 5923.00 5741.45 77.00
6717 42.3960 5998.00 5762.68 77.00
6718 42.4020 5969.00 5784.08 77.00
6719 42.4080 6074.00 5806.81 78.00
6720 42.4140 6012.00 5830.67 78.00
6721 42.4200 5974.00 5852.00 77.00
6722 42.4260 6011.00 5870.67 78.00
6723 42.4320 6091.00 5884.04 78.00
6724 42.4380 5961.00 5891.89 77.00
6725 42.4440 5908.00 5891.45 77.00
6726 42.4500 5817.00 5883.22 76.00
6727 42.4560 5714.00 5867.97 76.00
6728 42.4620 5861.00 5844.13 77.00
6729 42.4680 5926.00 5813.66 77.00
6730 42.4740 5801.00 5777.01 76.00
6731 42.4800 5581.00 5738.24 75.00
6732 42.4860 5513.00 5695.99 74.00
6733 42.4920 5559.00 5652.58 75.00
6734 42.4980 5627.00 5610.11 75.00
6735 42.5040 5530.00 5567.45 74.00
6736 42.5100 5626.00 5525.79 75.00
6737 42.5160 5472.00 5486.46 74.00
6738 42.5220 5445.00 5450.28 74.00
6739 42.5280 5573.00 5415.39 75.00
6740 42.5340 5540.00 5382.80 74.00
6741 42.5400 5559.00 5353.36 75.00
6742 42.5460 5592.00 5324.75 75.00
6743 42.5520 5632.00 5297.47 75.00
6744 42.5580 5580.00 5271.75 75.00
6745 42.5640 5463.00 5246.44 74.00
6746 42.5700 5457.00 5218.12 74.00
6747 42.5760 5483.00 5187.57 74.00
6748 42.5820 5360.00 5155.12 73.00
6749 42.5880 5378.00 5118.33 73.00
6750 42.5940 5221.00 5078.17 72.00
6751 42.6000 5345.00 5036.05 73.00
6752 42.6060 5208.00 4991.61 72.00
6753 42.6120 5061.00 4944.71 71.00
6754 42.6180 5060.00 4897.32 71.00
6755 42.6240 5064.00 4851.48 71.00
6756 42.6300 4924.00 4805.92 70.00
6757 42.6360 4799.00 4762.42 69.00
6758 42.6420 4791.00 4722.60 69.00
6759 42.6480 4764.00 4685.45 69.00
6760 42.6540 4731.00 4651.12 69.00
6761 42.6600 4806.00 4621.39 69.00
6762 42.6660 4728.00 4594.28 69.00
6763 42.6720 4665.00 4570.77 68.00
6764 42.6780 4565.00 4550.70 68.00
6765 42.6840 4581.00 4534.88 68.00
6766 42.6900 4672.00 4520.99 68.00
6767 42.6960 4790.00 4509.72 69.00
6768 42.7020 4736.00 4501.68 69.00
6769 42.7080 4555.00 4494.84 67.00
6770 42.7140 4559.00 4489.03 68.00
6771 42.7200 4505.00 4484.16 67.00
6772 42.7260 4527.00 4480.69 67.00
6773 42.7320 4498.00 4476.36 67.00
6774 42.7380 4530.00 4471.68 67.00
6775 42.7440 4349.00 4467.06 66.00
6776 42.7500 4376.00 4460.59 66.00
6777 42.7560 4381.00 4453.47 66.00
6778 42.7620 4485.00 4446.47 67.00
6779 42.7680 4364.00 4437.85 66.00
6780 42.7740 4327.00 4428.63 66.00
6781 42.7800 4520.00 4418.88 67.00
6782 42.7860 4410.00 4410.38 66.00
6783 42.7920 4344.00 4400.80 66.00
6784 42.7980 4368.00 4391.90 66.00
6785 42.8040 4450.00 4384.52 67.00
6786 42.8100 4350.00 4376.63 66.00
6787 42.8160 4319.00 4369.58 66.00
6788 42.8220 4479.00 4363.26 67.00
6789 42.8280 4306.00 4358.67 66.00
6790 42.8340 4335.00 4353.77 66.00
6791 42.8400 4396.00 4349.51 66.00
6792 42.8460 4357.00 4346.80 66.00
6793 42.8520 4341.00 4343.55 66.00
6794 42.8580 4157.00 4340.99 64.00
6795 42.8640 4298.00 4339.42 66.00
6796 42.8700 4371.00 4337.10 66.00
6797 42.8760 4369.00 4335.02 66.00
6798 42.8820 4270.00 4333.53 65.00
6799 42.8880 4247.00 4333.06 65.00
6800 42.8940 4254.00 4332.04 65.00
6801 42.9000 4294.00 4331.51 66.00
6802 42.9060 4389.00 4332.61 66.00
6803 42.9120 4295.00 4333.43 66.00
6804 42.9180 4312.00 4336.07 66.00
6805 42.9240 4417.00 4338.61 66.00
6806 42.9300 4175.00 4343.09 65.00
6807 42.9360 4305.00 4348.54 66.00
6808 42.9420 4301.00 4353.96 66.00
6809 42.9480 4256.00 4361.56 65.00
6810 42.9540 4285.00 4368.99 65.00
6811 42.9600 4426.00 4377.07 67.00
6812 42.9660 4363.00 4387.03 66.00
6813 42.9720 4271.00 4396.24 65.00
6814 42.9780 4399.00 4407.01 66.00
6815 42.9840 4355.00 4417.50 66.00
6816 42.9900 4426.00 4426.72 67.00
6817 42.9960 4525.00 4436.34 67.00
6818 43.0020 4355.00 4445.11 66.00
6819 43.0080 4359.00 4451.71 66.00
6820 43.0140 4448.00 4457.94 67.00
6821 43.0200 4430.00 4462.62 67.00
6822 43.0260 4525.00 4465.12 67.00
6823 43.0320 4469.00 4466.62 67.00
6824 43.0380 4416.00 4466.68 66.00
6825 43.0440 4400.00 4464.55 66.00
6826 43.0500 4460.00 4462.57 67.00
6827 43.0560 4377.00 4459.16 66.00
6828 43.0620 4410.00 4456.81 66.00
6829 43.0680 4478.00 4455.04 67.00
6830 43.0740 4376.00 4453.36 66.00
6831 43.0800 4418.00 4454.31 66.00
6832 43.0860 4366.00 4457.44 66.00
6833 43.0920 4374.00 4462.22 66.00
6834 43.0980 4357.00 4471.20 66.00
6835 43.1040 4483.00 4483.92 67.00
6836 43.1100 4418.00 4499.90 66.00
6837 43.1160 4453.00 4521.35 67.00
6838 43.1220 4513.00 4547.97 67.00
6839 43.1280 4563.00 4579.79 68.00
6840 43.1340 4567.00 4618.85 68.00
6841 43.1400 4575.00 4663.51 68.00
6842 43.1460 4604.00 4716.03 68.00
6843 43.1520 4858.00 4775.59 70.00
6844 43.1580 4863.00 4841.23 70.00
6845 43.1640 4806.00 4914.81 69.00
6846 43.1700 4956.00 4994.92 70.00
6847 43.1760 5164.00 5080.07 72.00
6848 43.1820 5201.00 5171.35 72.00
6849 43.1880 5204.00 5266.71 72.00
6850 43.1940 5317.00 5362.99 73.00
6851 43.2000 5475.00 5461.47 74.00
6852 43.2060 5648.00 5557.55 75.00
6853 43.2120 5712.00 5650.88 76.00
6854 43.2180 5819.00 5737.90 76.00
6855 43.2240 5716.00 5815.17 76.00
6856 43.2300 5699.00 5881.48 75.00
6857 43.2360 5917.00 5935.61 77.00
6858 43.2420 5799.00 5974.76 76.00
6859 43.2480 5755.00 5999.79 76.00
6860 43.2540 5839.00 6008.15 76.00
6861 43.2600 5714.00 6001.91 76.00
6862 43.2660 5852.00 5982.86 76.00
6863 43.2720 5691.00 5950.68 75.00
6864 43.2780 5402.00 5905.82 73.00
6865 43.2840 5458.00 5851.69 74.00
6866 43.2900 5290.00 5788.04 73.00
6867 43.2960 5304.00 5718.63 73.00
6868 43.3020 5502.00 5644.63 74.00
6869 43.3080 5375.00 5566.53 73.00
6870 43.3140 5170.00 5488.55 72.00
6871 43.3200 5217.00 5411.63 72.00
6872 43.3260 5074.00 5336.68 71.00
6873 43.3320 5226.00 5267.44 72.00
6874 43.3380 5216.00 5204.48 72.00
6875 43.3440 5161.00 5147.64 72.00
6876 43.3500 5109.00 5101.04 71.00
6877 43.3560 5172.00 5062.91 72.00
6878 43.3620 5097.00 5035.78 71.00
6879 43.3680 5229.00 5018.88 72.00
6880 43.3740 5196.00 5011.19 72.00
6881 43.3800 5140.00 5013.48 72.00
6882 43.3860 5244.00 5026.22 72.00
6883 43.3920 5178.00 5046.47 72.00
6884 43.3980 5261.00 5075.34 73.00
6885 43.4040 5309.00 5110.57 73.00
6886 43.4100 5508.00 5149.65 74.00
6887 43.4160 5504.00 5192.82 74.00
6888 43.4220 5500.00 5237.05 74.00
6889 43.4280 5506.00 5279.25 74.00
6890 43.4340 5402.00 5319.08 73.00
6891 43.4400 5543.00 5352.34 74.00
6892 43.4460 5471.00 5379.18 74.00
6893 43.4520 5424.00 5397.08 74.00
6894 43.4580 5417.00 5404.16 74.00
6895 43.4640 5380.00 5401.48 73.00
6896 43.4700 5326.00 5390.14 73.00
6897 43.4760 5250.00 5369.45 72.00
6898 43.4820 5220.00 5343.39 72.00
6899 43.4880 5185.00 5311.65 72.00
6900 43.4940 5157.00 5275.89 72.00
6901 43.5000 5136.00 5241.22 72.00
6902 43.5060 4864.00 5207.94 70.00
6903 43.5120 4885.00 5178.67 70.00
6904 43.5180 5070.00 5155.03 71.00
6905 43.5240 5080.00 5137.66 71.00
6906 43.5300 5095.00 5129.68 71.00
6907 43.5360 5143.00 5131.67 72.00
6908 43.5420 5142.00 5143.13 72.00
6909 43.5480 5288.00 5166.52 73.00
6910 43.5540 5144.00 5200.93 72.00
6911 43.5600 5149.00 5244.84 72.00
6912 43.5660 5241.00 5300.60 72.00
6913 43.5720 5257.00 5365.33 73.00
6914 43.5780 5468.00 5437.16 74.00
6915 43.5840 5671.00 5516.15 75.00
6916 43.5900 5603.00 5598.39 75.00
6917 43.5960 5670.00 5683.08 75.00
6918 43.6020 5816.00 5766.55 76.00
6919 43.6080 5890.00 5844.80 77.00
6920 43.6140 5872.00 5917.45 77.00
6921 43.6200 5975.00 5979.81 77.00
6922 43.6260 5867.00 6029.62 77.00
6923 43.6320 5831.00 6067.21 76.00
6924 43.6380 5921.00 6091.62 77.00
6925 43.6440 5872.00 6101.96 77.00
6926 43.6500 6035.00 6099.62 78.00
6927 43.6560 5890.00 6084.81 77.00
6928 43.6620 6016.00 6057.37 78.00
6929 43.6680 5661.00 6020.38 75.00
6930 43.6740 5736.00 5973.19 76.00
6931 43.6800 5792.00 5918.93 76.00
6932 43.6860 5742.00 5858.21 76.00
6933 43.6920 5538.00 5791.48 74.00
6934 43.6980 5435.00 5722.14 74.00
6935 43.7040 5583.00 5650.49 75.00
6936 43.7100 5578.00 5576.66 75.00
6937 43.7160 5563.00 5503.78 75.00
6938 43.7220 5458.00 5432.00 74.00
6939 43.7280 5448.00 5361.23 74.00
6940 43.7340 5375.00 5294.35 73.00
6941 43.7400 5286.00 5229.91 73.00
6942 43.7460 5153.00 5170.31 72.00
6943 43.7520 5177.00 5114.59 72.00
6944 43.7580 5181.00 5061.69 72.00
6945 43.7640 5112.00 5013.46 71.00
6946 43.7700 4968.00 4968.63 70.00
6947 43.7760 5083.00 4926.04 71.00
6948 43.7820 4971.00 4887.57 71.00
6949 43.7880 4967.00 4852.03 70.00
6950 43.7940 4823.00 4818.76 69.00
6951 43.8000 4742.00 4789.60 69.00
6952 43.8060 4747.00 4763.91 69.00
6953 43.8120 4702.00 4739.88 69.00
6954 43.8180 4763.00 4719.76 69.00
6955 43.8240 4795.00 4701.42 69.00
6956 43.8300 4757.00 4686.74 69.00
6957 43.8360 4556.00 4674.81 67.00
6958 43.8420 4549.00 4664.32 67.00
6959 43.8480 4638.00 4657.48 68.00
6960 43.8540 4648.00 4653.38 68.00
6961 43.8600 4598.00 4651.12 68.00
6962 43.8660 4680.00 4653.51 68.00
6963 43.8720 4721.00 4657.98 69.00
6964 43.8780 4590.00 4664.42 68.00
6965 43.8840 4717.00 4674.15 69.00
6966 43.8900 4636.00 4685.09 68.00
6967 43.8960 4597.00 4698.79 68.00
6968 43.9020 4549.00 4713.76 67.00
6969 43.9080 4710.00 4728.40 69.00
6970 43.9140 4801.00 4744.07 69.00
6971 43.9200 4728.00 4759.30 69.00
6972 43.9260 4684.00 4772.54 68.00
6973 43.9320 4673.00 4785.43 68.00
6974 43.9380 4764.00 4796.76 69.00
6975 43.9440 4758.00 4805.49 69.00
6976 43.9500 4823.00 4813.77 69.00
6977 43.9560 4758.00 4820.91 69.00
6978 43.9620 4812.00 4826.31 69.00
6979 43.9680 4884.00 4832.45 70.00
6980 43.9740 4850.00 4837.81 70.00
6981 43.9800 4887.00 4844.76 70.00
6982 43.9860 4865.00 4852.54 70.00
6983 43.9920 4731.00 4860.25 69.00
6984 43.9980 4727.00 4869.69 69.00
6985 44.0040 4799.00 4879.57 69.00
6986 44.0100 4716.00 4888.37 69.00
6987 44.0160 4886.00 4897.49 70.00
6988 44.0220 4789.00 4905.31 69.00
6989 44.0280 4864.00 4910.01 70.00
6990 44.0340 4645.00 4913.57 68.00
6991 44.0400 4677.00 4913.92 68.00
6992 44.0460 4633.00 4909.60 68.00
6993 44.0520 4681.00 4902.88 68.00
6994 44.0580 4734.00 4891.75 69.00
6995 44.0640 4811.00 4878.63 69.00
6996 44.0700 4779.00 4862.66 69.00
6997 44.0760 4728.00 4843.03 69.00
6998 44.0820 4789.00 4821.77 69.00
6999 44.0880 4610.00 4798.36 68.00
7000 44.0940 4535.00 4771.78 67.00
7001 44.1000 4571.00 4744.31 68.00
7002 44.1060 4532.00 4715.30 67.00
7003 44.1120 4540.00 4684.23 67.00
7004 44.1180 4460.00 4653.70 67.00
7005 44.1240 4429.00 4622.29 67.00
7006 44.1300 4376.00 4592.62 66.00
7007 44.1360 4333.00 4564.20 66.00
7008 44.1420 4392.00 4536.54 66.00
7009 44.1480 4285.00 4511.95 65.00
7010 44.1540 4381.00 4489.77 66.00
7011 44.1600 4387.00 4469.25 66.00
7012 44.1660 4311.00 4452.57 66.00
7013 44.1720 4313.00 4438.93 66.00
7014 44.1780 4406.00 4427.48 66.00
7015 44.1840 4313.00 4420.71 66.00
7016 44.1900 4314.00 4417.05 66.00
7017 44.1960 4338.00 4416.20 66.00
7018 44.2020 4425.00 4419.76 67.00
7019 44.2080 4427.00 4426.03 67.00
7020 44.2140 4375.00 4437.14 66.00
7021 44.2200 4376.00 4451.87 66.00
7022 44.2260 4455.00 4469.69 67.00
7023 44.2320 4405.00 4491.63 66.00
7024 44.2380 4470.00 4516.96 67.00
7025 44.2440 4507.00 4544.42 67.00
7026 44.2500 4467.00 4575.59 67.00
7027 44.2560 4488.00 4609.26 67.00
7028 44.2620 4541.00 4643.83 67.00
7029 44.2680 4625.00 4680.87 68.00
7030 44.2740 4610.00 4717.71 68.00
7031 44.2800 4701.00 4755.70 69.00
7032 44.2860 4849.00 4792.40 70.00
7033 44.2920 4758.00 4827.11 69.00
7034 44.2980 4859.00 4859.33 70.00
7035 44.3040 4795.00 4888.61 69.00
7036 44.3100 5018.00 4911.99 71.00
7037 44.3160 4904.00 4930.46 70.00
7038 44.3220 4896.00 4942.26 70.00
7039 44.3280 4942.00 4945.39 70.00
7040 44.3340 4828.00 4942.60 69.00
7041 44.3400 4702.00 4933.36 69.00
7042 44.3460 4691.00 4916.96 68.00
7043 44.3520 4743.00 4896.26 69.00
7044 44.3580 4667.00 4870.19 68.00
7045 44.3640 4619.00 4841.30 68.00
7046 44.3700 4661.00 4810.38 68.00
7047 44.3760 4573.00 4776.86 68.00
7048 44.3820 4626.00 4743.56 68.00
7049 44.3880 4602.00 4710.24 68.00
7050 44.3940 4576.00 4676.74 68.00
7051 44.4000 4546.00 4645.43 67.00
7052 44.4060 4522.00 4616.04 67.00
7053 44.4120 4549.00 4588.03 67.00
7054 44.4180 4470.00 4563.96 67.00
7055 44.4240 4488.00 4541.83 67.00
7056 44.4300 4420.00 4524.03 66.00
7057 44.4360 4321.00 4509.66 66.00
7058 44.4420 4367.00 4497.82 66.00
7059 44.4480 4437.00 4490.51 67.00
7060 44.4540 4472.00 4486.73 67.00
7061 44.4600 4537.00 4485.46 67.00
7062 44.4660 4439.00 4488.73 67.00
7063 44.4720 4427.00 4495.57 67.00
7064 44.4780 4513.00 4505.06 67.00
7065 44.4840 4475.00 4519.31 67.00
7066 44.4900 4415.00 4537.38 66.00
7067 44.4960 4500.00 4558.38 67.00
7068 44.5020 4533.00 4584.32 67.00
7069 44.5080 4577.00 4612.66 68.00
7070 44.5140 4598.00 4645.69 68.00
7071 44.5200 4609.00 4682.91 68.00
7072 44.5260 4708.00 4722.41 69.00
7073 44.5320 4776.00 4765.71 69.00
7074 44.5380 4938.00 4810.70 70.00
7075 44.5440 4964.00 4856.72 70.00
7076 44.5500 4825.00 4904.42 69.00
7077 44.5560 4866.00 4951.91 70.00
7078 44.5620 4942.00 4997.26 70.00
7079 44.5680 4928.00 5041.63 70.00
7080 44.5740 4944.00 5083.22 70.00
7081 44.5800 4995.00 5120.52 71.00
7082 44.5860 5058.00 5155.24 71.00
7083 44.5920 5115.00 5185.46 72.00
7084 44.5980 5186.00 5213.63 72.00
7085 44.6040 5265.00 5239.60 73.00
7086 44.6100 5189.00 5262.56 72.00
7087 44.6160 5249.00 5286.21 72.00
7088 44.6220 5290.00 5309.60 73.00
7089 44.6280 5317.00 5333.06 73.00
7090 44.6340 5260.00 5358.38 73.00
7091 44.6400 5291.00 5385.11 73.00
7092 44.6460 5448.00 5411.78 74.00
7093 44.6520 5589.00 5440.12 75.00
7094 44.6580 5583.00 5467.50 75.00
7095 44.6640 5599.00 5495.13 75.00
7096 44.6700 5549.00 5521.04 74.00
7097 44.6760 5579.00 5543.19 75.00
7098 44.6820 5527.00 5562.36 74.00
7099 44.6880 5455.00 5574.90 74.00
7100 44.6940 5526.00 5581.30 74.00
7101 44.7000 5411.00 5580.96 74.00
7102 44.7060 5323.00 5572.16 73.00
7103 44.7120 5395.00 5552.93 73.00
7104 44.7180 5307.00 5525.32 73.00
7105 44.7240 5298.00 5488.60 73.00
7106 44.7300 5278.00 5441.48 73.00
7107 44.7360 5108.00 5389.08 71.00
7108 44.7420 5045.00 5329.71 71.00
7109 44.7480 5093.00 5266.82 71.00
7110 44.7540 5085.00 5201.34 71.00
7111 44.7600 5042.00 5133.31 71.00
7112 44.7660 4944.00 5066.33 70.00
7113 44.7720 4876.00 5000.20 70.00
7114 44.7780 4853.00 4936.30 70.00
7115 44.7840 4860.00 4877.09 70.00
7116 44.7900 4864.00 4822.48 70.00
7117 44.7960 4729.00 4772.23 69.00
7118 44.8020 4670.00 4728.95 68.00
7119 44.8080 4760.00 4691.37 69.00
7120 44.8140 4746.00 4661.20 69.00
7121 44.8200 4712.00 4637.92 69.00
7122 44.8260 4798.00 4620.60 69.00
7123 44.8320 4895.00 4611.20 70.00
7124 44.8380 4872.00 4608.19 70.00
7125 44.8440 4925.00 4611.13 70.00
7126 44.8500 4975.00 4621.29 71.00
7127 44.8560 4952.00 4637.11 70.00
7128 44.8620 5007.00 4657.18 71.00
7129 44.8680 5144.00 4683.00 72.00
7130 44.8740 5165.00 4712.50 72.00
7131 44.8800 5153.00 4744.02 72.00
7132 44.8860 5167.00 4778.64 72.00
7133 44.8920 5187.00 4813.40 72.00
7134 44.8980 5248.00 4849.38 72.00
7135 44.9040 5236.00 4884.40 72.00
7136 44.9100 5232.00 4917.01 72.00
7137 44.9160 5262.00 4948.20 73.00
7138 44.9220 5256.00 4976.16 72.00
7139 44.9280 5115.00 4999.10 72.00
7140 44.9340 5059.00 5018.24 71.00
7141 44.9400 5047.00 5031.79 71.00
7142 44.9460 5033.00 5038.00 71.00
7143 44.9520 4983.00 5038.25 71.00
7144 44.9580 4947.00 5031.18 70.00
7145 44.9640 4957.00 5015.74 70.00
7146 44.9700 4871.00 4994.34 70.00
7147 44.9760 4766.00 4965.77 69.00
7148 44.9820 4739.00 4933.19 69.00
7149 44.9880 4690.00 4896.94 68.00
7150 44.9940 4716.00 4857.22 69.00
7151 45.0000 4693.00 4818.09 69.00
7152 45.0060 4607.00 4779.67 68.00
7153 45.0120 4613.00 4742.14 68.00
7154 45.0180 4557.00 4708.24 68.00
7155 45.0240 4524.00 4678.48 67.00
7156 45.0300 4464.00 4652.12 67.00
7157 45.0360 4457.00 4631.78 67.00
7158 45.0420 4521.00 4615.72 67.00
7159 45.0480 4512.00 4606.10 67.00
7160 45.0540 4576.00 4601.92 68.00
7161 45.0600 4649.00 4602.05 68.00
7162 45.0660 4646.00 4608.10 68.00
7163 45.0720 4589.00 4618.64 68.00
7164 45.0780 4629.00 4632.09 68.00
7165 45.0840 4687.00 4650.34 68.00
7166 45.0900 4779.00 4670.23 69.00
7167 45.0960 4848.00 4690.51 70.00
7168 45.1020 4790.00 4711.92 69.00
7169 45.1080 4844.00 4732.36 70.00
7170 45.1140 4926.00 4749.41 70.00
7171 45.1200 4936.00 4764.10 70.00
7172 45.1260 4835.00 4773.78 70.00
7173 45.1320 4877.00 4779.81 70.00
7174 45.1380 4988.00 4779.90 71.00
7175 45.1440 4939.00 4773.62 70.00
7176 45.1500 4788.00 4763.04 69.00
7177 45.1560 4746.00 4748.08 69.00
7178 45.1620 4745.00 4728.73 69.00
7179 45.1680 4726.00 4708.14 69.00
7180 45.1740 4733.00 4686.10 69.00
7181 45.1800 4710.00 4663.57 69.00
7182 45.1860 4639.00 4643.18 68.00
7183 45.1920 4605.00 4624.15 68.00
7184 45.1980 4529.00 4608.65 67.00
7185 45.2040 4516.00 4596.81 67.00
7186 45.2100 4484.00 4587.74 67.00
7187 45.2160 4456.00 4583.97 67.00
7188 45.2220 4577.00 4584.71 68.00
7189 45.2280 4596.00 4589.02 68.00
7190 45.2340 4673.00 4598.79 68.00
7191 45.2400 4685.00 4612.74 68.00
7192 45.2460 4730.00 4629.48 69.00
7193 45.2520 4658.00 4650.44 68.00
7194 45.2580 4631.00 4673.88 68.00
7195 45.2640 4727.00 4697.95 69.00
7196 45.2700 4729.00 4723.67 69.00
7197 45.2760 4691.00 4748.00 68.00
7198 45.2820 4640.00 4771.89 68.00
7199 45.2880 4690.00 4793.29 68.00
7200 45.2940 4638.00 4810.41 68.00
7201 45.3000 4670.00 4824.47 68.00
7202 45.3060 4778.00 4833.97 69.00
7203 45.3120 4735.00 4837.60 69.00
7204 45.3180 4625.00 4837.26 68.00
7205 45.3240 4549.00 4831.93 67.00
7206 45.3300 4581.00 4820.87 68.00
7207 45.3360 4530.00 4806.48 67.00
7208 45.3420 4676.00 4787.29 68.00
7209 45.3480 4739.00 4765.84 69.00
7210 45.3540 4662.00 4741.97 68.00
7211 45.3600 4538.00 4715.26 67.00
7212 45.3660 4533.00 4688.31 67.00
7213 45.3720 4532.00 4660.53 67.00
7214 45.3780 4459.00 4631.39 67.00
7215 45.3840 4434.00 4603.17 67.00
7216 45.3900 4259.00 4575.22 65.00
7217 45.3960 4266.00 4546.85 65.00
7218 45.4020 4398.00 4519.98 66.00
7219 45.4080 4448.00 4494.91 67.00
7220 45.4140 4408.00 4470.24 66.00
7221 45.4200 4303.00 4448.55 66.00
7222 45.4260 4275.00 4427.82 65.00
7223 45.4320 4274.00 4410.58 65.00
7224 45.4380 4290.00 4396.06 65.00
7225 45.4440 4261.00 4382.93 65.00
7226 45.4500 4203.00 4372.92 65.00
7227 45.4560 4273.00 4365.14 65.00
7228 45.4620 4307.00 4358.40 66.00
7229 45.4680 4263.00 4354.39 65.00
7230 45.4740 4277.00 4351.82 65.00
7231 45.4800 4242.00 4349.32 65.00
7232 45.4860 4239.00 4348.51 65.00
7233 45.4920 4290.00 4347.96 65.00
7234 45.4980 4295.00 4346.33 66.00
7235 45.5040 4288.00 4345.25 65.00
7236 45.5100 4275.00 4342.45 65.00
7237 45.5160 4323.00 4339.73 66.00
7238 45.5220 4270.00 4336.00 65.00
7239 45.5280 4181.00 4330.26 65.00
7240 45.5340 4235.00 4324.63 65.00
7241 45.5400 4247.00 4318.30 65.00
7242 45.5460 4288.00 4310.55 65.00
7243 45.5520 4194.00 4303.58 65.00
7244 45.5580 4224.00 4296.99 65.00
7245 45.5640 4181.00 4290.04 65.00
7246 45.5700 4159.00 4285.14 64.00
7247 45.5760 4188.00 4280.60 65.00
7248 45.5820 4128.00 4278.80 64.00
7249 45.5880 4252.00 4279.09 65.00
7250 45.5940 4172.00 4280.79 65.00
7251 45.6000 4158.00 4286.21 64.00
7252 45.6060 4217.00 4294.66 65.00
7253 45.6120 4235.00 4306.35 65.00
7254 45.6180 4296.00 4320.53 66.00
7255 45.6240 4339.00 4339.43 66.00
7256 45.6300 4271.00 4362.10 65.00
7257 45.6360 4393.00 4388.66 66.00
7258 45.6420 4491.00 4418.26 67.00
7259 45.6480 4467.00 4452.58 67.00
7260 45.6540 4538.00 4490.18 67.00
7261 45.6600 4604.00 4531.78 68.00
7262 45.6660 4661.00 4575.28 68.00
7263 45.6720 4682.00 4622.38 68.00
7264 45.6780 4806.00 4671.38 69.00
7265 45.6840 4772.00 4720.76 69.00
7266 45.6900 4768.00 4771.13 69.00
7267 45.6960 4786.00 4819.64 69.00
7268 45.7020 4838.00 4867.13 70.00
7269 45.7080 4859.00 4911.38 70.00
7270 45.7140 5032.00 4951.24 71.00
7271 45.7200 5118.00 4984.63 72.00
7272 45.7260 4973.00 5012.74 71.00
7273 45.7320 5014.00 5034.04 71.00
7274 45.7380 5060.00 5048.36 71.00
7275 45.7440 4973.00 5054.58 71.00
7276 45.7500 5000.00 5055.77 71.00
7277 45.7560 4982.00 5051.13 71.00
7278 45.7620 4879.00 5041.76 70.00
7279 45.7680 4945.00 5027.35 70.00
7280 45.7740 4979.00 5011.00 71.00
7281 45.7800 4841.00 4992.31 70.00
7282 45.7860 5018.00 4971.93 71.00
7283 45.7920 4726.00 4949.32 69.00
7284 45.7980 4860.00 4925.81 70.00
7285 45.8040 4734.00 4902.75 69.00
7286 45.8100 4825.00 4879.39 69.00
7287 45.8160 4849.00 4855.21 70.00
7288 45.8220 4737.00 4831.49 69.00
7289 45.8280 4610.00 4809.00 68.00
7290 45.8340 4718.00 4787.43 69.00
7291 45.8400 4758.00 4766.24 69.00
7292 45.8460 4637.00 4747.23 68.00
7293 45.8520 4681.00 4729.69 68.00
7294 45.8580 4633.00 4713.50 68.00
7295 45.8640 4627.00 4697.87 68.00
7296 45.8700 4618.00 4684.54 68.00
7297 45.8760 4643.00 4672.39 68.00
7298 45.8820 4578.00 4661.34 68.00
7299 45.8880 4570.00 4650.26 68.00
7300 45.8940 4517.00 4641.07 67.00
7301 45.9000 4560.00 4632.64 68.00
7302 45.9060 4541.00 4624.78 67.00
7303 45.9120 4537.00 4616.26 67.00
7304 45.9180 4512.00 4608.78 67.00
7305 45.9240 4597.00 4601.28 68.00
7306 45.9300 4457.00 4592.98 67.00
7307 45.9360 4533.00 4583.64 67.00
7308 45.9420 4560.00 4573.79 68.00
7309 45.9480 4576.00 4562.60 68.00
7310 45.9540 4326.00 4550.24 66.00
7311 45.9600 4399.00 4535.63 66.00
7312 45.9660 4309.00 4520.76 66.00
7313 45.9720 4435.00 4504.84 67.00
7314 45.9780 4456.00 4487.78 67.00
7315 45.9840 4397.00 4468.29 66.00
7316 45.9900 4273.00 4448.84 65.00
7317 45.9960 4305.00 4428.71 66.00
7318 46.0020 4259.00 4407.78 65.00
7319 46.0080 4355.00 4386.16 66.00
7320 46.0140 4355.00 4366.23 66.00
7321 46.0200 4340.00 4346.59 66.00
7322 46.0260 4222.00 4327.96 65.00
7323 46.0320 4307.00 4309.49 66.00
7324 46.0380 4145.00 4293.77 64.00
7325 46.0440 4162.00 4279.87 65.00
7326 46.0500 4261.00 4267.99 65.00
7327 46.0560 4298.00 4257.34 66.00
7328 46.0620 4193.00 4249.71 65.00
7329 46.0680 4246.00 4245.02 65.00
7330 46.0740 4126.00 4243.36 64.00
7331 46.0800 4388.00 4243.24 66.00
7332 46.0860 4344.00 4247.72 66.00
7333 46.0920 4325.00 4254.77 66.00
7334 46.0980 4333.00 4265.39 66.00
7335 46.1040 4301.00 4278.11 66.00
7336 46.1100 4220.00 4295.34 65.00
7337 46.1160 4402.00 4316.16 66.00
7338 46.1220 4498.00 4340.62 67.00
7339 46.1280 4463.00 4367.71 67.00
7340 46.1340 4309.00 4399.44 66.00
7341 46.1400 4469.00 4434.69 67.00
7342 46.1460 4614.00 4473.30 68.00
7343 46.1520 4658.00 4513.97 68.00
7344 46.1580 4803.00 4558.54 69.00
7345 46.1640 4781.00 4605.16 69.00
7346 46.1700 4967.00 4653.38 70.00
7347 46.1760 4869.00 4701.53 70.00
7348 46.1820 5068.00 4750.69 71.00
7349 46.1880 4929.00 4798.88 70.00
7350 46.1940 5043.00 4845.02 71.00
7351 46.2000 5213.00 4887.88 72.00
7352 46.2060 5114.00 4926.87 72.00
7353 46.2120 5023.00 4961.90 71.00
7354 46.2180 5111.00 4990.40 71.00
7355 46.2240 5089.00 5011.92 71.00
7356 46.2300 5271.00 5029.12 73.00
7357 46.2360 5204.00 5039.38 72.00
7358 46.2420 5167.00 5044.47 72.00
7359 46.2480 5230.00 5043.86 72.00
7360 46.2540 5050.00 5037.60 71.00
7361 46.2600 5029.00 5027.84 71.00
7362 46.2660 5156.00 5013.68 72.00
7363 46.2720 4914.00 4995.71 70.00
7364 46.2780 4884.00 4973.48 70.00
7365 46.2840 5057.00 4949.71 71.00
7366 46.2900 4967.00 4923.58 70.00
7367 46.2960 4965.00 4895.73 70.00
7368 46.3020 4790.00 4865.61 69.00
7369 46.3080 4758.00 4835.40 69.00
7370 46.3140 4799.00 4804.26 69.00
7371 46.3200 4729.00 4772.26 69.00
7372 46.3260 4743.00 4738.46 69.00
7373 46.3320 4655.00 4704.96 68.00
7374 46.3380 4676.00 4670.94 68.00
7375 46.3440 4645.00 4636.67 68.00
7376 46.3500 4572.00 4601.55 68.00
7377 46.3560 4664.00 4567.93 68.00
7378 46.3620 4531.00 4535.30 67.00
7379 46.3680 4467.00 4504.06 67.00
7380 46.3740 4450.00 4473.70 67.00
7381 46.3800 4471.00 4446.39 67.00
7382 46.3860 4501.00 4421.52 67.00
7383 46.3920 4494.00 4399.48 67.00
7384 46.3980 4346.00 4378.82 66.00
7385 46.4040 4366.00 4362.98 66.00
7386 46.4100 4399.00 4349.64 66.00
7387 46.4160 4422.00 4339.79 66.00
7388 46.4220 4464.00 4332.26 67.00
7389 46.4280 4443.00 4329.20 67.00
7390 46.4340 4437.00 4329.45 67.00
7391 46.4400 4459.00 4332.61 67.00
7392 46.4460 4388.00 4338.53 66.00
7393 46.4520 4392.00 4348.77 66.00
7394 46.4580 4504.00 4362.25 67.00
7395 46.4640 4445.00 4378.91 67.00
7396 46.4700 4390.00 4397.62 66.00
7397 46.4760 4574.00 4420.24 68.00
7398 46.4820 4483.00 4445.55 67.00
7399 46.4880 4430.00 4473.30 67.00
7400 46.4940 4485.00 4502.13 67.00
7401 46.5000 4443.00 4533.34 67.00
7402 46.5060 4637.00 4565.92 68.00
7403 46.5120 4656.00 4598.99 68.00
7404 46.5180 4603.00 4630.81 68.00
7405 46.5240 4555.00 4662.59 67.00
7406 46.5300 4549.00 4692.56 67.00
7407 46.5360 4566.00 4719.81 68.00
7408 46.5420 4554.00 4742.57 67.00
7409 46.5480 4598.00 4762.17 68.00
7410 46.5540 4739.00 4777.02 69.00
7411 46.5600 4536.00 4786.64 67.00
7412 46.5660 4654.00 4789.70 68.00
7413 46.5720 4608.00 4788.00 68.00
7414 46.5780 4679.00 4780.60 68.00
7415 46.5840 4518.00 4767.35 67.00
7416 46.5900 4533.00 4747.70 67.00
7417 46.5960 4560.00 4724.18 68.00
7418 46.6020 4525.00 4696.48 67.00
7419 46.6080 4481.00 4665.45 67.00
7420 46.6140 4377.00 4631.09 66.00
7421 46.6200 4294.00 4596.21 66.00
7422 46.6260 4393.00 4560.97 66.00
7423 46.6320 4298.00 4525.85 66.00
7424 46.6380 4283.00 4490.75 65.00
7425 46.6440 4369.00 4458.17 66.00
7426 46.6500 4263.00 4427.89 65.00
7427 46.6560 4305.00 4400.20 66.00
7428 46.6620 4270.00 4374.33 65.00
7429 46.6680 4282.00 4352.51 65.00
7430 46.6740 4205.00 4333.85 65.00
7431 46.6800 4333.00 4318.45 66.00
7432 46.6860 4333.00 4305.13 66.00
7433 46.6920 4323.00 4295.90 66.00
7434 46.6980 4194.00 4289.57 65.00
7435 46.7040 4303.00 4286.00 66.00
7436 46.7100 4183.00 4283.94 65.00
7437 46.7160 4280.00 4285.17 65.00
7438 46.7220 4196.00 4288.42 65.00
7439 46.7280 4338.00 4293.44 66.00
7440 46.7340 4278.00 4298.92 65.00
7441 46.7400 4224.00 4306.57 65.00
7442 46.7460 4323.00 4315.06 66.00
7443 46.7520 4410.00 4324.04 66.00
7444 46.7580 4382.00 4332.17 66.00
7445 46.7640 4438.00 4341.06 67.00
7446 46.7700 4319.00 4349.35 66.00
7447 46.7760 4393.00 4356.68 66.00
7448 46.7820 4327.00 4361.76 66.00
7449 46.7880 4387.00 4366.33 66.00
7450 46.7940 4382.00 4369.25 66.00
7451 46.8000 4376.00 4370.46 66.00
7452 46.8060 4464.00 4370.05 67.00
7453 46.8120 4362.00 4367.21 66.00
7454 46.8180 4282.00 4364.22 65.00
7455 46.8240 4414.00 4360.46 66.00
7456 46.8300 4273.00 4356.23 65.00
7457 46.8360 4366.00 4350.76 66.00
7458 46.8420 4363.00 4347.04 66.00
7459 46.8480 4402.00 4344.06 66.00
7460 46.8540 4286.00 4341.71 65.00
7461 46.8600 4428.00 4339.96 67.00
7462 46.8660 4394.00 4340.30 66.00
7463 46.8720 4317.00 4342.45 66.00
7464 46.8780 4383.00 4345.97 66.00
7465 46.8840 4392.00 4350.15 66.00
7466 46.8900 4337.00 4356.80 66.00
7467 46.8960 4274.00 4364.83 65.00
7468 46.9020 4284.00 4374.18 65.00
7469 46.9080 4379.00 4383.76 66.00
7470 46.9140 4302.00 4395.54 66.00
7471 46.9200 4489.00 4408.45 67.00
7472 46.9260 4556.00 4422.15 67.00
7473 46.9320 4469.00 4436.28 67.00
7474 46.9380 4490.00 4452.48 67.00
7475 46.9440 4568.00 4469.54 68.00
7476 46.9500 4618.00 4487.77 68.00
7477 46.9560 4569.00 4506.33 68.00
7478 46.9620 4606.00 4526.48 68.00
7479 46.9680 4656.00 4547.59 68.00
7480 46.9740 4528.00 4569.80 67.00
7481 46.9800 4392.00 4592.26 66.00
7482 46.9860 4501.00 4617.21 67.00
7483 46.9920 4496.00 4644.59 67.00
7484 46.9980 4557.00 4673.20 68.00
7485 47.0040 4616.00 4703.51 68.00
7486 47.0100 4695.00 4737.60 69.00
7487 47.0160 4713.00 4775.09 69.00
7488 47.0220 4694.00 4815.40 69.00
7489 47.0280 4882.00 4857.87 70.00
7490 47.0340 4845.00 4904.37 70.00
7491 47.0400 4858.00 4953.52 70.00
7492 47.0460 5012.00 5004.79 71.00
7493 47.0520 5125.00 5056.40 72.00
7494 47.0580 5021.00 5109.16 71.00
7495 47.0640 5162.00 5161.58 72.00
7496 47.0700 5184.00 5212.40 72.00
7497 47.0760 5058.00 5259.11 71.00
7498 47.0820 5061.00 5302.90 71.00
7499 47.0880 5173.00 5342.01 72.00
7500 47.0940 5165.00 5376.35 72.00
7501 47.1000 5071.00 5404.39 71.00
7502 47.1060 5137.00 5428.25 72.00
7503 47.1120 5087.00 5447.64 71.00
7504 47.1180 5197.00 5463.06 72.00
7505 47.1240 5240.00 5474.66 72.00
7506 47.1300 5196.00 5484.93 72.00
7507 47.1360 5218.00 5493.70 72.00
7508 47.1420 5186.00 5501.70 72.00
7509 47.1480 5116.00 5508.61 72.00
7510 47.1540 5394.00 5517.38 73.00
7511 47.1600 5247.00 5526.77 72.00
7512 47.1660 5369.00 5537.50 73.00
7513 47.1720 5350.00 5548.80 73.00
7514 47.1780 5403.00 5562.75 74.00
7515 47.1840 5418.00 5578.26 74.00
7516 47.1900 5519.00 5595.21 74.00
7517 47.1960 5332.00 5611.83 73.00
7518 47.2020 5488.00 5629.56 74.00
7519 47.2080 5519.00 5646.78 74.00
7520 47.2140 5474.00 5662.03 74.00
7521 47.2200 5502.00 5673.59 74.00
7522 47.2260 5437.00 5682.60 74.00
7523 47.2320 5519.00 5687.49 74.00
7524 47.2380 5642.00 5688.02 75.00
7525 47.2440 5511.00 5683.40 74.00
7526 47.2500 5506.00 5676.24 74.00
7527 47.2560 5420.00 5666.52 74.00
7528 47.2620 5600.00 5655.52 75.00
7529 47.2680 5531.00 5643.64 74.00
7530 47.2740 5610.00 5634.31 75.00
7531 47.2800 5636.00 5627.82 75.00
7532 47.2860 5720.00 5625.27 76.00
7533 47.2920 5700.00 5626.44 75.00
7534 47.2980 5764.00 5633.78 76.00
7535 47.3040 5817.00 5646.39 76.00
7536 47.3100 5836.00 5664.00 76.00
7537 47.3160 5979.00 5685.02 77.00
7538 47.3220 6170.00 5710.42 79.00
7539 47.3280 6064.00 5738.05 78.00
7540 47.3340 5953.00 5766.29 77.00
7541 47.3400 6036.00 5792.30 78.00
7542 47.3460 5944.00 5816.05 77.00
7543 47.3520 5786.00 5834.52 76.00
7544 47.3580 5759.00 5845.39 76.00
7545 47.3640 5835.00 5847.51 76.00
7546 47.3700 5835.00 5838.84 76.00
7547 47.3760 5749.00 5819.61 76.00
7548 47.3820 5758.00 5789.25 76.00
7549 47.3880 5739.00 5748.28 76.00
7550 47.3940 5748.00 5696.94 76.00
7551 47.4000 5619.00 5637.84 75.00
7552 47.4060 5560.00 5572.53 75.00
7553 47.4120 5542.00 5502.58 74.00
7554 47.4180 5354.00 5428.57 73.00
7555 47.4240 5281.00 5354.06 73.00
7556 47.4300 5269.00 5279.47 73.00
7557 47.4360 5188.00 5206.13 72.00
7558 47.4420 5137.00 5134.10 72.00
7559 47.4480 5115.00 5066.37 72.00
7560 47.4540 5077.00 5002.79 71.00
7561 47.4600 4919.00 4943.83 70.00
7562 47.4660 4874.00 4889.43 70.00
7563 47.4720 4896.00 4841.90 70.00
7564 47.4780 4921.00 4800.30 70.00
7565 47.4840 4818.00 4765.15 69.00
7566 47.4900 4719.00 4735.21 69.00
7567 47.4960 4820.00 4712.32 69.00
7568 47.5020 4836.00 4695.07 70.00
7569 47.5080 4798.00 4682.96 69.00
7570 47.5140 4801.00 4674.41 69.00
7571 47.5200 4778.00 4670.63 69.00
7572 47.5260 4756.00 4669.75 69.00
7573 47.5320 4737.00 4670.87 69.00
7574 47.5380 4771.00 4671.98 69.00
7575 47.5440 4781.00 4674.09 69.00
7576 47.5500 4832.00 4675.23 70.00
7577 47.5560 4869.00 4674.55 70.00
7578 47.5620 4811.00 4670.29 69.00
7579 47.5680 4740.00 4663.91 69.00
7580 47.5740 4674.00 4654.08 68.00
7581 47.5800 4684.00 4640.70 68.00
7582 47.5860 4749.00 4622.91 69.00
7583 47.5920 4846.00 4602.95 70.00
7584 47.5980 4782.00 4580.48 69.00
7585 47.6040 4695.00 4555.86 69.00
7586 47.6100 4628.00 4528.99 68.00
7587 47.6160 4512.00 4502.19 67.00
7588 47.6220 4581.00 4475.44 68.00
7589 47.6280 4586.00 4449.03 68.00
7590 47.6340 4513.00 4422.74 67.00
7591 47.6400 4534.00 4398.88 67.00
7592 47.6460 4586.00 4376.90 68.00
7593 47.6520 4547.00 4357.18 67.00
7594 47.6580 4447.00 4338.93 67.00
7595 47.6640 4395.00 4324.30 66.00
7596 47.6700 4417.00 4312.39 66.00
7597 47.6760 4545.00 4303.23 67.00
7598 47.6820 4621.00 4295.30 68.00
7599 47.6880 4605.00 4291.48 68.00
7600 47.6940 4672.00 4290.16 68.00
7601 47.7000 4594.00 4291.22 68.00
7602 47.7060 4304.00 4293.29 66.00
7603 47.7120 4222.00 4298.19 65.00
7604 47.7180 4410.00 4304.63 66.00
7605 47.7240 4463.00 4311.82 67.00
7606 47.7300 4466.00 4319.38 67.00
7607 47.7360 4471.00 4328.43 67.00
7608 47.7420 4454.00 4337.36 67.00
7609 47.7480 4519.00 4346.37 67.00
7610 47.7540 4497.00 4353.59 67.00
7611 47.7600 4443.00 4360.75 67.00
7612 47.7660 4395.00 4366.29 66.00
7613 47.7720 4429.00 4370.09 67.00
7614 47.7780 4437.00 4370.71 67.00
7615 47.7840 4444.00 4370.01 67.00
7616 47.7900 4509.00 4366.85 67.00
7617 47.7960 4479.00 4361.21 67.00
7618 47.8020 4423.00 4352.15 67.00
7619 47.8080 4386.00 4341.87 66.00
7620 47.8140 4409.00 4329.64 66.00
7621 47.8200 4364.00 4315.80 66.00
7622 47.8260 4329.00 4299.69 66.00
7623 47.8320 4343.00 4283.68 66.00
7624 47.8380 4215.00 4267.09 65.00
7625 47.8440 4261.00 4250.22 65.00
7626 47.8500 4275.00 4232.33 65.00
7627 47.8560 4239.00 4215.59 65.00
7628 47.8620 4253.00 4199.27 65.00
7629 47.8680 4219.00 4183.52 65.00
7630 47.8740 4242.00 4167.48 65.00
7631 47.8800 4242.00 4153.28 65.00
7632 47.8860 4138.00 4140.06 64.00
7633 47.8920 4060.00 4127.80 64.00
7634 47.8980 4143.00 4115.56 64.00
7635 47.9040 4190.00 4105.44 65.00
7636 47.9100 4169.00 4096.40 65.00
7637 47.9160 4160.00 4088.41 64.00
7638 47.9220 4108.00 4081.53 64.00
7639 47.9280 4067.00 4074.67 64.00
7640 47.9340 4165.00 4069.83 65.00
7641 47.9400 4185.00 4065.87 65.00
7642 47.9460 4142.00 4062.95 64.00
7643 47.9520 4091.00 4059.78 64.00
7644 47.9580 4069.00 4058.90 64.00
7645 47.9640 4028.00 4058.71 63.00
7646 47.9700 4084.00 4059.66 64.00
7647 47.9760 4133.00 4060.47 64.00
7648 47.9820 4152.00 4063.22 64.00
7649 47.9880 4105.00 4067.03 64.00
7650 47.9940 4036.00 4072.01 64.00
7651 48.0000 4136.00 4077.24 64.00
7652 48.0060 4171.00 4084.84 65.00
7653 48.0120 4121.00 4093.95 64.00
7654 48.0180 4205.00 4104.71 65.00
7655 48.0240 4177.00 4116.35 65.00
7656 48.0300 4282.00 4130.87 65.00
7657 48.0360 4285.00 4147.52 65.00
7658 48.0420 4267.00 4166.44 65.00
7659 48.0480 4199.00 4186.76 65.00
7660 48.0540 4297.00 4210.65 66.00
7661 48.0600 4321.00 4237.19 66.00
7662 48.0660 4398.00 4266.36 66.00
7663 48.0720 4431.00 4297.33 67.00
7664 48.0780 4383.00 4332.01 66.00
7665 48.0840 4426.00 4369.29 67.00
7666 48.0900 4437.00 4409.06 67.00
7667 48.0960 4486.00 4449.94 67.00
7668 48.1020 4540.00 4493.66 67.00
7669 48.1080 4562.00 4538.79 68.00
7670 48.1140 4724.00 4584.76 69.00
7671 48.1200 4811.00 4629.83 69.00
7672 48.1260 4852.00 4676.02 70.00
7673 48.1320 4790.00 4720.86 69.00
7674 48.1380 4794.00 4763.94 69.00
7675 48.1440 4778.00 4803.72 69.00
7676 48.1500 4820.00 4841.38 69.00
7677 48.1560 4962.00 4875.49 70.00
7678 48.1620 4960.00 4905.67 70.00
7679 48.1680 4912.00 4930.92 70.00
7680 48.1740 4917.00 4952.39 70.00
7681 48.1800 4893.00 4969.47 70.00
7682 48.1860 4889.00 4982.32 70.00
7683 48.1920 4914.00 4990.34 70.00
7684 48.1980 4872.00 4996.06 70.00
7685 48.2040 4844.00 4999.27 70.00
7686 48.2100 4873.00 5000.38 70.00
7687 48.2160 4910.00 4999.45 70.00
7688 48.2220 4872.00 4998.65 70.00
7689 48.2280 4885.00 4997.70 70.00
7690 48.2340 4934.00 4996.69 70.00
7691 48.2400 4925.00 4995.27 70.00
7692 48.2460 5013.00 4994.19 71.00
7693 48.2520 4959.00 4994.38 70.00
7694 48.2580 4960.00 4994.22 70.00
7695 48.2640 4972.00 4992.71 71.00
7696 48.2700 4882.00 4990.84 70.00
7697 48.2760 4941.00 4987.43 70.00
7698 48.2820 4978.00 4981.90 71.00
7699 48.2880 4918.00 4973.71 70.00
7700 48.2940 4920.00 4963.71 70.00
7701 48.3000 4901.00 4951.82 70.00
7702 48.3060 4830.00 4937.90 69.00
7703 48.3120 4908.00 4921.15 70.00
7704 48.3180 4897.00 4903.81 70.00
7705 48.3240 4771.00 4885.14 69.00
7706 48.3300 4662.00 4864.81 68.00
7707 48.3360 4775.00 4842.87 69.00
7708 48.3420 4663.00 4820.77 68.00
7709 48.3480 4659.00 4797.71 68.00
7710 48.3540 4691.00 4773.80 68.00
7711 48.3600 4639.00 4748.51 68.00
7712 48.3660 4604.00 4723.29 68.00
7713 48.3720 4662.00 4697.66 68.00
7714 48.3780 4583.00 4671.44 68.00
7715 48.3840 4601.00 4644.66 68.00
7716 48.3900 4541.00 4618.68 67.00
7717 48.3960 4460.00 4594.40 67.00
7718 48.4020 4490.00 4570.22 67.00
7719 48.4080 4399.00 4547.22 66.00
7720 48.4140 4492.00 4527.33 67.00
7721 48.4200 4501.00 4509.75 67.00
7722 48.4260 4541.00 4495.54 67.00
7723 48.4320 4489.00 4483.85 67.00
7724 48.4380 4585.00 4477.00 68.00
7725 48.4440 4548.00 4474.30 67.00
7726 48.4500 4477.00 4475.90 67.00
7727 48.4560 4536.00 4480.90 67.00
7728 48.4620 4634.00 4491.70 68.00
7729 48.4680 4563.00 4506.31 68.00
7730 48.4740 4633.00 4525.25 68.00
7731 48.4800 4635.00 4547.36 68.00
7732 48.4860 4561.00 4572.18 68.00
7733 48.4920 4603.00 4600.59 68.00
7734 48.4980 4708.00 4630.56 69.00
7735 48.5040 4701.00 4661.56 69.00
7736 48.5100 4752.00 4691.61 69.00
7737 48.5160 4826.00 4722.08 69.00
7738 48.5220 4703.00 4749.34 69.00
7739 48.5280 4747.00 4774.23 69.00
7740 48.5340 4937.00 4794.39 70.00
7741 48.5400 4991.00 4809.31 71.00
7742 48.5460 4781.00 4819.44 69.00
7743 48.5520 4834.00 4822.96 70.00
7744 48.5580 4834.00 4819.77 70.00
7745 48.5640 4747.00 4811.45 69.00
7746 48.5700 4695.00 4797.26 69.00
7747 48.5760 4735.00 4777.69 69.00
7748 48.5820 4913.00 4752.36 70.00
7749 48.5880 4713.00 4723.85 69.00
7750 48.5940 4607.00 4692.23 68.00
7751 48.6000 4572.00 4658.16 68.00
7752 48.6060 4533.00 4621.39 67.00
7753 48.6120 4558.00 4584.70 68.00
7754 48.6180 4385.00 4547.54 66.00
7755 48.6240 4553.00 4510.91 67.00
7756 48.6300 4365.00 4474.10 66.00
7757 48.6360 4421.00 4439.52 66.00
7758 48.6420 4273.00 4406.50 65.00
7759 48.6480 4457.00 4375.25 67.00
7760 48.6540 4286.00 4345.01 65.00
7761 48.6600 4371.00 4317.95 66.00
7762 48.6660 4236.00 4293.22 65.00
7763 48.6720 4232.00 4270.96 65.00
7764 48.6780 4212.00 4250.32 65.00
7765 48.6840 4271.00 4233.32 65.00
7766 48.6900 4275.00 4219.04 65.00
7767 48.6960 4141.00 4207.53 64.00
7768 48.7020 4113.00 4197.79 64.00
7769 48.7080 4124.00 4191.72 64.00
7770 48.7140 4197.00 4188.42 65.00
7771 48.7200 4203.00 4187.77 65.00
7772 48.7260 4243.00 4188.46 65.00
7773 48.7320 4165.00 4192.65 65.00
7774 48.7380 4191.00 4198.63 65.00
7775 48.7440 4345.00 4207.09 66.00
7776 48.7500 4266.00 4216.36 65.00
7777 48.7560 4251.00 4228.19 65.00
7778 48.7620 4314.00 4241.12 66.00
7779 48.7680 4332.00 4255.24 66.00
7780 48.7740 4157.00 4268.94 64.00
7781 48.7800 4366.00 4283.93 66.00
7782 48.7860 4279.00 4298.77 65.00
7783 48.7920 4465.00 4313.04 67.00
7784 48.7980 4400.00 4325.37 66.00
7785 48.8040 4271.00 4337.41 65.00
7786 48.8100 4306.00 4347.86 66.00
7787 48.8160 4299.00 4356.58 66.00
7788 48.8220 4384.00 4362.49 66.00
7789 48.8280 4389.00 4367.67 66.00
7790 48.8340 4359.00 4371.28 66.00
7791 48.8400 4337.00 4373.73 66.00
7792 48.8460 4502.00 4374.10 67.00
7793 48.8520 4492.00 4374.88 67.00
7794 48.8580 4362.00 4375.40 66.00
7795 48.8640 4368.00 4375.99 66.00
7796 48.8700 4461.00 4375.89 67.00
7797 48.8760 4481.00 4377.39 67.00
7798 48.8820 4433.00 4379.36 67.00
7799 48.8880 4405.00 4381.95 66.00
7800 48.8940 4387.00 4384.07 66.00
7801 48.9000 4381.00 4387.64 66.00
7802 48.9060 4423.00 4391.46 67.00
7803 48.9120 4556.00 4395.34 67.00
7804 48.9180 4345.00 4398.13 66.00
7805 48.9240 4385.00 4401.10 66.00
7806 48.9300 4455.00 4403.31 67.00
7807 48.9360 4298.00 4404.26 66.00
7808 48.9420 4459.00 4402.59 67.00
7809 48.9480 4266.00 4399.98 65.00
7810 48.9540 4341.00 4395.19 66.00
7811 48.9600 4269.00 4387.87 65.00
7812 48.9660 4385.00 4377.42 66.00
7813 48.9720 4251.00 4365.78 65.00
7814 48.9780 4245.00 4352.03 65.00
7815 48.9840 4219.00 4336.92 65.00
7816 48.9900 4258.00 4319.71 65.00
7817 48.9960 4126.00 4302.86 64.00
7818 49.0020 4185.00 4285.86 65.00
7819 49.0080 4265.00 4269.15 65.00
7820 49.0140 4286.00 4252.15 65.00
7821 49.0200 4232.00 4237.24 65.00
7822 49.0260 4172.00 4223.73 65.00
7823 49.0320 4133.00 4211.82 64.00
7824 49.0380 4232.00 4201.84 65.00
7825 49.0440 4044.00 4192.89 64.00
7826 49.0500 4092.00 4187.09 64.00
7827 49.0560 4225.00 4183.50 65.00
7828 49.0620 4189.00 4182.15 65.00
7829 49.0680 4173.00 4182.02 65.00
7830 49.0740 4207.00 4185.05 65.00
7831 49.0800 4326.00 4190.14 66.00
7832 49.0860 4195.00 4197.15 65.00
7833 49.0920 4070.00 4204.94 64.00
7834 49.0980 4295.00 4215.33 66.00
7835 49.1040 4294.00 4227.11 66.00
7836 49.1100 4090.00 4240.07 64.00
7837 49.1160 4264.00 4252.96 65.00
7838 49.1220 4376.00 4267.53 66.00
7839 49.1280 4316.00 4282.45 66.00
7840 49.1340 4319.00 4297.43 66.00
7841 49.1400 4236.00 4311.09 65.00
7842 49.1460 4338.00 4325.06 66.00
7843 49.1520 4512.00 4337.98 67.00
7844 49.1580 4402.00 4349.48 66.00
7845 49.1640 4380.00 4358.28 66.00
7846 49.1700 4367.00 4366.17 66.00
7847 49.1760 4359.00 4372.08 66.00
7848 49.1820 4409.00 4376.02 66.00
7849 49.1880 4356.00 4377.18 66.00
7850 49.1940 4398.00 4377.83 66.00
7851 49.2000 4437.00 4377.36 67.00
7852 49.2060 4454.00 4376.19 67.00
7853 49.2120 4398.00 4373.71 66.00
7854 49.2180 4360.00 4372.36 66.00
7855 49.2240 4403.00 4371.55 66.00
7856 49.2300 4322.00 4371.60 66.00
7857 49.2360 4352.00 4371.82 66.00
7858 49.2420 4318.00 4374.52 66.00
7859 49.2480 4307.00 4378.95 66.00
7860 49.2540 4311.00 4385.33 66.00
7861 49.2600 4390.00 4392.85 66.00
7862 49.2660 4366.00 4403.68 66.00
7863 49.2720 4387.00 4416.91 66.00
7864 49.2780 4457.00 4432.59 67.00
7865 49.2840 4385.00 4449.69 66.00
7866 49.2900 4518.00 4470.12 67.00
7867 49.2960 4446.00 4492.83 67.00
7868 49.3020 4487.00 4517.27 67.00
7869 49.3080 4534.00 4542.31 67.00
7870 49.3140 4406.00 4569.66 66.00
7871 49.3200 4558.00 4597.58 68.00
7872 49.3260 4636.00 4625.37 68.00
7873 49.3320 4470.00 4652.21 67.00
7874 49.3380 4484.00 4679.22 67.00
7875 49.3440 4652.00 4704.92 68.00
7876 49.3500 4546.00 4728.87 67.00
7877 49.3560 4740.00 4749.54 69.00
7878 49.3620 4573.00 4769.21 68.00
7879 49.3680 4735.00 4786.38 69.00
7880 49.3740 4602.00 4801.09 68.00
7881 49.3800 4687.00 4812.52 68.00
7882 49.3860 4730.00 4822.36 69.00
7883 49.3920 4709.00 4830.44 69.00
7884 49.3980 4643.00 4836.73 68.00
7885 49.4040 4754.00 4840.47 69.00
7886 49.4100 4552.00 4843.90 67.00
7887 49.4160 4702.00 4846.24 69.00
7888 49.4220 4619.00 4847.68 68.00
7889 49.4280 4699.00 4847.42 69.00
7890 49.4340 4569.00 4847.61 68.00
7891 49.4400 4715.00 4847.22 69.00
7892 49.4460 4593.00 4846.73 68.00
7893 49.4520 4525.00 4845.05 67.00
7894 49.4580 4633.00 4844.22 68.00
7895 49.4640 4459.00 4843.23 67.00
7896 49.4700 4537.00 4841.67 67.00
7897 49.4760 4572.00 4838.93 68.00
7898 49.4820 4497.00 4837.30 67.00
7899 49.4880 4520.00 4835.47 67.00
7900 49.4940 4594.00 4833.51 68.00
7901 49.5000 4569.00 4830.51 68.00
7902 49.5060 4549.00 4828.82 67.00
7903 49.5120 4431.00 4827.62 67.00
7904 49.5180 4658.00 4827.16 68.00
7905 49.5240 4659.00 4826.70 68.00
7906 49.5300 4473.00 4828.47 67.00
7907 49.5360 4557.00 4831.29 68.00
7908 49.5420 4653.00 4835.98 68.00
7909 49.5480 4602.00 4841.24 68.00
7910 49.5540 4664.00 4849.07 68.00
7911 49.5600 4611.00 4858.42 68.00
7912 49.5660 4612.00 4869.19 68.00
7913 49.5720 4776.00 4880.12 69.00
7914 49.5780 4880.00 4893.43 70.00
7915 49.5840 4707.00 4907.62 69.00
7916 49.5900 4775.00 4923.11 69.00
7917 49.5960 4824.00 4939.65 69.00
7918 49.6020 4838.00 4956.25 70.00
7919 49.6080 4742.00 4974.98 69.00
7920 49.6140 4869.00 4994.94 70.00
7921 49.6200 4920.00 5016.33 70.00
7922 49.6260 4965.00 5038.20 70.00
7923 49.6320 5167.00 5062.76 72.00
7924 49.6380 5090.00 5089.03 71.00
7925 49.6440 5079.00 5116.99 71.00
7926 49.6500 5026.00 5145.44 71.00
7927 49.6560 5162.00 5176.07 72.00
7928 49.6620 5268.00 5207.16 73.00
7929 49.6680 5277.00 5237.95 73.00
7930 49.6740 5353.00 5266.60 73.00
7931 49.6800 5377.00 5293.84 73.00
7932 49.6860 5208.00 5317.64 72.00
7933 49.6920 5347.00 5336.89 73.00
7934 49.6980 5249.00 5349.65 72.00
7935 49.7040 5194.00 5357.28 72.00
7936 49.7100 5276.00 5357.84 73.00
7937 49.7160 5167.00 5351.16 72.00
7938 49.7220 5181.00 5336.06 72.00
7939 49.7280 5211.00 5314.58 72.00
7940 49.7340 5085.00 5285.30 71.00
7941 49.7400 5018.00 5249.72 71.00
7942 49.7460 5059.00 5206.69 71.00
7943 49.7520 5004.00 5158.71 71.00
7944 49.7580 4799.00 5104.95 69.00
7945 49.7640 4809.00 5047.31 69.00
7946 49.7700 4746.00 4985.05 69.00
7947 49.7760 4760.00 4921.25 69.00
7948 49.7820 4623.00 4855.94 68.00
7949 49.7880 4719.00 4789.95 69.00
7950 49.7940 4771.00 4723.56 69.00
7951 49.8000 4645.00 4659.66 68.00
7952 49.8060 4534.00 4597.67 67.00
7953 49.8120 4437.00 4538.34 67.00
7954 49.8180 4365.00 4481.12 66.00
7955 49.8240 4403.00 4428.38 66.00
7956 49.8300 4296.00 4379.34 66.00
7957 49.8360 4360.00 4334.16 66.00
7958 49.8420 4320.00 4291.96 66.00
7959 49.8480 4280.00 4254.46 65.00
7960 49.8540 4189.00 4220.59 65.00
7961 49.8600 4301.00 4190.42 66.00
7962 49.8660 4278.00 4162.67 65.00
7963 49.8720 4161.00 4139.10 65.00
7964 49.8780 4067.00 4118.61 64.00
7965 49.8840 4011.00 4100.66 63.00
7966 49.8900 4047.00 4084.12 64.00
7967 49.8960 4137.00 4070.75 64.00
7968 49.9020 4059.00 4059.29 64.00
7969 49.9080 4158.00 4049.52 64.00
7970 49.9140 4123.00 4040.21 64.00
7971 49.9200 4114.00 4033.21 64.00
7972 49.9260 4034.00 4027.33 64.00
7973 49.9320 3917.00 4022.46 63.00
7974 49.9380 3966.00 4017.59 63.00
7975 49.9440 3944.00 4014.44 63.00
7976 49.9500 3930.00 4012.06 63.00
7977 49.9560 3999.00 4010.46 63.00
7978 49.9620 3939.00 4008.51 63.00
7979 49.9680 4007.00 4008.27 63.00
7980 49.9740 3965.00 4008.89 63.00
7981 49.9800 3865.00 4010.09 62.00
7982 49.9860 3963.00 4011.04 63.00
7983 49.9920 3992.00 4013.75 63.00
7984 49.9980 3935.00 4014.37 63.00
7985 50.0040 3934.00 4016.68 63.00
7986 50.0100 3858.00 4019.82 62.00
7987 50.0160 3973.00 4022.43 63.00
7988 50.0220 4013.00 4026.90 63.00
7989 50.0280 4096.00 4030.82 64.00
7990 50.0340 4008.00 4036.46 63.00
7991 50.0400 4072.00 4042.43 64.00
7992 50.0460 4055.00 4047.78 64.00
7993 50.0520 3997.00 4054.23 63.00
7994 50.0580 4026.00 4059.62 63.00
7995 50.0640 3985.00 4066.03 63.00
7996 50.0700 3964.00 4071.72 63.00
7997 50.0760 4036.00 4075.79 64.00
7998 50.0820 4049.00 4080.07 64.00
7999 50.0880 3951.00 4082.40 63.00
8000 50.0940 4033.00 4084.65 64.00
8001 50.1000 4015.00 4084.71 63.00
8002 50.1060 4037.00 4084.40 64.00
8003 50.1120 4060.00 4082.84 64.00
8004 50.1180 4005.00 4078.88 63.00
8005 50.1240 4040.00 4074.52 64.00
8006 50.1300 4041.00 4067.74 64.00
8007 50.1360 4112.00 4060.67 64.00
8008 50.1420 3949.00 4052.33 63.00
8009 50.1480 3948.00 4041.82 63.00
8010 50.1540 3970.00 4031.25 63.00
8011 50.1600 3981.00 4018.57 63.00
8012 50.1660 4036.00 4006.22 64.00
8013 50.1720 3951.00 3993.22 63.00
8014 50.1780 3917.00 3978.99 63.00
8015 50.1840 3888.00 3965.64 62.00
8016 50.1900 3919.00 3951.17 63.00
8017 50.1960 3892.00 3937.84 62.00
8018 50.2020 3930.00 3924.80 63.00
8019 50.2080 3884.00 3911.28 62.00
8020 50.2140 3886.00 3899.14 62.00
8021 50.2200 3810.00 3886.65 62.00
8022 50.2260 3840.00 3875.71 62.00
8023 50.2320 3878.00 3864.42 62.00
8024 50.2380 3890.00 3854.87 62.00
8025 50.2440 3892.00 3845.93 62.00
8026 50.2500 3803.00 3836.66 62.00
8027 50.2560 3827.00 3829.04 62.00
8028 50.2620 3857.00 3821.04 62.00
8029 50.2680 3886.00 3814.64 62.00
8030 50.2740 3891.00 3808.81 62.00
8031 50.2800 3867.00 3802.51 62.00
8032 50.2860 3741.00 3797.71 61.00
8033 50.2920 3912.00 3792.36 63.00
8034 50.2980 3863.00 3788.46 62.00
8035 50.3040 3826.00 3784.95 62.00
8036 50.3100 3815.00 3780.77 62.00
8037 50.3160 3871.00 3778.01 62.00
8038 50.3220 3862.00 3774.58 62.00
8039 50.3280 3930.00 3772.51 63.00
8040 50.3340 3859.00 3770.73 62.00
8041 50.3400 3771.00 3768.28 61.00
8042 50.3460 3833.00 3769.15 62.00
8043 50.3520 3818.00 3771.35 62.00
8044 50.3580 3875.00 3772.84 62.00
8045 50.3640 3781.00 3774.74 61.00
8046 50.3700 3729.00 3778.02 61.00
8047 50.3760 3785.00 3780.72 62.00
8048 50.3820 3708.00 3783.64 61.00
8049 50.3880 3725.00 3788.24 61.00
8050 50.3940 3827.00 3792.15 62.00
8051 50.4000 3823.00 3796.72 62.00
8052 50.4060 3792.00 3802.94 62.00
8053 50.4120 3816.00 3808.78 62.00
8054 50.4180 3854.00 3815.45 62.00
8055 50.4240 3880.00 3822.68 62.00
8056 50.4300 3903.00 3831.67 62.00
8057 50.4360 3920.00 3840.48 63.00
8058 50.4420 3895.00 3850.13 62.00
8059 50.4480 3867.00 3861.68 62.00
8060 50.4540 3931.00 3873.47 63.00
8061 50.4600 4019.00 3885.96 63.00
8062 50.4660 3922.00 3900.82 63.00
8063 50.4720 3898.00 3915.44 62.00
8064 50.4780 3864.00 3931.15 62.00
8065 50.4840 3987.00 3949.04 63.00
8066 50.4900 4023.00 3967.14 63.00
8067 50.4960 4049.00 3986.30 64.00
8068 50.5020 4039.00 4007.52 64.00
8069 50.5080 4069.00 4028.71 64.00
8070 50.5140 4065.00 4050.71 64.00
8071 50.5200 4052.00 4073.27 64.00
8072 50.5260 4007.00 4097.25 63.00
8073 50.5320 3973.00 4120.32 63.00
8074 50.5380 3979.00 4143.13 63.00
8075 50.5440 4027.00 4166.41 63.00
8076 50.5500 4085.00 4187.81 64.00
8077 50.5560 4119.00 4208.00 64.00
8078 50.5620 4131.00 4227.40 64.00
8079 50.5680 4198.00 4244.29 65.00
8080 50.5740 4189.00 4259.10 65.00
8081 50.5800 4164.00 4272.25 65.00
8082 50.5860 4223.00 4281.96 65.00
8083 50.5920 4183.00 4288.68 65.00
8084 50.5980 4121.00 4293.10 64.00
8085 50.6040 4182.00 4292.63 65.00
8086 50.6100 4139.00 4288.80 64.00
8087 50.6160 4053.00 4281.19 64.00
8088 50.6220 4075.00 4270.91 64.00
8089 50.6280 4080.00 4256.17 64.00
8090 50.6340 4083.00 4238.31 64.00
8091 50.6400 4086.00 4218.64 64.00
8092 50.6460 4061.00 4195.96 64.00
8093 50.6520 4064.00 4171.44 64.00
8094 50.6580 4007.00 4147.06 63.00
8095 50.6640 4014.00 4121.12 63.00
8096 50.6700 4011.00 4095.09 63.00
8097 50.6760 3947.00 4070.55 63.00
8098 50.6820 3868.00 4046.00 62.00
8099 50.6880 3856.00 4021.95 62.00
8100 50.6940 3920.00 3998.86 63.00
8101 50.7000 3933.00 3978.31 63.00
8102 50.7060 3872.00 3957.99 62.00
8103 50.7120 3815.00 3939.80 62.00
8104 50.7180 3791.00 3924.06 62.00
8105 50.7240 3799.00 3908.99 62.00
8106 50.7300 3814.00 3895.77 62.00
8107 50.7360 3859.00 3885.12 62.00
8108 50.7420 3779.00 3875.12 61.00
8109 50.7480 3768.00 3866.72 61.00
8110 50.7540 3873.00 3861.17 62.00
8111 50.7600 3863.00 3855.99 62.00
8112 50.7660 3780.00 3852.04 61.00
8113 50.7720 3732.00 3850.53 61.00
8114 50.7780 3775.00 3849.21 61.00
8115 50.7840 3829.00 3848.44 62.00
8116 50.7900 3808.00 3849.73 62.00
8117 50.7960 3796.00 3852.18 62.00
8118 50.8020 3883.00 3854.74 62.00
8119 50.8080 3871.00 3859.06 62.00
8120 50.8140 3806.00 3864.73 62.00
8121 50.8200 3835.00 3870.53 62.00
8122 50.8260 3849.00 3878.10 62.00
8123 50.8320 3792.00 3886.52 62.00
8124 50.8380 3776.00 3895.84 61.00
8125 50.8440 3899.00 3904.31 62.00
8126 50.8500 3963.00 3914.82 63.00
8127 50.8560 3930.00 3925.83 63.00
8128 50.8620 3900.00 3936.22 62.00
8129 50.8680 3966.00 3947.84 63.00
8130 50.8740 4103.00 3959.66 64.00
8131 50.8800 4046.00 3970.32 64.00
8132 50.8860 3954.00 3981.90 63.00
8133 50.8920 4029.00 3993.02 63.00
8134 50.8980 4083.00 4002.79 64.00
8135 50.9040 4051.00 4012.84 64.00
8136 50.9100 4007.00 4022.27 63.00
8137 50.9160 3986.00 4029.36 63.00
8138 50.9220 4035.00 4036.71 64.00
8139 50.9280 4061.00 4043.38 64.00
8140 50.9340 3979.00 4048.05 63.00
8141 50.9400 3971.00 4052.40 63.00
8142 50.9460 4047.00 4055.79 64.00
8143 50.9520 3997.00 4058.58 63.00
8144 50.9580 3950.00 4059.52 63.00
8145 50.9640 3932.00 4060.73 63.00
8146 50.9700 3925.00 4061.33 63.00
8147 50.9760 4010.00 4060.11 63.00
8148 50.9820 4041.00 4060.00 64.00
8149 50.9880 4010.00 4059.39 63.00
8150 50.9940 3991.00 4058.24 63.00
8151 51.0000 3982.00 4058.14 63.00
8152 51.0060 3985.00 4058.46 63.00
8153 51.0120 4028.00 4058.12 63.00
8154 51.0180 4005.00 4059.17 63.00
8155 51.0240 3996.00 4060.58 63.00
8156 51.0300 4002.00 4061.33 63.00
8157 51.0360 3959.00 4063.37 63.00
8158 51.0420 4068.00 4065.64 64.00
8159 51.0480 4084.00 4067.08 64.00
8160 51.0540 3997.00 4069.62 63.00
8161 51.0600 3926.00 4072.21 63.00
8162 51.0660 3909.00 4074.91 63.00
8163 51.0720 3954.00 4076.53 63.00
8164 51.0780 3946.00 4079.16 63.00
8165 51.0840 3944.00 4081.80 63.00
8166 51.0900 4049.00 4083.48 64.00
8167 51.0960 4115.00 4086.21 64.00
8168 51.1020 4042.00 4089.02 64.00
8169 51.1080 3987.00 4090.93 63.00
8170 51.1140 3906.00 4093.99 62.00
8171 51.1200 3913.00 4097.22 63.00
8172 51.1260 3931.00 4099.72 63.00
8173 51.1320 3949.00 4103.57 63.00
8174 51.1380 4016.00 4107.78 63.00
8175 51.1440 4035.00 4111.47 64.00
8176 51.1500 3976.00 4116.85 63.00
8177 51.1560 4015.00 4122.90 63.00
8178 51.1620 4019.00 4128.77 63.00
8179 51.1680 4047.00 4136.52 64.00
8180 51.1740 4032.00 4145.16 63.00
8181 51.1800 4020.00 4154.67 63.00
8182 51.1860 4042.00 4163.99 64.00
8183 51.1920 4056.00 4174.95 64.00
8184 51.1980 4106.00 4186.44 64.00
8185 51.2040 4023.00 4197.23 63.00
8186 51.2100 4047.00 4209.08 64.00
8187 51.2160 4025.00 4220.72 63.00
8188 51.2220 4031.00 4230.88 63.00
8189 51.2280 4087.00 4241.29 64.00
8190 51.2340 4135.00 4250.71 64.00
8191 51.2400 4129.00 4257.84 64.00
8192 51.2460 4129.00 4264.49 64.00
8193 51.2520 4103.00 4269.49 64.00
8194 51.2580 4125.00 4271.66 64.00
8195 51.2640 4125.00 4272.92 64.00
8196 51.2700 4091.00 4272.27 64.00
8197 51.2760 4172.00 4268.65 65.00
8198 51.2820 4134.00 4264.17 64.00
8199 51.2880 4146.00 4257.97 64.00
8200 51.2940 4244.00 4250.21 65.00
8201 51.3000 4217.00 4240.12 65.00
8202 51.3060 4196.00 4229.80 65.00
8203 51.3120 4188.00 4218.32 65.00
8204 51.3180 4102.00 4205.12 64.00
8205 51.3240 4114.00 4192.21 64.00
8206 51.3300 4156.00 4178.73 64.00
8207 51.3360 4117.00 4163.89 64.00
8208 51.3420 4049.00 4149.87 64.00
8209 51.3480 4001.00 4135.90 63.00
8210 51.3540 4020.00 4121.08 63.00
8211 51.3600 3997.00 4108.02 63.00
8212 51.3660 3943.00 4095.81 63.00
8213 51.3720 4009.00 4083.68 63.00
8214 51.3780 3992.00 4073.85 63.00
8215 51.3840 4032.00 4065.47 63.00
8216 51.3900 4028.00 4058.62 63.00
8217 51.3960 3991.00 4052.23 63.00
8218 51.4020 3922.00 4048.84 63.00
8219 51.4080 3920.00 4046.69 63.00
8220 51.4140 3927.00 4044.94 63.00
8221 51.4200 3983.00 4045.43 63.00
8222 51.4260 4070.00 4046.94 64.00
8223 51.4320 3945.00 4048.44 63.00
8224 51.4380 4054.00 4051.19 64.00
8225 51.4440 3986.00 4054.09 63.00
8226 51.4500 4076.00 4055.84 64.00
8227 51.4560 4062.00 4058.25 64.00
8228 51.4620 4012.00 4060.02 63.00
8229 51.4680 3976.00 4059.56 63.00
8230 51.4740 4123.00 4059.06 64.00
8231 51.4800 4077.00 4057.09 64.00
8232 51.4860 3978.00 4052.73 63.00
8233 51.4920 3947.00 4048.03 63.00
8234 51.4980 4001.00 4041.91 63.00
8235 51.5040 3891.00 4034.56 62.00
8236 51.5100 3844.00 4025.25 62.00
8237 51.5160 3897.00 4015.98 62.00
8238 51.5220 3958.00 4006.11 63.00
8239 51.5280 3943.00 3994.89 63.00
8240 51.5340 3947.00 3984.61 63.00
8241 51.5400 3941.00 3974.54 63.00
8242 51.5460 3878.00 3963.93 62.00
8243 51.5520 3814.00 3955.05 62.00
8244 51.5580 3876.00 3947.11 62.00
8245 51.5640 3826.00 3939.32 62.00
8246 51.5700 3715.00 3934.01 61.00
8247 51.5760 3732.00 3930.05 61.00
8248 51.5820 3678.00 3926.74 61.00
8249 51.5880 3840.00 3926.18 62.00
8250 51.5940 3963.00 3927.49 63.00
8251 51.6000 3998.00 3929.74 63.00
8252 51.6060 3897.00 3935.28 62.00
8253 51.6120 3880.00 3942.62 62.00
8254 51.6180 3947.00 3952.07 63.00
8255 51.6240 3815.00 3962.59 62.00
8256 51.6300 3925.00 3976.19 63.00
8257 51.6360 3951.00 3991.95 63.00
8258 51.6420 3959.00 4008.59 63.00
8259 51.6480 3911.00 4027.98 63.00
8260 51.6540 3915.00 4049.03 63.00
8261 51.6600 4010.00 4070.52 63.00
8262 51.6660 4110.00 4094.18 64.00
8263 51.6720 4015.00 4118.82 63.00
8264 51.6780 4037.00 4142.82 64.00
8265 51.6840 4108.00 4167.88 64.00
8266 51.6900 4093.00 4192.57 64.00
8267 51.6960 4017.00 4215.38 63.00
8268 51.7020 4063.00 4237.77 64.00
8269 51.7080 4216.00 4258.28 65.00
8270 51.7140 4201.00 4275.34 65.00
8271 51.7200 4215.00 4290.47 65.00
8272 51.7260 4146.00 4302.23 64.00
8273 51.7320 4129.00 4310.21 64.00
8274 51.7380 4099.00 4313.19 64.00
8275 51.7440 4141.00 4313.04 64.00
8276 51.7500 4179.00 4308.82 65.00
8277 51.7560 4119.00 4299.71 64.00
8278 51.7620 4071.00 4288.10 64.00
8279 51.7680 4037.00 4273.49 64.00
8280 51.7740 3960.00 4255.47 63.00
8281 51.7800 4086.00 4236.66 64.00
8282 51.7860 4166.00 4216.75 65.00
8283 51.7920 4080.00 4195.39 64.00
8284 51.7980 4048.00 4175.17 64.00
8285 51.8040 3847.00 4155.77 62.00
8286 51.8100 3983.00 4136.55 63.00
8287 51.8160 4081.00 4120.29 64.00
8288 51.8220 4056.00 4106.28 64.00
8289 51.8280 4009.00 4093.92 63.00
8290 51.8340 4064.00 4085.55 64.00
8291 51.8400 4154.00 4080.47 64.00
8292 51.8460 3993.00 4079.07 63.00
8293 51.8520 4144.00 4080.48 64.00
8294 51.8580 4119.00 4086.63 64.00
8295 51.8640 4070.00 4096.31 64.00
8296 51.8700 4148.00 4109.60 64.00
8297 51.8760 4165.00 4128.01 65.00
8298 51.8820 4154.00 4150.59 64.00
8299 51.8880 4407.00 4176.01 66.00
8300 51.8940 4263.00 4206.38 65.00
8301 51.9000 4283.00 4240.41 65.00
8302 51.9060 4418.00 4276.92 66.00
8303 51.9120 4433.00 4317.37 67.00
8304 51.9180 4602.00 4360.41 68.00
8305 51.9240 4562.00 4404.56 68.00
8306 51.9300 4596.00 4451.18 68.00
8307 51.9360 4470.00 4498.73 67.00
8308 51.9420 4532.00 4546.21 67.00
8309 51.9480 4675.00 4591.92 68.00
8310 51.9540 4611.00 4637.02 68.00
8311 51.9600 4642.00 4679.77 68.00
8312 51.9660 4802.00 4718.42 69.00
8313 51.9720 4731.00 4754.31 69.00
8314 51.9780 4810.00 4785.97 69.00
8315 51.9840 4782.00 4812.01 69.00
8316 51.9900 4863.00 4834.17 70.00
8317 51.9960 4858.00 4851.34 70.00
8318 52.0020 4896.00 4862.46 70.00
8319 52.0080 4862.00 4869.59 70.00
8320 52.0140 4746.00 4871.81 69.00
8321 52.0200 4811.00 4868.33 69.00
8322 52.0260 4849.00 4861.38 70.00
8323 52.0320 4906.00 4850.29 70.00
8324 52.0380 4718.00 4834.45 69.00
8325 52.0440 4668.00 4816.28 68.00
8326 52.0500 4775.00 4795.26 69.00
8327 52.0560 4752.00 4771.92 69.00
8328 52.0620 4771.00 4745.78 69.00
8329 52.0680 4743.00 4719.33 69.00
8330 52.0740 4626.00 4692.06 68.00
8331 52.0800 4682.00 4663.42 68.00
8332 52.0860 4781.00 4635.78 69.00
8333 52.0920 4617.00 4608.43 68.00
8334 52.0980 4560.00 4580.64 68.00
8335 52.1040 4462.00 4554.59 67.00
8336 52.1100 4617.00 4529.41 68.00
8337 52.1160 4562.00 4504.29 68.00
8338 52.1220 4559.00 4481.15 68.00
8339 52.1280 4631.00 4458.90 68.00
8340 52.1340 4501.00 4436.56 67.00
8341 52.1400 4409.00 4416.03 66.00
8342 52.1460 4412.00 4396.38 66.00
8343 52.1520 4531.00 4376.16 67.00
8344 52.1580 4585.00 4357.48 68.00
8345 52.1640 4288.00 4338.87 65.00
8346 52.1700 4481.00 4320.21 67.00
8347 52.1760 4296.00 4300.26 66.00
8348 52.1820 4256.00 4280.87 65.00
8349 52.1880 4213.00 4260.86 65.00
8350 52.1940 4438.00 4239.09 67.00
8351 52.2000 4342.00 4217.63 66.00
8352 52.2060 4232.00 4195.46 65.00
8353 52.2120 4181.00 4171.70 65.00
8354 52.2180 4287.00 4148.51 65.00
8355 52.2240 4295.00 4124.90 66.00
8356 52.2300 4157.00 4100.84 64.00
8357 52.2360 4159.00 4077.67 64.00
8358 52.2420 4101.00 4054.97 64.00
8359 52.2480 4068.00 4031.96 64.00
8360 52.2540 4161.00 4010.84 65.00
8361 52.2600 4073.00 3990.78 64.00
8362 52.2660 4126.00 3970.89 64.00
8363 52.2720 4078.00 3953.29 64.00
8364 52.2780 3891.00 3937.04 62.00
8365 52.2840 3926.00 3922.20 63.00
8366 52.2900 3989.00 3907.70 63.00
8367 52.2960 3931.00 3895.70 63.00
8368 52.3020 3771.00 3885.09 61.00
8369 52.3080 3825.00 3874.79 62.00
8370 52.3140 3862.00 3866.78 62.00
8371 52.3200 3946.00 3859.95 63.00
8372 52.3260 3836.00 3853.08 62.00
8373 52.3320 3847.00 3848.28 62.00
8374 52.3380 3882.00 3844.34 62.00
8375 52.3440 3795.00 3840.11 62.00
8376 52.3500 3816.00 3837.48 62.00
8377 52.3560 3752.00 3835.31 61.00
8378 52.3620 3811.00 3832.49 62.00
8379 52.3680 3855.00 3830.97 62.00
8380 52.3740 3827.00 3829.58 62.00
8381 52.3800 3856.00 3827.19 62.00
8382 52.3860 3853.00 3826.01 62.00
8383 52.3920 3816.00 3824.88 62.00
8384 52.3980 3802.00 3823.77 62.00
8385 52.4040 3723.00 3821.65 61.00
8386 52.4100 3806.00 3820.40 62.00
8387 52.4160 3790.00 3819.17 62.00
8388 52.4220 3801.00 3816.86 62.00
8389 52.4280 3865.00 3815.40 62.00
8390 52.4340 3845.00 3813.80 62.00
8391 52.4400 3825.00 3811.07 62.00
8392 52.4460 3764.00 3809.20 61.00
8393 52.4520 3876.00 3807.26 62.00
8394 52.4580 3761.00 3804.52 61.00
8395 52.4640 3674.00 3802.55 61.00
8396 52.4700 3763.00 3800.66 61.00
8397 52.4760 3801.00 3797.84 62.00
8398 52.4820 3862.00 3796.38 62.00
8399 52.4880 3890.00 3795.16 62.00
8400 52.4940 3849.00 3794.27 62.00
8401 52.5000 3737.00 3792.71 61.00
8402 52.5060 3663.00 3792.62 61.00
8403 52.5120 3710.00 3792.82 61.00
8404 52.5180 3649.00 3792.63 60.00
8405 52.5240 3699.00 3793.91 61.00
8406 52.5300 3834.00 3795.67 62.00
8407 52.5360 3817.00 3796.78 62.00
8408 52.5420 3797.00 3799.52 62.00
8409 52.5480 3774.00 3802.64 61.00
8410 52.5540 3762.00 3805.41 61.00
8411 52.5600 3765.00 3809.72 61.00
8412 52.5660 3792.00 3814.61 62.00
8413 52.5720 3701.00 3820.11 61.00
8414 52.5780 3711.00 3825.54 61.00
8415 52.5840 3721.00 3832.45 61.00
8416 52.5900 3776.00 3840.16 61.00
8417 52.5960 3753.00 3847.76 61.00
8418 52.6020 3718.00 3857.35 61.00
8419 52.6080 3780.00 3867.75 61.00
8420 52.6140 3822.00 3878.58 62.00
8421 52.6200 3856.00 3891.69 62.00
8422 52.6260 3922.00 3906.16 63.00
8423 52.6320 3951.00 3922.18 63.00
8424 52.6380 3876.00 3938.56 62.00
8425 52.6440 3847.00 3957.76 62.00
8426 52.6500 3889.00 3978.16 62.00
8427 52.6560 3907.00 3999.38 63.00
8428 52.6620 3971.00 4022.59 63.00
8429 52.6680 4061.00 4047.11 64.00
8430 52.6740 4017.00 4071.57 63.00
8431 52.6800 4020.00 4097.82 63.00
8432 52.6860 4046.00 4124.55 64.00
8433 52.6920 4124.00 4151.67 64.00
8434 52.6980 4198.00 4177.37 65.00
8435 52.7040 4246.00 4203.36 65.00
8436 52.7100 4269.00 4228.34 65.00
8437 52.7160 4258.00 4250.92 65.00
8438 52.7220 4242.00 4273.17 65.00
8439 52.7280 4265.00 4292.93 65.00
8440 52.7340 4307.00 4309.20 66.00
8441 52.7400 4253.00 4324.11 65.00
8442 52.7460 4272.00 4336.33 65.00
8443 52.7520 4314.00 4345.78 66.00
8444 52.7580 4271.00 4351.27 65.00
8445 52.7640 4330.00 4355.07 66.00
8446 52.7700 4311.00 4356.37 66.00
8447 52.7760 4131.00 4353.72 64.00
8448 52.7820 4137.00 4349.76 64.00
8449 52.7880 4129.00 4343.66 64.00
8450 52.7940 4208.00 4334.67 65.00
8451 52.8000 4245.00 4325.28 65.00
8452 52.8060 4127.00 4314.84 64.00
8453 52.8120 4145.00 4303.65 64.00
8454 52.8180 4226.00 4291.13 65.00
8455 52.8240 4163.00 4279.63 65.00
8456 52.8300 4144.00 4268.45 64.00
8457 52.8360 4025.00 4257.02 63.00
8458 52.8420 4147.00 4247.25 64.00
8459 52.8480 4083.00 4238.45 64.00
8460 52.8540 4197.00 4229.72 65.00
8461 52.8600 4204.00 4223.07 65.00
8462 52.8660 4172.00 4217.49 65.00
8463 52.8720 4016.00 4212.96 63.00
8464 52.8780 4041.00 4208.16 64.00
8465 52.8840 4210.00 4204.98 65.00
8466 52.8900 4164.00 4202.21 65.00
8467 52.8960 4174.00 4198.63 65.00
8468 52.9020 4199.00 4196.22 65.00
8469 52.9080 4178.00 4193.27 65.00
8470 52.9140 4173.00 4188.78 65.00
8471 52.9200 4093.00 4184.54 64.00
8472 52.9260 3998.00 4179.35 63.00
8473 52.9320 4091.00 4173.10 64.00
8474 52.9380 4144.00 4164.69 64.00
8475 52.9440 4130.00 4156.06 64.00
8476 52.9500 4047.00 4146.22 64.00
8477 52.9560 4071.00 4134.23 64.00
8478 52.9620 4126.00 4122.14 64.00
8479 52.9680 4112.00 4109.09 64.00
8480 52.9740 4056.00 4094.22 64.00
8481 52.9800 3927.00 4079.72 63.00
8482 52.9860 3944.00 4064.64 63.00
8483 52.9920 4013.00 4049.51 63.00
8484 52.9980 4077.00 4033.44 64.00
8485 53.0040 4043.00 4018.68 64.00
8486 53.0100 4051.00 4004.48 64.00
8487 53.0160 3998.00 3990.13 63.00
8488 53.0220 3971.00 3977.39 63.00
8489 53.0280 3983.00 3966.44 63.00
8490 53.0340 3962.00 3955.52 63.00
8491 53.0400 3925.00 3947.55 63.00
8492 53.0460 4004.00 3941.36 63.00
8493 53.0520 4019.00 3937.07 63.00
8494 53.0580 3883.00 3933.77 62.00
8495 53.0640 4059.00 3933.31 64.00
8496 53.0700 4097.00 3934.87 64.00
8497 53.0760 4022.00 3937.35 63.00
8498 53.0820 4075.00 3942.68 64.00
8499 53.0880 4141.00 3949.73 64.00
8500 53.0940 4031.00 3957.36 63.00
8501 53.1000 4126.00 3967.40 64.00
8502 53.1060 4255.00 3978.63 65.00
8503 53.1120 4115.00 3990.83 64.00
8504 53.1180 4091.00 4002.75 64.00
8505 53.1240 4053.00 4016.14 64.00
8506 53.1300 4274.00 4029.72 65.00
8507 53.1360 4296.00 4042.22 66.00
8508 53.1420 4204.00 4055.33 65.00
8509 53.1480 4151.00 4067.80 64.00
8510 53.1540 4244.00 4078.32 65.00
8511 53.1600 4133.00 4088.76 64.00
8512 53.1660 4175.00 4097.57 65.00
8513 53.1720 4113.00 4103.66 64.00
8514 53.1780 4146.00 4108.88 64.00
8515 53.1840 4176.00 4112.07 65.00
8516 53.1900 4182.00 4113.25 65.00
8517 53.1960 4135.00 4111.31 64.00
8518 53.2020 4053.00 4108.34 64.00
8519 53.2080 3966.00 4103.24 63.00
8520 53.2140 4293.00 4095.22 66.00
8521 53.2200 4003.00 4086.41 63.00
8522 53.2260 3981.00 4075.98 63.00
8523 53.2320 4130.00 4063.09 64.00
8524 53.2380 4166.00 4049.94 65.00
8525 53.2440 4129.00 4035.73 64.00
8526 53.2500 4072.00 4020.70 64.00
8527 53.2560 3963.00 4003.89 63.00
8528 53.2620 4102.00 3987.40 64.00
8529 53.2680 4132.00 3971.42 64.00
8530 53.2740 3961.00 3954.46 63.00
8531 53.2800 3896.00 3938.98 62.00
8532 53.2860 3924.00 3924.15 63.00
8533 53.2920 4029.00 3909.20 63.00
8534 53.2980 4094.00 3896.08 64.00
8535 53.3040 4114.00 3884.49 64.00
8536 53.3100 3881.00 3873.95 62.00
8537 53.3160 3986.00 3864.34 63.00
8538 53.3220 3983.00 3857.38 63.00
8539 53.3280 3967.00 3852.16 63.00
8540 53.3340 3882.00 3847.76 62.00
8541 53.3400 3905.00 3845.85 62.00
8542 53.3460 3842.00 3845.90 62.00
8543 53.3520 4052.00 3846.91 64.00
8544 53.3580 3920.00 3850.69 63.00
8545 53.3640 4091.00 3856.24 64.00
8546 53.3700 4074.00 3863.40 64.00
8547 53.3760 4113.00 3870.96 64.00
8548 53.3820 3996.00 3881.12 63.00
8549 53.3880 4105.00 3892.61 64.00
8550 53.3940 4089.00 3904.24 64.00
8551 53.4000 4063.00 3917.96 64.00
8552 53.4060 3963.00 3932.45 63.00
8553 53.4120 4117.00 3946.43 64.00
8554 53.4180 4105.00 3962.00 64.00
8555 53.4240 4050.00 3977.78 64.00
8556 53.4300 4076.00 3993.45 64.00
8557 53.4360 4087.00 4008.01 64.00
8558 53.4420 4093.00 4023.12 64.00
8559 53.4480 4119.00 4037.57 64.00
8560 53.4540 4170.00 4050.16 65.00
8561 53.4600 4118.00 4062.77 64.00
8562 53.4660 3997.00 4074.11 63.00
8563 53.4720 4066.00 4083.29 64.00
8564 53.4780 4091.00 4092.01 64.00
8565 53.4840 4203.00 4099.42 65.00
8566 53.4900 4141.00 4105.39 64.00
8567 53.4960 4221.00 4108.75 65.00
8568 53.5020 4184.00 4111.80 65.00
8569 53.5080 4058.00 4113.29 64.00
8570 53.5140 4101.00 4112.50 64.00
8571 53.5200 4158.00 4111.26 64.00
8572 53.5260 4322.00 4108.70 66.00
8573 53.5320 4290.00 4103.77 65.00
8574 53.5380 4297.00 4098.46 66.00
8575 53.5440 4261.00 4091.77 65.00
8576 53.5500 4173.00 4083.80 65.00
8577 53.5560 4181.00 4073.35 65.00
8578 53.5620 4186.00 4062.68 65.00
8579 53.5680 4097.00 4050.73 64.00
8580 53.5740 3941.00 4036.73 63.00
8581 53.5800 4069.00 4023.01 64.00
8582 53.5860 4128.00 4008.65 64.00
8583 53.5920 4053.00 3993.06 64.00
8584 53.5980 4071.00 3978.40 64.00
8585 53.6040 4019.00 3964.03 63.00
8586 53.6100 3941.00 3950.19 63.00
8587 53.6160 3916.00 3936.11 63.00
8588 53.6220 3948.00 3923.96 63.00
8589 53.6280 3913.00 3912.91 63.00
8590 53.6340 3813.00 3902.05 62.00
8591 53.6400 3808.00 3893.47 62.00
8592 53.6460 3863.00 3886.23 62.00
8593 53.6520 3883.00 3879.35 62.00
8594 53.6580 3967.00 3874.91 63.00
8595 53.6640 3785.00 3871.61 62.00
8596 53.6700 3879.00 3869.48 62.00
8597 53.6760 3952.00 3867.60 63.00
8598 53.6820 3922.00 3867.96 63.00
8599 53.6880 3931.00 3869.21 63.00
8600 53.6940 3867.00 3870.39 62.00
8601 53.7000 3837.00 3873.42 62.00
8602 53.7060 3878.00 3877.21 62.00
8603 53.7120 3935.00 3880.69 63.00
8604 53.7180 3947.00 3885.79 63.00
8605 53.7240 4000.00 3891.44 63.00
8606 53.7300 3931.00 3897.70 63.00
8607 53.7360 3694.00 3903.25 61.00
8608 53.7420 3629.00 3910.21 60.00
8609 53.7480 3731.00 3917.46 61.00
8610 53.7540 3848.00 3924.06 62.00
8611 53.7600 3908.00 3931.80 63.00
8612 53.7660 3984.00 3939.59 63.00
8613 53.7720 3877.00 3946.44 62.00
8614 53.7780 3879.00 3954.27 62.00
8615 53.7840 3837.00 3962.04 62.00
8616 53.7900 3860.00 3969.72 62.00
8617 53.7960 3933.00 3976.30 63.00
8618 53.8020 3958.00 3983.81 63.00
8619 53.8080 3858.00 3991.35 62.00
8620 53.8140 3857.00 3998.05 62.00
8621 53.8200 3893.00 4006.05 62.00
8622 53.8260 3915.00 4014.55 63.00
8623 53.8320 3977.00 4022.77 63.00
8624 53.8380 3959.00 4032.93 63.00
8625 53.8440 4039.00 4044.21 64.00
8626 53.8500 4045.00 4055.80 64.00
8627 53.8560 3925.00 4069.86 63.00
8628 53.8620 3904.00 4085.47 62.00
8629 53.8680 3938.00 4102.71 63.00
8630 53.8740 3969.00 4120.58 63.00
8631 53.8800 4121.00 4140.99 64.00
8632 53.8860 4066.00 4162.98 64.00
8633 53.8920 4128.00 4185.38 64.00
8634 53.8980 4194.00 4210.07 65.00
8635 53.9040 4121.00 4235.92 64.00
8636 53.9100 4155.00 4261.76 64.00
8637 53.9160 4188.00 4289.45 65.00
8638 53.9220 4256.00 4317.79 65.00
8639 53.9280 4324.00 4346.73 66.00
8640 53.9340 4285.00 4375.04 65.00
8641 53.9400 4259.00 4404.58 65.00
8642 53.9460 4319.00 4434.11 66.00
8643 53.9520 4370.00 4462.37 66.00
8644 53.9580 4366.00 4491.03 66.00
8645 53.9640 4413.00 4518.71 66.00
8646 53.9700 4465.00 4543.99 67.00
8647 53.9760 4450.00 4568.42 67.00
8648 53.9820 4437.00 4590.54 67.00
8649 53.9880 4528.00 4609.96 67.00
8650 53.9940 4572.00 4625.32 68.00
8651 54.0000 4593.00 4638.36 68.00
8652 54.0060 4572.00 4647.90 68.00
8653 54.0120 4501.00 4652.87 67.00
8654 54.0180 4501.00 4655.25 67.00
8655 54.0240 4546.00 4654.10 67.00
8656 54.0300 4581.00 4648.30 68.00
8657 54.0360 4547.00 4640.51 67.00
8658 54.0420 4500.00 4629.62 67.00
8659 54.0480 4472.00 4615.82 67.00
8660 54.0540 4506.00 4598.16 67.00
8661 54.0600 4469.00 4579.20 67.00
8662 54.0660 4502.00 4558.04 67.00
8663 54.0720 4514.00 4533.98 67.00
8664 54.0780 4457.00 4509.29 67.00
8665 54.0840 4388.00 4483.37 66.00
8666 54.0900 4404.00 4455.31 66.00
8667 54.0960 4410.00 4427.88 66.00
8668 54.1020 4396.00 4400.06 66.00
8669 54.1080 4431.00 4372.38 67.00
8670 54.1140 4451.00 4344.06 67.00
8671 54.1200 4379.00 4317.16 66.00
8672 54.1260 4331.00 4290.91 66.00
8673 54.1320 4359.00 4264.64 66.00
8674 54.1380 4381.00 4240.44 66.00
8675 54.1440 4344.00 4217.33 66.00
8676 54.1500 4250.00 4194.62 65.00
8677 54.1560 4233.00 4174.30 65.00
8678 54.1620 4270.00 4155.40 65.00
8679 54.1680 4306.00 4137.79 66.00
8680 54.1740 4307.00 4120.48 66.00
8681 54.1800 4210.00 4105.38 65.00
8682 54.1860 4228.00 4091.38 65.00
8683 54.1920 4239.00 4077.34 65.00
8684 54.1980 4201.00 4064.99 65.00
8685 54.2040 4191.00 4053.48 65.00
8686 54.2100 4144.00 4041.53 64.00
8687 54.2160 4128.00 4030.99 64.00
8688 54.2220 4090.00 4020.76 64.00
8689 54.2280 4072.00 4010.70 64.00
8690 54.2340 4117.00 3999.84 64.00
8691 54.2400 4002.00 3989.60 63.00
8692 54.2460 4008.00 3979.58 63.00
8693 54.2520 4121.00 3968.46 64.00
8694 54.2580 4051.00 3958.26 64.00
8695 54.2640 3963.00 3948.08 63.00
8696 54.2700 3947.00 3936.97 63.00
8697 54.2760 3888.00 3926.94 62.00
8698 54.2820 3915.00 3917.30 63.00
8699 54.2880 3928.00 3908.20 63.00
8700 54.2940 3886.00 3898.76 62.00
8701 54.3000 3837.00 3890.96 62.00
8702 54.3060 3833.00 3883.97 62.00
8703 54.3120 3853.00 3876.72 62.00
8704 54.3180 3904.00 3871.50 62.00
8705 54.3240 3905.00 3867.27 62.00
8706 54.3300 3844.00 3862.83 62.00
8707 54.3360 3911.00 3860.27 63.00
8708 54.3420 3937.00 3858.38 63.00
8709 54.3480 3958.00 3857.12 63.00
8710 54.3540 3977.00 3855.36 63.00
8711 54.3600 3939.00 3854.95 63.00
8712 54.3660 3889.00 3854.77 62.00
8713 54.3720 3779.00 3853.66 61.00
8714 54.3780 3841.00 3853.50 62.00
8715 54.3840 3971.00 3853.19 63.00
8716 54.3900 3951.00 3851.67 63.00
8717 54.3960 3934.00 3850.93 63.00
8718 54.4020 3946.00 3849.92 63.00
8719 54.4080 3931.00 3848.70 63.00
8720 54.4140 3896.00 3846.33 62.00
8721 54.4200 3853.00 3844.93 62.00
8722 54.4260 3807.00 3843.56 62.00
8723 54.4320 3826.00 3841.35 62.00
8724 54.4380 3834.00 3840.47 62.00
8725 54.4440 3858.00 3839.92 62.00
8726 54.4500 3888.00 3838.82 62.00
8727 54.4560 3860.00 3839.30 62.00
8728 54.4620 3854.00 3840.42 62.00
8729 54.4680 3870.00 3842.07 62.00
8730 54.4740 3901.00 3843.36 62.00
8731 54.4800 3915.00 3846.13 63.00
8732 54.4860 3856.00 3849.35 62.00
8733 54.4920 3790.00 3851.90 62.00
8734 54.4980 3892.00 3855.53 62.00
8735 54.5040 3966.00 3859.13 63.00
8736 54.5100 3953.00 3861.78 63.00
8737 54.5160 3855.00 3865.10 62.00
8738 54.5220 3848.00 3867.93 62.00
8739 54.5280 3936.00 3870.08 63.00
8740 54.5340 3928.00 3870.25 63.00
8741 54.5400 3976.00 3870.67 63.00
8742 54.5460 3948.00 3870.09 63.00
8743 54.5520 3894.00 3867.64 62.00
8744 54.5580 3896.00 3865.01 62.00
8745 54.5640 3831.00 3861.30 62.00
8746 54.5700 3850.00 3855.63 62.00
8747 54.5760 3850.00 3850.11 62.00
8748 54.5820 3790.00 3843.85 62.00
8749 54.5880 3806.00 3835.88 62.00
8750 54.5940 3787.00 3828.59 62.00
8751 54.6000 3719.00 3820.98 61.00
8752 54.6060 3755.00 3813.18 61.00
8753 54.6120 3802.00 3804.39 62.00
8754 54.6180 3759.00 3796.50 61.00
8755 54.6240 3706.00 3788.68 61.00
8756 54.6300 3711.00 3780.01 61.00
8757 54.6360 3793.00 3772.55 62.00
8758 54.6420 3755.00 3765.35 61.00
8759 54.6480 3750.00 3757.47 61.00
8760 54.6540 3750.00 3750.94 61.00
8761 54.6600 3737.00 3744.78 61.00
8762 54.6660 3834.00 3739.04 62.00
8763 54.6720 3760.00 3732.70 61.00
8764 54.6780 3699.00 3727.77 61.00
8765 54.6840 3700.00 3723.21 61.00
8766 54.6900 3706.00 3718.01 61.00
8767 54.6960 3694.00 3714.11 61.00
8768 54.7020 3729.00 3710.49 61.00
8769 54.7080 3739.00 3706.29 61.00
8770 54.7140 3755.00 3703.10 61.00
8771 54.7200 3653.00 3700.07 60.00
8772 54.7260 3592.00 3697.25 60.00
8773 54.7320 3666.00 3693.48 61.00
8774 54.7380 3687.00 3690.83 61.00
8775 54.7440 3722.00 3688.27 61.00
8776 54.7500 3647.00 3684.86 60.00
8777 54.7560 3593.00 3682.71 60.00
8778 54.7620 3640.00 3680.64 60.00
8779 54.7680 3632.00 3677.79 60.00
8780 54.7740 3660.00 3676.23 60.00
8781 54.7800 3782.00 3674.91 61.00
8782 54.7860 3715.00 3674.11 61.00
8783 54.7920 3684.00 3672.70 61.00
8784 54.7980 3654.00 3672.94 60.00
8785 54.8040 3698.00 3673.81 61.00
8786 54.8100 3731.00 3674.38 61.00
8787 54.8160 3688.00 3676.60 61.00
8788 54.8220 3641.00 3679.62 60.00
8789 54.8280 3696.00 3682.77 61.00
8790 54.8340 3668.00 3687.62 61.00
8791 54.8400 3716.00 3693.55 61.00
8792 54.8460 3741.00 3700.10 61.00
8793 54.8520 3763.00 3706.62 61.00
8794 54.8580 3764.00 3715.00 61.00
8795 54.8640 3770.00 3724.14 61.00
8796 54.8700 3801.00 3733.08 62.00
8797 54.8760 3766.00 3743.71 61.00
8798 54.8820 3735.00 3754.97 61.00
8799 54.8880 3789.00 3765.65 62.00
8800 54.8940 3846.00 3777.75 62.00
8801 54.9000 3933.00 3789.76 63.00
8802 54.9060 3799.00 3801.84 62.00
8803 54.9120 3702.00 3812.98 61.00
8804 54.9180 3700.00 3824.87 61.00
8805 54.9240 3781.00 3836.37 61.00
8806 54.9300 3806.00 3846.38 62.00
8807 54.9360 3880.00 3856.80 62.00
8808 54.9420 3899.00 3866.60 62.00
8809 54.9480 3824.00 3874.73 62.00
8810 54.9540 3820.00 3883.38 62.00
8811 54.9600 3927.00 3891.26 63.00
8812 54.9660 3903.00 3898.58 62.00
8813 54.9720 3768.00 3904.42 61.00
8814 54.9780 3786.00 3910.81 62.00
8815 54.9840 3831.00 3916.83 62.00
8816 54.9900 3889.00 3921.64 62.00
8817 54.9960 3928.00 3927.02 63.00
8818 55.0020 3942.00 3932.16 63.00
8819 55.0080 3894.00 3935.90 62.00
8820 55.0140 3931.00 3940.27 63.00
8821 55.0200 3925.00 3944.16 63.00
8822 55.0260 3890.00 3947.53 62.00
8823 55.0320 4055.00 3949.25 64.00
8824 55.0380 4035.00 3951.46 64.00
8825 55.0440 3970.00 3952.91 63.00
8826 55.0500 3986.00 3952.50 63.00
8827 55.0560 3896.00 3952.40 62.00
8828 55.0620 3835.00 3951.55 62.00
8829 55.0680 3914.00 3948.98 63.00
8830 55.0740 3911.00 3946.69 63.00
8831 55.0800 3858.00 3943.67 62.00
8832 55.0860 3861.00 3939.90 62.00
8833 55.0920 3960.00 3934.35 63.00
8834 55.0980 3898.00 3928.95 62.00
8835 55.1040 3856.00 3922.63 62.00
8836 55.1100 3812.00 3914.34 62.00
8837 55.1160 3776.00 3906.01 61.00
8838 55.1220 3802.00 3896.64 62.00
8839 55.1280 3833.00 3885.15 62.00
8840 55.1340 3806.00 3873.60 62.00
8841 55.1400 3747.00 3861.06 61.00
8842 55.1460 3799.00 3847.38 62.00
8843 55.1520 3760.00 3832.19 61.00
8844 55.1580 3702.00 3817.44 61.00
8845 55.1640 3798.00 3802.28 62.00
8846 55.1700 3890.00 3785.86 62.00
8847 55.1760 3840.00 3770.43 62.00
8848 55.1820 3761.00 3755.11 61.00
8849 55.1880 3720.00 3739.05 61.00
8850 55.1940 3571.00 3724.37 60.00
8851 55.2000 3611.00 3710.19 60.00
8852 55.2060 3620.00 3696.60 60.00
8853 55.2120 3667.00 3682.66 61.00
8854 55.2180 3585.00 3670.45 60.00
8855 55.2240 3617.00 3659.00 60.00
8856 55.2300 3574.00 3647.34 60.00
8857 55.2360 3591.00 3637.51 60.00
8858 55.2420 3570.00 3628.38 60.00
8859 55.2480 3618.00 3619.20 60.00
8860 55.2540 3528.00 3611.84 59.00
8861 55.2600 3560.00 3605.31 60.00
8862 55.2660 3619.00 3599.49 60.00
8863 55.2720 3666.00 3593.37 61.00
8864 55.2780 3663.00 3589.18 61.00
8865 55.2840 3529.00 3585.73 59.00
8866 55.2900 3498.00 3582.01 59.00
8867 55.2960 3510.00 3579.99 59.00
8868 55.3020 3525.00 3578.64 59.00
8869 55.3080 3562.00 3577.96 60.00
8870 55.3140 3568.00 3576.92 60.00
8871 55.3200 3525.00 3577.50 59.00
8872 55.3260 3537.00 3578.57 59.00
8873 55.3320 3559.00 3580.37 60.00
8874 55.3380 3626.00 3581.56 60.00
8875 55.3440 3548.00 3584.39 60.00
8876 55.3500 3543.00 3587.75 60.00
8877 55.3560 3521.00 3591.55 59.00
8878 55.3620 3645.00 3596.11 60.00
8879 55.3680 3682.00 3600.08 61.00
8880 55.3740 3579.00 3605.59 60.00
8881 55.3800 3666.00 3611.52 61.00
8882 55.3860 3663.00 3617.84 61.00
8883 55.3920 3638.00 3623.23 60.00
8884 55.3980 3612.00 3630.16 60.00
8885 55.4040 3582.00 3637.30 60.00
8886 55.4100 3703.00 3644.57 61.00
8887 55.4160 3561.00 3650.88 60.00
8888 55.4220 3490.00 3657.89 59.00
8889 55.4280 3609.00 3664.87 60.00
8890 55.4340 3682.00 3671.76 61.00
8891 55.4400 3602.00 3678.35 60.00
8892 55.4460 3650.00 3683.51 60.00
8893 55.4520 3717.00 3689.20 61.00
8894 55.4580 3675.00 3694.34 61.00
8895 55.4640 3771.00 3698.92 61.00
8896 55.4700 3635.00 3701.92 60.00
8897 55.4760 3528.00 3705.09 59.00
8898 55.4820 3595.00 3707.94 60.00
8899 55.4880 3742.00 3710.24 61.00
8900 55.4940 3682.00 3712.06 61.00
8901 55.5000 3652.00 3712.39 60.00
8902 55.5060 3647.00 3713.31 60.00
8903 55.5120 3620.00 3713.84 60.00
8904 55.5180 3745.00 3714.11 61.00
8905 55.5240 3648.00 3713.13 60.00
8906 55.5300 3665.00 3712.97 61.00
8907 55.5360 3683.00 3712.68 61.00
8908 55.5420 3596.00 3712.31 60.00
8909 55.5480 3660.00 3711.77 60.00
8910 55.5540 3609.00 3710.37 60.00
8911 55.5600 3722.00 3710.04 61.00
8912 55.5660 3689.00 3709.79 61.00
8913 55.5720 3785.00 3709.68 62.00
8914 55.5780 3793.00 3708.73 62.00
8915 55.5840 3853.00 3708.88 62.00
8916 55.5900 3730.00 3709.34 61.00
8917 55.5960 3723.00 3710.00 61.00
8918 55.6020 3801.00 3710.96 62.00
8919 55.6080 3759.00 3711.01 61.00
8920 55.6140 3737.00 3712.02 61.00
8921 55.6200 3784.00 3713.41 62.00
8922 55.6260 3779.00 3715.07 61.00
8923 55.6320 3713.00 3715.73 61.00
8924 55.6380 3762.00 3717.60 61.00
8925 55.6440 3813.00 3719.52 62.00
8926 55.6500 3860.00 3721.79 62.00
8927 55.6560 3669.00 3723.99 61.00
8928 55.6620 3666.00 3725.39 61.00
8929 55.6680 3682.00 3727.85 61.00
8930 55.6740 3722.00 3730.43 61.00
8931 55.6800 3624.00 3733.10 60.00
8932 55.6860 3775.00 3734.84 61.00
8933 55.6920 3701.00 3737.62 61.00
8934 55.6980 3842.00 3740.40 62.00
8935 55.7040 3825.00 3743.19 62.00
8936 55.7100 3864.00 3744.89 62.00
8937 55.7160 3800.00 3747.61 62.00
8938 55.7220 3728.00 3750.18 61.00
8939 55.7280 3751.00 3752.94 61.00
8940 55.7340 3801.00 3755.41 62.00
8941 55.7400 3734.00 3757.19 61.00
8942 55.7460 3781.00 3759.83 61.00
8943 55.7520 3622.00 3762.49 60.00
8944 55.7580 3747.00 3765.48 61.00
8945 55.7640 3629.00 3767.80 60.00
8946 55.7700 3745.00 3771.39 61.00
8947 55.7760 3898.00 3775.37 62.00
8948 55.7820 3839.00 3779.69 62.00
8949 55.7880 3743.00 3784.51 61.00
8950 55.7940 3801.00 3788.85 62.00
8951 55.8000 3822.00 3794.48 62.00
8952 55.8060 3758.00 3800.47 61.00
8953 55.8120 3848.00 3806.75 62.00
8954 55.8180 3594.00 3812.26 60.00
8955 55.8240 3764.00 3818.91 61.00
8956 55.8300 3773.00 3825.60 61.00
8957 55.8360 3735.00 3832.24 61.00
8958 55.8420 3677.00 3838.76 61.00
8959 55.8480 3613.00 3844.15 60.00
8960 55.8540 3805.00 3850.23 62.00
8961 55.8600 3784.00 3856.02 62.00
8962 55.8660 3827.00 3861.53 62.00
8963 55.8720 3872.00 3865.78 62.00
8964 55.8780 3785.00 3870.80 62.00
8965 55.8840 3793.00 3875.63 62.00
8966 55.8900 3692.00 3880.17 61.00
8967 55.8960 3762.00 3884.74 61.00
8968 55.9020 3622.00 3888.21 60.00
8969 55.9080 3754.00 3892.56 61.00
8970 55.9140 3611.00 3896.75 60.00
8971 55.9200 3722.00 3900.62 61.00
8972 55.9260 3689.00 3903.39 61.00
8973 55.9320 3728.00 3906.39 61.00
8974 55.9380 3727.00 3908.89 61.00
8975 55.9440 3733.00 3910.62 61.00
8976 55.9500 3757.00 3911.46 61.00
8977 55.9560 3680.00 3910.33 61.00
8978 55.9620 3634.00 3909.32 60.00
8979 55.9680 3771.00 3907.12 61.00
8980 55.9740 3723.00 3903.94 61.00
8981 55.9800 3742.00 3898.88 61.00
8982 55.9860 3567.00 3894.07 60.00
8983 55.9920 3775.00 3888.83 61.00
8984 55.9980 3682.00 3882.93 61.00
8985 56.0040 3587.00 3875.87 60.00
8986 56.0100 3747.00 3869.82 61.00
8987 56.0160 3714.00 3863.78 61.00
8988 56.0220 3674.00 3857.98 61.00
8989 56.0280 3693.00 3852.57 61.00
8990 56.0340 3609.00 3846.69 60.00
8991 56.0400 3669.00 3842.54 61.00
8992 56.0460 3672.00 3839.05 61.00
8993 56.0520 3673.00 3836.41 61.00
8994 56.0580 3660.00 3833.65 60.00
8995 56.0640 3734.00 3832.81 61.00
8996 56.0700 3749.00 3832.84 61.00
8997 56.0760 3767.00 3833.79 61.00
8998 56.0820 3727.00 3835.57 61.00
8999 56.0880 3878.00 3837.06 62.00
9000 56.0940 3805.00 3840.16 62.00
9001 56.1000 3863.00 3843.75 62.00
9002 56.1060 3718.00 3847.64 61.00
9003 56.1120 3708.00 3850.79 61.00
9004 56.1180 3703.00 3855.05 61.00
9005 56.1240 3739.00 3859.32 61.00
9006 56.1300 3691.00 3863.52 61.00
9007 56.1360 3648.00 3867.61 60.00
9008 56.1420 3786.00 3870.52 62.00
9009 56.1480 3931.00 3874.35 63.00
9010 56.1540 3889.00 3878.06 62.00
9011 56.1600 3693.00 3881.68 61.00
9012 56.1660 3790.00 3884.25 62.00
9013 56.1720 3659.00 3887.80 60.00
9014 56.1780 3702.00 3891.38 61.00
9015 56.1840 3732.00 3894.99 61.00
9016 56.1900 3815.00 3898.72 62.00
9017 56.1960 3765.00 3901.45 61.00
9018 56.2020 3771.00 3905.24 61.00
9019 56.2080 3797.00 3908.92 62.00
9020 56.2140 3793.00 3912.47 62.00
9021 56.2200 3901.00 3914.77 62.00
9022 56.2260 3953.00 3917.72 63.00
9023 56.2320 3984.00 3920.18 63.00
9024 56.2380 3703.00 3922.08 61.00
9025 56.2440 3879.00 3923.36 62.00
9026 56.2500 3843.00 3922.91 62.00
9027 56.2560 3924.00 3922.77 63.00
9028 56.2620 3947.00 3921.97 63.00
9029 56.2680 3961.00 3920.60 63.00
9030 56.2740 4045.00 3917.78 64.00
9031 56.2800 3847.00 3915.57 62.00
9032 56.2860 3729.00 3913.11 61.00
9033 56.2920 3980.00 3910.53 63.00
9034 56.2980 4036.00 3906.89 64.00
9035 56.3040 4013.00 3904.40 63.00
9036 56.3100 3946.00 3901.95 63.00
9037 56.3160 4011.00 3899.91 63.00
9038 56.3220 4011.00 3898.11 63.00
9039 56.3280 4054.00 3895.71 64.00
9040 56.3340 3918.00 3894.55 63.00
9041 56.3400 3947.00 3893.85 63.00
9042 56.3460 3983.00 3893.38 63.00
9043 56.3520 3975.00 3892.25 63.00
9044 56.3580 3881.00 3892.30 62.00
9045 56.3640 3925.00 3892.43 63.00
9046 56.3700 3970.00 3892.54 63.00
9047 56.3760 3933.00 3892.59 63.00
9048 56.3820 3913.00 3891.38 63.00
9049 56.3880 3845.00 3890.71 62.00
9050 56.3940 3936.00 3889.58 63.00
9051 56.4000 3872.00 3887.88 62.00
9052 56.4060 3968.00 3884.55 63.00
9053 56.4120 4070.00 3881.61 64.00
9054 56.4180 3957.00 3877.79 63.00
9055 56.4240 3955.00 3873.34 63.00
9056 56.4300 3914.00 3868.11 63.00
9057 56.4360 3793.00 3860.94 62.00
9058 56.4420 3854.00 3854.07 62.00
9059 56.4480 3963.00 3846.39 63.00
9060 56.4540 3865.00 3837.91 62.00
9061 56.4600 3846.00 3827.65 62.00
9062 56.4660 3847.00 3817.68 62.00
9063 56.4720 3800.00 3807.05 62.00
9064 56.4780 3792.00 3795.86 62.00
9065 56.4840 3744.00 3784.19 61.00
9066 56.4900 3697.00 3771.11 61.00
9067 56.4960 3733.00 3758.79 61.00
9068 56.5020 3759.00 3746.31 61.00
9069 56.5080 3822.00 3733.63 62.00
9070 56.5140 3789.00 3720.05 62.00
9071 56.5200 3732.00 3707.37 61.00
9072 56.5260 3755.00 3694.82 61.00
9073 56.5320 3721.00 3682.56 61.00
9074 56.5380 3805.00 3669.56 62.00
9075 56.5440 3679.00 3657.86 61.00
9076 56.5500 3743.00 3646.52 61.00
9077 56.5560 3713.00 3635.58 61.00
9078 56.5620 3717.00 3625.12 61.00
9079 56.5680 3675.00 3614.11 61.00
9080 56.5740 3674.00 3604.59 61.00
9081 56.5800 3742.00 3595.58 61.00
9082 56.5860 3603.00 3587.15 60.00
9083 56.5920 3601.00 3578.30 60.00
9084 56.5980 3488.00 3570.94 59.00
9085 56.6040 3619.00 3564.17 60.00
9086 56.6100 3667.00 3557.85 61.00
9087 56.6160 3668.00 3552.05 61.00
9088 56.6220 3539.00 3545.75 59.00
9089 56.6280 3642.00 3541.00 60.00
9090 56.6340 3596.00 3536.67 60.00
9091 56.6400 3546.00 3532.80 60.00
9092 56.6460 3584.00 3528.37 60.00
9093 56.6520 3597.00 3525.38 60.00
9094 56.6580 3589.00 3522.79 60.00
9095 56.6640 3596.00 3520.61 60.00
9096 56.6700 3587.00 3518.82 60.00
9097 56.6760 3603.00 3516.44 60.00
9098 56.6820 3583.00 3515.39 60.00
9099 56.6880 3623.00 3514.68 60.00
9100 56.6940 3637.00 3514.31 60.00
9101 56.7000 3575.00 3513.28 60.00
9102 56.7060 3512.00 3513.56 59.00
9103 56.7120 3566.00 3514.16 60.00
9104 56.7180 3530.00 3515.05 59.00
9105 56.7240 3514.00 3516.22 59.00
9106 56.7300 3545.00 3516.68 60.00
9107 56.7360 3614.00 3518.45 60.00
9108 56.7420 3583.00 3520.41 60.00
9109 56.7480 3602.00 3522.65 60.00
9110 56.7540 3525.00 3524.03 59.00
9111 56.7600 3570.00 3526.59 60.00
9112 56.7660 3597.00 3529.36 60.00
9113 56.7720 3655.00 3532.20 60.00
9114 56.7780 3661.00 3535.13 61.00
9115 56.7840 3587.00 3537.11 60.00
9116 56.7900 3603.00 3540.22 60.00
9117 56.7960 3630.00 3543.20 60.00
9118 56.8020 3549.00 3546.11 60.00
9119 56.8080 3574.00 3547.95 60.00
9120 56.8140 3644.00 3550.63 60.00
9121 56.8200 3636.00 3553.16 60.00
9122 56.8260 3559.00 3555.53 60.00
9123 56.8320 3574.00 3556.75 60.00
9124 56.8380 3713.00 3558.74 61.00
9125 56.8440 3633.00 3560.83 60.00
9126 56.8500 3553.00 3562.84 60.00
9127 56.8560 3563.00 3564.69 60.00
9128 56.8620 3563.00 3565.49 60.00
9129 56.8680 3676.00 3567.47 61.00
9130 56.8740 3632.00 3569.62 60.00
9131 56.8800 3588.00 3571.99 60.00
9132 56.8860 3682.00 3573.81 61.00
9133 56.8920 3629.00 3576.86 60.00
9134 56.8980 3577.00 3580.30 60.00
9135 56.9040 3651.00 3584.33 60.00
9136 56.9100 3670.00 3588.96 61.00
9137 56.9160 3620.00 3593.30 60.00
9138 56.9220 3704.00 3599.38 61.00
9139 56.9280 3712.00 3606.21 61.00
9140 56.9340 3659.00 3613.91 60.00
9141 56.9400 3609.00 3621.53 60.00
9142 56.9460 3610.00 3631.15 60.00
9143 56.9520 3630.00 3641.72 60.00
9144 56.9580 3665.00 3653.62 61.00
9145 56.9640 3728.00 3666.44 61.00
9146 56.9700 3704.00 3679.39 61.00
9147 56.9760 3696.00 3694.49 61.00
9148 56.9820 3739.00 3710.76 61.00
9149 56.9880 3698.00 3728.14 61.00
9150 56.9940 3730.00 3745.34 61.00
9151 57.0000 3731.00 3764.57 61.00
9152 57.0060 3834.00 3784.52 62.00
9153 57.0120 3880.00 3805.09 62.00
9154 57.0180 3936.00 3826.14 63.00
9155 57.0240 3929.00 3846.38 63.00
9156 57.0300 3860.00 3867.87 62.00
9157 57.0360 3918.00 3889.33 63.00
9158 57.0420 3847.00 3910.43 62.00
9159 57.0480 3974.00 3929.99 63.00
9160 57.0540 3936.00 3949.81 63.00
9161 57.0600 3937.00 3968.68 63.00
9162 57.0660 3910.00 3986.41 63.00
9163 57.0720 3926.00 4002.83 63.00
9164 57.0780 3970.00 4016.83 63.00
9165 57.0840 4028.00 4030.33 63.00
9166 57.0900 3973.00 4042.19 63.00
9167 57.0960 3943.00 4052.56 63.00
9168 57.1020 3893.00 4060.40 62.00
9169 57.1080 3983.00 4067.77 63.00
9170 57.1140 4041.00 4073.66 64.00
9171 57.1200 4106.00 4078.18 64.00
9172 57.1260 4080.00 4080.26 64.00
9173 57.1320 4049.00 4082.16 64.00
9174 57.1380 4050.00 4082.55 64.00
9175 57.1440 3962.00 4081.62 63.00
9176 57.1500 3945.00 4079.29 63.00
9177 57.1560 3969.00 4074.43 63.00
9178 57.1620 4025.00 4069.03 63.00
9179 57.1680 4067.00 4062.10 64.00
9180 57.1740 3949.00 4053.68 63.00
9181 57.1800 3902.00 4042.87 62.00
9182 57.1860 3947.00 4031.71 63.00
9183 57.1920 3954.00 4019.40 63.00
9184 57.1980 3922.00 4006.13 63.00
9185 57.2040 3908.00 3992.14 63.00
9186 57.2100 3969.00 3976.64 63.00
9187 57.2160 3876.00 3961.88 62.00
9188 57.2220 3795.00 3947.08 62.00
9189 57.2280 3897.00 3932.43 62.00
9190 57.2340 3944.00 3917.19 63.00
9191 57.2400 3877.00 3903.52 62.00
9192 57.2460 3817.00 3890.54 62.00
9193 57.2520 3823.00 3878.51 62.00
9194 57.2580 3753.00 3867.40 61.00
9195 57.2640 3776.00 3856.53 61.00
9196 57.2700 3841.00 3847.86 62.00
9197 57.2760 3801.00 3840.51 62.00
9198 57.2820 3713.00 3834.46 61.00
9199 57.2880 3772.00 3828.83 61.00
9200 57.2940 3794.00 3825.62 62.00
9201 57.3000 3772.00 3823.72 61.00
9202 57.3060 3852.00 3823.17 62.00
9203 57.3120 3916.00 3823.89 63.00
9204 57.3180 3895.00 3824.82 62.00
9205 57.3240 3923.00 3827.85 63.00
9206 57.3300 3944.00 3831.90 63.00
9207 57.3360 3920.00 3836.74 63.00
9208 57.3420 3940.00 3841.27 63.00
9209 57.3480 3962.00 3847.18 63.00
9210 57.3540 3870.00 3853.31 62.00
9211 57.3600 3810.00 3859.42 62.00
9212 57.3660 3838.00 3865.09 62.00
9213 57.3720 3863.00 3869.30 62.00
9214 57.3780 3859.00 3874.01 62.00
9215 57.3840 3945.00 3877.88 63.00
9216 57.3900 3955.00 3880.75 63.00
9217 57.3960 3828.00 3881.49 62.00
9218 57.4020 3826.00 3882.02 62.00
9219 57.4080 3911.00 3881.27 63.00
9220 57.4140 3912.00 3879.20 63.00
9221 57.4200 3930.00 3874.80 63.00
9222 57.4260 3847.00 3869.97 62.00
9223 57.4320 3866.00 3863.97 62.00
9224 57.4380 3894.00 3856.69 62.00
9225 57.4440 3923.00 3848.21 63.00
9226 57.4500 3944.00 3837.63 63.00
9227 57.4560 3922.00 3827.03 63.00
9228 57.4620 3882.00 3815.56 62.00
9229 57.4680 3793.00 3803.34 62.00
9230 57.4740 3735.00 3789.50 61.00
9231 57.4800 3740.00 3776.23 61.00
9232 57.4860 3700.00 3762.69 61.00
9233 57.4920 3721.00 3749.01 61.00
9234 57.4980 3707.00 3735.36 61.00
9235 57.5040 3690.00 3720.94 61.00
9236 57.5100 3804.00 3707.87 62.00
9237 57.5160 3784.00 3695.28 62.00
9238 57.5220 3718.00 3683.33 61.00
9239 57.5280 3746.00 3670.94 61.00
9240 57.5340 3754.00 3660.58 61.00
9241 57.5400 3691.00 3651.15 61.00
9242 57.5460 3622.00 3642.69 60.00
9243 57.5520 3559.00 3635.19 60.00
9244 57.5580 3542.00 3627.82 60.00
9245 57.5640 3606.00 3622.52 60.00
9246 57.5700 3650.00 3618.29 60.00
9247 57.5760 3751.00 3615.11 61.00
9248 57.5820 3781.00 3611.85 61.00
9249 57.5880 3689.00 3610.68 61.00
9250 57.5940 3719.00 3610.45 61.00
9251 57.6000 3688.00 3611.09 61.00
9252 57.6060 3635.00 3612.59 60.00
9253 57.6120 3676.00 3613.75 61.00
9254 57.6180 3750.00 3616.55 61.00
9255 57.6240 3810.00 3619.91 62.00
9256 57.6300 3804.00 3623.74 62.00
9257 57.6360 3727.00 3626.95 61.00
9258 57.6420 3677.00 3631.47 61.00
9259 57.6480 3711.00 3636.25 61.00
9260 57.6540 3702.00 3641.05 61.00
9261 57.6600 3673.00 3645.21 61.00
9262 57.6660 3680.00 3650.50 61.00
9263 57.6720 3720.00 3655.76 61.00
9264 57.6780 3750.00 3661.29 61.00
9265 57.6840 3785.00 3666.92 62.00
9266 57.6900 3756.00 3671.63 61.00
9267 57.6960 3705.00 3677.43 61.00
9268 57.7020 3723.00 3683.27 61.00
9269 57.7080 3756.00 3689.14 61.00
9270 57.7140 3829.00 3693.94 62.00
9271 57.7200 3793.00 3699.75 62.00
9272 57.7260 3706.00 3705.35 61.00
9273 57.7320 3691.00 3710.89 61.00
9274 57.7380 3748.00 3716.20 61.00
9275 57.7440 3726.00 3720.22 61.00
9276 57.7500 3665.00 3724.90 61.00
9277 57.7560 3701.00 3729.16 61.00
9278 57.7620 3755.00 3733.03 61.00
9279 57.7680 3766.00 3735.32 61.00
9280 57.7740 3760.00 3738.13 61.00
9281 57.7800 3821.00 3740.32 62.00
9282 57.7860 3729.00 3741.93 61.00
9283 57.7920 3804.00 3742.83 62.00
9284 57.7980 3806.00 3742.31 62.00
9285 57.8040 3712.00 3742.24 61.00
9286 57.8100 3765.00 3741.62 61.00
9287 57.8160 3850.00 3740.48 62.00
9288 57.8220 3884.00 3737.83 62.00
9289 57.8280 3792.00 3735.56 62.00
9290 57.8340 3762.00 3732.97 61.00
9291 57.8400 3749.00 3729.87 61.00
9292 57.8460 3752.00 3726.30 61.00
9293 57.8520 3757.00 3721.44 61.00
9294 57.8580 3729.00 3717.32 61.00
9295 57.8640 3760.00 3713.01 61.00
9296 57.8700 3744.00 3708.60 61.00
9297 57.8760 3688.00 3703.15 61.00
9298 57.8820 3734.00 3698.74 61.00
9299 57.8880 3728.00 3694.69 61.00
9300 57.8940 3735.00 3690.94 61.00
9301 57.9000 3758.00 3687.56 61.00
9302 57.9060 3657.00 3683.61 60.00
9303 57.9120 3662.00 3681.13 61.00
9304 57.9180 3774.00 3679.13 61.00
9305 57.9240 3815.00 3677.62 62.00
9306 57.9300 3747.00 3675.58 61.00
9307 57.9360 3719.00 3674.91 61.00
9308 57.9420 3700.00 3674.71 61.00
9309 57.9480 3733.00 3674.87 61.00
9310 57.9540 3702.00 3674.32 61.00
9311 57.9600 3686.00 3675.04 61.00
9312 57.9660 3724.00 3675.97 61.00
9313 57.9720 3753.00 3677.05 61.00
9314 57.9780 3759.00 3678.31 61.00
9315 57.9840 3703.00 3678.70 61.00
9316 57.9900 3694.00 3680.25 61.00
9317 57.9960 3669.00 3681.84 61.00
9318 58.0020 3697.00 3683.57 61.00
9319 58.0080 3680.00 3684.27 61.00
9320 58.0140 3637.00 3686.01 60.00
9321 58.0200 3625.00 3687.78 60.00
9322 58.0260 3684.00 3689.44 61.00
9323 58.0320 3703.00 3690.98 61.00
9324 58.0380 3703.00 3691.36 61.00
9325 58.0440 3725.00 3692.52 61.00
9326 58.0500 3729.00 3693.44 61.00
9327 58.0560 3628.00 3694.05 60.00
9328 58.0620 3617.00 3693.33 60.00
9329 58.0680 3611.00 3693.28 60.00
9330 58.0740 3701.00 3692.94 61.00
9331 58.0800 3701.00 3692.32 61.00
9332 58.0860 3679.00 3691.54 61.00
9333 58.0920 3702.00 3689.58 61.00
9334 58.0980 3646.00 3688.58 60.00
9335 58.1040 3683.00 3687.65 61.00
9336 58.1100 3670.00 3686.86 61.00
9337 58.1160 3772.00 3685.33 61.00
9338 58.1220 3724.00 3685.15 61.00
9339 58.1280 3711.00 3685.40 61.00
9340 58.1340 3662.00 3686.20 61.00
9341 58.1400 3717.00 3687.54 61.00
9342 58.1460 3645.00 3688.49 60.00
9343 58.1520 3743.00 3691.12 61.00
9344 58.1580 3749.00 3694.44 61.00
9345 58.1640 3763.00 3698.47 61.00
9346 58.1700 3815.00 3702.22 62.00
9347 58.1760 3891.00 3707.67 62.00
9348 58.1820 3820.00 3713.85 62.00
9349 58.1880 3809.00 3720.64 62.00
9350 58.1940 3812.00 3728.00 62.00
9351 58.2000 3693.00 3734.92 61.00
9352 58.2060 3797.00 3743.29 62.00
9353 58.2120 3826.00 3752.09 62.00
9354 58.2180 3823.00 3761.26 62.00
9355 58.2240 3915.00 3769.66 63.00
9356 58.2300 3850.00 3779.31 62.00
9357 58.2360 3826.00 3789.12 62.00
9358 58.2420 3917.00 3799.06 63.00
9359 58.2480 3864.00 3808.11 62.00
9360 58.2540 3966.00 3818.22 63.00
9361 58.2600 3803.00 3828.27 62.00
9362 58.2660 3768.00 3838.41 61.00
9363 58.2720 3723.00 3848.52 61.00
9364 58.2780 3811.00 3857.58 62.00
9365 58.2840 3831.00 3867.56 62.00
9366 58.2900 3899.00 3877.42 62.00
9367 58.2960 3892.00 3887.11 62.00
9368 58.3020 3961.00 3895.61 63.00
9369 58.3080 4020.00 3904.92 63.00
9370 58.3140 3832.00 3913.86 62.00
9371 58.3200 3926.00 3922.49 63.00
9372 58.3260 3906.00 3930.81 62.00
9373 58.3320 3965.00 3937.74 63.00
9374 58.3380 3997.00 3945.35 63.00
9375 58.3440 3962.00 3952.61 63.00
9376 58.3500 3904.00 3959.55 62.00
9377 58.3560 3995.00 3965.21 63.00
9378 58.3620 3995.00 3971.62 63.00
9379 58.3680 3900.00 3977.77 62.00
9380 58.3740 4074.00 3983.80 64.00
9381 58.3800 3959.00 3989.50 63.00
9382 58.3860 3928.00 3993.93 63.00
9383 58.3920 3974.00 3999.12 63.00
9384 58.3980 3951.00 4003.88 63.00
9385 58.4040 3919.00 4008.18 63.00
9386 58.4100 4030.00 4010.89 63.00
9387 58.4160 4075.00 4013.92 64.00
9388 58.4220 3938.00 4016.04 63.00
9389 58.4280 3980.00 4017.12 63.00
9390 58.4340 4034.00 4016.96 64.00
9391 58.4400 4055.00 4014.41 64.00
9392 58.4460 4045.00 4011.30 64.00
9393 58.4520 4049.00 4006.50 64.00
9394 58.4580 3859.00 3999.95 62.00
9395 58.4640 3832.00 3990.58 62.00
9396 58.4700 3930.00 3980.48 63.00
9397 58.4760 3994.00 3968.68 63.00
9398 58.4820 3719.00 3955.26 61.00
9399 58.4880 3853.00 3940.57 62.00
9400 58.4940 3678.00 3923.73 61.00
9401 58.5000 3811.00 3907.00 62.00
9402 58.5060 3834.00 3889.48 62.00
9403 58.5120 3907.00 3871.68 63.00
9404 58.5180 3725.00 3852.66 61.00
9405 58.5240 3728.00 3834.78 61.00
9406 58.5300 3813.00 3816.90 62.00
9407 58.5360 3770.00 3799.69 61.00
9408 58.5420 3736.00 3781.94 61.00
9409 58.5480 3807.00 3765.99 62.00
9410 58.5540 3707.00 3750.78 61.00
9411 58.5600 3776.00 3736.42 61.00
9412 58.5660 3736.00 3722.91 61.00
9413 58.5720 3779.00 3709.28 61.00
9414 58.5780 3664.00 3697.49 61.00
9415 58.5840 3690.00 3686.49 61.00
9416 58.5900 3693.00 3676.23 61.00
9417 58.5960 3689.00 3665.72 61.00
9418 58.6020 3718.00 3656.91 61.00
9419 58.6080 3664.00 3648.30 61.00
9420 58.6140 3620.00 3640.39 60.00
9421 58.6200 3659.00 3632.88 60.00
9422 58.6260 3678.00 3624.55 61.00
9423 58.6320 3574.00 3617.71 60.00
9424 58.6380 3569.00 3611.14 60.00
9425 58.6440 3461.00 3604.84 59.00
9426 58.6500 3613.00 3597.76 60.00
9427 58.6560 3586.00 3592.00 60.00
9428 58.6620 3646.00 3586.54 60.00
9429 58.6680 3674.00 3581.44 61.00
9430 58.6740 3568.00 3576.60 60.00
9431 58.6800 3611.00 3571.03 60.00
9432 58.6860 3588.00 3566.93 60.00
9433 58.6920 3555.00 3563.33 60.00
9434 58.6980 3585.00 3560.04 60.00
9435 58.7040 3603.00 3556.18 60.00
9436 58.7100 3590.00 3553.73 60.00
9437 58.7160 3504.00 3551.74 59.00
9438 58.7220 3444.00 3550.21 59.00
9439 58.7280 3461.00 3548.91 59.00
9440 58.7340 3562.00 3546.93 60.00
9441 58.7400 3644.00 3546.14 60.00
9442 58.7460 3645.00 3545.64 60.00
9443 58.7520 3522.00 3545.33 59.00
9444 58.7580 3540.00 3544.23 59.00
9445 58.7640 3611.00 3544.01 60.00
9446 58.7700 3507.00 3543.77 59.00
9447 58.7760 3486.00 3543.48 59.00
9448 58.7820 3560.00 3543.05 60.00
9449 58.7880 3503.00 3541.39 59.00
9450 58.7940 3416.00 3540.56 58.00
9451 58.8000 3615.00 3539.38 60.00
9452 58.8060 3501.00 3537.88 59.00
9453 58.8120 3539.00 3535.05 59.00
9454 58.8180 3622.00 3532.90 60.00
9455 58.8240 3481.00 3530.15 59.00
9456 58.8300 3548.00 3527.32 60.00
9457 58.8360 3516.00 3523.15 59.00
9458 58.8420 3534.00 3519.70 59.00
9459 58.8480 3478.00 3516.01 59.00
9460 58.8540 3440.00 3512.15 59.00
9461 58.8600 3545.00 3508.00 60.00
9462 58.8660 3431.00 3502.96 59.00
9463 58.8720 3509.00 3498.89 59.00
9464 58.8780 3457.00 3494.85 59.00
9465 58.8840 3558.00 3490.89 60.00
9466 58.8900 3531.00 3486.08 59.00
9467 58.8960 3537.00 3482.19 59.00
9468 58.9020 3486.00 3478.64 59.00
9469 58.9080 3553.00 3475.22 60.00
9470 58.9140 3398.00 3471.93 58.00
9471 58.9200 3411.00 3467.88 58.00
9472 58.9260 3402.00 3465.01 58.00
9473 58.9320 3377.00 3462.31 58.00
9474 58.9380 3387.00 3459.85 58.00
9475 58.9440 3406.00 3456.52 58.00
9476 58.9500 3421.00 3454.37 58.00
9477 58.9560 3288.00 3452.57 57.00
9478 58.9620 3477.00 3450.77 59.00
9479 58.9680 3471.00 3449.13 59.00
9480 58.9740 3427.00 3446.67 59.00
9481 58.9800 3497.00 3445.38 59.00
9482 58.9860 3388.00 3444.26 58.00
9483 58.9920 3388.00 3443.30 58.00
9484 58.9980 3504.00 3441.65 59.00
9485 59.0040 3468.00 3441.05 59.00
9486 59.0100 3508.00 3440.63 59.00
9487 59.0160 3421.00 3440.39 58.00
9488 59.0220 3446.00 3440.44 59.00
9489 59.0280 3332.00 3439.58 58.00
9490 59.0340 3462.00 3439.91 59.00
9491 59.0400 3517.00 3440.42 59.00
9492 59.0460 3363.00 3441.10 58.00
9493 59.0520 3435.00 3440.99 59.00
9494 59.0580 3356.00 3441.98 58.00
9495 59.0640 3544.00 3443.10 60.00
9496 59.0700 3513.00 3444.33 59.00
9497 59.0760 3512.00 3444.64 59.00
9498 59.0820 3399.00 3446.01 58.00
9499 59.0880 3464.00 3447.41 59.00
9500 59.0940 3514.00 3448.83 59.00
9501 59.1000 3487.00 3450.18 59.00
9502 59.1060 3471.00 3450.58 59.00
9503 59.1120 3387.00 3451.91 58.00
9504 59.1180 3403.00 3453.27 58.00
9505 59.1240 3401.00 3454.62 58.00
9506 59.1300 3309.00 3454.96 58.00
9507 59.1360 3494.00 3456.38 59.00
9508 59.1420 3408.00 3457.77 58.00
9509 59.1480 3384.00 3459.26 58.00
9510 59.1540 3456.00 3460.77 59.00
9511 59.1600 3469.00 3461.32 59.00
9512 59.1660 3415.00 3463.01 58.00
9513 59.1720 3422.00 3464.80 58.00
9514 59.1780 3486.00 3466.71 59.00
9515 59.1840 3413.00 3467.71 58.00
9516 59.1900 3435.00 3469.81 59.00
9517 59.1960 3395.00 3472.04 58.00
9518 59.2020 3339.00 3474.37 58.00
9519 59.2080 3431.00 3476.80 59.00
9520 59.2140 3485.00 3479.28 59.00
9521 59.2200 3436.00 3481.74 59.00
9522 59.2260 3344.00 3484.23 58.00
9523 59.2320 3339.00 3486.69 58.00
9524 59.2380 3363.00 3489.00 58.00
9525 59.2440 3395.00 3492.22 58.00
9526 59.2500 3499.00 3494.16 59.00
9527 59.2560 3432.00 3495.89 59.00
9528 59.2620 3453.00 3497.28 59.00
9529 59.2680 3353.00 3498.34 58.00
9530 59.2740 3357.00 3499.08 58.00
9531 59.2800 3415.00 3499.37 58.00
9532 59.2860 3352.00 3499.27 58.00
9533 59.2920 3363.00 3499.84 58.00
9534 59.2980 3309.00 3499.02 58.00
9535 59.3040 3391.00 3497.80 58.00
9536 59.3100 3405.00 3496.32 58.00
9537 59.3160 3365.00 3494.69 58.00
9538 59.3220 3378.00 3492.88 58.00
9539 59.3280 3349.00 3490.92 58.00
9540 59.3340 3323.00 3489.85 58.00
9541 59.3400 3375.00 3487.79 58.00
9542 59.3460 3377.00 3485.72 58.00
9543 59.3520 3357.00 3483.74 58.00
9544 59.3580 3400.00 3481.91 58.00
9545 59.3640 3300.00 3480.22 57.00
9546 59.3700 3346.00 3478.76 58.00
9547 59.3760 3399.00 3478.59 58.00
9548 59.3820 3433.00 3477.73 59.00
9549 59.3880 3447.00 3477.22 59.00
9550 59.3940 3415.00 3477.15 58.00
9551 59.4000 3426.00 3477.46 59.00
9552 59.4060 3408.00 3478.17 58.00
9553 59.4120 3374.00 3479.32 58.00
9554 59.4180 3369.00 3481.82 58.00
9555 59.4240 3465.00 3483.82 59.00
9556 59.4300 3450.00 3486.23 59.00
9557 59.4360 3478.00 3488.99 59.00
9558 59.4420 3527.00 3492.14 59.00
9559 59.4480 3516.00 3495.53 59.00
9560 59.4540 3485.00 3499.24 59.00
9561 59.4600 3534.00 3503.15 59.00
9562 59.4660 3548.00 3508.19 60.00
9563 59.4720 3439.00 3512.28 59.00
9564 59.4780 3537.00 3516.34 59.00
9565 59.4840 3621.00 3520.28 60.00
9566 59.4900 3539.00 3524.03 59.00
9567 59.4960 3497.00 3527.45 59.00
9568 59.5020 3521.00 3530.55 59.00
9569 59.5080 3534.00 3534.24 59.00
9570 59.5140 3559.00 3536.46 60.00
9571 59.5200 3554.00 3538.19 60.00
9572 59.5260 3462.00 3539.43 59.00
9573 59.5320 3494.00 3540.13 59.00
9574 59.5380 3597.00 3540.44 60.00
9575 59.5440 3540.00 3540.28 59.00
9576 59.5500 3507.00 3540.85 59.00
9577 59.5560 3591.00 3540.13 60.00
9578 59.5620 3542.00 3539.18 60.00
9579 59.5680 3485.00 3538.01 59.00
9580 59.5740 3554.00 3536.78 60.00
9581 59.5800 3513.00 3535.49 59.00
9582 59.5860 3502.00 3534.28 59.00
9583 59.5920 3531.00 3534.02 59.00
9584 59.5980 3532.00 3532.82 59.00
9585 59.6040 3486.00 3531.73 59.00
9586 59.6100 3411.00 3530.77 58.00
9587 59.6160 3491.00 3529.96 59.00
9588 59.6220 3607.00 3529.29 60.00
9589 59.6280 3527.00 3528.85 59.00
9590 59.6340 3448.00 3528.61 59.00
9591 59.6400 3434.00 3529.59 59.00
9592 59.6460 3444.00 3529.82 59.00
9593 59.6520 3447.00 3530.22 59.00
9594 59.6580 3375.00 3530.82 58.00
9595 59.6640 3403.00 3531.68 58.00
9596 59.6700 3489.00 3532.68 59.00
9597 59.6760 3524.00 3533.88 59.00
9598 59.6820 3480.00 3536.23 59.00
9599 59.6880 3477.00 3537.76 59.00
9600 59.6940 3485.00 3539.40 59.00
9601 59.7000 3464.00 3541.25 59.00
9602 59.7060 3468.00 3543.25 59.00
9603 59.7120 3465.00 3545.38 59.00
9604 59.7180 3442.00 3547.60 59.00
9605 59.7240 3487.00 3551.02 59.00
9606 59.7300 3547.00 3553.59 60.00
9607 59.7360 3554.00 3556.32 60.00
9608 59.7420 3526.00 3559.09 59.00
9609 59.7480 3505.00 3562.18 59.00
9610 59.7540 3448.00 3565.39 59.00
9611 59.7600 3422.00 3568.75 58.00
9612 59.7660 3445.00 3573.30 59.00
9613 59.7720 3497.00 3577.00 59.00
9614 59.7780 3513.00 3580.83 59.00
9615 59.7840 3530.00 3584.75 59.00
9616 59.7900 3494.00 3588.74 59.00
9617 59.7960 3456.00 3592.66 59.00
9618 59.8020 3485.00 3596.64 59.00
9619 59.8080 3554.00 3600.39 60.00
9620 59.8140 3610.00 3605.15 60.00
9621 59.8200 3557.00 3608.62 60.00
9622 59.8260 3510.00 3611.79 59.00
9623 59.8320 3521.00 3614.62 59.00
9624 59.8380 3507.00 3617.00 59.00
9625 59.8440 3529.00 3618.76 59.00
9626 59.8500 3511.00 3620.17 59.00
9627 59.8560 3514.00 3622.05 59.00
9628 59.8620 3529.00 3622.38 59.00
9629 59.8680 3574.00 3622.14 60.00
9630 59.8740 3487.00 3621.31 59.00
9631 59.8800 3461.00 3619.90 59.00
9632 59.8860 3469.00 3618.01 59.00
9633 59.8920 3509.00 3615.59 59.00
9634 59.8980 3534.00 3613.69 59.00
9635 59.9040 3537.00 3610.32 59.00
9636 59.9100 3461.00 3606.66 59.00
9637 59.9160 3512.00 3602.56 59.00
9638 59.9220 3578.00 3598.03 60.00
9639 59.9280 3537.00 3593.50 59.00
9640 59.9340 3535.00 3588.87 59.00
9641 59.9400 3522.00 3585.29 59.00
9642 59.9460 3560.00 3580.56 60.00
9643 59.9520 3651.00 3576.37 60.00
9644 59.9580 3601.00 3572.39 60.00
9645 59.9640 3604.00 3569.08 60.00
9646 59.9700 3610.00 3566.25 60.00
9647 59.9760 3565.00 3564.01 60.00
9648 59.9820 3447.00 3562.47 59.00
9649 59.9880 3330.00 3562.70 58.00
9650 59.9940 3349.00 3562.76 58.00
9651 60.0000 3391.00 3563.67 58.00
9652 60.0060 3451.00 3565.44 59.00
9653 60.0120 3468.00 3568.18 59.00
9654 60.0180 3409.00 3571.89 58.00
9655 60.0240 3478.00 3576.50 59.00
9656 60.0300 3520.00 3583.05 59.00
9657 60.0360 3517.00 3589.49 59.00
9658 60.0420 3494.00 3596.82 59.00
9659 60.0480 3548.00 3605.03 60.00
9660 60.0540 3618.00 3613.98 60.00
9661 60.0600 3512.00 3623.63 59.00
9662 60.0660 3578.00 3633.94 60.00
9663 60.0720 3513.00 3645.79 59.00
9664 60.0780 3566.00 3657.09 60.00
9665 60.0840 3657.00 3668.79 60.00
9666 60.0900 3647.00 3680.73 60.00
9667 60.0960 3683.00 3692.85 61.00
9668 60.1020 3604.00 3704.85 60.00
9669 60.1080 3594.00 3716.82 60.00
9670 60.1140 3568.00 3729.58 60.00
9671 60.1200 3622.00 3741.04 60.00
9672 60.1260 3704.00 3752.06 61.00
9673 60.1320 3626.00 3762.72 60.00
9674 60.1380 3590.00 3772.86 60.00
9675 60.1440 3646.00 3782.54 60.00
9676 60.1500 3697.00 3791.74 61.00
9677 60.1560 3665.00 3800.46 61.00
9678 60.1620 3662.00 3809.83 61.00
9679 60.1680 3705.00 3817.82 61.00
9680 60.1740 3645.00 3825.51 60.00
9681 60.1800 3734.00 3832.89 61.00
9682 60.1860 3686.00 3840.02 61.00
9683 60.1920 3751.00 3846.90 61.00
9684 60.1980 3749.00 3853.50 61.00
9685 60.2040 3799.00 3860.80 62.00
9686 60.2100 3842.00 3866.79 62.00
9687 60.2160 3821.00 3872.43 62.00
9688 60.2220 3729.00 3877.62 61.00
9689 60.2280 3782.00 3882.33 61.00
9690 60.2340 3815.00 3886.54 62.00
9691 60.2400 3772.00 3890.08 61.00
9692 60.2460 3885.00 3893.94 62.00
9693 60.2520 3797.00 3896.04 62.00
9694 60.2580 3819.00 3897.45 62.00
9695 60.2640 3757.00 3898.01 61.00
9696 60.2700 3723.00 3897.74 61.00
9697 60.2760 3656.00 3896.60 60.00
9698 60.2820 3692.00 3894.66 61.00
9699 60.2880 3757.00 3892.92 61.00
9700 60.2940 3821.00 3889.41 62.00
9701 60.3000 3803.00 3885.29 62.00
9702 60.3060 3737.00 3880.43 61.00
9703 60.3120 3742.00 3874.98 61.00
9704 60.3180 3737.00 3869.13 61.00
9705 60.3240 3636.00 3862.95 60.00
9706 60.3300 3710.00 3857.49 61.00
9707 60.3360 3606.00 3851.01 60.00
9708 60.3420 3622.00 3844.56 60.00
9709 60.3480 3676.00 3838.27 61.00
9710 60.3540 3746.00 3832.27 61.00
9711 60.3600 3807.00 3826.66 62.00
9712 60.3660 3772.00 3821.56 61.00
9713 60.3720 3761.00 3817.06 61.00
9714 60.3780 3792.00 3814.23 62.00
9715 60.3840 3756.00 3811.11 61.00
9716 60.3900 3699.00 3808.77 61.00
9717 60.3960 3792.00 3807.20 62.00
9718 60.4020 3789.00 3806.41 62.00
9719 60.4080 3904.00 3806.38 62.00
9720 60.4140 3841.00 3807.04 62.00
9721 60.4200 3767.00 3809.36 61.00
9722 60.4260 3788.00 3811.20 62.00
9723 60.4320 3775.00 3813.57 61.00
9724 60.4380 3798.00 3816.23 62.00
9725 60.4440 3840.00 3819.11 62.00
9726 60.4500 3806.00 3822.07 62.00
9727 60.4560 3823.00 3824.95 62.00
9728 60.4620 3769.00 3828.62 61.00
9729 60.4680 3752.00 3830.92 61.00
9730 60.4740 3796.00 3832.72 62.00
9731 60.4800 3915.00 3833.92 63.00
9732 60.4860 3856.00 3834.33 62.00
9733 60.4920 3860.00 3833.92 62.00
9734 60.4980 3882.00 3832.57 62.00
9735 60.5040 3774.00 3831.27 61.00
9736 60.5100 3751.00 3827.98 61.00
9737 60.5160 3823.00 3823.72 62.00
9738 60.5220 3814.00 3818.47 62.00
9739 60.5280 3773.00 3812.27 61.00
9740 60.5340 3917.00 3805.17 63.00
9741 60.5400 3746.00 3797.29 61.00
9742 60.5460 3784.00 3788.53 62.00
9743 60.5520 3762.00 3780.03 61.00
9744 60.5580 3750.00 3769.95 61.00
9745 60.5640 3691.00 3759.24 61.00
9746 60.5700 3576.00 3748.04 60.00
9747 60.5760 3713.00 3736.51 61.00
9748 60.5820 3660.00 3724.72 60.00
9749 60.5880 3675.00 3712.82 61.00
9750 60.5940 3687.00 3701.88 61.00
9751 60.6000 3703.00 3690.05 61.00
9752 60.6060 3555.00 3678.35 60.00
9753 60.6120 3575.00 3667.04 60.00
9754 60.6180 3612.00 3656.04 60.00
9755 60.6240 3570.00 3645.45 60.00
9756 60.6300 3646.00 3635.34 60.00
9757 60.6360 3637.00 3626.74 60.00
9758 60.6420 3516.00 3617.68 59.00
9759 60.6480 3541.00 3609.21 60.00
9760 60.6540 3593.00 3601.25 60.00
9761 60.6600 3596.00 3593.84 60.00
9762 60.6660 3469.00 3586.96 59.00
9763 60.6720 3469.00 3580.60 59.00
9764 60.6780 3548.00 3575.76 60.00
9765 60.6840 3577.00 3570.42 60.00
9766 60.6900 3511.00 3565.54 59.00
9767 60.6960 3526.00 3561.20 59.00
9768 60.7020 3486.00 3557.30 59.00
9769 60.7080 3491.00 3553.88 59.00
9770 60.7140 3472.00 3550.96 59.00
9771 60.7200 3556.00 3548.60 60.00
9772 60.7260 3479.00 3547.74 59.00
9773 60.7320 3385.00 3546.42 58.00
9774 60.7380 3473.00 3545.63 59.00
9775 60.7440 3492.00 3545.32 59.00
9776 60.7500 3641.00 3545.52 60.00
9777 60.7560 3471.00 3546.26 59.00
9778 60.7620 3598.00 3547.47 60.00
9779 60.7680 3488.00 3550.15 59.00
9780 60.7740 3497.00 3552.21 59.00
9781 60.7800 3399.00 3554.81 58.00
9782 60.7860 3574.00 3557.58 60.00
9783 60.7920 3586.00 3560.71 60.00
9784 60.7980 3409.00 3564.06 58.00
9785 60.8040 3475.00 3567.57 59.00
9786 60.8100 3523.00 3572.17 59.00
9787 60.8160 3519.00 3575.81 59.00
9788 60.8220 3586.00 3579.35 60.00
9789 60.8280 3485.00 3582.75 59.00
9790 60.8340 3676.00 3585.94 61.00
9791 60.8400 3481.00 3588.94 59.00
9792 60.8460 3524.00 3591.47 59.00
9793 60.8520 3409.00 3594.69 58.00
9794 60.8580 3530.00 3596.53 59.00
9795 60.8640 3532.00 3597.82 59.00
9796 60.8700 3448.00 3598.63 59.00
9797 60.8760 3473.00 3599.00 59.00
9798 60.8820 3565.00 3598.77 60.00
9799 60.8880 3515.00 3598.03 59.00
9800 60.8940 3467.00 3596.76 59.00
9801 60.9000 3523.00 3595.98 59.00
9802 60.9060 3544.00 3593.70 60.00
9803 60.9120 3429.00 3590.94 59.00
9804 60.9180 3539.00 3587.81 59.00
9805 60.9240 3387.00 3584.16 58.00
9806 60.9300 3478.00 3580.11 59.00
9807 60.9360 3439.00 3575.78 59.00
9808 60.9420 3366.00 3572.07 58.00
9809 60.9480 3459.00 3567.09 59.00
9810 60.9540 3565.00 3561.92 60.00
9811 60.9600 3367.00 3556.58 58.00
9812 60.9660 3513.00 3551.19 59.00
9813 60.9720 3546.00 3545.75 60.00
9814 60.9780 3468.00 3540.35 59.00
9815 60.9840 3427.00 3536.06 59.00
9816 60.9900 3372.00 3530.94 58.00
9817 60.9960 3410.00 3526.06 58.00
9818 61.0020 3438.00 3521.46 59.00
9819 61.0080 3397.00 3517.19 58.00
9820 61.0140 3369.00 3513.31 58.00
9821 61.0200 3424.00 3509.76 59.00
9822 61.0260 3449.00 3507.73 59.00
9823 61.0320 3403.00 3505.09 58.00
9824 61.0380 3494.00 3502.98 59.00
9825 61.0440 3472.00 3501.31 59.00
9826 61.0500 3451.00 3500.18 59.00
9827 61.0560 3530.00 3499.55 59.00
9828 61.0620 3411.00 3499.40 58.00
9829 61.0680 3382.00 3499.75 58.00
9830 61.0740 3498.00 3501.53 59.00
9831 61.0800 3402.00 3502.73 58.00
9832 61.0860 3396.00 3504.34 58.00
9833 61.0920 3311.00 3505.33 58.00
9834 61.0980 3465.00 3507.65 59.00
9835 61.1040 3447.00 3509.28 59.00
9836 61.1100 3502.00 3512.15 59.00
9837 61.1160 3401.00 3515.17 58.00
9838 61.1220 3429.00 3517.38 59.00
9839 61.1280 3477.00 3520.69 59.00
9840 61.1340 3447.00 3523.05 59.00
9841 61.1400 3514.00 3526.41 59.00
9842 61.1460 3408.00 3528.73 58.00
9843 61.1520 3417.00 3531.99 58.00
9844 61.1580 3453.00 3534.14 59.00
9845 61.1640 3576.00 3537.18 60.00
9846 61.1700 3527.00 3539.02 59.00
9847 61.1760 3537.00 3541.74 59.00
9848 61.1820 3471.00 3543.27 59.00
9849 61.1880 3464.00 3545.62 59.00
9850 61.1940 3344.00 3546.76 58.00
9851 61.2000 3432.00 3548.68 59.00
9852 61.2060 3461.00 3549.37 59.00
9853 61.2120 3455.00 3550.83 59.00
9854 61.2180 3511.00 3552.02 59.00
9855 61.2240 3433.00 3552.03 59.00
9856 61.2300 3412.00 3552.82 58.00
9857 61.2360 3476.00 3552.42 59.00
9858 61.2420 3498.00 3552.89 59.00
9859 61.2480 3471.00 3552.20 59.00
9860 61.2540 3390.00 3552.36 58.00
9861 61.2600 3407.00 3551.54 58.00
9862 61.2660 3469.00 3551.72 59.00
9863 61.2720 3409.00 3550.91 58.00
9864 61.2780 3445.00 3551.16 59.00
9865 61.2840 3555.00 3550.51 60.00
9866 61.2900 3558.00 3551.00 60.00
9867 61.2960 3475.00 3550.60 59.00
9868 61.3020 3509.00 3551.39 59.00
9869 61.3080 3437.00 3551.34 59.00
9870 61.3140 3417.00 3552.47 58.00
9871 61.3200 3461.00 3552.76 59.00
9872 61.3260 3524.00 3554.23 59.00
9873 61.3320 3490.00 3555.85 59.00
9874 61.3380 3480.00 3556.62 59.00
9875 61.3440 3525.00 3558.50 59.00
9876 61.3500 3628.00 3559.50 60.00
9877 61.3560 3501.00 3561.52 59.00
9878 61.3620 3601.00 3562.70 60.00
9879 61.3680 3554.00 3564.91 60.00
9880 61.3740 3566.00 3566.21 60.00
9881 61.3800 3544.00 3568.56 60.00
9882 61.3860 3471.00 3569.92 59.00
9883 61.3920 3509.00 3572.36 59.00
9884 61.3980 3630.00 3573.87 60.00
9885 61.4040 3542.00 3576.44 60.00
9886 61.4100 3490.00 3578.10 59.00
9887 61.4160 3574.00 3580.85 60.00
9888 61.4220 3583.00 3582.62 60.00
9889 61.4280 3530.00 3585.59 59.00
9890 61.4340 3536.00 3587.65 59.00
9891 61.4400 3530.00 3590.75 59.00
9892 61.4460 3513.00 3593.99 59.00
9893 61.4520 3501.00 3596.27 59.00
9894 61.4580 3594.00 3599.57 60.00
9895 61.4640 3514.00 3601.81 59.00
9896 61.4700 3478.00 3605.00 59.00
9897 61.4760 3455.00 3607.08 59.00
9898 61.4820 3459.00 3609.97 59.00
9899 61.4880 3505.00 3611.65 59.00
9900 61.4940 3411.00 3614.05 58.00
9901 61.5000 3498.00 3615.15 59.00
9902 61.5060 3494.00 3616.90 59.00
9903 61.5120 3445.00 3617.26 59.00
9904 61.5180 3476.00 3618.20 59.00
9905 61.5240 3535.00 3617.69 59.00
9906 61.5300 3543.00 3617.71 60.00
9907 61.5360 3578.00 3616.25 60.00
9908 61.5420 3585.00 3615.32 60.00
9909 61.5480 3507.00 3612.92 59.00
9910 61.5540 3505.00 3611.08 59.00
9911 61.5600 3464.00 3608.83 59.00
9912 61.5660 3501.00 3605.26 59.00
9913 61.5720 3495.00 3602.32 59.00
9914 61.5780 3581.00 3598.11 60.00
9915 61.5840 3567.00 3594.71 60.00
9916 61.5900 3554.00 3590.09 60.00
9917 61.5960 3551.00 3586.37 60.00
9918 61.6020 3454.00 3581.54 59.00
9919 61.6080 3503.00 3577.66 59.00
9920 61.6140 3559.00 3572.77 60.00
9921 61.6200 3505.00 3568.91 59.00
9922 61.6260 3481.00 3564.12 59.00
9923 61.6320 3541.00 3560.34 60.00
9924 61.6380 3392.00 3555.70 58.00
9925 61.6440 3394.00 3552.22 58.00
9926 61.6500 3432.00 3547.87 59.00
9927 61.6560 3451.00 3544.68 59.00
9928 61.6620 3454.00 3541.62 59.00
9929 61.6680 3451.00 3537.90 59.00
9930 61.6740 3404.00 3535.44 58.00
9931 61.6800 3497.00 3532.26 59.00
9932 61.6860 3498.00 3530.44 59.00
9933 61.6920 3411.00 3527.82 58.00
9934 61.6980 3457.00 3526.59 59.00
9935 61.7040 3438.00 3524.73 59.00
9936 61.7100 3421.00 3524.23 58.00
9937 61.7160 3450.00 3523.11 59.00
9938 61.7220 3420.00 3523.37 58.00
9939 61.7280 3401.00 3523.04 58.00
9940 61.7340 3443.00 3524.06 59.00
9941 61.7400 3485.00 3524.43 59.00
9942 61.7460 3361.00 3526.18 58.00
9943 61.7520 3396.00 3527.22 58.00
9944 61.7580 3368.00 3529.56 58.00
9945 61.7640 3434.00 3530.99 59.00
9946 61.7700 3423.00 3533.72 59.00
9947 61.7760 3437.00 3536.57 59.00
9948 61.7820 3513.00 3538.45 59.00
9949 61.7880 3478.00 3541.40 59.00
9950 61.7940 3440.00 3543.18 59.00
9951 61.8000 3485.00 3545.98 59.00
9952 61.8060 3544.00 3547.62 60.00
9953 61.8120 3441.00 3550.04 59.00
9954 61.8180 3548.00 3551.18 60.00
9955 61.8240 3577.00 3552.98 60.00
9956 61.8300 3485.00 3553.32 59.00
9957 61.8360 3412.00 3554.44 58.00
9958 61.8420 3511.00 3554.17 59.00
9959 61.8480 3497.00 3554.52 59.00
9960 61.8540 3536.00 3553.40 59.00
9961 61.8600 3471.00 3552.88 59.00
9962 61.8660 3382.00 3551.01 58.00
9963 61.8720 3378.00 3549.68 58.00
9964 61.8780 3345.00 3547.08 58.00
9965 61.8840 3497.00 3545.14 59.00
9966 61.8900 3588.00 3542.92 60.00
9967 61.8960 3538.00 3539.43 59.00
9968 61.9020 3467.00 3536.75 59.00
9969 61.9080 3344.00 3532.93 58.00
9970 61.9140 3363.00 3530.09 58.00
9971 61.9200 3398.00 3526.27 58.00
9972 61.9260 3438.00 3523.53 59.00
9973 61.9320 3391.00 3519.94 58.00
9974 61.9380 3434.00 3517.62 59.00
9975 61.9440 3354.00 3514.53 58.00
9976 61.9500 3465.00 3512.74 59.00
9977 61.9560 3474.00 3510.34 59.00
9978 61.9620 3483.00 3509.35 59.00
9979 61.9680 3473.00 3507.81 59.00
9980 61.9740 3417.00 3507.62 58.00
9981 61.9800 3419.00 3506.94 58.00
9982 61.9860 3469.00 3507.75 59.00
9983 61.9920 3381.00 3508.95 58.00
9984 61.9980 3431.00 3509.54 59.00
9985 62.0040 3372.00 3511.54 58.00
9986 62.0100 3341.00 3512.90 58.00
9987 62.0160 3344.00 3515.64 58.00
9988 62.0220 3371.00 3517.57 58.00
9989 62.0280 3332.00 3520.72 58.00
9990 62.0340 3420.00 3523.18 58.00
9991 62.0400 3451.00 3526.63 59.00
9992 62.0460 3445.00 3529.44 59.00
9993 62.0520 3452.00 3533.32 59.00
9994 62.0580 3414.00 3536.28 58.00
9995 62.0640 3425.00 3540.25 59.00
9996 62.0700 3480.00 3543.22 59.00
9997 62.0760 3470.00 3547.15 59.00
9998 62.0820 3375.00 3550.04 58.00
9999 62.0880 3313.00 3553.71 58.00
10000 62.0940 3347.00 3556.41 58.00
10001 62.1000 3358.00 3559.99 58.00
10002 62.1060 3475.00 3563.43 59.00
10003 62.1120 3490.00 3565.64 59.00
10004 62.1180 3437.00 3568.73 59.00
10005 62.1240 3414.00 3570.61 58.00
10006 62.1300 3458.00 3573.29 59.00
10007 62.1360 3484.00 3574.74 59.00
10008 62.1420 3434.00 3576.94 59.00
10009 62.1480 3401.00 3577.97 58.00
10010 62.1540 3309.00 3579.84 58.00
10011 62.1600 3314.00 3580.56 58.00
10012 62.1660 3415.00 3582.19 58.00
10013 62.1720 3395.00 3582.77 58.00
10014 62.1780 3407.00 3584.36 58.00
10015 62.1840 3417.00 3585.03 58.00
10016 62.1900 3352.00 3586.78 58.00
10017 62.1960 3394.00 3587.68 58.00
10018 62.2020 3472.00 3589.78 59.00
10019 62.2080 3454.00 3591.11 59.00
10020 62.2140 3442.00 3593.71 59.00
10021 62.2200 3454.00 3596.59 59.00
10022 62.2260 3448.00 3598.79 59.00
10023 62.2320 3443.00 3602.30 59.00
10024 62.2380 3378.00 3605.13 58.00
10025 62.2440 3341.00 3609.30 58.00
10026 62.2500 3337.00 3612.79 58.00
10027 62.2560 3402.00 3617.63 58.00
10028 62.2620 3445.00 3621.70 59.00
10029 62.2680 3463.00 3627.05 59.00
10030 62.2740 3498.00 3631.55 59.00
10031 62.2800 3443.00 3637.25 59.00
10032 62.2860 3453.00 3641.99 59.00
10033 62.2920 3471.00 3647.76 59.00
10034 62.2980 3429.00 3652.48 59.00
10035 62.3040 3441.00 3658.10 59.00
10036 62.3100 3436.00 3662.53 59.00
10037 62.3160 3470.00 3667.73 59.00
10038 62.3220 3613.00 3672.62 60.00
10039 62.3280 3593.00 3676.19 60.00
10040 62.3340 3539.00 3680.37 59.00
10041 62.3400 3580.00 3683.14 60.00
10042 62.3460 3579.00 3686.49 60.00
10043 62.3520 3592.00 3688.40 60.00
10044 62.3580 3503.00 3690.87 59.00
10045 62.3640 3489.00 3691.93 59.00
10046 62.3700 3558.00 3693.59 60.00
10047 62.3760 3517.00 3693.79 59.00
10048 62.3820 3540.00 3694.59 59.00
10049 62.3880 3601.00 3694.00 60.00
10050 62.3940 3632.00 3694.04 60.00
10051 62.4000 3641.00 3692.68 60.00
10052 62.4060 3598.00 3692.00 60.00
10053 62.4120 3617.00 3689.94 60.00
10054 62.4180 3658.00 3688.53 60.00
10055 62.4240 3635.00 3685.76 60.00
10056 62.4300 3614.00 3683.61 60.00
10057 62.4360 3619.00 3681.03 60.00
10058 62.4420 3621.00 3677.04 60.00
10059 62.4480 3603.00 3673.58 60.00
10060 62.4540 3635.00 3668.69 60.00
10061 62.4600 3571.00 3664.33 60.00
10062 62.4660 3552.00 3658.50 60.00
10063 62.4720 3584.00 3653.18 60.00
10064 62.4780 3555.00 3646.44 60.00
10065 62.4840 3573.00 3640.29 60.00
10066 62.4900 3602.00 3632.71 60.00
10067 62.4960 3574.00 3625.75 60.00
10068 62.5020 3522.00 3617.42 59.00
10069 62.5080 3509.00 3609.68 59.00
10070 62.5140 3558.00 3600.67 60.00
10071 62.5200 3641.00 3592.31 60.00
10072 62.5260 3589.00 3582.70 60.00
10073 62.5320 3478.00 3573.84 59.00
10074 62.5380 3451.00 3563.78 59.00
10075 62.5440 3514.00 3554.53 59.00
10076 62.5500 3490.00 3545.17 59.00
10077 62.5560 3453.00 3534.74 59.00
10078 62.5620 3470.00 3525.30 59.00
10079 62.5680 3447.00 3514.94 59.00
10080 62.5740 3363.00 3505.67 58.00
10081 62.5800 3396.00 3495.55 58.00
10082 62.5860 3501.00 3486.67 59.00
10083 62.5920 3437.00 3477.05 59.00
10084 62.5980 3388.00 3468.82 58.00
10085 62.6040 3406.00 3459.87 58.00
10086 62.6100 3385.00 3452.30 58.00
10087 62.6160 3368.00 3444.20 58.00
10088 62.6220 3437.00 3437.48 59.00
10089 62.6280 3467.00 3430.16 59.00
10090 62.6340 3313.00 3424.30 58.00
10091 62.6400 3277.00 3417.81 57.00
10092 62.6460 3343.00 3412.72 58.00
10093 62.6520 3381.00 3407.01 58.00
10094 62.6580 3397.00 3402.72 58.00
10095 62.6640 3346.00 3398.71 58.00
10096 62.6700 3357.00 3394.01 58.00
10097 62.6760 3382.00 3390.59 58.00
10098 62.6820 3353.00 3386.43 58.00
10099 62.6880 3297.00 3383.54 57.00
10100 62.6940 3332.00 3379.84 58.00
10101 62.7000 3389.00 3377.34 58.00
10102 62.7060 3375.00 3374.03 58.00
10103 62.7120 3377.00 3371.82 58.00
10104 62.7180 3292.00 3368.86 57.00
10105 62.7240 3267.00 3367.06 57.00
10106 62.7300 3302.00 3364.42 57.00
10107 62.7360 3348.00 3362.95 58.00
10108 62.7420 3340.00 3360.62 58.00
10109 62.7480 3319.00 3359.45 58.00
10110 62.7540 3354.00 3357.42 58.00
10111 62.7600 3323.00 3356.56 58.00
10112 62.7660 3239.00 3355.82 57.00
10113 62.7720 3301.00 3354.15 57.00
10114 62.7780 3272.00 3353.74 57.00
10115 62.7840 3251.00 3352.35 57.00
10116 62.7900 3312.00 3352.05 58.00
10117 62.7960 3416.00 3350.80 58.00
10118 62.8020 3401.00 3350.75 58.00
10119 62.8080 3339.00 3349.65 58.00
10120 62.8140 3304.00 3349.55 57.00
10121 62.8200 3231.00 3348.48 57.00
10122 62.8260 3302.00 3348.41 57.00
10123 62.8320 3361.00 3347.28 58.00
10124 62.8380 3338.00 3347.08 58.00
10125 62.8440 3307.00 3345.78 58.00
10126 62.8500 3316.00 3345.35 58.00
10127 62.8560 3264.00 3343.77 57.00
10128 62.8620 3255.00 3343.06 57.00
10129 62.8680 3305.00 3341.18 57.00
10130 62.8740 3291.00 3340.09 57.00
10131 62.8800 3296.00 3338.78 57.00
10132 62.8860 3319.00 3336.24 58.00
10133 62.8920 3308.00 3334.57 58.00
10134 62.8980 3255.00 3331.75 57.00
10135 62.9040 3266.00 3329.84 57.00
10136 62.9100 3285.00 3326.79 57.00
10137 62.9160 3255.00 3324.67 57.00
10138 62.9220 3257.00 3321.53 57.00
10139 62.9280 3259.00 3319.36 57.00
10140 62.9340 3267.00 3316.20 57.00
10141 62.9400 3259.00 3314.04 57.00
10142 62.9460 3312.00 3310.99 58.00
10143 62.9520 3279.00 3309.07 57.00
10144 62.9580 3340.00 3306.20 58.00
10145 62.9640 3328.00 3304.51 58.00
10146 62.9700 3275.00 3301.95 57.00
10147 62.9760 3283.00 3300.54 57.00
10148 62.9820 3299.00 3298.36 57.00
10149 62.9880 3272.00 3297.34 57.00
10150 62.9940 3260.00 3296.55 57.00
10151 63.0000 3253.00 3294.96 57.00
10152 63.0060 3245.00 3294.61 57.00
10153 63.0120 3322.00 3294.52 58.00
10154 63.0180 3328.00 3294.69 58.00
10155 63.0240 3265.00 3295.14 57.00
10156 63.0300 3293.00 3294.86 57.00
10157 63.0360 3257.00 3295.87 57.00
10158 63.0420 3256.00 3297.18 57.00
10159 63.0480 3339.00 3298.82 58.00
10160 63.0540 3249.00 3300.77 57.00
10161 63.0600 3197.00 3301.94 57.00
10162 63.0660 3242.00 3304.56 57.00
10163 63.0720 3274.00 3307.54 57.00
10164 63.0780 3278.00 3310.87 57.00
10165 63.0840 3240.00 3314.55 57.00
10166 63.0900 3219.00 3317.60 57.00
10167 63.0960 3166.00 3322.01 56.00
10168 63.1020 3278.00 3326.79 57.00
10169 63.1080 3292.00 3331.95 57.00
10170 63.1140 3240.00 3337.35 57.00
10171 63.1200 3307.00 3342.19 58.00
10172 63.1260 3368.00 3348.32 58.00
10173 63.1320 3271.00 3354.81 57.00
10174 63.1380 3332.00 3361.60 58.00
10175 63.1440 3366.00 3368.66 58.00
10176 63.1500 3303.00 3374.96 57.00
10177 63.1560 3289.00 3382.47 57.00
10178 63.1620 3267.00 3390.14 57.00
10179 63.1680 3345.00 3397.99 58.00
10180 63.1740 3378.00 3405.81 58.00
10181 63.1800 3245.00 3412.71 57.00
10182 63.1860 3412.00 3420.57 58.00
10183 63.1920 3428.00 3428.37 59.00
10184 63.1980 3413.00 3436.06 58.00
10185 63.2040 3441.00 3443.50 59.00
10186 63.2100 3433.00 3449.79 59.00
10187 63.2160 3385.00 3456.81 58.00
10188 63.2220 3409.00 3463.58 58.00
10189 63.2280 3336.00 3470.00 58.00
10190 63.2340 3395.00 3476.07 58.00
10191 63.2400 3529.00 3480.77 59.00
10192 63.2460 3394.00 3486.03 58.00
10193 63.2520 3434.00 3490.83 59.00
10194 63.2580 3487.00 3495.12 59.00
10195 63.2640 3415.00 3498.94 58.00
10196 63.2700 3485.00 3501.25 59.00
10197 63.2760 3539.00 3504.01 59.00
10198 63.2820 3455.00 3506.23 59.00
10199 63.2880 3429.00 3507.89 59.00
10200 63.2940 3495.00 3509.02 59.00
10201 63.3000 3453.00 3508.60 59.00
10202 63.3060 3408.00 3508.66 58.00
10203 63.3120 3415.00 3508.20 58.00
10204 63.3180 3530.00 3507.25 59.00
10205 63.3240 3526.00 3505.81 59.00
10206 63.3300 3457.00 3502.88 59.00
10207 63.3360 3430.00 3500.50 59.00
10208 63.3420 3411.00 3497.64 58.00
10209 63.3480 3394.00 3494.32 58.00
10210 63.3540 3492.00 3490.54 59.00
10211 63.3600 3501.00 3485.29 59.00
10212 63.3660 3495.00 3480.62 59.00
10213 63.3720 3573.00 3475.54 60.00
10214 63.3780 3445.00 3470.06 59.00
10215 63.3840 3509.00 3464.21 59.00
10216 63.3900 3487.00 3457.08 59.00
10217 63.3960 3420.00 3450.73 58.00
10218 63.4020 3421.00 3444.14 58.00
10219 63.4080 3470.00 3437.54 59.00
10220 63.4140 3450.00 3430.93 59.00
10221 63.4200 3396.00 3423.39 58.00
10222 63.4260 3406.00 3416.96 58.00
10223 63.4320 3355.00 3410.81 58.00
10224 63.4380 3333.00 3404.91 58.00
10225 63.4440 3329.00 3399.36 58.00
10226 63.4500 3415.00 3393.17 58.00
10227 63.4560 3367.00 3388.44 58.00
10228 63.4620 3401.00 3384.17 58.00
10229 63.4680 3354.00 3380.30 58.00
10230 63.4740 3327.00 3376.88 58.00
10231 63.4800 3298.00 3373.04 57.00
10232 63.4860 3231.00 3370.70 57.00
10233 63.4920 3239.00 3368.89 57.00
10234 63.4980 3410.00 3367.55 58.00
10235 63.5040 3388.00 3366.72 58.00
10236 63.5100 3321.00 3365.36 58.00
10237 63.5160 3431.00 3365.43 59.00
10238 63.5220 3385.00 3365.94 58.00
10239 63.5280 3363.00 3366.89 58.00
10240 63.5340 3298.00 3368.17 57.00
10241 63.5400 3267.00 3368.76 57.00
10242 63.5460 3331.00 3370.63 58.00
10243 63.5520 3406.00 3372.75 58.00
10244 63.5580 3317.00 3375.07 58.00
10245 63.5640 3408.00 3377.52 58.00
10246 63.5700 3434.00 3379.10 59.00
10247 63.5760 3365.00 3381.73 58.00
10248 63.5820 3382.00 3384.32 58.00
10249 63.5880 3303.00 3386.86 57.00
10250 63.5940 3353.00 3389.29 58.00
10251 63.6000 3401.00 3390.59 58.00
10252 63.6060 3409.00 3392.73 58.00
10253 63.6120 3364.00 3394.64 58.00
10254 63.6180 3460.00 3396.32 59.00
10255 63.6240 3377.00 3397.73 58.00
10256 63.6300 3292.00 3397.85 57.00
10257 63.6360 3425.00 3398.69 59.00
10258 63.6420 3363.00 3399.23 58.00
10259 63.6480 3355.00 3399.53 58.00
10260 63.6540 3298.00 3399.47 57.00
10261 63.6600 3382.00 3398.12 58.00
10262 63.6660 3383.00 3397.44 58.00
10263 63.6720 3480.00 3396.57 59.00
10264 63.6780 3354.00 3395.46 58.00
10265 63.6840 3315.00 3394.15 58.00
10266 63.6900 3377.00 3391.68 58.00
10267 63.6960 3340.00 3390.06 58.00
10268 63.7020 3306.00 3388.33 57.00
10269 63.7080 3431.00 3386.54 59.00
10270 63.7140 3243.00 3384.72 57.00
10271 63.7200 3300.00 3381.91 57.00
10272 63.7260 3337.00 3380.16 58.00
10273 63.7320 3388.00 3378.42 58.00
10274 63.7380 3316.00 3376.88 58.00
10275 63.7440 3291.00 3375.53 57.00
10276 63.7500 3281.00 3373.26 57.00
10277 63.7560 3318.00 3372.32 58.00
10278 63.7620 3293.00 3371.59 57.00
10279 63.7680 3352.00 3371.14 58.00
10280 63.7740 3239.00 3370.95 57.00
10281 63.7800 3287.00 3370.05 57.00
10282 63.7860 3300.00 3370.48 57.00
10283 63.7920 3243.00 3371.19 57.00
10284 63.7980 3234.00 3372.20 57.00
10285 63.8040 3132.00 3373.52 56.00
10286 63.8100 3089.00 3374.06 56.00
10287 63.8160 3293.00 3375.94 57.00
10288 63.8220 3316.00 3378.09 58.00
10289 63.8280 3420.00 3380.47 58.00
10290 63.8340 3321.00 3383.08 58.00
10291 63.8400 3306.00 3384.82 57.00
10292 63.8460 3449.00 3387.74 59.00
10293 63.8520 3285.00 3390.77 57.00
10294 63.8580 3309.00 3393.90 58.00
10295 63.8640 3291.00 3397.03 57.00
10296 63.8700 3306.00 3399.15 57.00
10297 63.8760 3426.00 3402.17 59.00
10298 63.8820 3328.00 3405.11 58.00
10299 63.8880 3278.00 3407.90 57.00
10300 63.8940 3396.00 3410.46 58.00
10301 63.9000 3346.00 3411.83 58.00
10302 63.9060 3406.00 3413.94 58.00
10303 63.9120 3415.00 3415.77 58.00
10304 63.9180 3173.00 3417.26 56.00
10305 63.9240 3346.00 3418.46 58.00
10306 63.9300 3321.00 3418.35 58.00
10307 63.9360 3288.00 3418.97 57.00
10308 63.9420 3301.00 3419.37 57.00
10309 63.9480 3417.00 3419.50 58.00
10310 63.9540 3323.00 3419.41 58.00
10311 63.9600 3390.00 3418.07 58.00
10312 63.9660 3405.00 3417.55 58.00
10313 63.9720 3296.00 3416.80 57.00
10314 63.9780 3244.00 3415.90 57.00
10315 63.9840 3178.00 3414.72 56.00
10316 63.9900 3309.00 3412.46 58.00
10317 63.9960 3323.00 3411.03 58.00
10318 64.0020 3330.00 3409.41 58.00
10319 64.0080 3308.00 3407.61 58.00
10320 64.0140 3317.00 3405.62 58.00
10321 64.0200 3360.00 3403.43 58.00
10322 64.0260 3374.00 3400.09 58.00
10323 64.0320 3349.00 3397.62 58.00
10324 64.0380 3337.00 3394.99 58.00
10325 64.0440 3342.00 3392.17 58.00
10326 64.0500 3262.00 3389.35 57.00
10327 64.0560 3444.00 3385.52 59.00
10328 64.0620 3240.00 3382.64 57.00
10329 64.0680 3293.00 3379.80 57.00
10330 64.0740 3429.00 3377.08 59.00
10331 64.0800 3389.00 3374.50 58.00
10332 64.0860 3347.00 3371.03 58.00
10333 64.0920 3337.00 3368.86 58.00
10334 64.0980 3331.00 3366.93 58.00
10335 64.1040 3248.00 3365.35 57.00
10336 64.1100 3253.00 3364.05 57.00
10337 64.1160 3386.00 3362.14 58.00
10338 64.1220 3335.00 3361.59 58.00
10339 64.1280 3291.00 3361.34 57.00
10340 64.1340 3443.00 3361.61 59.00
10341 64.1400 3344.00 3362.36 58.00
10342 64.1460 3380.00 3362.52 58.00
10343 64.1520 3280.00 3364.06 57.00
10344 64.1580 3327.00 3366.11 58.00
10345 64.1640 3415.00 3368.63 58.00
10346 64.1700 3406.00 3371.55 58.00
10347 64.1760 3314.00 3373.85 58.00
10348 64.1820 3236.00 3377.47 57.00
10349 64.1880 3373.00 3381.47 58.00
10350 64.1940 3306.00 3385.73 57.00
10351 64.2000 3255.00 3390.22 57.00
10352 64.2060 3499.00 3393.89 59.00
10353 64.2120 3427.00 3398.70 59.00
10354 64.2180 3333.00 3403.56 58.00
10355 64.2240 3316.00 3408.37 58.00
10356 64.2300 3266.00 3413.10 57.00
10357 64.2360 3347.00 3416.66 58.00
10358 64.2420 3300.00 3421.01 57.00
10359 64.2480 3265.00 3425.12 57.00
10360 64.2540 3411.00 3428.86 58.00
10361 64.2600 3374.00 3432.22 58.00
10362 64.2660 3268.00 3434.17 57.00
10363 64.2720 3308.00 3436.69 58.00
10364 64.2780 3435.00 3438.78 59.00
10365 64.2840 3383.00 3440.42 58.00
10366 64.2900 3450.00 3441.60 59.00
10367 64.2960 3394.00 3441.41 58.00
10368 64.3020 3478.00 3441.88 59.00
10369 64.3080 3271.00 3442.02 57.00
10370 64.3140 3278.00 3441.93 57.00
10371 64.3200 3328.00 3441.63 58.00
10372 64.3260 3352.00 3440.19 58.00
10373 64.3320 3361.00 3439.70 58.00
10374 64.3380 3366.00 3439.24 58.00
10375 64.3440 3390.00 3438.81 58.00
10376 64.3500 3348.00 3438.55 58.00
10377 64.3560 3335.00 3437.44 58.00
10378 64.3620 3278.00 3437.48 57.00
10379 64.3680 3462.00 3437.78 59.00
10380 64.3740 3339.00 3438.30 58.00
10381 64.3800 3346.00 3439.09 58.00
10382 64.3860 3367.00 3439.15 58.00
10383 64.3920 3437.00 3440.49 59.00
10384 64.3980 3381.00 3442.06 58.00
10385 64.4040 3426.00 3443.83 59.00
10386 64.4100 3373.00 3445.78 58.00
10387 64.4160 3431.00 3446.89 59.00
10388 64.4220 3439.00 3449.07 59.00
10389 64.4280 3366.00 3451.25 58.00
10390 64.4340 3351.00 3453.41 58.00
10391 64.4400 3378.00 3455.48 58.00
10392 64.4460 3417.00 3456.44 58.00
10393 64.4520 3429.00 3458.22 59.00
10394 64.4580 3471.00 3459.82 59.00
10395 64.4640 3465.00 3461.19 59.00
10396 64.4700 3491.00 3462.34 59.00
10397 64.4760 3376.00 3462.20 58.00
10398 64.4820 3433.00 3462.83 59.00
10399 64.4880 3412.00 3463.22 58.00
10400 64.4940 3423.00 3463.34 59.00
10401 64.5000 3393.00 3463.20 58.00
10402 64.5060 3391.00 3461.76 58.00
10403 64.5120 3349.00 3461.08 58.00
10404 64.5180 3367.00 3460.14 58.00
10405 64.5240 3348.00 3458.88 58.00
10406 64.5300 3444.00 3457.31 59.00
10407 64.5360 3441.00 3454.43 59.00
10408 64.5420 3414.00 3452.28 58.00
10409 64.5480 3373.00 3449.80 58.00
10410 64.5540 3390.00 3447.00 58.00
10411 64.5600 3354.00 3443.89 58.00
10412 64.5660 3368.00 3439.51 58.00
10413 64.5720 3432.00 3435.89 59.00
10414 64.5780 3341.00 3432.00 58.00
10415 64.5840 3346.00 3427.90 58.00
10416 64.5900 3328.00 3423.58 58.00
10417 64.5960 3398.00 3418.14 58.00
10418 64.6020 3373.00 3413.48 58.00
10419 64.6080 3305.00 3408.73 57.00
10420 64.6140 3343.00 3403.82 58.00
10421 64.6200 3401.00 3398.80 58.00
10422 64.6260 3404.00 3392.71 58.00
10423 64.6320 3313.00 3387.56 58.00
10424 64.6380 3289.00 3382.39 57.00
10425 64.6440 3294.00 3377.23 57.00
10426 64.6500 3345.00 3372.14 58.00
10427 64.6560 3291.00 3366.09 57.00
10428 64.6620 3266.00 3361.23 57.00
10429 64.6680 3314.00 3356.43 58.00
10430 64.6740 3285.00 3351.80 57.00
10431 64.6800 3317.00 3347.38 58.00
10432 64.6860 3380.00 3342.20 58.00
10433 64.6920 3339.00 3338.28 58.00
10434 64.6980 3219.00 3334.63 57.00
10435 64.7040 3150.00 3331.29 56.00
10436 64.7100 3213.00 3328.26 57.00
10437 64.7160 3220.00 3324.55 57.00
10438 64.7220 3252.00 3322.21 57.00
10439 64.7280 3291.00 3320.14 57.00
10440 64.7340 3274.00 3318.45 57.00
10441 64.7400 3238.00 3316.99 57.00
10442 64.7460 3202.00 3314.80 57.00
10443 64.7520 3278.00 3313.89 57.00
10444 64.7580 3338.00 3313.20 58.00
10445 64.7640 3307.00 3312.73 58.00
10446 64.7700 3261.00 3312.42 57.00
10447 64.7760 3226.00 3311.27 57.00
10448 64.7820 3277.00 3311.22 57.00
10449 64.7880 3312.00 3311.24 58.00
10450 64.7940 3251.00 3311.31 57.00
10451 64.8000 3214.00 3311.39 57.00
10452 64.8060 3229.00 3310.45 57.00
10453 64.8120 3277.00 3310.46 57.00
10454 64.8180 3245.00 3310.41 57.00
10455 64.8240 3190.00 3310.19 56.00
10456 64.8300 3224.00 3309.93 57.00
10457 64.8360 3242.00 3308.53 57.00
10458 64.8420 3226.00 3307.99 57.00
10459 64.8480 3239.00 3307.32 57.00
10460 64.8540 3262.00 3306.48 57.00
10461 64.8600 3199.00 3305.50 57.00
10462 64.8660 3162.00 3303.38 56.00
10463 64.8720 3223.00 3302.15 57.00
10464 64.8780 3222.00 3300.78 57.00
10465 64.8840 3193.00 3299.27 57.00
10466 64.8900 3173.00 3297.73 56.00
10467 64.8960 3125.00 3295.14 56.00
10468 64.9020 3228.00 3293.51 57.00
10469 64.9080 3337.00 3291.83 58.00
10470 64.9140 3274.00 3290.11 57.00
10471 64.9200 3226.00 3288.53 57.00
10472 64.9260 3204.00 3286.02 57.00
10473 64.9320 3165.00 3284.61 56.00
10474 64.9380 3218.00 3283.33 57.00
10475 64.9440 3207.00 3282.15 57.00
10476 64.9500 3158.00 3281.20 56.00
10477 64.9560 3216.00 3279.46 57.00
10478 64.9620 3221.00 3278.93 57.00
10479 64.9680 3181.00 3278.64 56.00
10480 64.9740 3187.00 3278.61 56.00
10481 64.9800 3210.00 3278.87 57.00
10482 64.9860 3234.00 3278.43 57.00
10483 64.9920 3277.00 3279.24 57.00
10484 64.9980 3315.00 3280.42 58.00
10485 65.0040 3289.00 3281.88 57.00
10486 65.0100 3287.00 3283.69 57.00
10487 65.0160 3250.00 3284.84 57.00
10488 65.0220 3253.00 3287.35 57.00
10489 65.0280 3254.00 3290.18 57.00
10490 65.0340 3320.00 3293.38 58.00
10491 65.0400 3298.00 3296.92 57.00
10492 65.0460 3292.00 3300.77 57.00
10493 65.0520 3232.00 3303.94 57.00
10494 65.0580 3293.00 3308.38 57.00
10495 65.0640 3281.00 3313.09 57.00
10496 65.0700 3259.00 3318.02 57.00
10497 65.0760 3338.00 3323.13 58.00
10498 65.0820 3356.00 3327.40 58.00
10499 65.0880 3314.00 3332.77 58.00
10500 65.0940 3344.00 3338.20 58.00
10501 65.1000 3285.00 3343.62 57.00
10502 65.1060 3360.00 3348.99 58.00
10503 65.1120 3355.00 3353.25 58.00
10504 65.1180 3295.00 3358.35 57.00
10505 65.1240 3225.00 3363.24 57.00
10506 65.1300 3350.00 3367.89 58.00
10507 65.1360 3288.00 3372.28 57.00
10508 65.1420 3255.00 3375.34 57.00
10509 65.1480 3294.00 3379.08 57.00
10510 65.1540 3306.00 3382.49 57.00
10511 65.1600 3258.00 3385.57 57.00
10512 65.1660 3262.00 3388.33 57.00
10513 65.1720 3303.00 3389.76 57.00
10514 65.1780 3340.00 3391.91 58.00
10515 65.1840 3323.00 3393.77 58.00
10516 65.1900 3343.00 3395.38 58.00
10517 65.1960 3340.00 3396.74 58.00
10518 65.2020 3342.00 3396.88 58.00
10519 65.2080 3350.00 3397.82 58.00
10520 65.2140 3295.00 3398.56 57.00
10521 65.2200 3289.00 3399.08 57.00
10522 65.2260 3315.00 3399.47 58.00
10523 65.2320 3312.00 3398.69 58.00
10524 65.2380 3302.00 3398.74 57.00
10525 65.2440 3261.00 3398.62 57.00
10526 65.2500 3299.00 3398.30 57.00
10527 65.2560 3292.00 3397.82 57.00
10528 65.2620 3310.00 3396.14 58.00
10529 65.2680 3287.00 3395.19 57.00
10530 65.2740 3285.00 3394.07 57.00
10531 65.2800 3304.00 3392.77 57.00
10532 65.2860 3293.00 3391.16 57.00
10533 65.2920 3332.00 3388.30 58.00
10534 65.2980 3310.00 3386.19 58.00
10535 65.3040 3329.00 3383.73 58.00
10536 65.3100 3327.00 3381.03 58.00
10537 65.3160 3304.00 3378.04 57.00
10538 65.3220 3319.00 3373.77 58.00
10539 65.3280 3288.00 3370.23 57.00
10540 65.3340 3278.00 3366.40 57.00
10541 65.3400 3268.00 3362.45 57.00
10542 65.3460 3291.00 3358.22 57.00
10543 65.3520 3312.00 3352.87 58.00
10544 65.3580 3236.00 3348.43 57.00
10545 65.3640 3311.00 3343.90 58.00
10546 65.3700 3334.00 3339.34 58.00
10547 65.3760 3289.00 3334.79 57.00
10548 65.3820 3316.00 3329.29 58.00
10549 65.3880 3227.00 3324.89 57.00
10550 65.3940 3185.00 3320.61 56.00
10551 65.4000 3188.00 3316.51 56.00
10552 65.4060 3236.00 3312.51 57.00
10553 65.4120 3265.00 3307.68 57.00
10554 65.4180 3268.00 3304.05 57.00
10555 65.4240 3280.00 3300.57 57.00
10556 65.4300 3229.00 3297.27 57.00
10557 65.4360 3177.00 3294.13 56.00
10558 65.4420 3252.00 3290.21 57.00
10559 65.4480 3321.00 3287.39 58.00
10560 65.4540 3250.00 3284.71 57.00
10561 65.4600 3182.00 3282.18 56.00
10562 65.4660 3171.00 3279.76 56.00
10563 65.4720 3233.00 3276.46 57.00
10564 65.4780 3221.00 3274.24 57.00
10565 65.4840 3303.00 3272.16 57.00
10566 65.4900 3298.00 3270.18 57.00
10567 65.4960 3272.00 3268.31 57.00
10568 65.5020 3236.00 3265.53 57.00
10569 65.5080 3199.00 3263.83 57.00
10570 65.5140 3159.00 3262.19 56.00
10571 65.5200 3166.00 3260.63 56.00
10572 65.5260 3236.00 3259.10 57.00
10573 65.5320 3186.00 3256.67 56.00
10574 65.5380 3148.00 3255.30 56.00
10575 65.5440 3164.00 3253.97 56.00
10576 65.5500 3153.00 3252.74 56.00
10577 65.5560 3172.00 3251.54 56.00
10578 65.5620 3194.00 3249.46 57.00
10579 65.5680 3237.00 3248.44 57.00
10580 65.5740 3304.00 3247.57 57.00
10581 65.5800 3228.00 3246.82 57.00
10582 65.5860 3180.00 3245.24 56.00
10583 65.5920 3106.00 3244.84 56.00
10584 65.5980 3250.00 3244.64 57.00
10585 65.6040 3252.00 3243.67 57.00
10586 65.6100 3233.00 3243.97 57.00
10587 65.6160 3155.00 3244.53 56.00
10588 65.6220 3218.00 3244.41 57.00
10589 65.6280 3210.00 3245.57 57.00
10590 65.6340 3123.00 3246.04 56.00
10591 65.6400 3150.00 3247.88 56.00
10592 65.6460 3278.00 3250.07 57.00
10593 65.6520 3256.00 3251.63 57.00
10594 65.6580 3261.00 3254.56 57.00
10595 65.6640 3185.00 3257.89 56.00
10596 65.6700 3178.00 3260.55 56.00
10597 65.6760 3305.00 3264.53 57.00
10598 65.6820 3304.00 3268.90 57.00
10599 65.6880 3198.00 3272.62 57.00
10600 65.6940 3193.00 3277.67 57.00
10601 65.7000 3299.00 3282.01 57.00
10602 65.7060 3212.00 3287.61 57.00
10603 65.7120 3164.00 3293.47 56.00
10604 65.7180 3156.00 3298.51 56.00
10605 65.7240 3129.00 3304.73 56.00
10606 65.7300 3154.00 3311.03 56.00
10607 65.7360 3200.00 3316.36 57.00
10608 65.7420 3256.00 3322.74 57.00
10609 65.7480 3320.00 3328.10 58.00
10610 65.7540 3263.00 3334.36 57.00
10611 65.7600 3324.00 3340.47 58.00
10612 65.7660 3264.00 3345.40 57.00
10613 65.7720 3251.00 3351.14 57.00
10614 65.7780 3271.00 3356.58 57.00
10615 65.7840 3244.00 3360.70 57.00
10616 65.7900 3231.00 3365.47 57.00
10617 65.7960 3209.00 3369.88 57.00
10618 65.8020 3240.00 3372.84 57.00
10619 65.8080 3289.00 3376.36 57.00
10620 65.8140 3298.00 3378.41 57.00
10621 65.8200 3261.00 3381.00 57.00
10622 65.8260 3273.00 3383.12 57.00
10623 65.8320 3270.00 3383.79 57.00
10624 65.8380 3284.00 3384.99 57.00
10625 65.8440 3278.00 3385.80 57.00
10626 65.8500 3299.00 3385.18 57.00
10627 65.8560 3213.00 3385.21 57.00
10628 65.8620 3131.00 3384.92 56.00
10629 65.8680 3229.00 3383.35 57.00
10630 65.8740 3169.00 3382.55 56.00
10631 65.8800 3208.00 3380.56 57.00
10632 65.8860 3219.00 3379.39 57.00
10633 65.8920 3249.00 3378.16 57.00
10634 65.8980 3206.00 3375.87 57.00
10635 65.9040 3216.00 3374.56 57.00
10636 65.9100 3264.00 3373.24 57.00
10637 65.9160 3176.00 3370.97 56.00
10638 65.9220 3160.00 3369.71 56.00
10639 65.9280 3110.00 3368.60 56.00
10640 65.9340 3118.00 3366.61 56.00
10641 65.9400 3172.00 3365.72 56.00
10642 65.9460 3297.00 3363.99 57.00
10643 65.9520 3185.00 3363.47 56.00
10644 65.9580 3277.00 3363.15 57.00
10645 65.9640 3288.00 3361.99 57.00
10646 65.9700 3287.00 3362.09 57.00
10647 65.9760 3212.00 3362.39 57.00
10648 65.9820 3197.00 3361.85 57.00
10649 65.9880 3217.00 3362.58 57.00
10650 65.9940 3227.00 3363.51 57.00
10651 66.0000 3169.00 3363.62 56.00
10652 66.0060 3278.00 3364.90 57.00
10653 66.0120 3348.00 3365.33 58.00
10654 66.0180 3298.00 3366.86 57.00
10655 66.0240 3187.00 3368.49 56.00
10656 66.0300 3257.00 3369.17 57.00
10657 66.0360 3206.00 3370.85 57.00
10658 66.0420 3280.00 3372.49 57.00
10659 66.0480 3333.00 3373.03 58.00
10660 66.0540 3344.00 3374.45 58.00
10661 66.0600 3134.00 3375.70 56.00
10662 66.0660 3260.00 3375.74 57.00
10663 66.0720 3298.00 3376.55 57.00
10664 66.0780 3266.00 3376.11 57.00
10665 66.0840 3212.00 3376.39 57.00
10666 66.0900 3216.00 3376.41 57.00
10667 66.0960 3220.00 3375.19 57.00
10668 66.1020 3327.00 3374.73 58.00
10669 66.1080 3293.00 3374.07 57.00
10670 66.1140 3217.00 3372.15 57.00
10671 66.1200 3165.00 3371.16 56.00
10672 66.1260 3326.00 3370.08 58.00
10673 66.1320 3263.00 3367.93 57.00
10674 66.1380 3200.00 3366.66 57.00
10675 66.1440 3144.00 3364.51 56.00
10676 66.1500 3303.00 3363.42 57.00
10677 66.1560 3223.00 3362.42 57.00
10678 66.1620 3165.00 3360.55 56.00
10679 66.1680 3243.00 3359.84 57.00
10680 66.1740 3271.00 3359.32 57.00
10681 66.1800 3328.00 3358.02 58.00
10682 66.1860 3192.00 3357.93 56.00
10683 66.1920 3315.00 3358.08 58.00
10684 66.1980 3243.00 3357.47 57.00
10685 66.2040 3185.00 3358.09 56.00
10686 66.2100 3182.00 3357.86 56.00
10687 66.2160 3308.00 3358.89 58.00
10688 66.2220 3345.00 3360.20 58.00
10689 66.2280 3301.00 3360.62 57.00
10690 66.2340 3319.00 3362.21 58.00
10691 66.2400 3154.00 3363.91 56.00
10692 66.2460 3322.00 3364.69 58.00
10693 66.2520 3422.00 3366.57 58.00
10694 66.2580 3286.00 3368.47 57.00
10695 66.2640 3311.00 3369.33 58.00
10696 66.2700 3254.00 3371.19 57.00
10697 66.2760 3317.00 3371.97 58.00
10698 66.2820 3222.00 3373.64 57.00
10699 66.2880 3286.00 3375.20 57.00
10700 66.2940 3343.00 3375.56 58.00
10701 66.3000 3388.00 3376.66 58.00
10702 66.3060 3277.00 3377.59 57.00
10703 66.3120 3288.00 3377.24 57.00
10704 66.3180 3297.00 3377.64 57.00
10705 66.3240 3307.00 3376.74 58.00
10706 66.3300 3334.00 3376.52 58.00
10707 66.3360 3294.00 3376.01 57.00
10708 66.3420 3317.00 3374.18 58.00
10709 66.3480 3314.00 3373.05 58.00
10710 66.3540 3325.00 3371.58 58.00
10711 66.3600 3318.00 3368.79 58.00
10712 66.3660 3261.00 3366.69 57.00
10713 66.3720 3248.00 3364.27 57.00
10714 66.3780 3215.00 3360.55 57.00
10715 66.3840 3343.00 3357.54 58.00
10716 66.3900 3334.00 3353.30 58.00
10717 66.3960 3287.00 3349.76 57.00
10718 66.4020 3278.00 3346.02 57.00
10719 66.4080 3426.00 3341.02 59.00
10720 66.4140 3301.00 3336.88 57.00
10721 66.4200 3168.00 3332.52 56.00
10722 66.4260 3168.00 3327.01 56.00
10723 66.4320 3220.00 3322.39 57.00
10724 66.4380 3172.00 3317.61 56.00
10725 66.4440 3276.00 3311.73 57.00
10726 66.4500 3325.00 3306.79 58.00
10727 66.4560 3155.00 3300.75 56.00
10728 66.4620 3223.00 3295.68 57.00
10729 66.4680 3181.00 3290.56 56.00
10730 66.4740 3170.00 3284.51 56.00
10731 66.4800 3288.00 3279.46 57.00
10732 66.4860 3217.00 3274.43 57.00
10733 66.4920 3098.00 3268.58 56.00
10734 66.4980 3076.00 3263.78 55.00
10735 66.5040 3202.00 3259.15 57.00
10736 66.5100 3121.00 3253.66 56.00
10737 66.5160 3158.00 3249.39 56.00
10738 66.5220 3162.00 3244.30 56.00
10739 66.5280 3180.00 3240.46 56.00
10740 66.5340 3209.00 3236.79 57.00
10741 66.5400 3120.00 3232.37 56.00
10742 66.5460 3236.00 3229.23 57.00
10743 66.5520 3084.00 3226.24 56.00
10744 66.5580 3101.00 3222.44 56.00
10745 66.5640 3076.00 3219.85 55.00
10746 66.5700 3138.00 3217.47 56.00
10747 66.5760 3122.00 3214.22 56.00
10748 66.5820 3106.00 3212.12 56.00
10749 66.5880 3169.00 3209.13 56.00
10750 66.5940 3284.00 3207.29 57.00
10751 66.6000 3130.00 3205.52 56.00
10752 66.6060 3213.00 3202.82 57.00
10753 66.6120 3190.00 3201.24 56.00
10754 66.6180 3243.00 3199.69 57.00
10755 66.6240 3230.00 3197.21 57.00
10756 66.6300 3082.00 3195.76 56.00
10757 66.6360 3070.00 3194.35 55.00
10758 66.6420 3020.00 3191.97 55.00
10759 66.6480 3051.00 3190.62 55.00
10760 66.6540 3074.00 3188.29 55.00
10761 66.6600 3153.00 3186.97 56.00
10762 66.6660 3180.00 3185.71 56.00
10763 66.6720 3181.00 3183.43 56.00
10764 66.6780 3064.00 3182.15 55.00
10765 66.6840 3134.00 3180.89 56.00
10766 66.6900 3083.00 3178.61 56.00
10767 66.6960 3112.00 3177.32 56.00
10768 66.7020 3139.00 3176.03 56.00
10769 66.7080 3074.00 3173.74 55.00
10770 66.7140 3119.00 3172.42 56.00
10771 66.7200 3225.00 3170.09 57.00
10772 66.7260 3157.00 3168.75 56.00
10773 66.7320 3059.00 3167.37 55.00
10774 66.7380 3036.00 3164.99 55.00
10775 66.7440 3079.00 3163.59 55.00
10776 66.7500 3216.00 3162.19 57.00
10777 66.7560 3229.00 3159.79 57.00
10778 66.7620 3170.00 3158.41 56.00
10779 66.7680 3037.00 3157.05 55.00
10780 66.7740 3057.00 3154.72 55.00
10781 66.7800 3060.00 3153.44 55.00
10782 66.7860 3074.00 3151.20 55.00
10783 66.7920 3057.00 3150.05 55.00
10784 66.7980 3105.00 3148.99 56.00
10785 66.8040 3172.00 3147.01 56.00
10786 66.8100 3188.00 3146.13 56.00
10787 66.8160 3151.00 3145.32 56.00
10788 66.8220 3184.00 3143.64 56.00
10789 66.8280 3178.00 3143.14 56.00
10790 66.8340 3119.00 3142.73 56.00
10791 66.8400 3160.00 3141.49 56.00
10792 66.8460 3122.00 3141.35 56.00
10793 66.8520 3113.00 3140.42 56.00
10794 66.8580 3119.00 3140.65 56.00
10795 66.8640 3120.00 3141.01 56.00
10796 66.8700 3208.00 3140.54 57.00
10797 66.8760 3231.00 3141.18 57.00
10798 66.8820 3123.00 3142.03 56.00
10799 66.8880 3091.00 3142.04 56.00
10800 66.8940 3106.00 3143.22 56.00
10801 66.9000 3106.00 3143.59 56.00
10802 66.9060 3120.00 3145.11 56.00
10803 66.9120 3106.00 3146.77 56.00
10804 66.9180 3142.00 3147.66 56.00
10805 66.9240 3156.00 3149.75 56.00
10806 66.9300 3172.00 3152.03 56.00
10807 66.9360 3178.00 3153.51 56.00
10808 66.9420 3073.00 3156.21 55.00
10809 66.9480 3158.00 3159.10 56.00
10810 66.9540 3155.00 3161.19 56.00
10811 66.9600 3133.00 3164.45 56.00
10812 66.9660 3113.00 3166.92 56.00
10813 66.9720 3155.00 3170.61 56.00
10814 66.9780 3101.00 3174.48 56.00
10815 66.9840 3081.00 3177.51 56.00
10816 66.9900 3101.00 3181.70 56.00
10817 66.9960 3137.00 3185.99 56.00
10818 67.0020 3197.00 3189.42 57.00
10819 67.0080 3163.00 3193.87 56.00
10820 67.0140 3147.00 3198.44 56.00
10821 67.0200 3132.00 3202.04 56.00
10822 67.0260 3167.00 3206.64 56.00
10823 67.0320 3214.00 3210.23 57.00
10824 67.0380 3186.00 3214.74 56.00
10825 67.0440 3158.00 3219.19 56.00
10826 67.0500 3196.00 3222.59 57.00
10827 67.0560 3236.00 3226.88 57.00
10828 67.0620 3238.00 3231.03 57.00
10829 67.0680 3215.00 3234.05 57.00
10830 67.0740 3169.00 3237.90 56.00
10831 67.0800 3151.00 3241.56 56.00
10832 67.0860 3168.00 3244.02 56.00
10833 67.0920 3262.00 3247.27 57.00
10834 67.0980 3251.00 3249.28 57.00
10835 67.1040 3198.00 3252.05 57.00
10836 67.1100 3159.00 3254.56 56.00
10837 67.1160 3217.00 3255.80 57.00
10838 67.1220 3262.00 3257.75 57.00
10839 67.1280 3222.00 3259.41 57.00
10840 67.1340 3163.00 3259.76 56.00
10841 67.1400 3153.00 3260.78 56.00
10842 67.1460 3228.00 3261.47 57.00
10843 67.1520 3233.00 3260.86 57.00
10844 67.1580 3167.00 3260.90 56.00
10845 67.1640 3176.00 3259.59 56.00
10846 67.1700 3170.00 3258.95 56.00
10847 67.1760 3126.00 3258.01 56.00
10848 67.1820 3170.00 3255.74 56.00
10849 67.1880 3148.00 3254.16 56.00
10850 67.1940 3129.00 3252.33 56.00
10851 67.2000 3116.00 3249.29 56.00
10852 67.2060 3093.00 3247.00 56.00
10853 67.2120 3092.00 3244.54 56.00
10854 67.2180 3156.00 3240.91 56.00
10855 67.2240 3205.00 3238.17 57.00
10856 67.2300 3256.00 3234.32 57.00
10857 67.2360 3214.00 3231.42 57.00
10858 67.2420 3185.00 3228.48 56.00
10859 67.2480 3141.00 3224.54 56.00
10860 67.2540 3140.00 3221.65 56.00
10861 67.2600 3283.00 3218.83 57.00
10862 67.2660 3314.00 3215.03 58.00
10863 67.2720 3230.00 3212.38 57.00
10864 67.2780 3203.00 3209.88 57.00
10865 67.2840 3229.00 3206.55 57.00
10866 67.2900 3277.00 3204.44 57.00
10867 67.2960 3242.00 3201.56 57.00
10868 67.3020 3176.00 3199.87 56.00
10869 67.3080 3170.00 3198.45 56.00
10870 67.3140 3146.00 3196.28 56.00
10871 67.3200 3161.00 3195.40 56.00
10872 67.3260 3147.00 3194.80 56.00
10873 67.3320 3143.00 3193.49 56.00
10874 67.3380 3250.00 3193.47 57.00
10875 67.3440 3337.00 3193.70 58.00
10876 67.3500 3297.00 3193.19 57.00
10877 67.3560 3199.00 3193.96 57.00
10878 67.3620 3140.00 3193.91 56.00
10879 67.3680 3145.00 3195.07 56.00
10880 67.3740 3180.00 3196.41 56.00
10881 67.3800 3195.00 3196.89 57.00
10882 67.3860 3182.00 3198.52 56.00
10883 67.3920 3201.00 3200.23 57.00
10884 67.3980 3213.00 3201.01 57.00
10885 67.4040 3199.00 3202.82 57.00
10886 67.4100 3175.00 3204.65 56.00
10887 67.4160 3135.00 3205.45 56.00
10888 67.4220 3162.00 3207.20 56.00
10889 67.4280 3213.00 3207.86 57.00
10890 67.4340 3170.00 3209.41 56.00
10891 67.4400 3167.00 3210.82 56.00
10892 67.4460 3150.00 3211.11 56.00
10893 67.4520 3143.00 3212.13 56.00
10894 67.4580 3209.00 3212.99 57.00
10895 67.4640 3165.00 3212.62 56.00
10896 67.4700 3157.00 3213.02 56.00
10897 67.4760 3144.00 3213.18 56.00
10898 67.4820 3107.00 3212.09 56.00
10899 67.4880 3168.00 3211.72 56.00
10900 67.4940 3229.00 3210.16 57.00
10901 67.5000 3245.00 3209.36 57.00
10902 67.5060 3193.00 3208.34 57.00
10903 67.5120 3227.00 3206.09 57.00
10904 67.5180 3271.00 3204.66 57.00
10905 67.5240 3199.00 3203.03 57.00
10906 67.5300 3222.00 3200.21 57.00
10907 67.5360 3204.00 3198.29 57.00
10908 67.5420 3104.00 3195.18 56.00
10909 67.5480 3130.00 3192.98 56.00
10910 67.5540 3177.00 3190.70 56.00
10911 67.5600 3159.00 3187.33 56.00
10912 67.5660 3124.00 3184.83 56.00
10913 67.5720 3157.00 3182.33 56.00
10914 67.5780 3148.00 3178.76 56.00
10915 67.5840 3098.00 3176.16 56.00
10916 67.5900 3110.00 3173.51 56.00
10917 67.5960 3103.00 3169.86 56.00
10918 67.6020 3126.00 3167.21 56.00
10919 67.6080 3158.00 3163.57 56.00
10920 67.6140 3096.00 3160.96 56.00
10921 67.6200 3036.00 3158.36 55.00
10922 67.6260 3023.00 3154.81 55.00
10923 67.6320 3085.00 3152.33 56.00
10924 67.6380 3082.00 3149.90 56.00
10925 67.6440 3122.00 3146.51 56.00
10926 67.6500 3101.00 3144.19 56.00
10927 67.6560 3068.00 3141.97 55.00
10928 67.6620 3091.00 3138.83 56.00
10929 67.6680 3072.00 3136.78 55.00
10930 67.6740 3074.00 3133.80 55.00
10931 67.6800 3085.00 3131.89 56.00
10932 67.6860 3076.00 3130.10 55.00
10933 67.6920 3085.00 3127.41 56.00
10934 67.6980 3010.00 3125.80 55.00
10935 67.7040 3075.00 3124.26 55.00
10936 67.7100 3133.00 3121.84 56.00
10937 67.7160 3126.00 3120.46 56.00
10938 67.7220 3140.00 3119.21 56.00
10939 67.7280 3145.00 3117.07 56.00
10940 67.7340 3097.00 3116.04 56.00
10941 67.7400 3060.00 3114.11 55.00
10942 67.7460 3089.00 3113.30 56.00
10943 67.7520 3023.00 3112.62 55.00
10944 67.7580 3041.00 3111.09 55.00
10945 67.7640 3074.00 3110.68 55.00
10946 67.7700 3094.00 3110.43 56.00
10947 67.7760 3052.00 3109.30 55.00
10948 67.7820 3063.00 3109.35 55.00
10949 67.7880 3099.00 3109.52 56.00
10950 67.7940 3064.00 3108.88 55.00
10951 67.8000 3034.00 3109.38 55.00
10952 67.8060 3106.00 3109.06 56.00
10953 67.8120 3042.00 3109.85 55.00
10954 67.8180 3061.00 3110.85 55.00
10955 67.8240 3056.00 3110.95 55.00
10956 67.8300 3107.00 3112.18 56.00
10957 67.8360 3057.00 3113.48 55.00
10958 67.8420 2991.00 3113.91 55.00
10959 67.8480 3029.00 3115.42 55.00
10960 67.8540 3089.00 3117.03 56.00
10961 67.8600 3114.00 3117.68 56.00
10962 67.8660 3087.00 3119.38 56.00
10963 67.8720 3055.00 3120.17 55.00
10964 67.8780 3069.00 3122.00 55.00
10965 67.8840 3105.00 3123.85 56.00
10966 67.8900 3171.00 3124.74 56.00
10967 67.8960 3126.00 3126.66 56.00
10968 67.9020 3046.00 3128.60 55.00
10969 67.9080 3094.00 3129.52 56.00
10970 67.9140 3129.00 3131.45 56.00
10971 67.9200 3115.00 3133.36 56.00
10972 67.9260 3128.00 3134.24 56.00
10973 67.9320 3082.00 3136.09 56.00
10974 67.9380 3109.00 3136.89 56.00
10975 67.9440 3122.00 3138.63 56.00
10976 67.9500 3096.00 3140.29 56.00
10977 67.9560 3069.00 3140.89 55.00
10978 67.9620 3113.00 3142.40 56.00
10979 67.9680 3111.00 3143.80 56.00
10980 67.9740 3143.00 3144.13 56.00
10981 67.9800 3207.00 3145.36 57.00
10982 67.9860 3177.00 3146.49 56.00
10983 67.9920 3091.00 3146.50 56.00
10984 67.9980 3098.00 3147.48 56.00
10985 68.0040 3095.00 3147.38 56.00
10986 68.0100 3096.00 3148.27 56.00
10987 68.0160 3112.00 3149.17 56.00
10988 68.0220 3080.00 3149.08 55.00
10989 68.0280 3113.00 3150.02 56.00
10990 68.0340 3079.00 3151.07 55.00
10991 68.0400 3100.00 3151.25 56.00
10992 68.0460 3142.00 3152.58 56.00
10993 68.0520 3136.00 3154.03 56.00
10994 68.0580 3075.00 3154.73 55.00
10995 68.0640 3144.00 3156.66 56.00
10996 68.0700 3115.00 3157.78 56.00
10997 68.0760 3171.00 3160.22 56.00
10998 68.0820 3206.00 3162.95 57.00
10999 68.0880 3123.00 3164.96 56.00
11000 68.0940 3169.00 3168.27 56.00
11001 68.1000 3247.00 3171.88 57.00
11002 68.1060 3202.00 3174.81 57.00
11003 68.1120 3170.00 3178.99 56.00
11004 68.1180 3195.00 3182.52 57.00
11005 68.1240 3184.00 3187.23 56.00
11006 68.1300 3134.00 3192.27 56.00
11007 68.1360 3140.00 3196.56 56.00
11008 68.1420 3174.00 3202.05 56.00
11009 68.1480 3123.00 3207.72 56.00
11010 68.1540 3203.00 3212.53 57.00
11011 68.1600 3167.00 3218.44 56.00
11012 68.1660 3209.00 3224.38 57.00
11013 68.1720 3198.00 3229.36 57.00
11014 68.1780 3203.00 3235.28 57.00
11015 68.1840 3229.00 3240.09 57.00
11016 68.1900 3301.00 3245.80 57.00
11017 68.1960 3258.00 3251.31 57.00
11018 68.2020 3197.00 3255.54 57.00
11019 68.2080 3236.00 3260.58 57.00
11020 68.2140 3224.00 3265.34 57.00
11021 68.2200 3230.00 3268.77 57.00
11022 68.2260 3301.00 3272.83 57.00
11023 68.2320 3274.00 3276.53 57.00
11024 68.2380 3244.00 3278.83 57.00
11025 68.2440 3233.00 3281.74 57.00
11026 68.2500 3162.00 3283.20 56.00
11027 68.2560 3188.00 3285.21 56.00
11028 68.2620 3206.00 3286.78 57.00
11029 68.2680 3222.00 3286.90 57.00
11030 68.2740 3297.00 3287.52 57.00
11031 68.2800 3208.00 3287.70 57.00
11032 68.2860 3245.00 3286.37 57.00
11033 68.2920 3280.00 3285.56 57.00
11034 68.2980 3318.00 3284.29 58.00
11035 68.3040 3233.00 3281.55 57.00
11036 68.3100 3252.00 3279.39 57.00
11037 68.3160 3229.00 3275.76 57.00
11038 68.3220 3265.00 3272.75 57.00
11039 68.3280 3255.00 3269.35 57.00
11040 68.3340 3225.00 3264.62 57.00
11041 68.3400 3228.00 3260.57 57.00
11042 68.3460 3231.00 3256.20 57.00
11043 68.3520 3194.00 3250.56 57.00
11044 68.3580 3206.00 3245.71 57.00
11045 68.3640 3126.00 3240.66 56.00
11046 68.3700 3213.00 3234.46 57.00
11047 68.3760 3154.00 3229.13 56.00
11048 68.3820 3141.00 3222.75 56.00
11049 68.3880 3170.00 3217.30 56.00
11050 68.3940 3197.00 3211.84 57.00
11051 68.4000 3193.00 3205.34 57.00
11052 68.4060 3099.00 3199.87 56.00
11053 68.4120 3125.00 3194.47 56.00
11054 68.4180 3120.00 3188.14 56.00
11055 68.4240 3149.00 3182.88 56.00
11056 68.4300 3061.00 3177.74 55.00
11057 68.4360 3181.00 3171.73 56.00
11058 68.4420 3179.00 3166.85 56.00
11059 68.4480 3205.00 3161.12 57.00
11060 68.4540 3187.00 3156.54 56.00
11061 68.4600 3207.00 3152.12 57.00
11062 68.4660 3139.00 3146.87 56.00
11063 68.4720 3157.00 3142.77 56.00
11064 68.4780 3117.00 3138.85 56.00
11065 68.4840 3121.00 3134.08 56.00
11066 68.4900 3099.00 3130.46 56.00
11067 68.4960 3082.00 3126.98 56.00
11068 68.5020 3173.00 3122.63 56.00
11069 68.5080 3158.00 3119.42 56.00
11070 68.5140 3107.00 3115.33 56.00
11071 68.5200 3040.00 3112.36 55.00
11072 68.5260 3087.00 3109.51 56.00
11073 68.5320 3089.00 3105.78 56.00
11074 68.5380 3105.00 3103.15 56.00
11075 68.5440 3123.00 3100.65 56.00
11076 68.5500 3105.00 3097.26 56.00
11077 68.5560 3094.00 3094.98 56.00
11078 68.5620 3094.00 3092.82 56.00
11079 68.5680 3210.00 3089.77 57.00
11080 68.5740 3008.00 3087.85 55.00
11081 68.5800 3026.00 3085.05 55.00
11082 68.5860 3099.00 3083.37 56.00
11083 68.5920 3092.00 3081.81 56.00
11084 68.5980 3101.00 3079.35 56.00
11085 68.6040 3111.00 3078.00 56.00
11086 68.6100 3073.00 3076.74 55.00
11087 68.6160 3047.00 3074.58 55.00
11088 68.6220 3075.00 3073.49 55.00
11089 68.6280 3111.00 3072.47 56.00
11090 68.6340 3144.00 3070.49 56.00
11091 68.6400 3104.00 3069.57 56.00
11092 68.6460 3059.00 3067.69 55.00
11093 68.6520 2962.00 3066.85 54.00
11094 68.6580 3025.00 3066.01 55.00
11095 68.6640 3115.00 3064.17 56.00
11096 68.6700 3099.00 3063.34 56.00
11097 68.6760 3045.00 3062.52 55.00
11098 68.6820 3037.00 3060.67 55.00
11099 68.6880 3027.00 3059.80 55.00
11100 68.6940 2985.00 3058.92 55.00
11101 68.7000 3109.00 3057.02 56.00
11102 68.7060 3072.00 3056.08 55.00
11103 68.7120 2996.00 3054.10 55.00
11104 68.7180 2933.00 3053.10 54.00
11105 68.7240 3154.00 3052.05 56.00
11106 68.7300 3051.00 3049.97 55.00
11107 68.7360 3002.00 3048.87 55.00
11108 68.7420 3072.00 3047.73 55.00
11109 68.7480 3125.00 3045.59 56.00
11110 68.7540 3081.00 3044.42 56.00
11111 68.7600 3096.00 3042.24 56.00
11112 68.7660 3032.00 3041.07 55.00
11113 68.7720 3039.00 3039.91 55.00
11114 68.7780 3012.00 3037.76 55.00
11115 68.7840 3074.00 3036.61 55.00
11116 68.7900 3057.00 3035.54 55.00
11117 68.7960 3008.00 3033.53 55.00
11118 68.8020 2891.00 3032.57 54.00
11119 68.8080 2923.00 3031.71 54.00
11120 68.8140 2940.00 3029.95 54.00
11121 68.8200 2957.00 3029.31 54.00
11122 68.8260 3006.00 3027.78 55.00
11123 68.8320 3083.00 3027.38 56.00
11124 68.8380 3022.00 3027.11 55.00
11125 68.8440 3022.00 3025.96 55.00
11126 68.8500 2956.00 3025.97 54.00
11127 68.8560 3096.00 3026.16 56.00
11128 68.8620 2980.00 3025.52 55.00
11129 68.8680 3024.00 3026.01 55.00
11130 68.8740 2926.00 3026.69 54.00
11131 68.8800 3024.00 3026.54 55.00
11132 68.8860 2971.00 3027.56 55.00
11133 68.8920 3060.00 3027.73 55.00
11134 68.8980 3018.00 3029.08 55.00
11135 68.9040 3025.00 3030.57 55.00
11136 68.9100 3060.00 3031.15 55.00
11137 68.9160 3011.00 3032.94 55.00
11138 68.9220 2914.00 3034.83 54.00
11139 68.9280 2926.00 3035.85 54.00
11140 68.9340 2963.00 3038.00 54.00
11141 68.9400 3035.00 3040.27 55.00
11142 68.9460 3028.00 3042.60 55.00
11143 68.9520 3064.00 3044.94 55.00
11144 68.9580 2883.00 3047.40 54.00
11145 68.9640 2948.00 3049.89 54.00
11146 68.9700 3094.00 3052.41 56.00
11147 68.9760 3115.00 3054.93 56.00
11148 68.9820 3034.00 3057.50 55.00
11149 68.9880 2992.00 3060.04 55.00
11150 68.9940 3032.00 3062.58 55.00
11151 69.0000 3002.00 3065.09 55.00
11152 69.0060 3050.00 3067.59 55.00
11153 69.0120 3055.00 3070.02 55.00
11154 69.0180 3087.00 3072.44 56.00
11155 69.0240 3102.00 3074.81 56.00
11156 69.0300 3006.00 3077.13 55.00
11157 69.0360 3011.00 3078.42 55.00
11158 69.0420 3123.00 3080.66 56.00
11159 69.0480 3046.00 3082.84 55.00
11160 69.0540 3071.00 3084.96 55.00
11161 69.0600 3043.00 3086.99 55.00
11162 69.0660 2974.00 3088.95 55.00
11163 69.0720 3064.00 3090.79 55.00
11164 69.0780 3044.00 3092.55 55.00
11165 69.0840 3042.00 3094.17 55.00
11166 69.0900 3057.00 3095.66 55.00
11167 69.0960 3161.00 3097.01 56.00
11168 69.1020 3191.00 3098.22 56.00
11169 69.1080 3099.00 3099.27 56.00
11170 69.1140 3116.00 3100.17 56.00
11171 69.1200 3125.00 3100.92 56.00
11172 69.1260 3250.00 3101.51 57.00
11173 69.1320 3134.00 3102.01 56.00
11174 69.1380 3083.00 3102.30 56.00
11175 69.1440 3182.00 3102.50 56.00
11176 69.1500 3086.00 3102.54 56.00
11177 69.1560 3174.00 3102.53 56.00
11178 69.1620 3228.00 3102.42 57.00
11179 69.1680 2985.00 3102.21 55.00
11180 69.1740 3108.00 3101.92 56.00
11181 69.1800 3020.00 3101.57 55.00
11182 69.1860 3137.00 3101.16 56.00
11183 69.1920 3135.00 3100.70 56.00
11184 69.1980 3059.00 3100.16 55.00
11185 69.2040 3190.00 3099.62 56.00
11186 69.2100 3053.00 3099.03 55.00
11187 69.2160 3175.00 3098.40 56.00
11188 69.2220 3070.00 3097.74 55.00
11189 69.2280 3142.00 3097.02 56.00
11190 69.2340 3054.00 3096.29 55.00
11191 69.2400 3120.00 3095.50 56.00
11192 69.2460 3077.00 3094.63 55.00
11193 69.2520 3096.00 3093.71 56.00
11194 69.2580 3117.00 3092.67 56.00
11195 69.2640 3053.00 3091.56 55.00
11196 69.2700 3044.00 3090.37 55.00
11197 69.2760 3010.00 3088.04 55.00
11198 69.2820 3231.00 3086.55 57.00
11199 69.2880 3179.00 3084.94 56.00
11200 69.2940 3121.00 3083.20 56.00
11201 69.3000 3065.00 3081.33 55.00
11202 69.3060 3024.00 3079.32 55.00
11203 69.3120 3049.00 3077.21 55.00
11204 69.3180 2980.00 3075.02 55.00
11205 69.3240 2971.00 3072.75 55.00
11206 69.3300 3099.00 3070.44 56.00
11207 69.3360 3080.00 3068.08 55.00
11208 69.3420 3140.00 3065.76 56.00
11209 69.3480 3073.00 3063.47 55.00
11210 69.3540 3048.00 3061.25 55.00
11211 69.3600 3074.00 3059.13 55.00
11212 69.3660 3075.00 3057.12 55.00
11213 69.3720 3080.00 3055.22 55.00
11214 69.3780 3108.00 3053.50 56.00
11215 69.3840 3016.00 3051.96 55.00
11216 69.3900 2985.00 3050.58 55.00
11217 69.3960 3103.00 3049.42 56.00
11218 69.4020 3012.00 3048.47 55.00
11219 69.4080 3010.00 3047.75 55.00
11220 69.4140 3141.00 3047.23 56.00
11221 69.4200 3116.00 3046.93 56.00
11222 69.4260 3095.00 3046.85 56.00
11223 69.4320 3058.00 3046.97 55.00
11224 69.4380 3103.00 3047.30 56.00
11225 69.4440 2977.00 3047.80 55.00
11226 69.4500 3077.00 3048.50 55.00
11227 69.4560 3022.00 3049.36 55.00
11228 69.4620 3097.00 3050.38 56.00
11229 69.4680 3131.00 3051.53 56.00
11230 69.4740 3062.00 3052.80 55.00
11231 69.4800 3110.00 3054.21 56.00
11232 69.4860 3056.00 3055.68 55.00
11233 69.4920 3066.00 3057.26 55.00
11234 69.4980 3033.00 3058.91 55.00
11235 69.5040 3141.00 3060.62 56.00
11236 69.5100 3117.00 3062.37 56.00
11237 69.5160 2984.00 3063.15 55.00
11238 69.5220 3066.00 3064.95 55.00
11239 69.5280 3041.00 3066.77 55.00
11240 69.5340 3108.00 3068.60 56.00
11241 69.5400 2973.00 3070.43 55.00
11242 69.5460 3033.00 3072.24 55.00
11243 69.5520 2966.00 3074.03 54.00
11244 69.5580 3013.00 3075.80 55.00
11245 69.5640 3057.00 3077.54 55.00
11246 69.5700 3005.00 3079.26 55.00
11247 69.5760 3007.00 3080.94 55.00
11248 69.5820 2973.00 3082.57 55.00
11249 69.5880 3026.00 3084.15 55.00
11250 69.5940 2952.00 3085.69 54.00
11251 69.6000 2975.00 3087.13 55.00
11252 69.6060 2964.00 3088.51 54.00
11253 69.6120 2960.00 3089.80 54.00
11254 69.6180 2971.00 3090.99 55.00
11255 69.6240 3115.00 3092.06 56.00
11256 69.6300 3071.00 3093.01 55.00
11257 69.6360 3055.00 3093.83 55.00
11258 69.6420 2975.00 3094.53 55.00
11259 69.6480 3116.00 3095.04 56.00
11260 69.6540 3157.00 3095.44 56.00
11261 69.6600 3078.00 3095.66 55.00
11262 69.6660 3104.00 3095.73 56.00
11263 69.6720 3075.00 3095.64 55.00
11264 69.6780 3129.00 3095.42 56.00
11265 69.6840 3061.00 3095.05 55.00
11266 69.6900 3132.00 3094.54 56.00
11267 69.6960 3025.00 3093.90 55.00
11268 69.7020 3050.00 3093.14 55.00
11269 69.7080 3051.00 3092.25 55.00
11270 69.7140 2986.00 3091.22 55.00
11271 69.7200 2956.00 3090.10 54.00
11272 69.7260 2927.00 3088.84 54.00
11273 69.7320 3119.00 3087.48 56.00
11274 69.7380 2946.00 3086.01 54.00
11275 69.7440 3038.00 3084.42 55.00
11276 69.7500 3029.00 3082.75 55.00
11277 69.7560 3055.00 3079.99 55.00
11278 69.7620 3104.00 3078.10 56.00
11279 69.7680 3059.00 3076.20 55.00
11280 69.7740 3080.00 3074.26 55.00
11281 69.7800 3090.00 3072.27 56.00
11282 69.7860 2976.00 3070.27 55.00
11283 69.7920 3078.00 3068.22 55.00
11284 69.7980 3132.00 3066.24 56.00
11285 69.8040 3076.00 3064.28 55.00
11286 69.8100 2990.00 3062.39 55.00
11287 69.8160 3095.00 3060.55 56.00
11288 69.8220 3038.00 3058.83 55.00
11289 69.8280 3093.00 3057.17 56.00
11290 69.8340 3054.00 3055.64 55.00
11291 69.8400 2976.00 3054.22 55.00
11292 69.8460 3072.00 3052.94 55.00
11293 69.8520 2960.00 3051.82 54.00
11294 69.8580 3014.00 3050.85 55.00
11295 69.8640 3016.00 3050.05 55.00
11296 69.8700 3099.00 3049.42 56.00
11297 69.8760 3021.00 3048.97 55.00
11298 69.8820 3050.00 3048.70 55.00
11299 69.8880 3112.00 3048.63 56.00
11300 69.8940 3130.00 3048.74 56.00
11301 69.9000 3119.00 3049.03 56.00
11302 69.9060 3096.00 3049.52 56.00
11303 69.9120 3154.00 3050.18 56.00
11304 69.9180 3134.00 3051.02 56.00
11305 69.9240 3131.00 3052.01 56.00
11306 69.9300 3088.00 3053.18 56.00
11307 69.9360 2995.00 3054.50 55.00
11308 69.9420 3024.00 3055.98 55.00
11309 69.9480 3109.00 3057.56 56.00
11310 69.9540 3050.00 3059.24 55.00
11311 69.9600 3018.00 3061.01 55.00
11312 69.9660 3063.00 3062.85 55.00
11313 69.9720 3134.00 3064.77 56.00
11314 69.9780 3128.00 3066.72 56.00
11315 69.9840 3146.00 3068.68 56.00
11316 69.9900 3137.00 3070.70 56.00
11317 69.9960 3156.00 3071.67 56.00
loop_
_pd_proc_info_excluded_regions
'from 70 to 80.000'
