#------------------------------------------------------------------------------
#$Date: 2019-11-07 23:03:24 +0200 (Thu, 07 Nov 2019) $
#$Revision: 223921 $
#$URL: file:///home/coder/svn-repositories/cod/cif/7/70/06/7700634.cif $
#------------------------------------------------------------------------------
#
# This file is available in the Crystallography Open Database (COD),
# http://www.crystallography.net/
#
# All data on this site have been placed in the public domain by the
# contributors.
#
data_7700634
loop_
_publ_author_name
'Ito, Hiroaki'
'Miura, Akira'
'Goto, Yosuke'
'Mizuguchi, Yoshikazu'
'Moriyoshi, Chikako'
'Kuroiwa, Yoshihiro'
'Azuma, Masaki'
'Liu, Jinjia'
'Wen, Xiao-Dong'
'Nishioka, Shunta'
'Maeda, Kazuhiko'
'Masubuchi, Yuji'
'Rosero-Navarro, Nataly Carolina'
'Tadanaga, Kiyoharu'
_publ_section_title
;
 An electronic structure governed by the displacement of the indium site
 in In-S<sub>6</sub> octahedra: LnOInS<sub>2</sub> (Ln = La, Ce, and Pr).
;
_journal_issue                   32
_journal_name_full
'Dalton transactions (Cambridge, England : 2003)'
_journal_page_first              12272
_journal_page_last               12278
_journal_paper_doi               10.1039/c9dt01562k
_journal_volume                  48
_journal_year                    2019
_chemical_formula_sum            'In O Pr S2'
_chemical_formula_weight         335.8
_space_group_IT_number           11
_space_group_name_Hall           '-P 2yb'
_space_group_name_H-M_alt        'P 1 21/m 1'
_symmetry_cell_setting           monoclinic
_symmetry_Int_Tables_number      11
_symmetry_space_group_name_Hall  '-P 2yb'
_symmetry_space_group_name_H-M   'P 1 21/m 1'
_audit_update_record
;
2019-01-16 deposited with the CCDC.    2019-07-24 downloaded from the CCDC.
;
_cell_angle_alpha                90
_cell_angle_beta                 90
_cell_angle_gamma                90
_cell_formula_units_Z            2
_cell_length_a                   3.992338(16)
_cell_length_b                   3.998947(17)
_cell_length_c                   12.70004(4)
_cell_measurement_temperature    146
_cell_volume                     202.7580(13)
_diffrn_ambient_temperature      150
_diffrn_detector_type
'multiple MYTHEN system (Rev. Sci. Instrum. 88, 85111 (2017))'
_diffrn_measurement_device_type  SPring-8_BL02B2
_diffrn_radiation_probe          x-ray
_diffrn_radiation_type           synchrotron
_diffrn_radiation_wavelength     0.49527
_diffrn_source                   synchrotron
_exptl_absorpt_coefficient_mu    6.796
_exptl_crystal_density_diffrn    5.501
_exptl_crystal_F_000             296
_pd_instr_location               ' ?'
_pd_meas_2theta_range_inc        0.006
_pd_meas_2theta_range_max        78.216
_pd_meas_2theta_range_min        2.100
_pd_meas_number_of_points        12687
_pd_proc_2theta_range_inc        0.006
_pd_proc_2theta_range_max        78.216
_pd_proc_2theta_range_min        2.1
_pd_proc_ls_background_function  'Manual background'
_pd_proc_ls_pref_orient_corr     none
_pd_proc_ls_profile_function     Pseudo-Voigt
_pd_proc_ls_prof_R_factor        0.0656
_pd_proc_ls_prof_wR_expected     0.0129
_pd_proc_ls_prof_wR_factor       0.0991
_refine_ls_goodness_of_fit_all   7.67
_refine_ls_number_constraints    0
_refine_ls_number_parameters     23
_refine_ls_number_restraints     0
_refine_ls_R_factor_all          0.0557
_refine_ls_R_factor_gt           0.0557
_refine_ls_shift/su_max          0.0280
_refine_ls_shift/su_mean         0.0028
_refine_ls_weighting_scheme      sigma
_refine_ls_wR_factor_all         0.0686
_refine_ls_wR_factor_gt          0.0686
_cod_data_source_file            c9dt01562k2.cif
_cod_data_source_block           I_CCDC5
_cod_depositor_comments
;
The following automatic conversions were performed:

'_diffrn_radiation_probe' value 'X-ray' changed to 'x-ray' according
to
/home/data/users/saulius/crontab/automatic-downloads/rss-feeds/RSC/lib/dictionaries/cif_core.dic
dictionary named 'cif_core.dic' version 2.4.2 from 2011-04-26.

Automatic conversion script
Id: cif_fix_values 4973 2017-02-22 13:04:09Z antanas 

 Adding full bibliography for 7700629--7700637.cif.
;
_cod_original_cell_volume        202.7581(14)
_cod_original_formula_sum        'In1 O1 Pr1 S2'
_cod_database_code               7700634
loop_
_space_group_symop_id
_space_group_symop_operation_xyz
1 x,y,z
2 -x,y+1/2,-z
3 -x,-y,-z
4 x,-y+1/2,z
loop_
_atom_site_label
_atom_site_type_symbol
_atom_site_fract_x
_atom_site_fract_y
_atom_site_fract_z
_atom_site_adp_type
_atom_site_U_iso_or_equiv
_atom_site_site_symmetry_multiplicity
_atom_site_occupancy
_atom_site_calc_flag
Pr1 Pr 0.25 0.25 0.09592(5) Uiso 0.00082(8) 2 1 d
In1 In 0.25 0.25 0.60866(8) Uani 0.0608(7) 2 1 d
S1 S 0.25 0.25 0.4122(2) Uiso 0.0068(5) 2 1 d
S2 S 0.25 0.25 0.7943(2) Uiso 0.0014(4) 2 1 d
O1 O 0.75 0.25 0 Uiso 0.0009(13) 2 1 d
loop_
_atom_site_aniso_label
_atom_site_aniso_type_symbol
_atom_site_aniso_U_11
_atom_site_aniso_U_22
_atom_site_aniso_U_33
_atom_site_aniso_U_12
_atom_site_aniso_U_13
_atom_site_aniso_U_23
In1 In 0.0415(11) 0.1401(18) 0.0009(6) 0 0 0
loop_
_atom_type_symbol
_atom_type_scat_dispersion_real
_atom_type_scat_dispersion_imag
_atom_type_scat_source
In -2.1272 0.6711 'International Tables Vol C tables 4.2.6.8 and 6.1.1.1'
O 0.0007 0.0027 'International Tables Vol C tables 4.2.6.8 and 6.1.1.1'
Pr -1.0877 1.4730 'International Tables Vol C tables 4.2.6.8 and 6.1.1.1'
S 0.0527 0.0607 'International Tables Vol C tables 4.2.6.8 and 6.1.1.1'
loop_
_geom_angle_atom_site_label_1
_geom_angle_atom_site_label_2
_geom_angle_atom_site_label_3
_geom_angle_site_symmetry_1
_geom_angle_site_symmetry_3
_geom_angle
O1 Pr1 O1 1_455 . 117.21(2)
O1 Pr1 O1 1_455 2_645 74.273(12)
O1 Pr1 O1 1_455 2_655 74.273(12)
O1 Pr1 O1 . 2_645 74.273(12)
O1 Pr1 O1 . 2_655 74.273(12)
O1 Pr1 O1 2_645 2_655 117.29(2)
S1 In1 S1 . 2_546 84.64(6)
S1 In1 S1 . 2_556 84.64(6)
S1 In1 S1 . 2_646 84.64(6)
S1 In1 S1 . 2_656 84.64(6)
S1 In1 S2 . . 180.0(5)
S1 In1 S1 2_546 2_556 89.593(8)
S1 In1 S1 2_546 2_646 89.406(8)
S1 In1 S1 2_546 2_656 169.27(9)
S1 In1 S2 2_546 . 95.36(6)
S1 In1 S1 2_556 2_646 169.27(9)
S1 In1 S1 2_556 2_656 89.406(8)
S1 In1 S2 2_556 . 95.36(6)
S1 In1 S1 2_646 2_656 89.593(8)
S1 In1 S2 2_646 . 95.36(6)
S1 In1 S2 2_656 . 95.36(6)
In1 S1 In1 . 2_546 95.36(6)
In1 S1 In1 . 2_556 95.36(6)
In1 S1 In1 . 2_646 95.36(6)
In1 S1 In1 . 2_656 95.36(6)
In1 S1 In1 2_546 2_556 89.593(10)
In1 S1 In1 2_546 2_646 89.406(10)
In1 S1 In1 2_546 2_656 169.27(11)
In1 S1 In1 2_556 2_646 169.27(11)
In1 S1 In1 2_556 2_656 89.406(10)
In1 S1 In1 2_646 2_656 89.593(10)
Pr1 O1 Pr1 . 1_655 117.210(18)
Pr1 O1 Pr1 . 2_645 105.727(8)
Pr1 O1 Pr1 . 2_655 105.727(8)
Pr1 O1 O1 . 2_645 52.909(6)
Pr1 O1 O1 . 2_655 52.909(6)
Pr1 O1 O1 . 2_745 127.091(6)
Pr1 O1 O1 . 2_755 127.091(6)
Pr1 O1 Pr1 1_655 2_645 105.727(8)
Pr1 O1 Pr1 1_655 2_655 105.727(8)
Pr1 O1 O1 1_655 2_645 127.091(6)
Pr1 O1 O1 1_655 2_655 127.091(6)
Pr1 O1 O1 1_655 2_745 52.909(6)
Pr1 O1 O1 1_655 2_755 52.909(6)
Pr1 O1 Pr1 2_645 2_655 117.294(18)
Pr1 O1 O1 2_645 2_645 52.818(6)
Pr1 O1 O1 2_645 2_655 127.182(6)
Pr1 O1 O1 2_645 2_745 52.818(6)
Pr1 O1 O1 2_645 2_755 127.182(6)
Pr1 O1 O1 2_655 2_645 127.182(6)
Pr1 O1 O1 2_655 2_655 52.818(6)
Pr1 O1 O1 2_655 2_745 127.182(6)
Pr1 O1 O1 2_655 2_755 52.818(6)
O1 O1 O1 2_645 2_655 90.0948(3)
O1 O1 O1 2_645 2_745 89.9052(3)
O1 O1 O1 2_645 2_755 180.0(5)
O1 O1 O1 2_655 2_745 180.0(5)
O1 O1 O1 2_655 2_755 89.9052(3)
O1 O1 O1 2_745 2_755 90.0948(3)
loop_
_geom_bond_atom_site_label_1
_geom_bond_atom_site_label_2
_geom_bond_site_symmetry_2
_geom_bond_distance
Pr1 O1 1_455 2.3385(3)
Pr1 O1 . 2.3385(3)
Pr1 O1 2_645 2.3414(3)
Pr1 O1 2_655 2.3414(3)
In1 S1 . 2.495(3)
In1 S1 2_546 2.8378(3)
In1 S1 2_556 2.8378(3)
In1 S1 2_646 2.8378(3)
In1 S1 2_656 2.8378(3)
In1 S2 . 2.357(3)
O1 O1 2_645 2.825347(17)
O1 O1 2_655 2.825347(17)
O1 O1 2_745 2.825347(17)
O1 O1 2_755 2.825347(17)
loop_
_pd_proc_point_id
_pd_proc_2theta_corrected
_pd_proc_intensity_net
_pd_calc_intensity_net
_pd_proc_ls_weight
1 2.1000 6707.00 7005.48 82.00
2 2.1060 6758.00 7011.65 82.00
3 2.1120 6789.00 7018.55 82.00
4 2.1180 6636.00 7026.32 81.00
5 2.1240 6627.00 7035.16 81.00
6 2.1300 6830.00 7045.32 83.00
7 2.1360 6912.00 7057.12 83.00
8 2.1420 6949.00 7071.00 83.00
9 2.1480 7018.00 7087.55 84.00
10 2.1540 7112.00 7107.57 84.00
11 2.1600 7120.00 7132.20 84.00
12 2.1660 7215.00 7163.07 85.00
13 2.1720 7393.00 7202.61 86.00
14 2.1780 7515.00 7254.57 87.00
15 2.1840 7707.00 7324.86 88.00
16 2.1900 8021.00 7423.41 90.00
17 2.1960 8496.00 7567.90 92.00
18 2.2020 9223.00 7799.27 96.00
19 2.2080 10776.00 8341.20 104.00
20 2.2140 15565.00 10869.70 125.00
21 2.2200 29349.00 22559.20 171.00
22 2.2260 62844.00 53613.30 251.00
23 2.2320 105907.00 89311.30 325.00
24 2.2380 111481.00 85319.30 334.00
25 2.2440 75821.00 47588.50 275.00
26 2.2500 37087.00 19646.10 193.00
27 2.2560 17352.00 10162.90 132.00
28 2.2620 11394.00 8218.20 107.00
29 2.2680 9365.00 7768.59 97.00
30 2.2740 8460.00 7558.74 92.00
31 2.2800 8049.00 7425.74 90.00
32 2.2860 7711.00 7335.12 88.00
33 2.2920 7523.00 7270.85 87.00
34 2.2980 7408.00 7223.79 86.00
35 2.3040 7296.00 7188.44 85.00
36 2.3100 7142.00 7161.33 85.00
37 2.3160 7205.00 7140.16 85.00
38 2.3220 7066.00 7123.39 84.00
39 2.3280 7105.00 7109.95 84.00
40 2.3340 7189.00 7099.08 85.00
41 2.3400 6999.00 7090.20 84.00
42 2.3460 6977.00 7082.92 84.00
43 2.3520 6958.00 7076.91 83.00
44 2.3580 6862.00 7071.93 83.00
45 2.3640 6826.00 7067.81 83.00
46 2.3700 6929.00 7064.38 83.00
47 2.3760 6736.00 7061.55 82.00
48 2.3820 6783.00 7016.75 82.00
49 2.3880 6762.00 7018.07 82.00
50 2.3940 6932.00 7019.39 83.00
51 2.4000 6849.00 7020.72 83.00
52 2.4060 6765.00 7022.04 82.00
53 2.4120 6929.00 7023.37 83.00
54 2.4180 6854.00 7024.69 83.00
55 2.4240 6807.00 7026.02 83.00
56 2.4300 6761.00 7027.34 82.00
57 2.4360 6769.00 7028.67 82.00
58 2.4420 6841.00 7029.99 83.00
59 2.4480 6932.00 7031.31 83.00
60 2.4540 6775.00 7032.64 82.00
61 2.4600 6744.00 7033.96 82.00
62 2.4660 6765.00 7035.29 82.00
63 2.4720 6740.00 7036.61 82.00
64 2.4780 6859.00 7037.94 83.00
65 2.4840 6736.00 7039.26 82.00
66 2.4900 6747.00 7040.59 82.00
67 2.4960 6894.00 7041.91 83.00
68 2.5020 6864.00 7043.23 83.00
69 2.5080 6796.00 7044.56 82.00
70 2.5140 6846.00 7045.88 83.00
71 2.5200 6752.00 7047.21 82.00
72 2.5260 6921.00 7048.53 83.00
73 2.5320 6852.00 7049.86 83.00
74 2.5380 6802.00 7051.18 82.00
75 2.5440 6837.00 7052.51 83.00
76 2.5500 6882.00 7053.83 83.00
77 2.5560 6748.00 7055.16 82.00
78 2.5620 6718.00 7056.48 82.00
79 2.5680 6910.00 7057.80 83.00
80 2.5740 6944.00 7059.13 83.00
81 2.5800 6843.00 7060.45 83.00
82 2.5860 6831.00 7061.78 83.00
83 2.5920 6826.00 7063.10 83.00
84 2.5980 7040.00 7064.43 84.00
85 2.6040 6988.00 7065.75 84.00
86 2.6100 6833.00 7067.08 83.00
87 2.6160 7081.00 7068.40 84.00
88 2.6220 6968.00 7069.72 83.00
89 2.6280 6904.00 7071.05 83.00
90 2.6340 6992.00 7072.37 84.00
91 2.6400 6734.00 7073.70 82.00
92 2.6460 6877.00 7075.02 83.00
93 2.6520 6912.00 7076.35 83.00
94 2.6580 6965.00 7077.67 83.00
95 2.6640 6916.00 7079.00 83.00
96 2.6700 6839.00 7080.32 83.00
97 2.6760 6898.00 7081.65 83.00
98 2.6820 6951.00 7082.97 83.00
99 2.6880 6779.00 7084.29 82.00
100 2.6940 7077.00 7085.62 84.00
101 2.7000 7026.00 7086.94 84.00
102 2.7060 6853.00 7088.27 83.00
103 2.7120 6849.00 7089.59 83.00
104 2.7180 6778.00 7090.92 82.00
105 2.7240 6936.00 7092.24 83.00
106 2.7300 6874.00 7093.57 83.00
107 2.7360 6905.00 7094.89 83.00
108 2.7420 6836.00 7096.21 83.00
109 2.7480 6873.00 7097.54 83.00
110 2.7540 6925.00 7098.86 83.00
111 2.7600 6792.00 7100.19 82.00
112 2.7660 6916.00 7101.51 83.00
113 2.7720 6799.00 7102.84 82.00
114 2.7780 7021.00 7104.16 84.00
115 2.7840 6970.00 7105.49 83.00
116 2.7900 7023.00 7106.81 84.00
117 2.7960 7013.00 7108.13 84.00
118 2.8020 6946.00 7109.46 83.00
119 2.8080 6710.00 7110.78 82.00
120 2.8140 6852.00 7112.11 83.00
121 2.8200 6948.00 7113.43 83.00
122 2.8260 6895.00 7114.76 83.00
123 2.8320 6890.00 7116.08 83.00
124 2.8380 6892.00 7117.41 83.00
125 2.8440 6803.00 7118.73 82.00
126 2.8500 6975.00 7120.06 84.00
127 2.8560 6987.00 7121.38 84.00
128 2.8620 6845.00 7122.70 83.00
129 2.8680 7001.00 7124.03 84.00
130 2.8740 7078.00 7125.35 84.00
131 2.8800 7087.00 7126.68 84.00
132 2.8860 7094.00 7128.00 84.00
133 2.8920 6976.00 7129.33 84.00
134 2.8980 6850.00 7130.65 83.00
135 2.9040 6899.00 7131.98 83.00
136 2.9100 6983.00 7133.30 84.00
137 2.9160 6907.00 7134.62 83.00
138 2.9220 6941.00 7135.95 83.00
139 2.9280 6956.00 7137.27 83.00
140 2.9340 6861.00 7138.60 83.00
141 2.9400 7149.00 7139.92 85.00
142 2.9460 7071.00 7141.25 84.00
143 2.9520 6997.00 7142.57 84.00
144 2.9580 7120.00 7143.90 84.00
145 2.9640 6927.00 7145.22 83.00
146 2.9700 7040.00 7146.54 84.00
147 2.9760 7137.00 7147.87 84.00
148 2.9820 6916.00 7149.19 83.00
149 2.9880 6944.00 7150.52 83.00
150 2.9940 6924.00 7151.84 83.00
151 3.0000 6877.00 7153.17 83.00
152 3.0060 7003.00 7154.49 84.00
153 3.0120 7083.00 7155.82 84.00
154 3.0180 7131.00 7157.14 84.00
155 3.0240 7071.00 7158.47 84.00
156 3.0300 7048.00 7159.79 84.00
157 3.0360 7073.00 7161.11 84.00
158 3.0420 7079.00 7162.44 84.00
159 3.0480 6975.00 7163.76 84.00
160 3.0540 6915.00 7165.09 83.00
161 3.0600 7043.00 7166.41 84.00
162 3.0660 7142.00 7167.74 85.00
163 3.0720 7008.00 7169.06 84.00
164 3.0780 7005.00 7170.39 84.00
165 3.0840 7020.00 7171.71 84.00
166 3.0900 7037.00 7173.03 84.00
167 3.0960 7078.00 7174.36 84.00
168 3.1020 7126.00 7175.68 84.00
169 3.1080 7183.00 7177.01 85.00
170 3.1140 7181.00 7178.33 85.00
171 3.1200 6955.00 7179.66 83.00
172 3.1260 7043.00 7180.98 84.00
173 3.1320 7172.00 7182.31 85.00
174 3.1380 6976.00 7183.63 84.00
175 3.1440 7015.00 7184.96 84.00
176 3.1500 6997.00 7186.28 84.00
177 3.1560 7102.00 7187.60 84.00
178 3.1620 7040.00 7188.93 84.00
179 3.1680 6920.00 7190.25 83.00
180 3.1740 7001.00 7191.58 84.00
181 3.1800 7079.00 7192.90 84.00
182 3.1860 7098.00 7194.23 84.00
183 3.1920 7105.00 7195.55 84.00
184 3.1980 7030.00 7196.88 84.00
185 3.2040 7106.00 7198.20 84.00
186 3.2100 7465.00 7199.52 86.00
187 3.2160 7763.00 7200.85 88.00
188 3.2220 7827.00 7202.17 88.00
189 3.2280 7853.00 7203.50 89.00
190 3.2340 7367.00 7204.82 86.00
191 3.2400 7098.00 7206.15 84.00
192 3.2460 7000.00 7207.47 84.00
193 3.2520 7028.00 7208.80 84.00
194 3.2580 6965.00 7210.12 83.00
195 3.2640 7078.00 7211.44 84.00
196 3.2700 7080.00 7212.77 84.00
197 3.2760 6944.00 7214.09 83.00
198 3.2820 7015.00 7215.42 84.00
199 3.2880 7201.00 7216.74 85.00
200 3.2940 7180.00 7218.07 85.00
201 3.3000 7076.00 7219.39 84.00
202 3.3060 7078.00 7220.72 84.00
203 3.3120 7227.00 7222.04 85.00
204 3.3180 7217.00 7223.36 85.00
205 3.3240 7205.00 7224.69 85.00
206 3.3300 7349.00 7226.01 86.00
207 3.3360 7266.00 7227.34 85.00
208 3.3420 7073.00 7228.66 84.00
209 3.3480 7079.00 7229.99 84.00
210 3.3540 7092.00 7231.31 84.00
211 3.3600 7077.00 7232.64 84.00
212 3.3660 7056.00 7233.96 84.00
213 3.3720 6961.00 7235.29 83.00
214 3.3780 7033.00 7236.61 84.00
215 3.3840 7185.00 7237.93 85.00
216 3.3900 7141.00 7239.26 85.00
217 3.3960 7281.00 7240.58 85.00
218 3.4020 7639.00 7241.91 87.00
219 3.4080 7871.00 7243.23 89.00
220 3.4140 7811.00 7244.56 88.00
221 3.4200 7581.00 7245.88 87.00
222 3.4260 7348.00 7247.21 86.00
223 3.4320 7199.00 7248.53 85.00
224 3.4380 7122.00 7249.85 84.00
225 3.4440 7116.00 7251.18 84.00
226 3.4500 7157.00 7252.50 85.00
227 3.4560 7221.00 7253.83 85.00
228 3.4620 7103.00 7255.15 84.00
229 3.4680 6944.00 7256.48 83.00
230 3.4740 6966.00 7257.80 83.00
231 3.4800 7071.00 7259.13 84.00
232 3.4860 7143.00 7260.45 85.00
233 3.4920 7144.00 7261.77 85.00
234 3.4980 7167.00 7263.10 85.00
235 3.5040 7161.00 7264.42 85.00
236 3.5100 7099.00 7265.75 84.00
237 3.5160 7189.00 7267.07 85.00
238 3.5220 7061.00 7268.40 84.00
239 3.5280 7023.00 7269.72 84.00
240 3.5340 7085.00 7271.05 84.00
241 3.5400 6979.00 7272.37 84.00
242 3.5460 6997.00 7273.70 84.00
243 3.5520 7033.00 7275.02 84.00
244 3.5580 7091.00 7276.34 84.00
245 3.5640 7124.00 7277.67 84.00
246 3.5700 7029.00 7278.99 84.00
247 3.5760 7021.00 7280.32 84.00
248 3.5820 7130.00 7281.64 84.00
249 3.5880 7090.00 7282.97 84.00
250 3.5940 7017.00 7284.29 84.00
251 3.6000 6961.00 7285.62 83.00
252 3.6060 7033.00 7286.94 84.00
253 3.6120 7150.00 7288.26 85.00
254 3.6180 7145.00 7289.59 85.00
255 3.6240 7060.00 7290.91 84.00
256 3.6300 7079.00 7292.24 84.00
257 3.6360 7046.00 7293.56 84.00
258 3.6420 7103.00 7294.89 84.00
259 3.6480 7216.00 7296.21 85.00
260 3.6540 7141.00 7297.54 85.00
261 3.6600 6997.00 7298.86 84.00
262 3.6660 7020.00 7300.19 84.00
263 3.6720 7058.00 7301.51 84.00
264 3.6780 7045.00 7302.83 84.00
265 3.6840 7069.00 7304.16 84.00
266 3.6900 7029.00 7305.48 84.00
267 3.6960 7047.00 7306.81 84.00
268 3.7020 7093.00 7308.13 84.00
269 3.7080 7035.00 7309.46 84.00
270 3.7140 7140.00 7310.78 84.00
271 3.7200 7206.00 7312.11 85.00
272 3.7260 7074.00 7313.43 84.00
273 3.7320 7189.00 7314.75 85.00
274 3.7380 7025.00 7316.08 84.00
275 3.7440 6947.00 7317.40 83.00
276 3.7500 7183.00 7318.73 85.00
277 3.7560 7225.00 7320.05 85.00
278 3.7620 7013.00 7321.38 84.00
279 3.7680 7016.00 7322.70 84.00
280 3.7740 7262.00 7324.03 85.00
281 3.7800 7103.00 7325.35 84.00
282 3.7860 7101.00 7326.67 84.00
283 3.7920 7157.00 7328.00 85.00
284 3.7980 7041.00 7329.32 84.00
285 3.8040 7025.00 7330.65 84.00
286 3.8100 7104.00 7331.97 84.00
287 3.8160 7143.00 7333.30 85.00
288 3.8220 7091.00 7334.62 84.00
289 3.8280 7144.00 7335.95 85.00
290 3.8340 7167.00 7337.27 85.00
291 3.8400 7158.00 7338.60 85.00
292 3.8460 7137.00 7339.92 84.00
293 3.8520 7099.00 7341.24 84.00
294 3.8580 7088.00 7342.57 84.00
295 3.8640 7011.00 7343.89 84.00
296 3.8700 7106.00 7345.22 84.00
297 3.8760 7013.00 7346.54 84.00
298 3.8820 7072.00 7347.87 84.00
299 3.8880 7075.00 7349.19 84.00
300 3.8940 7075.00 7350.52 84.00
301 3.9000 7097.00 7351.84 84.00
302 3.9060 7076.00 7353.16 84.00
303 3.9120 7138.00 7354.49 84.00
304 3.9180 7094.00 7355.81 84.00
305 3.9240 7119.00 7357.14 84.00
306 3.9300 7101.00 7358.46 84.00
307 3.9360 7045.00 7359.79 84.00
308 3.9420 7089.00 7361.11 84.00
309 3.9480 7045.00 7362.44 84.00
310 3.9540 7044.00 7363.76 84.00
311 3.9600 7140.00 7365.08 84.00
312 3.9660 7256.00 7366.41 85.00
313 3.9720 7166.00 7367.73 85.00
314 3.9780 7074.00 7369.06 84.00
315 3.9840 7121.00 7370.38 84.00
316 3.9900 7136.00 7371.71 84.00
317 3.9960 6990.00 7373.03 84.00
318 4.0020 7148.00 7374.36 85.00
319 4.0080 7198.00 7375.68 85.00
320 4.0140 7308.00 7377.00 85.00
321 4.0200 7196.00 7378.33 85.00
322 4.0260 7305.00 7379.65 85.00
323 4.0320 7230.00 7380.98 85.00
324 4.0380 7275.00 7382.30 85.00
325 4.0440 7009.00 7383.63 84.00
326 4.0500 7295.00 7384.95 85.00
327 4.0560 7203.00 7386.28 85.00
328 4.0620 7002.00 7387.60 84.00
329 4.0680 7067.00 7388.93 84.00
330 4.0740 7106.00 7390.25 84.00
331 4.0800 7074.00 7391.57 84.00
332 4.0860 7153.00 7392.90 85.00
333 4.0920 7245.00 7394.22 85.00
334 4.0980 7068.00 7395.55 84.00
335 4.1040 6942.00 7396.87 83.00
336 4.1100 7015.00 7398.20 84.00
337 4.1160 7122.00 7399.52 84.00
338 4.1220 7009.00 7400.85 84.00
339 4.1280 7209.00 7402.17 85.00
340 4.1340 7060.00 7403.49 84.00
341 4.1400 7447.00 7404.82 86.00
342 4.1460 7314.00 7406.14 86.00
343 4.1520 7442.00 7407.47 86.00
344 4.1580 7962.00 7408.79 89.00
345 4.1640 8592.00 7410.12 93.00
346 4.1700 8470.00 7411.44 92.00
347 4.1760 8517.00 7412.77 92.00
348 4.1820 8498.00 7414.09 92.00
349 4.1880 8203.00 7415.42 91.00
350 4.1940 8035.00 7416.74 90.00
351 4.2000 7760.00 7418.06 88.00
352 4.2060 7366.00 7419.39 86.00
353 4.2120 7341.00 7420.71 86.00
354 4.2180 7376.00 7422.04 86.00
355 4.2240 7368.00 7423.36 86.00
356 4.2300 7281.00 7424.69 85.00
357 4.2360 7200.00 7426.01 85.00
358 4.2420 7111.00 7427.34 84.00
359 4.2480 7329.00 7428.66 86.00
360 4.2540 7282.00 7429.98 85.00
361 4.2600 7362.00 7431.31 86.00
362 4.2660 7388.00 7432.63 86.00
363 4.2720 7315.00 7433.96 86.00
364 4.2780 7608.00 7435.28 87.00
365 4.2840 7385.00 7436.61 86.00
366 4.2900 7305.00 7437.93 85.00
367 4.2960 7246.00 7439.26 85.00
368 4.3020 7313.00 7440.58 86.00
369 4.3080 7321.00 7441.90 86.00
370 4.3140 7256.00 7443.23 85.00
371 4.3200 7443.00 7444.55 86.00
372 4.3260 7429.00 7445.88 86.00
373 4.3320 7566.00 7604.22 87.00
374 4.3380 7442.00 7620.09 86.00
375 4.3440 7406.00 7638.07 86.00
376 4.3500 7496.00 7658.60 87.00
377 4.3560 7528.00 7682.22 87.00
378 4.3620 7617.00 7709.63 87.00
379 4.3680 7779.00 7741.73 88.00
380 4.3740 7821.00 7779.73 88.00
381 4.3800 7916.00 7825.22 89.00
382 4.3860 7758.00 7880.38 88.00
383 4.3920 7768.00 7948.25 88.00
384 4.3980 8171.00 8033.13 90.00
385 4.4040 8136.00 8141.33 90.00
386 4.4100 8379.00 8282.34 92.00
387 4.4160 8530.00 8470.94 92.00
388 4.4220 8841.00 8731.18 94.00
389 4.4280 9244.00 9104.26 96.00
390 4.4340 10073.00 9666.09 100.00
391 4.4400 11208.00 10606.10 106.00
392 4.4460 13311.00 12996.50 115.00
393 4.4520 19138.00 23896.70 138.00
394 4.4580 43911.00 66698.90 210.00
395 4.4640 140579.00 155297.00 375.00
396 4.4700 233407.00 213264.00 483.00
397 4.4760 191368.00 152686.00 437.00
398 4.4820 92666.00 64860.90 304.00
399 4.4880 34592.00 23330.20 186.00
400 4.4940 18751.00 12889.80 137.00
401 4.5000 13676.00 10584.40 117.00
402 4.5060 11547.00 9663.10 107.00
403 4.5120 10500.00 9110.64 102.00
404 4.5180 9939.00 8744.06 100.00
405 4.5240 9612.00 8488.86 98.00
406 4.5300 9478.00 8304.48 97.00
407 4.5360 9869.00 8167.18 99.00
408 4.5420 10585.00 8062.37 103.00
409 4.5480 10881.00 7980.67 104.00
410 4.5540 10945.00 7915.85 105.00
411 4.5600 9993.00 7863.63 100.00
412 4.5660 9282.00 7821.02 96.00
413 4.5720 8554.00 7785.85 92.00
414 4.5780 8214.00 7756.54 91.00
415 4.5840 8087.00 7731.90 90.00
416 4.5900 7776.00 7711.02 88.00
417 4.5960 7861.00 7693.21 89.00
418 4.6020 7934.00 7677.94 89.00
419 4.6080 7565.00 7664.78 87.00
420 4.6140 7801.00 7509.45 88.00
421 4.6200 7606.00 7510.78 87.00
422 4.6260 7624.00 7512.10 87.00
423 4.6320 7573.00 7513.43 87.00
424 4.6380 7573.00 7514.75 87.00
425 4.6440 7610.00 7516.08 87.00
426 4.6500 7600.00 7517.40 87.00
427 4.6560 7631.00 7518.73 87.00
428 4.6620 7240.00 7520.05 85.00
429 4.6680 7514.00 7521.37 87.00
430 4.6740 7485.00 7522.70 87.00
431 4.6800 7696.00 7524.02 88.00
432 4.6860 7456.00 7525.35 86.00
433 4.6920 7453.00 7526.67 86.00
434 4.6980 7500.00 7528.00 87.00
435 4.7040 7620.00 7529.32 87.00
436 4.7100 7501.00 7530.65 87.00
437 4.7160 7479.00 7531.97 86.00
438 4.7220 7254.00 7534.39 85.00
439 4.7280 7329.00 7536.81 86.00
440 4.7340 7339.00 7539.24 86.00
441 4.7400 7328.00 7541.66 86.00
442 4.7460 7390.00 7544.08 86.00
443 4.7520 7463.00 7546.50 86.00
444 4.7580 7491.00 7548.92 87.00
445 4.7640 7473.00 7551.35 86.00
446 4.7700 7268.00 7553.77 85.00
447 4.7760 7158.00 7556.19 85.00
448 4.7820 7299.00 7558.61 85.00
449 4.7880 7357.00 7561.03 86.00
450 4.7940 7439.00 7563.46 86.00
451 4.8000 7518.00 7565.88 87.00
452 4.8060 7384.00 7568.30 86.00
453 4.8120 7451.00 7570.72 86.00
454 4.8180 7390.00 7573.14 86.00
455 4.8240 7526.00 7575.56 87.00
456 4.8300 7328.00 7577.99 86.00
457 4.8360 7387.00 7580.41 86.00
458 4.8420 7430.00 7582.83 86.00
459 4.8480 7238.00 7585.25 85.00
460 4.8540 7208.00 7587.67 85.00
461 4.8600 7230.00 7590.10 85.00
462 4.8660 7427.00 7592.52 86.00
463 4.8720 7284.00 7594.94 85.00
464 4.8780 7408.00 7597.36 86.00
465 4.8840 7496.00 7599.78 87.00
466 4.8900 7344.00 7602.21 86.00
467 4.8960 7500.00 7604.63 87.00
468 4.9020 7445.00 7607.05 86.00
469 4.9080 7515.00 7609.47 87.00
470 4.9140 7451.00 7611.89 86.00
471 4.9200 7448.00 7614.32 86.00
472 4.9260 7338.00 7616.74 86.00
473 4.9320 7529.00 7619.16 87.00
474 4.9380 7460.00 7621.58 86.00
475 4.9440 7454.00 7624.00 86.00
476 4.9500 7393.00 7626.43 86.00
477 4.9560 7295.00 7628.85 85.00
478 4.9620 7506.00 7631.27 87.00
479 4.9680 7584.00 7633.69 87.00
480 4.9740 7362.00 7636.11 86.00
481 4.9800 7428.00 7638.54 86.00
482 4.9860 7247.00 7640.96 85.00
483 4.9920 7309.00 7643.38 85.00
484 4.9980 7407.00 7645.80 86.00
485 5.0040 7460.00 7648.22 86.00
486 5.0100 7377.00 7650.65 86.00
487 5.0160 7353.00 7653.07 86.00
488 5.0220 7430.00 7655.49 86.00
489 5.0280 7418.00 7657.91 86.00
490 5.0340 7533.00 7660.33 87.00
491 5.0400 7321.00 7662.76 86.00
492 5.0460 7446.00 7665.18 86.00
493 5.0520 7482.00 7667.60 86.00
494 5.0580 7363.00 7670.02 86.00
495 5.0640 7422.00 7672.44 86.00
496 5.0700 7547.00 7674.87 87.00
497 5.0760 7321.00 7677.29 86.00
498 5.0820 7334.00 7679.71 86.00
499 5.0880 7373.00 7682.13 86.00
500 5.0940 7409.00 7684.55 86.00
501 5.1000 7487.00 7686.98 87.00
502 5.1060 7410.00 7689.40 86.00
503 5.1120 7518.00 7691.82 87.00
504 5.1180 7652.00 7694.24 87.00
505 5.1240 7483.00 7696.66 87.00
506 5.1300 7594.00 7699.08 87.00
507 5.1360 7448.00 7701.51 86.00
508 5.1420 7387.00 7703.93 86.00
509 5.1480 7379.00 7706.35 86.00
510 5.1540 7559.00 7708.77 87.00
511 5.1600 7682.00 7711.19 88.00
512 5.1660 7754.00 7713.62 88.00
513 5.1720 7796.00 7716.04 88.00
514 5.1780 7772.00 7718.46 88.00
515 5.1840 7699.00 7720.88 88.00
516 5.1900 7508.00 7723.30 87.00
517 5.1960 7317.00 7725.73 86.00
518 5.2020 7522.00 7728.15 87.00
519 5.2080 7466.00 7730.57 86.00
520 5.2140 7463.00 7732.99 86.00
521 5.2200 7364.00 7735.41 86.00
522 5.2260 7383.00 7737.84 86.00
523 5.2320 7548.00 7740.26 87.00
524 5.2380 7475.00 7742.68 86.00
525 5.2440 7291.00 7745.10 85.00
526 5.2500 7427.00 7747.52 86.00
527 5.2560 7521.00 7749.95 87.00
528 5.2620 7519.00 7752.37 87.00
529 5.2680 7483.00 7754.79 87.00
530 5.2740 7500.00 7757.21 87.00
531 5.2800 7648.00 7759.63 87.00
532 5.2860 7614.00 7762.06 87.00
533 5.2920 7590.00 7764.48 87.00
534 5.2980 7429.00 7766.90 86.00
535 5.3040 7515.00 7769.32 87.00
536 5.3100 7468.00 7771.74 86.00
537 5.3160 7446.00 7774.17 86.00
538 5.3220 7524.00 7776.59 87.00
539 5.3280 7569.00 7779.01 87.00
540 5.3340 7490.00 7781.43 87.00
541 5.3400 7504.00 7783.85 87.00
542 5.3460 7491.00 7786.28 87.00
543 5.3520 7438.00 7788.70 86.00
544 5.3580 7425.00 7791.12 86.00
545 5.3640 7593.00 7793.54 87.00
546 5.3700 7482.00 7795.96 86.00
547 5.3760 7431.00 7798.39 86.00
548 5.3820 7658.00 7800.81 88.00
549 5.3880 7642.00 7803.23 87.00
550 5.3940 7650.00 7805.65 87.00
551 5.4000 7619.00 7808.07 87.00
552 5.4060 7717.00 7810.50 88.00
553 5.4120 7670.00 7812.92 88.00
554 5.4180 7837.00 7815.34 89.00
555 5.4240 7789.00 7817.76 88.00
556 5.4300 7840.00 7820.18 89.00
557 5.4360 7986.00 7822.60 89.00
558 5.4420 7900.00 7825.03 89.00
559 5.4480 7800.00 7827.45 88.00
560 5.4540 7740.00 7829.87 88.00
561 5.4600 7692.00 7832.29 88.00
562 5.4660 7720.00 7834.71 88.00
563 5.4720 7722.00 7837.14 88.00
564 5.4780 7714.00 7839.56 88.00
565 5.4840 7778.00 7841.98 88.00
566 5.4900 7814.00 7844.40 88.00
567 5.4960 7694.00 7849.73 88.00
568 5.5020 7621.00 7860.88 87.00
569 5.5080 7625.00 7872.03 87.00
570 5.5140 7743.00 7883.17 88.00
571 5.5200 7610.00 7894.32 87.00
572 5.5260 7639.00 7905.47 87.00
573 5.5320 7649.00 7916.62 87.00
574 5.5380 7709.00 7927.76 88.00
575 5.5440 7702.00 7938.91 88.00
576 5.5500 7742.00 7950.06 88.00
577 5.5560 7661.00 7961.20 88.00
578 5.5620 7749.00 7972.35 88.00
579 5.5680 7644.00 7983.50 87.00
580 5.5740 7732.00 7994.65 88.00
581 5.5800 7795.00 8005.79 88.00
582 5.5860 7753.00 8016.94 88.00
583 5.5920 7776.00 8028.09 88.00
584 5.5980 7826.00 8039.23 88.00
585 5.6040 7792.00 8050.38 88.00
586 5.6100 7749.00 8061.53 88.00
587 5.6160 7811.00 8072.68 88.00
588 5.6220 7913.00 8083.82 89.00
589 5.6280 7969.00 8094.97 89.00
590 5.6340 7975.00 8106.12 89.00
591 5.6400 7977.00 8117.26 89.00
592 5.6460 7899.00 8128.41 89.00
593 5.6520 7851.00 8139.56 89.00
594 5.6580 7929.00 8150.70 89.00
595 5.6640 7834.00 8161.85 89.00
596 5.6700 7893.00 8173.00 89.00
597 5.6760 7993.00 8184.15 89.00
598 5.6820 8018.00 8195.29 90.00
599 5.6880 7930.00 8206.44 89.00
600 5.6940 7942.00 8217.59 89.00
601 5.7000 8051.00 8228.73 90.00
602 5.7060 7958.00 8239.88 89.00
603 5.7120 7932.00 8251.03 89.00
604 5.7180 8032.00 8262.18 90.00
605 5.7240 7995.00 8273.32 89.00
606 5.7300 7949.00 8284.47 89.00
607 5.7360 7985.00 8295.62 89.00
608 5.7420 8015.00 8306.76 90.00
609 5.7480 8211.00 8317.91 91.00
610 5.7540 8190.00 8329.06 90.00
611 5.7600 8168.00 8340.21 90.00
612 5.7660 8172.00 8351.35 90.00
613 5.7720 8026.00 8362.50 90.00
614 5.7780 8073.00 8373.65 90.00
615 5.7840 8201.00 8384.79 91.00
616 5.7900 8253.00 8395.94 91.00
617 5.7960 8168.00 8407.09 90.00
618 5.8020 8170.00 8418.24 90.00
619 5.8080 8100.00 8429.38 90.00
620 5.8140 8005.00 8440.53 89.00
621 5.8200 8069.00 8451.68 90.00
622 5.8260 8084.00 8462.82 90.00
623 5.8320 8059.00 8473.97 90.00
624 5.8380 8106.00 8485.12 90.00
625 5.8440 7995.00 8496.26 89.00
626 5.8500 8115.00 8507.41 90.00
627 5.8560 8121.00 8518.56 90.00
628 5.8620 8080.00 8529.71 90.00
629 5.8680 8018.00 8540.85 90.00
630 5.8740 8027.00 8552.00 90.00
631 5.8800 8132.00 8563.15 90.00
632 5.8860 8219.00 8574.29 91.00
633 5.8920 8282.00 8585.44 91.00
634 5.8980 8358.00 8596.59 91.00
635 5.9040 8300.00 8607.74 91.00
636 5.9100 8206.00 8618.88 91.00
637 5.9160 8310.00 8630.03 91.00
638 5.9220 8370.00 8641.18 91.00
639 5.9280 8307.00 8652.32 91.00
640 5.9340 8223.00 8663.47 91.00
641 5.9400 8304.00 8674.62 91.00
642 5.9460 8295.00 8685.77 91.00
643 5.9520 8299.00 8696.91 91.00
644 5.9580 8267.00 8708.06 91.00
645 5.9640 8240.00 8719.21 91.00
646 5.9700 8175.00 8730.35 90.00
647 5.9760 8219.00 8741.50 91.00
648 5.9820 8326.00 8752.65 91.00
649 5.9880 8299.00 8763.79 91.00
650 5.9940 8291.00 8774.94 91.00
651 6.0000 8298.00 8786.09 91.00
652 6.0060 8239.00 8797.24 91.00
653 6.0120 8182.00 8808.38 90.00
654 6.0180 8269.00 8819.53 91.00
655 6.0240 8357.00 8830.68 91.00
656 6.0300 8350.00 8841.83 91.00
657 6.0360 8420.00 8852.97 92.00
658 6.0420 8399.00 8864.12 92.00
659 6.0480 8326.00 8875.27 91.00
660 6.0540 8367.00 8886.41 91.00
661 6.0600 8407.00 8897.56 92.00
662 6.0660 8411.00 8908.71 92.00
663 6.0720 8353.00 8919.85 91.00
664 6.0780 8406.00 8931.00 92.00
665 6.0840 8441.00 8942.15 92.00
666 6.0900 8457.00 8953.30 92.00
667 6.0960 8426.00 8964.44 92.00
668 6.1020 8416.00 8975.59 92.00
669 6.1080 8486.00 8986.74 92.00
670 6.1140 8542.00 8997.88 92.00
671 6.1200 8582.00 9009.03 93.00
672 6.1260 8449.00 9018.83 92.00
673 6.1320 8435.00 9025.94 92.00
674 6.1380 8547.00 9033.05 92.00
675 6.1440 8466.00 9040.16 92.00
676 6.1500 8622.00 9047.27 93.00
677 6.1560 8732.00 9054.38 93.00
678 6.1620 8480.00 9061.49 92.00
679 6.1680 8453.00 9068.60 92.00
680 6.1740 8445.00 9075.71 92.00
681 6.1800 8495.00 9082.82 92.00
682 6.1860 8562.00 9089.93 93.00
683 6.1920 8591.00 9097.04 93.00
684 6.1980 8696.00 9104.15 93.00
685 6.2040 8688.00 9111.26 93.00
686 6.2100 8643.00 9118.37 93.00
687 6.2160 8673.00 9125.47 93.00
688 6.2220 8627.00 9132.58 93.00
689 6.2280 8537.00 9139.69 92.00
690 6.2340 8559.00 9146.80 93.00
691 6.2400 8730.00 9153.91 93.00
692 6.2460 8740.00 9161.02 93.00
693 6.2520 8627.00 9168.13 93.00
694 6.2580 8703.00 9175.24 93.00
695 6.2640 8797.00 9182.35 94.00
696 6.2700 8753.00 9189.46 94.00
697 6.2760 8765.00 9196.57 94.00
698 6.2820 8815.00 9203.68 94.00
699 6.2880 8852.00 9210.79 94.00
700 6.2940 8780.00 9217.90 94.00
701 6.3000 8922.00 9225.01 94.00
702 6.3060 9007.00 9232.12 95.00
703 6.3120 8915.00 9239.23 94.00
704 6.3180 8936.00 9246.34 95.00
705 6.3240 8880.00 9253.45 94.00
706 6.3300 8884.00 9260.55 94.00
707 6.3360 8894.00 9267.66 94.00
708 6.3420 8880.00 9274.77 94.00
709 6.3480 8746.00 9281.88 94.00
710 6.3540 8679.00 9288.99 93.00
711 6.3600 8758.00 9296.10 94.00
712 6.3660 8952.00 9303.21 95.00
713 6.3720 8917.00 9310.32 94.00
714 6.3780 8844.00 9317.43 94.00
715 6.3840 8719.00 9324.54 93.00
716 6.3900 8819.00 9331.65 94.00
717 6.3960 8858.00 9338.76 94.00
718 6.4020 8846.00 9345.87 94.00
719 6.4080 8833.00 9352.98 94.00
720 6.4140 8881.00 9360.09 94.00
721 6.4200 8793.00 9367.20 94.00
722 6.4260 8814.00 9374.31 94.00
723 6.4320 8857.00 9381.42 94.00
724 6.4380 8777.00 9388.53 94.00
725 6.4440 8793.00 9395.63 94.00
726 6.4500 8826.00 9402.74 94.00
727 6.4560 9025.00 9409.85 95.00
728 6.4620 8989.00 9416.96 95.00
729 6.4680 8828.00 9424.07 94.00
730 6.4740 8833.00 9431.18 94.00
731 6.4800 8988.00 9438.29 95.00
732 6.4860 8994.00 9445.40 95.00
733 6.4920 9020.00 9452.51 95.00
734 6.4980 9046.00 9459.62 95.00
735 6.5040 9047.00 9466.73 95.00
736 6.5100 9030.00 9473.84 95.00
737 6.5160 8966.00 9480.95 95.00
738 6.5220 9080.00 9488.06 95.00
739 6.5280 9132.00 9495.17 96.00
740 6.5340 9174.00 9502.28 96.00
741 6.5400 9027.00 9509.39 95.00
742 6.5460 9083.00 9516.50 95.00
743 6.5520 9168.00 9523.61 96.00
744 6.5580 9137.00 9530.71 96.00
745 6.5640 9153.00 9537.82 96.00
746 6.5700 9193.00 9547.62 96.00
747 6.5760 9276.00 9554.98 96.00
748 6.5820 9191.00 9562.38 96.00
749 6.5880 9363.00 9569.82 97.00
750 6.5940 9564.00 9577.31 98.00
751 6.6000 9904.00 9584.88 100.00
752 6.6060 10014.00 9592.52 100.00
753 6.6120 9765.00 9600.26 99.00
754 6.6180 9437.00 9608.14 97.00
755 6.6240 9227.00 9616.19 96.00
756 6.6300 9198.00 9624.46 96.00
757 6.6360 9239.00 9633.04 96.00
758 6.6420 9344.00 9640.73 97.00
759 6.6480 9381.00 9642.52 97.00
760 6.6540 9380.00 9645.16 97.00
761 6.6600 9137.00 9649.10 96.00
762 6.6660 9024.00 9655.10 95.00
763 6.6720 9187.00 9664.57 96.00
764 6.6780 9258.00 9680.97 96.00
765 6.6840 9190.00 9722.04 96.00
766 6.6900 9280.00 9896.12 96.00
767 6.6960 9694.00 10532.10 98.00
768 6.7020 10605.00 11742.60 103.00
769 6.7080 11051.00 12317.50 105.00
770 6.7140 10524.00 11317.30 103.00
771 6.7200 9679.00 10242.90 98.00
772 6.7260 9289.00 9803.77 96.00
773 6.7320 9192.00 9696.94 96.00
774 6.7380 9227.00 9667.32 96.00
775 6.7440 9123.00 9652.56 96.00
776 6.7500 9298.00 9643.10 96.00
777 6.7560 9140.00 9636.55 96.00
778 6.7620 9026.00 9631.75 95.00
779 6.7680 9208.00 9628.07 96.00
780 6.7740 9345.00 9625.15 97.00
781 6.7800 9356.00 9622.74 97.00
782 6.7860 9151.00 9620.71 96.00
783 6.7920 9257.00 9618.95 96.00
784 6.7980 9197.00 9617.40 96.00
785 6.8040 9116.00 9616.00 95.00
786 6.8100 9286.00 9614.72 96.00
787 6.8160 9244.00 9613.54 96.00
788 6.8220 9319.00 9612.43 97.00
789 6.8280 9329.00 9611.39 97.00
790 6.8340 9530.00 9610.39 98.00
791 6.8400 9587.00 9609.44 98.00
792 6.8460 9873.00 9605.91 99.00
793 6.8520 9802.00 9605.23 99.00
794 6.8580 9805.00 9604.56 99.00
795 6.8640 9733.00 9603.88 99.00
796 6.8700 9537.00 9603.20 98.00
797 6.8760 9454.00 9602.52 97.00
798 6.8820 9337.00 9601.85 97.00
799 6.8880 9343.00 9601.17 97.00
800 6.8940 9551.00 9601.17 98.00
801 6.9000 9374.00 9601.17 97.00
802 6.9060 9281.00 9601.17 96.00
803 6.9120 9350.00 9601.17 97.00
804 6.9180 9281.00 9601.17 96.00
805 6.9240 9330.00 9601.17 97.00
806 6.9300 9338.00 9601.17 97.00
807 6.9360 9325.00 9601.17 97.00
808 6.9420 9146.00 9601.17 96.00
809 6.9480 9183.00 9601.17 96.00
810 6.9540 9230.00 9601.17 96.00
811 6.9600 9279.00 9601.17 96.00
812 6.9660 9275.00 9601.17 96.00
813 6.9720 9142.00 9601.17 96.00
814 6.9780 9104.00 9601.17 95.00
815 6.9840 9118.00 9601.17 95.00
816 6.9900 9089.00 9601.17 95.00
817 6.9960 9107.00 9601.17 95.00
818 7.0020 9135.00 9601.17 96.00
819 7.0080 9048.00 9601.17 95.00
820 7.0140 9160.00 9601.17 96.00
821 7.0200 9044.00 9601.17 95.00
822 7.0260 9167.00 9601.17 96.00
823 7.0320 9111.00 9601.17 95.00
824 7.0380 9125.00 9601.17 96.00
825 7.0440 9072.00 9601.17 95.00
826 7.0500 9094.00 9601.17 95.00
827 7.0560 8980.00 9601.17 95.00
828 7.0620 9129.00 9601.17 96.00
829 7.0680 9199.00 9601.17 96.00
830 7.0740 9231.00 9601.17 96.00
831 7.0800 9240.00 9601.17 96.00
832 7.0860 9196.00 9601.17 96.00
833 7.0920 9245.00 9601.17 96.00
834 7.0980 9298.00 9601.17 96.00
835 7.1040 9390.00 9601.17 97.00
836 7.1100 9422.00 9601.17 97.00
837 7.1160 9575.00 9601.17 98.00
838 7.1220 9332.00 9601.17 97.00
839 7.1280 9455.00 9601.17 97.00
840 7.1340 9517.00 9601.17 98.00
841 7.1400 9485.00 9601.17 97.00
842 7.1460 9822.00 9601.17 99.00
843 7.1520 9835.00 9601.17 99.00
844 7.1580 9929.00 9601.17 100.00
845 7.1640 10184.00 9601.17 101.00
846 7.1700 10183.00 9601.17 101.00
847 7.1760 10020.00 9601.17 100.00
848 7.1820 10006.00 9601.17 100.00
849 7.1880 9711.00 9601.17 99.00
850 7.1940 9845.00 9601.17 99.00
851 7.2000 9767.00 9601.17 99.00
852 7.2060 9641.00 9601.17 98.00
853 7.2120 9745.00 9601.17 99.00
854 7.2180 9669.00 9601.17 98.00
855 7.2240 9555.00 9601.17 98.00
856 7.2300 9774.00 9601.17 99.00
857 7.2360 9479.00 9601.17 97.00
858 7.2420 9536.00 9601.17 98.00
859 7.2480 9730.00 9601.17 99.00
860 7.2540 9575.00 9601.17 98.00
861 7.2600 9602.00 9601.17 98.00
862 7.2660 9599.00 9601.17 98.00
863 7.2720 9478.00 9601.17 97.00
864 7.2780 9556.00 9601.17 98.00
865 7.2840 9614.00 9601.17 98.00
866 7.2900 9611.00 9601.17 98.00
867 7.2960 9490.00 9601.17 97.00
868 7.3020 9615.00 9601.17 98.00
869 7.3080 9622.00 9601.55 98.00
870 7.3140 9449.00 9601.59 97.00
871 7.3200 9421.00 9602.22 97.00
872 7.3260 9318.00 9602.32 97.00
873 7.3320 9230.00 9602.44 96.00
874 7.3380 9346.00 9602.58 97.00
875 7.3440 9535.00 9602.74 98.00
876 7.3500 9344.00 9602.93 97.00
877 7.3560 9199.00 9603.16 96.00
878 7.3620 9362.00 9603.44 97.00
879 7.3680 9247.00 9603.78 96.00
880 7.3740 9429.00 9604.20 97.00
881 7.3800 9451.00 9604.73 97.00
882 7.3860 9573.00 9605.41 98.00
883 7.3920 9307.00 9606.31 96.00
884 7.3980 9579.00 9607.54 98.00
885 7.4040 9611.00 9609.25 98.00
886 7.4100 9741.00 9611.78 99.00
887 7.4160 9801.00 9615.79 99.00
888 7.4220 10213.00 9624.13 101.00
889 7.4280 10533.00 9652.58 103.00
890 7.4340 10445.00 9749.68 102.00
891 7.4400 10890.00 9954.78 104.00
892 7.4460 10663.00 10172.70 103.00
893 7.4520 10157.00 10283.60 101.00
894 7.4580 9908.00 10207.00 100.00
895 7.4640 9905.00 9924.00 100.00
896 7.4700 9300.00 9715.64 96.00
897 7.4760 9506.00 9640.43 97.00
898 7.4820 9182.00 9621.44 96.00
899 7.4880 9206.00 9614.91 96.00
900 7.4940 9283.00 9611.29 96.00
901 7.5000 9208.00 9608.94 96.00
902 7.5060 9344.00 9607.32 97.00
903 7.5120 9189.00 9606.16 96.00
904 7.5180 9206.00 9605.29 96.00
905 7.5240 9094.00 9604.64 95.00
906 7.5300 9007.00 9604.13 95.00
907 7.5360 9142.00 9603.72 96.00
908 7.5420 9125.00 9603.39 96.00
909 7.5480 9057.00 9603.13 95.00
910 7.5540 9290.00 9602.90 96.00
911 7.5600 9080.00 9602.72 95.00
912 7.5660 9138.00 9602.56 96.00
913 7.5720 9510.00 9602.42 98.00
914 7.5780 9379.00 9602.31 97.00
915 7.5840 9414.00 9601.84 97.00
916 7.5900 9301.00 9601.78 96.00
917 7.5960 9186.00 9601.17 96.00
918 7.6020 9287.00 9601.17 96.00
919 7.6080 9147.00 9601.17 96.00
920 7.6140 9175.00 9601.17 96.00
921 7.6200 9292.00 9601.17 96.00
922 7.6260 9215.00 9601.17 96.00
923 7.6320 9315.00 9601.17 97.00
924 7.6380 9079.00 9601.17 95.00
925 7.6440 9218.00 9601.17 96.00
926 7.6500 9356.00 9601.17 97.00
927 7.6560 9177.00 9601.17 96.00
928 7.6620 9189.00 9601.17 96.00
929 7.6680 9110.00 9601.17 95.00
930 7.6740 9049.00 9601.17 95.00
931 7.6800 9265.00 9599.55 96.00
932 7.6860 9161.00 9589.81 96.00
933 7.6920 9104.00 9580.07 95.00
934 7.6980 9147.00 9570.33 96.00
935 7.7040 9196.00 9560.59 96.00
936 7.7100 9234.00 9550.86 96.00
937 7.7160 9172.00 9541.12 96.00
938 7.7220 9094.00 9531.38 95.00
939 7.7280 9095.00 9521.64 95.00
940 7.7340 9292.00 9511.91 96.00
941 7.7400 9298.00 9502.17 96.00
942 7.7460 9174.00 9492.43 96.00
943 7.7520 9157.00 9482.69 96.00
944 7.7580 9298.00 9472.95 96.00
945 7.7640 9207.00 9463.22 96.00
946 7.7700 9241.00 9453.48 96.00
947 7.7760 9184.00 9443.74 96.00
948 7.7820 9208.00 9434.00 96.00
949 7.7880 9068.00 9424.26 95.00
950 7.7940 9244.00 9414.53 96.00
951 7.8000 9177.00 9404.79 96.00
952 7.8060 8981.00 9395.05 95.00
953 7.8120 9278.00 9385.31 96.00
954 7.8180 9218.00 9375.58 96.00
955 7.8240 9074.00 9365.84 95.00
956 7.8300 9078.00 9356.10 95.00
957 7.8360 9184.00 9346.36 96.00
958 7.8420 9118.00 9336.62 95.00
959 7.8480 9163.00 9326.89 96.00
960 7.8540 9065.00 9317.15 95.00
961 7.8600 9331.00 9307.41 97.00
962 7.8660 9201.00 9297.67 96.00
963 7.8720 9142.00 9287.93 96.00
964 7.8780 9181.00 9278.20 96.00
965 7.8840 9190.00 9268.46 96.00
966 7.8900 8911.00 9258.72 94.00
967 7.8960 8866.00 9248.98 94.00
968 7.9020 8932.00 9239.25 95.00
969 7.9080 9120.00 9229.51 95.00
970 7.9140 8975.00 9219.77 95.00
971 7.9200 8994.00 9210.03 95.00
972 7.9260 9087.00 9200.29 95.00
973 7.9320 8988.00 9190.56 95.00
974 7.9380 8961.00 9180.82 95.00
975 7.9440 8873.00 9171.08 94.00
976 7.9500 9018.00 9161.34 95.00
977 7.9560 8975.00 9151.61 95.00
978 7.9620 8958.00 9141.87 95.00
979 7.9680 8949.00 9132.13 95.00
980 7.9740 8910.00 9122.39 94.00
981 7.9800 8757.00 9112.65 94.00
982 7.9860 8896.00 9102.92 94.00
983 7.9920 8905.00 9093.18 94.00
984 7.9980 8977.00 9083.44 95.00
985 8.0040 9000.00 9073.70 95.00
986 8.0100 8930.00 9063.96 94.00
987 8.0160 8910.00 9054.23 94.00
988 8.0220 9077.00 9044.49 95.00
989 8.0280 9119.00 9034.75 95.00
990 8.0340 9168.00 9025.01 96.00
991 8.0400 9013.00 9015.28 95.00
992 8.0460 8973.00 9005.54 95.00
993 8.0520 8860.00 8995.80 94.00
994 8.0580 8778.00 8986.06 94.00
995 8.0640 8645.00 8978.88 93.00
996 8.0700 8816.00 8972.22 94.00
997 8.0760 8992.00 8965.55 95.00
998 8.0820 8955.00 8958.89 95.00
999 8.0880 9106.00 8952.22 95.00
1000 8.0940 9167.00 8945.55 96.00
1001 8.1000 9115.00 8938.89 95.00
1002 8.1060 8947.00 8932.22 95.00
1003 8.1120 8724.00 8925.55 93.00
1004 8.1180 8745.00 8918.89 94.00
1005 8.1240 8910.00 8912.22 94.00
1006 8.1300 8999.00 8905.56 95.00
1007 8.1360 9453.00 8898.89 97.00
1008 8.1420 9909.00 8892.22 100.00
1009 8.1480 9957.00 8885.56 100.00
1010 8.1540 10127.00 8878.89 101.00
1011 8.1600 10881.00 8872.23 104.00
1012 8.1660 11423.00 8865.56 107.00
1013 8.1720 11164.00 8858.89 106.00
1014 8.1780 10378.00 8852.23 102.00
1015 8.1840 9636.00 8845.56 98.00
1016 8.1900 9258.00 8838.90 96.00
1017 8.1960 8905.00 8832.23 94.00
1018 8.2020 8923.00 8825.56 94.00
1019 8.2080 8726.00 8818.90 93.00
1020 8.2140 8736.00 8812.23 93.00
1021 8.2200 8891.00 8805.56 94.00
1022 8.2260 8762.00 8798.90 94.00
1023 8.2320 8889.00 8792.23 94.00
1024 8.2380 9080.00 8785.57 95.00
1025 8.2440 9246.00 8778.90 96.00
1026 8.2500 9756.00 8772.23 99.00
1027 8.2560 11306.00 8765.57 106.00
1028 8.2620 13016.00 9351.45 114.00
1029 8.2680 13322.00 10052.20 115.00
1030 8.2740 12019.00 10173.50 110.00
1031 8.2800 10631.00 10314.70 103.00
1032 8.2860 10097.00 10480.10 100.00
1033 8.2920 10123.00 10675.30 101.00
1034 8.2980 10269.00 10907.50 101.00
1035 8.3040 10637.00 11186.50 103.00
1036 8.3100 10998.00 11525.40 105.00
1037 8.3160 11438.00 11941.90 107.00
1038 8.3220 12939.00 12461.40 114.00
1039 8.3280 15499.00 13120.20 124.00
1040 8.3340 17407.00 13971.80 132.00
1041 8.3400 17344.00 15098.90 132.00
1042 8.3460 16511.00 16632.60 128.00
1043 8.3520 17276.00 18793.50 131.00
1044 8.3580 20057.00 21972.70 142.00
1045 8.3640 25358.00 26999.20 159.00
1046 8.3700 36879.00 36993.40 192.00
1047 8.3760 71228.00 69191.00 267.00
1048 8.3820 173002.00 181947.00 416.00
1049 8.3880 377020.00 436602.00 614.00
1050 8.3940 639979.00 717817.00 800.00
1051 8.4000 782407.00 803032.00 885.00
1052 8.4060 642681.00 639917.00 802.00
1053 8.4120 342837.00 320827.00 586.00
1054 8.4180 130209.00 119094.00 361.00
1055 8.4240 53213.00 50149.20 231.00
1056 8.4300 31035.00 31744.20 176.00
1057 8.4360 23097.00 24606.30 152.00
1058 8.4420 19037.00 20465.20 138.00
1059 8.4480 16336.00 17740.90 128.00
1060 8.4540 14624.00 15849.00 121.00
1061 8.4600 13463.00 14482.00 116.00
1062 8.4660 12587.00 13462.30 112.00
1063 8.4720 12054.00 12680.80 110.00
1064 8.4780 11398.00 12068.60 107.00
1065 8.4840 10763.00 11579.60 104.00
1066 8.4900 10260.00 11182.60 101.00
1067 8.4960 10017.00 10855.60 100.00
1068 8.5020 9716.00 10582.90 99.00
1069 8.5080 9428.00 10352.70 97.00
1070 8.5140 9287.00 10156.60 96.00
1071 8.5200 8963.00 9987.92 95.00
1072 8.5260 8892.00 9841.63 94.00
1073 8.5320 8938.00 9179.80 95.00
1074 8.5380 8786.00 9110.52 94.00
1075 8.5440 8739.00 8445.60 93.00
1076 8.5500 8691.00 8438.93 93.00
1077 8.5560 8618.00 8432.26 93.00
1078 8.5620 8498.00 8425.60 92.00
1079 8.5680 8374.00 8418.93 92.00
1080 8.5740 8261.00 8412.26 91.00
1081 8.5800 8193.00 8405.60 91.00
1082 8.5860 8144.00 8398.93 90.00
1083 8.5920 8201.00 8389.65 91.00
1084 8.5980 8119.00 8377.75 90.00
1085 8.6040 8130.00 8365.85 90.00
1086 8.6100 8117.00 8353.96 90.00
1087 8.6160 8000.00 8342.06 89.00
1088 8.6220 7868.00 8330.16 89.00
1089 8.6280 7857.00 8318.26 89.00
1090 8.6340 7750.00 8306.36 88.00
1091 8.6400 7937.00 8294.46 89.00
1092 8.6460 8043.00 8282.56 90.00
1093 8.6520 8069.00 8270.66 90.00
1094 8.6580 8219.00 8258.77 91.00
1095 8.6640 8201.00 8246.87 91.00
1096 8.6700 8367.00 8234.97 91.00
1097 8.6760 8482.00 8223.07 92.00
1098 8.6820 8885.00 8211.17 94.00
1099 8.6880 9331.00 8199.27 97.00
1100 8.6940 9928.00 8187.37 100.00
1101 8.7000 10853.00 8175.48 104.00
1102 8.7060 11604.00 8163.58 108.00
1103 8.7120 12255.00 8151.68 111.00
1104 8.7180 12951.00 8139.78 114.00
1105 8.7240 13213.00 8127.88 115.00
1106 8.7300 12957.00 8115.98 114.00
1107 8.7360 12190.00 8104.08 110.00
1108 8.7420 10936.00 8092.19 105.00
1109 8.7480 10094.00 8080.29 100.00
1110 8.7540 9474.00 8068.39 97.00
1111 8.7600 9126.00 8056.49 96.00
1112 8.7660 8722.00 8044.59 93.00
1113 8.7720 8413.00 8032.69 92.00
1114 8.7780 8320.00 8020.79 91.00
1115 8.7840 8269.00 8008.89 91.00
1116 8.7900 8300.00 7997.00 91.00
1117 8.7960 8159.00 7985.10 90.00
1118 8.8020 8122.00 7973.20 90.00
1119 8.8080 7971.00 7961.30 89.00
1120 8.8140 7951.00 8282.33 89.00
1121 8.8200 8038.00 8302.58 90.00
1122 8.8260 8079.00 8327.70 90.00
1123 8.8320 8080.00 8358.75 90.00
1124 8.8380 8072.00 8397.04 90.00
1125 8.8440 8082.00 8444.31 90.00
1126 8.8500 8179.00 8502.82 90.00
1127 8.8560 8320.00 8575.61 91.00
1128 8.8620 8341.00 8666.78 91.00
1129 8.8680 8604.00 8782.05 93.00
1130 8.8740 8735.00 8929.52 93.00
1131 8.8800 8785.00 9121.02 94.00
1132 8.8860 9184.00 9374.20 96.00
1133 8.8920 9581.00 9716.67 98.00
1134 8.8980 10074.00 10192.70 100.00
1135 8.9040 10685.00 10878.20 103.00
1136 8.9100 11763.00 11909.80 108.00
1137 8.9160 13644.00 13577.20 117.00
1138 8.9220 17832.00 16953.50 134.00
1139 8.9280 31322.00 28419.40 177.00
1140 8.9340 67745.00 72162.70 260.00
1141 8.9400 165395.00 174017.00 407.00
1142 8.9460 253982.00 262723.00 504.00
1143 8.9520 220520.00 200225.00 470.00
1144 8.9580 125266.00 89544.80 354.00
1145 8.9640 55762.00 33869.90 236.00
1146 8.9700 27786.00 18212.60 167.00
1147 8.9760 18082.00 13976.00 134.00
1148 8.9820 14187.00 12064.40 119.00
1149 8.9880 12220.00 10903.80 111.00
1150 8.9940 11039.00 10133.50 105.00
1151 9.0000 10279.00 9595.79 101.00
1152 9.0060 9865.00 9204.97 99.00
1153 9.0120 9710.00 8911.23 99.00
1154 9.0180 9510.00 8684.23 98.00
1155 9.0240 9190.00 8504.47 96.00
1156 9.0300 8894.00 8359.16 94.00
1157 9.0360 8687.00 8239.45 93.00
1158 9.0420 8564.00 8139.25 93.00
1159 9.0480 8461.00 8054.11 92.00
1160 9.0540 8523.00 7980.81 92.00
1161 9.0600 8585.00 7916.91 93.00
1162 9.0660 8741.00 7860.61 93.00
1163 9.0720 8649.00 7810.49 93.00
1164 9.0780 8515.00 7765.46 92.00
1165 9.0840 8428.00 7724.65 92.00
1166 9.0900 8220.00 7402.07 91.00
1167 9.0960 8219.00 7390.17 91.00
1168 9.1020 8161.00 7378.27 90.00
1169 9.1080 8004.00 7366.37 89.00
1170 9.1140 7972.00 7354.47 89.00
1171 9.1200 7905.00 7342.58 89.00
1172 9.1260 7744.00 7330.68 88.00
1173 9.1320 7635.00 7318.78 87.00
1174 9.1380 7439.00 7306.88 86.00
1175 9.1440 7281.00 7294.98 85.00
1176 9.1500 7243.00 7283.08 85.00
1177 9.1560 7278.00 7271.18 85.00
1178 9.1620 7187.00 7259.29 85.00
1179 9.1680 7164.00 7247.39 85.00
1180 9.1740 7211.00 7235.49 85.00
1181 9.1800 7158.00 7223.59 85.00
1182 9.1860 7205.00 7211.69 85.00
1183 9.1920 7193.00 7199.79 85.00
1184 9.1980 7197.00 7187.89 85.00
1185 9.2040 7303.00 7175.99 85.00
1186 9.2100 7359.00 7164.10 86.00
1187 9.2160 7374.00 7152.20 86.00
1188 9.2220 7518.00 7140.30 87.00
1189 9.2280 7724.00 7128.40 88.00
1190 9.2340 8177.00 7116.50 90.00
1191 9.2400 9782.00 7104.60 99.00
1192 9.2460 14354.00 7092.70 120.00
1193 9.2520 22856.00 7080.81 151.00
1194 9.2580 28485.00 7068.91 169.00
1195 9.2640 24701.00 7057.01 157.00
1196 9.2700 16544.00 7045.11 129.00
1197 9.2760 10890.00 7033.21 104.00
1198 9.2820 8416.00 7021.31 92.00
1199 9.2880 7588.00 7009.41 87.00
1200 9.2940 7262.00 6997.52 85.00
1201 9.3000 7061.00 6985.62 84.00
1202 9.3060 6853.00 6973.72 83.00
1203 9.3120 6914.00 6961.82 83.00
1204 9.3180 6911.00 6949.92 83.00
1205 9.3240 6894.00 6938.02 83.00
1206 9.3300 6854.00 6926.12 83.00
1207 9.3360 6743.00 6914.23 82.00
1208 9.3420 6636.00 6902.33 81.00
1209 9.3480 6581.00 6890.43 81.00
1210 9.3540 6502.00 6878.53 81.00
1211 9.3600 6549.00 6866.63 81.00
1212 9.3660 6501.00 6854.73 81.00
1213 9.3720 6638.00 6842.83 81.00
1214 9.3780 6645.00 6830.94 82.00
1215 9.3840 6676.00 6819.04 82.00
1216 9.3900 6534.00 6807.14 81.00
1217 9.3960 6352.00 6795.24 80.00
1218 9.4020 6392.00 6783.34 80.00
1219 9.4080 6523.00 6771.44 81.00
1220 9.4140 6369.00 6759.55 80.00
1221 9.4200 6440.00 6747.65 80.00
1222 9.4260 6424.00 6735.75 80.00
1223 9.4320 6365.00 6723.85 80.00
1224 9.4380 6402.00 6711.95 80.00
1225 9.4440 6313.00 6700.05 79.00
1226 9.4500 6260.00 6688.15 79.00
1227 9.4560 6373.00 6676.25 80.00
1228 9.4620 6430.00 6664.36 80.00
1229 9.4680 6268.00 6652.46 79.00
1230 9.4740 6313.00 6640.56 79.00
1231 9.4800 6418.00 6628.66 80.00
1232 9.4860 6401.00 6616.76 80.00
1233 9.4920 6414.00 6604.86 80.00
1234 9.4980 6370.00 6592.96 80.00
1235 9.5040 6359.00 6581.07 80.00
1236 9.5100 6513.00 6569.17 81.00
1237 9.5160 6587.00 6595.02 81.00
1238 9.5220 6537.00 6620.88 81.00
1239 9.5280 6795.00 6646.74 82.00
1240 9.5340 6994.00 6672.59 84.00
1241 9.5400 7108.00 6698.45 84.00
1242 9.5460 7252.00 6724.30 85.00
1243 9.5520 7159.00 6750.16 85.00
1244 9.5580 6934.00 6776.02 83.00
1245 9.5640 6548.00 6801.88 81.00
1246 9.5700 6398.00 6827.73 80.00
1247 9.5760 6356.00 6853.59 80.00
1248 9.5820 6404.00 6879.45 80.00
1249 9.5880 6354.00 6905.30 80.00
1250 9.5940 6269.00 6931.16 79.00
1251 9.6000 6289.00 6957.02 79.00
1252 9.6060 6457.00 6982.87 80.00
1253 9.6120 6442.00 7008.73 80.00
1254 9.6180 6451.00 7034.59 80.00
1255 9.6240 6427.00 7060.44 80.00
1256 9.6300 6495.00 7086.30 81.00
1257 9.6360 6500.00 7280.21 81.00
1258 9.6420 6496.00 7321.71 81.00
1259 9.6480 6568.00 7504.27 81.00
1260 9.6540 6617.00 7564.06 81.00
1261 9.6600 6540.00 7629.18 81.00
1262 9.6660 6742.00 7700.83 82.00
1263 9.6720 6816.00 7780.51 83.00
1264 9.6780 6891.00 7870.24 83.00
1265 9.6840 6974.00 7972.64 84.00
1266 9.6900 7148.00 8091.33 85.00
1267 9.6960 7188.00 8231.29 85.00
1268 9.7020 7459.00 8399.47 86.00
1269 9.7080 7619.00 8606.07 87.00
1270 9.7140 8014.00 8866.17 90.00
1271 9.7200 8290.00 9203.08 91.00
1272 9.7260 8640.00 9654.17 93.00
1273 9.7320 9235.00 10282.70 96.00
1274 9.7380 10051.00 11202.40 100.00
1275 9.7440 11651.00 12658.00 108.00
1276 9.7500 14527.00 15578.40 121.00
1277 9.7560 22919.00 24879.90 151.00
1278 9.7620 50985.00 56427.80 226.00
1279 9.7680 121567.00 125082.00 349.00
1280 9.7740 206629.00 191843.00 455.00
1281 9.7800 222618.00 188924.00 472.00
1282 9.7860 144909.00 126268.00 381.00
1283 9.7920 65882.00 59385.20 257.00
1284 9.7980 28524.00 26476.90 169.00
1285 9.8040 16623.00 16180.80 129.00
1286 9.8100 12667.00 13050.00 113.00
1287 9.8160 10674.00 11593.10 103.00
1288 9.8220 9506.00 10704.90 97.00
1289 9.8280 8807.00 10116.90 94.00
1290 9.8340 8334.00 9710.74 91.00
1291 9.8400 7878.00 9421.17 89.00
1292 9.8460 7745.00 9209.87 88.00
1293 9.8520 7720.00 9052.92 88.00
1294 9.8580 7611.00 8934.95 87.00
1295 9.8640 7326.00 8845.62 86.00
1296 9.8700 7440.00 8777.83 86.00
1297 9.8760 7414.00 8726.50 86.00
1298 9.8820 7514.00 8688.01 87.00
1299 9.8880 7642.00 8626.18 87.00
1300 9.8940 8189.00 8565.76 90.00
1301 9.9000 8644.00 8511.93 93.00
1302 9.9060 9290.00 8463.47 96.00
1303 9.9120 10639.00 8254.52 103.00
1304 9.9180 11885.00 9240.23 109.00
1305 9.9240 11767.00 9184.77 108.00
1306 9.9300 10902.00 9277.29 104.00
1307 9.9360 9699.00 9386.01 98.00
1308 9.9420 8803.00 9514.43 94.00
1309 9.9480 8615.00 9666.93 93.00
1310 9.9540 8541.00 9849.30 92.00
1311 9.9600 8408.00 10069.00 92.00
1312 9.9660 8417.00 10336.20 92.00
1313 9.9720 9022.00 10664.60 95.00
1314 9.9780 9409.00 11073.10 97.00
1315 9.9840 9889.00 11588.80 99.00
1316 9.9900 10597.00 12250.80 103.00
1317 9.9960 11097.00 13118.40 105.00
1318 10.0020 11826.00 14282.60 109.00
1319 10.0080 12383.00 15891.80 111.00
1320 10.0140 14046.00 18197.40 119.00
1321 10.0200 16981.00 21656.30 130.00
1322 10.0260 22498.00 27233.50 150.00
1323 10.0320 33895.00 38469.30 184.00
1324 10.0380 66964.00 75339.20 259.00
1325 10.0440 179645.00 209787.00 424.00
1326 10.0500 488629.00 514398.00 699.00
1327 10.0560 761372.00 775216.00 873.00
1328 10.0620 615473.00 585298.00 785.00
1329 10.0680 256284.00 257293.00 506.00
1330 10.0740 89352.00 90817.00 299.00
1331 10.0800 44200.00 42358.90 210.00
1332 10.0860 30155.00 28651.10 174.00
1333 10.0920 24079.00 22382.10 155.00
1334 10.0980 20807.00 18577.70 144.00
1335 10.1040 18662.00 16058.80 137.00
1336 10.1100 17429.00 14307.00 132.00
1337 10.1160 16142.00 13039.60 127.00
1338 10.1220 15500.00 12093.20 124.00
1339 10.1280 14874.00 11367.00 122.00
1340 10.1340 14095.00 10797.20 119.00
1341 10.1400 13152.00 10341.00 115.00
1342 10.1460 12169.00 9969.81 110.00
1343 10.1520 12034.00 9663.02 110.00
1344 10.1580 11737.00 9406.12 108.00
1345 10.1640 11446.00 9190.74 107.00
1346 10.1700 11333.00 9004.37 106.00
1347 10.1760 10841.00 8843.17 104.00
1348 10.1820 10593.00 8702.46 103.00
1349 10.1880 10274.00 8578.68 101.00
1350 10.1940 9745.00 8468.93 99.00
1351 10.2000 9553.00 7424.78 98.00
1352 10.2060 9153.00 7411.01 96.00
1353 10.2120 8889.00 7397.35 94.00
1354 10.2180 8625.00 7383.83 93.00
1355 10.2240 8504.00 7370.49 92.00
1356 10.2300 8261.00 7357.41 91.00
1357 10.2360 8178.00 7344.65 90.00
1358 10.2420 8087.00 7332.36 90.00
1359 10.2480 7830.00 7320.75 88.00
1360 10.2540 8124.00 7310.14 90.00
1361 10.2600 7944.00 7301.10 89.00
1362 10.2660 8096.00 7294.66 90.00
1363 10.2720 7953.00 7292.89 89.00
1364 10.2780 8219.00 7303.04 91.00
1365 10.2840 8363.00 7365.37 91.00
1366 10.2900 8541.00 7632.73 92.00
1367 10.2960 8954.00 8288.28 95.00
1368 10.3020 9449.00 8925.31 97.00
1369 10.3080 9385.00 8559.21 97.00
1370 10.3140 8212.00 7777.97 91.00
1371 10.3200 7674.00 7346.88 88.00
1372 10.3260 7281.00 7206.07 85.00
1373 10.3320 7296.00 7156.60 85.00
1374 10.3380 7508.00 7126.83 87.00
1375 10.3440 7460.00 7103.28 86.00
1376 10.3500 7261.00 7075.14 85.00
1377 10.3560 7309.00 7045.00 85.00
1378 10.3620 7061.00 7016.04 84.00
1379 10.3680 6831.00 6987.87 83.00
1380 10.3740 6684.00 6960.22 82.00
1381 10.3800 6850.00 6932.95 83.00
1382 10.3860 7003.00 6905.96 84.00
1383 10.3920 7056.00 6879.17 84.00
1384 10.3980 7016.00 6852.54 84.00
1385 10.4040 7061.00 6826.02 84.00
1386 10.4100 7138.00 6799.60 84.00
1387 10.4160 7193.00 6773.25 85.00
1388 10.4220 6984.00 6746.97 84.00
1389 10.4280 6813.00 6720.73 83.00
1390 10.4340 6740.00 6694.53 82.00
1391 10.4400 6641.00 6668.37 81.00
1392 10.4460 6582.00 6640.00 81.00
1393 10.4520 6589.00 6614.06 81.00
1394 10.4580 6621.00 6588.12 81.00
1395 10.4640 6598.00 6562.19 81.00
1396 10.4700 6665.00 6536.25 82.00
1397 10.4760 6659.00 6510.32 82.00
1398 10.4820 6906.00 6484.38 83.00
1399 10.4880 7139.00 6458.45 84.00
1400 10.4940 7433.00 6432.51 86.00
1401 10.5000 7837.00 6406.57 89.00
1402 10.5060 8371.00 6380.64 91.00
1403 10.5120 8690.00 6354.70 93.00
1404 10.5180 8789.00 6328.77 94.00
1405 10.5240 8844.00 6302.83 94.00
1406 10.5300 8408.00 6276.90 92.00
1407 10.5360 8058.00 6250.96 90.00
1408 10.5420 7672.00 6225.02 88.00
1409 10.5480 7354.00 6199.09 86.00
1410 10.5540 6976.00 6173.15 84.00
1411 10.5600 6829.00 6147.21 83.00
1412 10.5660 6630.00 6121.28 81.00
1413 10.5720 6491.00 6095.35 81.00
1414 10.5780 6442.00 6069.41 80.00
1415 10.5840 6457.00 6043.47 80.00
1416 10.5900 6338.00 6017.54 80.00
1417 10.5960 6212.00 5991.60 79.00
1418 10.6020 6032.00 5965.66 78.00
1419 10.6080 6022.00 5939.73 78.00
1420 10.6140 5988.00 5913.79 77.00
1421 10.6200 6025.00 5887.86 78.00
1422 10.6260 5893.00 5861.92 77.00
1423 10.6320 5814.00 5835.99 76.00
1424 10.6380 5759.00 5810.05 76.00
1425 10.6440 5671.00 5784.11 75.00
1426 10.6500 5738.00 5758.18 76.00
1427 10.6560 5790.00 5732.24 76.00
1428 10.6620 5747.00 5706.31 76.00
1429 10.6680 5708.00 5680.37 76.00
1430 10.6740 5508.00 5654.44 74.00
1431 10.6800 5544.00 5628.50 74.00
1432 10.6860 5612.00 5602.56 75.00
1433 10.6920 5470.00 5576.62 74.00
1434 10.6980 5541.00 5550.69 74.00
1435 10.7040 5461.00 5524.75 74.00
1436 10.7100 5460.00 5514.41 74.00
1437 10.7160 5447.00 5504.06 74.00
1438 10.7220 5378.00 5493.71 73.00
1439 10.7280 5286.00 5483.37 73.00
1440 10.7340 5349.00 5473.02 73.00
1441 10.7400 5373.00 5462.67 73.00
1442 10.7460 5381.00 5452.32 73.00
1443 10.7520 5220.00 5441.98 72.00
1444 10.7580 5244.00 5431.63 72.00
1445 10.7640 5342.00 5421.28 73.00
1446 10.7700 5296.00 5410.94 73.00
1447 10.7760 5203.00 5400.59 72.00
1448 10.7820 5219.00 5390.24 72.00
1449 10.7880 5130.00 5379.90 72.00
1450 10.7940 5069.00 5369.55 71.00
1451 10.8000 5193.00 5359.20 72.00
1452 10.8060 5261.00 5348.86 73.00
1453 10.8120 5174.00 5338.51 72.00
1454 10.8180 5289.00 5328.16 73.00
1455 10.8240 5530.00 5317.81 74.00
1456 10.8300 5651.00 5307.47 75.00
1457 10.8360 5527.00 5297.12 74.00
1458 10.8420 5464.00 5286.77 74.00
1459 10.8480 5464.00 5276.43 74.00
1460 10.8540 5330.00 5266.08 73.00
1461 10.8600 5243.00 5255.73 72.00
1462 10.8660 5377.00 5245.39 73.00
1463 10.8720 5402.00 5265.94 73.00
1464 10.8780 5463.00 5258.46 74.00
1465 10.8840 5345.00 5251.39 73.00
1466 10.8900 5328.00 5244.82 73.00
1467 10.8960 5372.00 5238.86 73.00
1468 10.9020 5411.00 5233.65 74.00
1469 10.9080 5746.00 5229.36 76.00
1470 10.9140 6265.00 5226.23 79.00
1471 10.9200 6897.00 5224.57 83.00
1472 10.9260 7459.00 5224.82 86.00
1473 10.9320 7580.00 5227.56 87.00
1474 10.9380 7072.00 5233.65 84.00
1475 10.9440 6386.00 5244.33 80.00
1476 10.9500 5885.00 5261.46 77.00
1477 10.9560 5528.00 5287.94 74.00
1478 10.9620 5404.00 5328.50 74.00
1479 10.9680 5361.00 5391.23 73.00
1480 10.9740 5304.00 5490.89 73.00
1481 10.9800 5476.00 5660.17 74.00
1482 10.9860 5845.00 6027.94 76.00
1483 10.9920 6854.00 7278.38 83.00
1484 10.9980 10520.00 11551.00 103.00
1485 11.0040 18055.00 20316.80 134.00
1486 11.0100 23237.00 26415.90 152.00
1487 11.0160 18523.00 20039.00 136.00
1488 11.0220 10066.00 11334.30 100.00
1489 11.0280 6489.00 7157.48 81.00
1490 11.0340 5586.00 5929.29 75.00
1491 11.0400 5172.00 5550.48 72.00
1492 11.0460 5038.00 5363.16 71.00
1493 11.0520 4935.00 5257.84 70.00
1494 11.0580 4858.00 5176.44 70.00
1495 11.0640 4866.00 5117.10 70.00
1496 11.0700 4820.00 5071.91 69.00
1497 11.0760 4782.00 5036.25 69.00
1498 11.0820 4791.00 5007.31 69.00
1499 11.0880 4814.00 4990.98 69.00
1500 11.0940 4833.00 4978.49 70.00
1501 11.1000 4829.00 4969.14 69.00
1502 11.1060 4855.00 4962.54 70.00
1503 11.1120 4993.00 4958.52 71.00
1504 11.1180 5094.00 4957.15 71.00
1505 11.1240 5183.00 4958.76 72.00
1506 11.1300 5441.00 4964.02 74.00
1507 11.1360 5538.00 4974.08 74.00
1508 11.1420 5632.00 4991.00 75.00
1509 11.1480 5639.00 5018.32 75.00
1510 11.1540 5453.00 5034.37 74.00
1511 11.1600 5281.00 5112.98 73.00
1512 11.1660 5334.00 5283.73 73.00
1513 11.1720 5900.00 5862.43 77.00
1514 11.1780 7904.00 7800.54 89.00
1515 11.1840 11592.00 11672.40 108.00
1516 11.1900 13421.00 14199.00 116.00
1517 11.1960 11323.00 11292.90 106.00
1518 11.2020 8083.00 7535.02 90.00
1519 11.2080 6103.00 5759.27 78.00
1520 11.2140 5398.00 5238.72 73.00
1521 11.2200 5079.00 5076.74 71.00
1522 11.2260 4936.00 4996.66 70.00
1523 11.2320 4814.00 4946.24 69.00
1524 11.2380 4732.00 4911.75 69.00
1525 11.2440 4794.00 4886.84 69.00
1526 11.2500 4795.00 4868.04 69.00
1527 11.2560 4791.00 4853.32 69.00
1528 11.2620 4871.00 4841.40 70.00
1529 11.2680 4889.00 4831.48 70.00
1530 11.2740 4832.00 4823.03 70.00
1531 11.2800 4912.00 4815.67 70.00
1532 11.2860 4857.00 4809.15 70.00
1533 11.2920 4803.00 4985.87 69.00
1534 11.2980 4955.00 5191.35 70.00
1535 11.3040 4930.00 5223.22 70.00
1536 11.3100 4885.00 5260.85 70.00
1537 11.3160 4945.00 5305.28 70.00
1538 11.3220 4948.00 5357.88 70.00
1539 11.3280 4950.00 5420.48 70.00
1540 11.3340 4983.00 5482.82 71.00
1541 11.3400 5101.00 5574.18 71.00
1542 11.3460 5270.00 5685.10 73.00
1543 11.3520 5376.00 5821.44 73.00
1544 11.3580 5573.00 5991.32 75.00
1545 11.3640 5783.00 6206.46 76.00
1546 11.3700 5999.00 6484.05 77.00
1547 11.3760 6369.00 6850.46 80.00
1548 11.3820 6796.00 7347.17 82.00
1549 11.3880 7141.00 8043.09 85.00
1550 11.3940 7968.00 9059.48 89.00
1551 11.4000 9627.00 10635.80 98.00
1552 11.4060 12427.00 13501.20 111.00
1553 11.4120 19368.00 21166.20 139.00
1554 11.4180 43495.00 46670.10 209.00
1555 11.4240 111700.00 110892.00 334.00
1556 11.4300 209404.00 199393.00 458.00
1557 11.4360 236726.00 228888.00 487.00
1558 11.4420 162846.00 166676.00 404.00
1559 11.4480 77582.00 79888.10 279.00
1560 11.4540 33122.00 32758.10 182.00
1561 11.4600 17128.00 16928.90 131.00
1562 11.4660 11667.00 12061.20 108.00
1563 11.4720 9203.00 9879.54 96.00
1564 11.4780 7899.00 8565.39 89.00
1565 11.4840 7036.00 7691.30 84.00
1566 11.4900 6499.00 7080.29 81.00
1567 11.4960 6137.00 6636.49 78.00
1568 11.5020 5833.00 6304.03 76.00
1569 11.5080 5622.00 6048.46 75.00
1570 11.5140 5381.00 5847.68 73.00
1571 11.5200 5204.00 5686.93 72.00
1572 11.5260 5140.00 5556.16 72.00
1573 11.5320 4958.00 5448.22 70.00
1574 11.5380 4788.00 5357.99 69.00
1575 11.5440 4786.00 5281.75 69.00
1576 11.5500 4829.00 5216.64 69.00
1577 11.5560 4847.00 5160.54 70.00
1578 11.5620 4715.00 5111.79 69.00
1579 11.5680 4542.00 5069.11 67.00
1580 11.5740 4559.00 4858.95 68.00
1581 11.5800 4568.00 4648.67 68.00
1582 11.5860 4499.00 4645.97 67.00
1583 11.5920 4429.00 4643.27 67.00
1584 11.5980 4453.00 4640.57 67.00
1585 11.6040 4428.00 4637.86 67.00
1586 11.6100 4397.00 4635.16 66.00
1587 11.6160 4426.00 4632.46 67.00
1588 11.6220 4363.00 4629.76 66.00
1589 11.6280 4322.00 4627.06 66.00
1590 11.6340 4334.00 4624.36 66.00
1591 11.6400 4413.00 4621.65 66.00
1592 11.6460 4426.00 4618.95 67.00
1593 11.6520 4398.00 4616.08 66.00
1594 11.6580 4452.00 4612.34 67.00
1595 11.6640 4493.00 4608.60 67.00
1596 11.6700 4382.00 4604.86 66.00
1597 11.6760 4347.00 4601.12 66.00
1598 11.6820 4427.00 4597.38 67.00
1599 11.6880 4553.00 4593.65 67.00
1600 11.6940 4515.00 4589.91 67.00
1601 11.7000 4545.00 4586.17 67.00
1602 11.7060 4548.00 4582.43 67.00
1603 11.7120 4508.00 4578.69 67.00
1604 11.7180 4599.00 4574.95 68.00
1605 11.7240 4873.00 4571.21 70.00
1606 11.7300 5570.00 4567.47 75.00
1607 11.7360 7442.00 4563.73 86.00
1608 11.7420 10124.00 4560.00 101.00
1609 11.7480 11130.00 4556.26 105.00
1610 11.7540 9299.00 4552.52 96.00
1611 11.7600 7067.00 4548.78 84.00
1612 11.7660 5702.00 4545.04 76.00
1613 11.7720 4905.00 4541.30 70.00
1614 11.7780 4539.00 4537.56 67.00
1615 11.7840 4337.00 4533.82 66.00
1616 11.7900 4304.00 4530.09 66.00
1617 11.7960 4267.00 4526.35 65.00
1618 11.8020 4277.00 4522.61 65.00
1619 11.8080 4255.00 4518.87 65.00
1620 11.8140 4216.00 4515.13 65.00
1621 11.8200 4205.00 4511.39 65.00
1622 11.8260 4255.00 4507.65 65.00
1623 11.8320 4261.00 4503.91 65.00
1624 11.8380 4114.00 4500.17 64.00
1625 11.8440 4151.00 4496.44 64.00
1626 11.8500 4223.00 4492.70 65.00
1627 11.8560 4157.00 4488.96 64.00
1628 11.8620 4098.00 4485.22 64.00
1629 11.8680 4107.00 4481.48 64.00
1630 11.8740 4195.00 4477.74 65.00
1631 11.8800 4255.00 4474.00 65.00
1632 11.8860 4163.00 4470.26 65.00
1633 11.8920 4137.00 4466.53 64.00
1634 11.8980 4061.00 4462.79 64.00
1635 11.9040 4180.00 4459.05 65.00
1636 11.9100 4227.00 4455.31 65.00
1637 11.9160 4124.00 4451.57 64.00
1638 11.9220 4206.00 4447.83 65.00
1639 11.9280 4241.00 4444.09 65.00
1640 11.9340 4176.00 4440.35 65.00
1641 11.9400 4248.00 4436.62 65.00
1642 11.9460 4270.00 4432.88 65.00
1643 11.9520 4081.00 4429.14 64.00
1644 11.9580 4107.00 4442.25 64.00
1645 11.9640 4234.00 4440.06 65.00
1646 11.9700 4152.00 4438.08 64.00
1647 11.9760 4239.00 4436.37 65.00
1648 11.9820 4205.00 4434.98 65.00
1649 11.9880 4064.00 4433.98 64.00
1650 11.9940 4192.00 4433.47 65.00
1651 12.0000 4228.00 4433.57 65.00
1652 12.0060 4198.00 4434.43 65.00
1653 12.0120 4300.00 4436.29 66.00
1654 12.0180 4378.00 4439.43 66.00
1655 12.0240 4198.00 4444.29 65.00
1656 12.0300 4287.00 4451.49 65.00
1657 12.0360 4308.00 4461.96 66.00
1658 12.0420 4236.00 4477.11 65.00
1659 12.0480 4268.00 4499.25 65.00
1660 12.0540 4251.00 4532.20 65.00
1661 12.0600 4270.00 4582.88 65.00
1662 12.0660 4514.00 4665.45 67.00
1663 12.0720 4721.00 4826.97 69.00
1664 12.0780 5124.00 5307.83 72.00
1665 12.0840 6838.00 6967.52 83.00
1666 12.0900 12208.00 10863.30 110.00
1667 12.0960 17639.00 14962.80 133.00
1668 12.1020 15456.00 13360.10 124.00
1669 12.1080 9416.00 8720.85 97.00
1670 12.1140 5938.00 5925.00 77.00
1671 12.1200 4886.00 4976.96 70.00
1672 12.1260 4492.00 4698.15 67.00
1673 12.1320 4434.00 4577.81 67.00
1674 12.1380 4386.00 4505.57 66.00
1675 12.1440 4256.00 4456.99 65.00
1676 12.1500 4228.00 4422.32 65.00
1677 12.1560 4248.00 4396.39 65.00
1678 12.1620 4163.00 4376.21 65.00
1679 12.1680 4245.00 4359.96 65.00
1680 12.1740 4270.00 4346.49 65.00
1681 12.1800 4149.00 4335.03 64.00
1682 12.1860 4097.00 4325.06 64.00
1683 12.1920 4130.00 4316.23 64.00
1684 12.1980 4213.00 4308.28 65.00
1685 12.2040 4183.00 4301.01 65.00
1686 12.2100 4173.00 4294.29 65.00
1687 12.2160 4158.00 4289.37 64.00
1688 12.2220 4144.00 4286.18 64.00
1689 12.2280 4169.00 4283.29 65.00
1690 12.2340 4377.00 4280.63 66.00
1691 12.2400 4407.00 4278.19 66.00
1692 12.2460 4326.00 4261.00 66.00
1693 12.2520 4210.00 4259.99 65.00
1694 12.2580 4164.00 4258.99 65.00
1695 12.2640 3971.00 4257.99 63.00
1696 12.2700 3992.00 4256.99 63.00
1697 12.2760 4112.00 4255.99 64.00
1698 12.2820 4115.00 4254.99 64.00
1699 12.2880 4150.00 4253.99 64.00
1700 12.2940 3966.00 4252.99 63.00
1701 12.3000 3951.00 4251.99 63.00
1702 12.3060 4030.00 4250.99 63.00
1703 12.3120 4028.00 4249.99 63.00
1704 12.3180 4127.00 4248.99 64.00
1705 12.3240 4155.00 4247.99 64.00
1706 12.3300 4297.00 4246.99 66.00
1707 12.3360 4246.00 4245.99 65.00
1708 12.3420 4205.00 4244.99 65.00
1709 12.3480 4124.00 4243.99 64.00
1710 12.3540 4120.00 4242.99 64.00
1711 12.3600 4239.00 4241.99 65.00
1712 12.3660 4166.00 4240.98 65.00
1713 12.3720 4249.00 4239.98 65.00
1714 12.3780 4148.00 4238.98 64.00
1715 12.3840 4098.00 4237.98 64.00
1716 12.3900 4084.00 4236.98 64.00
1717 12.3960 4128.00 4235.98 64.00
1718 12.4020 4160.00 4234.98 64.00
1719 12.4080 4236.00 4233.98 65.00
1720 12.4140 4190.00 4232.98 65.00
1721 12.4200 4128.00 4231.98 64.00
1722 12.4260 4057.00 4230.98 64.00
1723 12.4320 4060.00 4229.98 64.00
1724 12.4380 4098.00 4228.98 64.00
1725 12.4440 4069.00 4227.98 64.00
1726 12.4500 4131.00 4226.98 64.00
1727 12.4560 4096.00 4225.98 64.00
1728 12.4620 4026.00 4224.98 63.00
1729 12.4680 4122.00 4224.53 64.00
1730 12.4740 4186.00 4226.86 65.00
1731 12.4800 4208.00 4229.20 65.00
1732 12.4860 4179.00 4231.53 65.00
1733 12.4920 4320.00 4233.86 66.00
1734 12.4980 4453.00 4236.19 67.00
1735 12.5040 4913.00 4238.53 70.00
1736 12.5100 5422.00 4240.86 74.00
1737 12.5160 5407.00 4243.19 74.00
1738 12.5220 5112.00 4245.53 71.00
1739 12.5280 4887.00 4247.86 70.00
1740 12.5340 4571.00 4250.19 68.00
1741 12.5400 4414.00 4252.52 66.00
1742 12.5460 4265.00 4254.86 65.00
1743 12.5520 4343.00 4257.19 66.00
1744 12.5580 4265.00 4259.52 65.00
1745 12.5640 4240.00 4261.85 65.00
1746 12.5700 4394.00 4264.19 66.00
1747 12.5760 4451.00 4266.52 67.00
1748 12.5820 4438.00 4268.85 67.00
1749 12.5880 4440.00 4271.19 67.00
1750 12.5940 4507.00 4273.52 67.00
1751 12.6000 4332.00 4275.85 66.00
1752 12.6060 4400.00 4278.18 66.00
1753 12.6120 4414.00 4280.52 66.00
1754 12.6180 4392.00 4282.85 66.00
1755 12.6240 4562.00 4285.18 68.00
1756 12.6300 4599.00 4287.51 68.00
1757 12.6360 4641.00 4289.85 68.00
1758 12.6420 4746.00 4292.18 69.00
1759 12.6480 4529.00 4294.51 67.00
1760 12.6540 4272.00 4296.85 65.00
1761 12.6600 4251.00 4299.18 65.00
1762 12.6660 4157.00 4301.51 64.00
1763 12.6720 4121.00 4303.84 64.00
1764 12.6780 4144.00 4306.18 64.00
1765 12.6840 4138.00 4308.51 64.00
1766 12.6900 4212.00 4310.84 65.00
1767 12.6960 4221.00 4313.17 65.00
1768 12.7020 4187.00 4315.51 65.00
1769 12.7080 4215.00 4317.84 65.00
1770 12.7140 4249.00 4320.17 65.00
1771 12.7200 4181.00 4322.50 65.00
1772 12.7260 4098.00 4324.84 64.00
1773 12.7320 4162.00 4327.17 65.00
1774 12.7380 4235.00 4329.50 65.00
1775 12.7440 4299.00 4331.84 66.00
1776 12.7500 4320.00 4334.17 66.00
1777 12.7560 4191.00 4336.50 65.00
1778 12.7620 4343.00 4338.83 66.00
1779 12.7680 4244.00 4341.17 65.00
1780 12.7740 4289.00 4343.50 65.00
1781 12.7800 4248.00 4345.83 65.00
1782 12.7860 4267.00 4348.16 65.00
1783 12.7920 4207.00 4350.50 65.00
1784 12.7980 4210.00 4352.83 65.00
1785 12.8040 4172.00 4355.16 65.00
1786 12.8100 4261.00 4357.50 65.00
1787 12.8160 4208.00 4359.83 65.00
1788 12.8220 4140.00 4362.16 64.00
1789 12.8280 4260.00 4364.49 65.00
1790 12.8340 4300.00 4366.83 66.00
1791 12.8400 4373.00 4369.16 66.00
1792 12.8460 4244.00 4371.49 65.00
1793 12.8520 4388.00 4373.82 66.00
1794 12.8580 4287.00 4376.16 65.00
1795 12.8640 4391.00 4378.49 66.00
1796 12.8700 4421.00 4380.82 66.00
1797 12.8760 4353.00 4383.15 66.00
1798 12.8820 4396.00 4385.49 66.00
1799 12.8880 4555.00 4387.82 67.00
1800 12.8940 4575.00 4390.15 68.00
1801 12.9000 4562.00 4392.49 68.00
1802 12.9060 4561.00 4394.82 68.00
1803 12.9120 4476.00 4397.15 67.00
1804 12.9180 4533.00 4399.48 67.00
1805 12.9240 4376.00 4401.82 66.00
1806 12.9300 4321.00 4404.15 66.00
1807 12.9360 4332.00 4406.48 66.00
1808 12.9420 4287.00 4408.81 65.00
1809 12.9480 4235.00 4411.15 65.00
1810 12.9540 4267.00 4413.48 65.00
1811 12.9600 4276.00 4415.81 65.00
1812 12.9660 4227.00 4418.15 65.00
1813 12.9720 4289.00 4420.48 65.00
1814 12.9780 4384.00 4422.81 66.00
1815 12.9840 4655.00 4425.14 68.00
1816 12.9900 4860.00 4427.48 70.00
1817 12.9960 4931.00 4429.81 70.00
1818 13.0020 4932.00 4432.14 70.00
1819 13.0080 4690.00 4434.47 68.00
1820 13.0140 4497.00 4436.81 67.00
1821 13.0200 4495.00 4439.14 67.00
1822 13.0260 4537.00 4441.47 67.00
1823 13.0320 4231.00 4443.80 65.00
1824 13.0380 4226.00 4446.14 65.00
1825 13.0440 4223.00 4448.47 65.00
1826 13.0500 4408.00 4450.80 66.00
1827 13.0560 4265.00 4453.14 65.00
1828 13.0620 4359.00 4455.47 66.00
1829 13.0680 4356.00 4457.80 66.00
1830 13.0740 4414.00 4460.13 66.00
1831 13.0800 4302.00 4462.47 66.00
1832 13.0860 4384.00 4464.80 66.00
1833 13.0920 4262.00 4467.13 65.00
1834 13.0980 4338.00 4469.46 66.00
1835 13.1040 4159.00 4471.80 64.00
1836 13.1100 4139.00 4474.13 64.00
1837 13.1160 4310.00 4476.46 66.00
1838 13.1220 4311.00 4510.75 66.00
1839 13.1280 4147.00 4556.56 64.00
1840 13.1340 4191.00 4584.48 65.00
1841 13.1400 4308.00 4612.91 66.00
1842 13.1460 4379.00 4641.94 66.00
1843 13.1520 4383.00 4671.71 66.00
1844 13.1580 4226.00 4702.37 65.00
1845 13.1640 4360.00 4734.14 66.00
1846 13.1700 4270.00 4767.30 65.00
1847 13.1760 4356.00 4802.20 66.00
1848 13.1820 4434.00 4839.37 67.00
1849 13.1880 4436.00 4879.47 67.00
1850 13.1940 4469.00 4923.49 67.00
1851 13.2000 4387.00 4972.84 66.00
1852 13.2060 4415.00 5029.64 66.00
1853 13.2120 4538.00 5097.13 67.00
1854 13.2180 4583.00 5180.58 68.00
1855 13.2240 4717.00 5288.80 69.00
1856 13.2300 4870.00 5437.90 70.00
1857 13.2360 4739.00 5664.80 69.00
1858 13.2420 5211.00 6109.64 72.00
1859 13.2480 6062.00 7377.25 78.00
1860 13.2540 8956.00 11053.50 95.00
1861 13.2600 16979.00 18358.10 130.00
1862 13.2660 24183.00 25129.00 156.00
1863 13.2720 21008.00 23816.80 145.00
1864 13.2780 12952.00 15931.50 114.00
1865 13.2840 8064.00 9663.95 90.00
1866 13.2900 6077.00 7125.25 78.00
1867 13.2960 5495.00 6299.19 74.00
1868 13.3020 5184.00 6016.83 72.00
1869 13.3080 4974.00 5884.85 71.00
1870 13.3140 4924.00 5816.86 70.00
1871 13.3200 5009.00 5786.30 71.00
1872 13.3260 5033.00 5780.54 71.00
1873 13.3320 5117.00 6375.72 72.00
1874 13.3380 5137.00 6454.37 72.00
1875 13.3440 5196.00 6553.27 72.00
1876 13.3500 5268.00 6673.76 73.00
1877 13.3560 5443.00 6793.35 74.00
1878 13.3620 5426.00 6929.58 74.00
1879 13.3680 5784.00 7102.23 76.00
1880 13.3740 6011.00 7321.91 78.00
1881 13.3800 6330.00 7604.34 80.00
1882 13.3860 6674.00 7973.42 82.00
1883 13.3920 7052.00 8467.31 84.00
1884 13.3980 7836.00 9149.72 89.00
1885 13.4040 8831.00 10139.90 94.00
1886 13.4100 10608.00 11762.90 103.00
1887 13.4160 14592.00 15450.10 121.00
1888 13.4220 25665.00 26574.50 160.00
1889 13.4280 57308.00 53784.10 239.00
1890 13.4340 97760.00 90229.90 313.00
1891 13.4400 94526.00 93599.50 307.00
1892 13.4460 67519.00 62812.70 260.00
1893 13.4520 47908.00 44243.30 219.00
1894 13.4580 56227.00 59844.00 237.00
1895 13.4640 122797.00 134839.00 350.00
1896 13.4700 300355.00 275879.00 548.00
1897 13.4760 398264.00 360465.00 631.00
1898 13.4820 253588.00 253851.00 504.00
1899 13.4880 89531.00 117037.00 299.00
1900 13.4940 37741.00 47788.30 194.00
1901 13.5000 22029.00 25174.70 148.00
1902 13.5060 15131.00 17741.30 123.00
1903 13.5120 11655.00 14132.20 108.00
1904 13.5180 9996.00 11894.90 100.00
1905 13.5240 8541.00 10385.70 92.00
1906 13.5300 7684.00 9318.29 88.00
1907 13.5360 7134.00 8534.58 84.00
1908 13.5420 6640.00 7941.31 81.00
1909 13.5480 6350.00 7480.48 80.00
1910 13.5540 6181.00 7114.62 79.00
1911 13.5600 5930.00 6818.51 77.00
1912 13.5660 5731.00 6574.90 76.00
1913 13.5720 5586.00 6371.48 75.00
1914 13.5780 5414.00 6199.35 74.00
1915 13.5840 5380.00 6052.03 73.00
1916 13.5900 5233.00 5800.23 72.00
1917 13.5960 5242.00 5698.04 72.00
1918 13.6020 5030.00 5608.05 71.00
1919 13.6080 5130.00 5528.13 72.00
1920 13.6140 5098.00 5456.56 71.00
1921 13.6200 5018.00 5392.03 71.00
1922 13.6260 5286.00 4802.07 73.00
1923 13.6320 5276.00 4788.35 73.00
1924 13.6380 5314.00 4774.63 73.00
1925 13.6440 5327.00 4760.91 73.00
1926 13.6500 5660.00 4747.19 75.00
1927 13.6560 5675.00 4733.47 75.00
1928 13.6620 5908.00 4719.75 77.00
1929 13.6680 6029.00 4706.03 78.00
1930 13.6740 6109.00 4692.31 78.00
1931 13.6800 6190.00 4678.58 79.00
1932 13.6860 6162.00 4664.86 78.00
1933 13.6920 6148.00 4651.14 78.00
1934 13.6980 5921.00 4637.42 77.00
1935 13.7040 5770.00 4623.70 76.00
1936 13.7100 5565.00 4609.98 75.00
1937 13.7160 5347.00 4596.26 73.00
1938 13.7220 5195.00 4582.54 72.00
1939 13.7280 5179.00 4568.81 72.00
1940 13.7340 5021.00 4555.09 71.00
1941 13.7400 4851.00 4541.37 70.00
1942 13.7460 4730.00 4527.65 69.00
1943 13.7520 4665.00 4513.93 68.00
1944 13.7580 4772.00 4500.21 69.00
1945 13.7640 4583.00 4486.49 68.00
1946 13.7700 4480.00 4472.76 67.00
1947 13.7760 4498.00 4459.04 67.00
1948 13.7820 4654.00 4445.32 68.00
1949 13.7880 4570.00 4431.60 68.00
1950 13.7940 4460.00 4417.88 67.00
1951 13.8000 4510.00 4404.16 67.00
1952 13.8060 4417.00 4390.44 66.00
1953 13.8120 4469.00 4376.72 67.00
1954 13.8180 4528.00 4363.00 67.00
1955 13.8240 4565.00 4349.27 68.00
1956 13.8300 4490.00 4335.55 67.00
1957 13.8360 4476.00 4321.83 67.00
1958 13.8420 4498.00 4308.11 67.00
1959 13.8480 4437.00 4294.39 67.00
1960 13.8540 4447.00 4298.65 67.00
1961 13.8600 4456.00 4302.91 67.00
1962 13.8660 4441.00 4307.18 67.00
1963 13.8720 4560.00 4311.44 68.00
1964 13.8780 4513.00 4315.70 67.00
1965 13.8840 4492.00 4319.96 67.00
1966 13.8900 4501.00 4324.23 67.00
1967 13.8960 4554.00 4328.49 67.00
1968 13.9020 4565.00 4332.75 68.00
1969 13.9080 4533.00 4337.01 67.00
1970 13.9140 4578.00 4341.27 68.00
1971 13.9200 4398.00 4345.54 66.00
1972 13.9260 4452.00 4349.80 67.00
1973 13.9320 4559.00 4354.06 68.00
1974 13.9380 4612.00 4358.32 68.00
1975 13.9440 4536.00 4362.59 67.00
1976 13.9500 4603.00 4366.85 68.00
1977 13.9560 4580.00 4371.11 68.00
1978 13.9620 4535.00 4375.37 67.00
1979 13.9680 4446.00 4379.64 67.00
1980 13.9740 4579.00 4383.90 68.00
1981 13.9800 4529.00 4388.16 67.00
1982 13.9860 4541.00 4392.42 67.00
1983 13.9920 4702.00 4396.68 69.00
1984 13.9980 4665.00 4400.95 68.00
1985 14.0040 4750.00 4405.21 69.00
1986 14.0100 4713.00 4409.47 69.00
1987 14.0160 4814.00 4413.73 69.00
1988 14.0220 5005.00 4418.00 71.00
1989 14.0280 5215.00 4422.26 72.00
1990 14.0340 5441.00 4426.52 74.00
1991 14.0400 5741.00 4430.78 76.00
1992 14.0460 5998.00 4435.04 77.00
1993 14.0520 6073.00 4439.31 78.00
1994 14.0580 5859.00 4443.57 77.00
1995 14.0640 5611.00 4447.83 75.00
1996 14.0700 5262.00 4452.09 73.00
1997 14.0760 4994.00 4456.36 71.00
1998 14.0820 4961.00 4660.16 70.00
1999 14.0880 4996.00 4681.72 71.00
2000 14.0940 5001.00 4705.64 71.00
2001 14.1000 5049.00 4732.34 71.00
2002 14.1060 5177.00 5048.52 72.00
2003 14.1120 5232.00 5107.49 72.00
2004 14.1180 5151.00 5174.77 72.00
2005 14.1240 5284.00 5252.15 73.00
2006 14.1300 5460.00 5341.96 74.00
2007 14.1360 5489.00 5447.16 74.00
2008 14.1420 5643.00 5571.77 75.00
2009 14.1480 5784.00 5721.13 76.00
2010 14.1540 5930.00 5902.63 77.00
2011 14.1600 6261.00 6126.62 79.00
2012 14.1660 6545.00 6408.15 81.00
2013 14.1720 7011.00 6769.49 84.00
2014 14.1780 7636.00 7245.27 87.00
2015 14.1840 8692.00 7891.16 93.00
2016 14.1900 10486.00 8802.24 102.00
2017 14.1960 14221.00 10164.40 119.00
2018 14.2020 21942.00 12525.00 148.00
2019 14.2080 35688.00 18281.20 189.00
2020 14.2140 54781.00 35400.90 234.00
2021 14.2200 74818.00 74729.80 274.00
2022 14.2260 91526.00 123811.00 303.00
2023 14.2320 108324.00 128233.00 329.00
2024 14.2380 127268.00 105164.00 357.00
2025 14.2440 148725.00 125126.00 386.00
2026 14.2500 165923.00 175013.00 407.00
2027 14.2560 150595.00 160420.00 388.00
2028 14.2620 100414.00 90446.80 317.00
2029 14.2680 53960.00 40508.50 232.00
2030 14.2740 29664.00 20292.80 172.00
2031 14.2800 19672.00 13738.20 140.00
2032 14.2860 15240.00 11022.50 123.00
2033 14.2920 12771.00 9454.52 113.00
2034 14.2980 11281.00 8419.65 106.00
2035 14.3040 10533.00 7699.38 103.00
2036 14.3100 10100.00 7180.17 100.00
2037 14.3160 9834.00 6796.40 99.00
2038 14.3220 10455.00 6507.87 102.00
2039 14.3280 11959.00 6289.21 109.00
2040 14.3340 13759.00 6124.41 117.00
2041 14.3400 14523.00 6003.27 121.00
2042 14.3460 13238.00 5920.28 115.00
2043 14.3520 11413.00 5873.89 107.00
2044 14.3580 10147.00 5867.02 101.00
2045 14.3640 9359.00 5909.00 97.00
2046 14.3700 9163.00 6021.15 96.00
2047 14.3760 9740.00 6263.23 99.00
2048 14.3820 11375.00 6712.02 107.00
2049 14.3880 14094.00 8783.09 119.00
2050 14.3940 16883.00 14384.80 130.00
2051 14.4000 17942.00 23491.70 134.00
2052 14.4060 17755.00 27379.60 133.00
2053 14.4120 17312.00 20599.20 132.00
2054 14.4180 16260.00 13985.40 128.00
2055 14.4240 14808.00 12328.40 122.00
2056 14.4300 12765.00 11711.20 113.00
2057 14.4360 10094.00 9154.70 100.00
2058 14.4420 7867.00 6874.47 89.00
2059 14.4480 6646.00 5773.36 82.00
2060 14.4540 6100.00 5368.32 78.00
2061 14.4600 5870.00 5195.58 77.00
2062 14.4660 5727.00 5095.10 76.00
2063 14.4720 5719.00 5027.62 76.00
2064 14.4780 5682.00 4979.98 75.00
2065 14.4840 5613.00 4945.36 75.00
2066 14.4900 5493.00 4919.69 74.00
2067 14.4960 5472.00 4900.37 74.00
2068 14.5020 5599.00 4885.72 75.00
2069 14.5080 5577.00 4874.56 75.00
2070 14.5140 5515.00 4866.08 74.00
2071 14.5200 5496.00 4859.68 74.00
2072 14.5260 5477.00 4854.93 74.00
2073 14.5320 5465.00 4851.52 74.00
2074 14.5380 5495.00 4849.17 74.00
2075 14.5440 5479.00 4847.71 74.00
2076 14.5500 5470.00 4846.98 74.00
2077 14.5560 5493.00 4810.65 74.00
2078 14.5620 5325.00 4813.75 73.00
2079 14.5680 5181.00 4817.00 72.00
2080 14.5740 5165.00 4820.37 72.00
2081 14.5800 5218.00 4814.39 72.00
2082 14.5860 5138.00 4818.65 72.00
2083 14.5920 5119.00 4822.91 72.00
2084 14.5980 5032.00 4827.17 71.00
2085 14.6040 5052.00 4831.44 71.00
2086 14.6100 5001.00 4835.70 71.00
2087 14.6160 5042.00 4839.96 71.00
2088 14.6220 4965.00 4844.22 70.00
2089 14.6280 4952.00 4848.49 70.00
2090 14.6340 5048.00 4852.75 71.00
2091 14.6400 5037.00 4857.01 71.00
2092 14.6460 4922.00 4861.27 70.00
2093 14.6520 4834.00 4865.53 70.00
2094 14.6580 4923.00 4869.80 70.00
2095 14.6640 4921.00 4874.06 70.00
2096 14.6700 4891.00 4878.32 70.00
2097 14.6760 4901.00 4879.80 70.00
2098 14.6820 4844.00 4875.72 70.00
2099 14.6880 4769.00 4871.63 69.00
2100 14.6940 4764.00 4867.55 69.00
2101 14.7000 4587.00 4863.46 68.00
2102 14.7060 4655.00 4859.38 68.00
2103 14.7120 4671.00 4855.29 68.00
2104 14.7180 4691.00 4851.21 68.00
2105 14.7240 4664.00 4847.12 68.00
2106 14.7300 4635.00 4843.04 68.00
2107 14.7360 4722.00 4838.95 69.00
2108 14.7420 4781.00 4834.87 69.00
2109 14.7480 4939.00 4830.78 70.00
2110 14.7540 4973.00 4826.70 71.00
2111 14.7600 5095.00 4822.61 71.00
2112 14.7660 5021.00 4818.53 71.00
2113 14.7720 5025.00 4833.35 71.00
2114 14.7780 4982.00 4830.87 71.00
2115 14.7840 4918.00 4828.61 70.00
2116 14.7900 4988.00 4826.60 71.00
2117 14.7960 5047.00 4851.29 71.00
2118 14.8020 4908.00 4852.22 70.00
2119 14.8080 5058.00 4853.90 71.00
2120 14.8140 5029.00 4856.49 71.00
2121 14.8200 4976.00 4860.18 71.00
2122 14.8260 4999.00 4865.25 71.00
2123 14.8320 4997.00 4872.04 71.00
2124 14.8380 5101.00 4881.01 71.00
2125 14.8440 5337.00 4892.78 73.00
2126 14.8500 5384.00 4908.25 73.00
2127 14.8560 5678.00 4928.66 75.00
2128 14.8620 5867.00 4955.86 77.00
2129 14.8680 6155.00 4992.67 78.00
2130 14.8740 6366.00 5043.49 80.00
2131 14.8800 6817.00 5115.76 83.00
2132 14.8860 7211.00 5222.83 85.00
2133 14.8920 8019.00 5397.56 90.00
2134 14.8980 9252.00 5768.85 96.00
2135 14.9040 11005.00 6828.00 105.00
2136 14.9100 13004.00 9572.24 114.00
2137 14.9160 14621.00 14120.50 121.00
2138 14.9220 16225.00 16875.90 127.00
2139 14.9280 17497.00 15280.10 132.00
2140 14.9340 18999.00 15471.70 138.00
2141 14.9400 20706.00 19301.40 144.00
2142 14.9460 19270.00 19748.90 139.00
2143 14.9520 14526.00 14018.90 121.00
2144 14.9580 9784.00 8877.09 99.00
2145 14.9640 7353.00 6472.67 86.00
2146 14.9700 6284.00 5648.97 79.00
2147 14.9760 5725.00 5332.84 76.00
2148 14.9820 5613.00 5160.41 75.00
2149 14.9880 5675.00 5047.29 75.00
2150 14.9940 5914.00 4967.73 77.00
2151 15.0000 6736.00 4909.35 82.00
2152 15.0060 8536.00 4865.11 92.00
2153 15.0120 10494.00 4830.73 102.00
2154 15.0180 9880.00 4803.61 99.00
2155 15.0240 7877.00 4782.19 89.00
2156 15.0300 6390.00 4765.68 80.00
2157 15.0360 5623.00 4754.36 75.00
2158 15.0420 5154.00 4752.14 72.00
2159 15.0480 5244.00 4777.18 72.00
2160 15.0540 5386.00 4872.72 73.00
2161 15.0600 5658.00 5188.44 75.00
2162 15.0660 6117.00 5481.47 78.00
2163 15.0720 5693.00 5376.07 75.00
2164 15.0780 5402.00 5177.37 73.00
2165 15.0840 5190.00 5085.38 72.00
2166 15.0900 5229.00 5072.27 72.00
2167 15.0960 5287.00 5093.87 73.00
2168 15.1020 5418.00 5107.24 74.00
2169 15.1080 5628.00 5156.35 75.00
2170 15.1140 5531.00 5216.98 74.00
2171 15.1200 5467.00 5291.21 74.00
2172 15.1260 5384.00 5382.26 73.00
2173 15.1320 5187.00 5494.69 72.00
2174 15.1380 5291.00 5634.96 73.00
2175 15.1440 5372.00 5812.47 73.00
2176 15.1500 5715.00 6040.80 76.00
2177 15.1560 5856.00 6340.50 77.00
2178 15.1620 6167.00 6743.49 79.00
2179 15.1680 6727.00 7302.22 82.00
2180 15.1740 7651.00 8105.35 87.00
2181 15.1800 8817.00 9325.92 94.00
2182 15.1860 10877.00 11439.60 104.00
2183 15.1920 15233.00 16380.90 123.00
2184 15.1980 27508.00 30856.70 166.00
2185 15.2040 67720.00 67196.80 260.00
2186 15.2100 140317.00 125435.00 375.00
2187 15.2160 175428.00 160370.00 419.00
2188 15.2220 128090.00 128746.00 358.00
2189 15.2280 68538.00 69809.70 262.00
2190 15.2340 32619.00 31979.30 181.00
2191 15.2400 18096.00 16719.80 135.00
2192 15.2460 11899.00 11539.30 109.00
2193 15.2520 9283.00 9352.13 96.00
2194 15.2580 7827.00 8095.72 88.00
2195 15.2640 6824.00 7268.68 83.00
2196 15.2700 6391.00 6691.99 80.00
2197 15.2760 6047.00 6274.08 78.00
2198 15.2820 5594.00 5961.53 75.00
2199 15.2880 5356.00 5721.56 73.00
2200 15.2940 5333.00 5533.18 73.00
2201 15.3000 5240.00 5382.35 72.00
2202 15.3060 5194.00 5259.59 72.00
2203 15.3120 4962.00 5158.17 70.00
2204 15.3180 4777.00 5073.29 69.00
2205 15.3240 4648.00 5001.40 68.00
2206 15.3300 4676.00 4939.89 68.00
2207 15.3360 4667.00 4886.71 68.00
2208 15.3420 4541.00 4840.35 67.00
2209 15.3480 4533.00 4799.59 67.00
2210 15.3540 4430.00 4763.49 67.00
2211 15.3600 4357.00 4731.31 66.00
2212 15.3660 4455.00 4702.41 67.00
2213 15.3720 4314.00 4554.71 66.00
2214 15.3780 4354.00 4401.87 66.00
2215 15.3840 4277.00 4397.79 65.00
2216 15.3900 4350.00 4393.70 66.00
2217 15.3960 4352.00 4389.62 66.00
2218 15.4020 4303.00 4385.53 66.00
2219 15.4080 4360.00 4381.45 66.00
2220 15.4140 4267.00 4377.36 65.00
2221 15.4200 4264.00 4376.07 65.00
2222 15.4260 4289.00 4376.17 65.00
2223 15.4320 4145.00 4376.27 64.00
2224 15.4380 4243.00 4376.38 65.00
2225 15.4440 4268.00 4376.48 65.00
2226 15.4500 4406.00 4376.58 66.00
2227 15.4560 4351.00 4376.68 66.00
2228 15.4620 4310.00 4376.79 66.00
2229 15.4680 4287.00 4376.89 65.00
2230 15.4740 4395.00 4376.99 66.00
2231 15.4800 4468.00 4377.09 67.00
2232 15.4860 4392.00 4377.19 66.00
2233 15.4920 4527.00 4377.30 67.00
2234 15.4980 4606.00 4377.40 68.00
2235 15.5040 4757.00 4377.50 69.00
2236 15.5100 4573.00 4377.60 68.00
2237 15.5160 4478.00 4377.71 67.00
2238 15.5220 4477.00 4377.81 67.00
2239 15.5280 4467.00 4377.91 67.00
2240 15.5340 4572.00 4387.18 68.00
2241 15.5400 4537.00 4388.03 67.00
2242 15.5460 4530.00 4388.98 67.00
2243 15.5520 4597.00 4390.03 68.00
2244 15.5580 4694.00 4391.22 69.00
2245 15.5640 4700.00 4392.57 69.00
2246 15.5700 4563.00 4394.10 68.00
2247 15.5760 4640.00 4395.87 68.00
2248 15.5820 4539.00 4397.92 67.00
2249 15.5880 4552.00 4400.31 67.00
2250 15.5940 4619.00 4405.06 68.00
2251 15.6000 4486.00 4408.61 67.00
2252 15.6060 4471.00 4412.91 67.00
2253 15.6120 4538.00 4418.22 67.00
2254 15.6180 4496.00 4424.78 67.00
2255 15.6240 4548.00 4433.12 67.00
2256 15.6300 4541.00 4443.93 67.00
2257 15.6360 4451.00 4458.32 67.00
2258 15.6420 4508.00 4478.06 67.00
2259 15.6480 4521.00 4506.18 67.00
2260 15.6540 4631.00 4548.37 68.00
2261 15.6600 4620.00 4619.40 68.00
2262 15.6660 4733.00 4779.31 69.00
2263 15.6720 5265.00 5253.30 73.00
2264 15.6780 6484.00 6494.65 81.00
2265 15.6840 8777.00 8571.46 94.00
2266 15.6900 9805.00 9815.68 99.00
2267 15.6960 8858.00 8378.15 94.00
2268 15.7020 7135.00 6351.57 84.00
2269 15.7080 5828.00 5207.45 76.00
2270 15.7140 5383.00 4792.82 73.00
2271 15.7200 5159.00 4673.10 72.00
2272 15.7260 5237.00 4679.41 72.00
2273 15.7320 5427.00 4841.16 74.00
2274 15.7380 5464.00 5194.67 74.00
2275 15.7440 5317.00 5502.85 73.00
2276 15.7500 5182.00 5312.35 72.00
2277 15.7560 4965.00 4897.63 70.00
2278 15.7620 4670.00 4632.28 68.00
2279 15.7680 4518.00 4522.89 67.00
2280 15.7740 4463.00 4475.46 67.00
2281 15.7800 4409.00 4449.09 66.00
2282 15.7860 4425.00 4433.48 67.00
2283 15.7920 4381.00 4423.87 66.00
2284 15.7980 4379.00 4417.30 66.00
2285 15.8040 4328.00 4412.42 66.00
2286 15.8100 4299.00 4408.63 66.00
2287 15.8160 4342.00 4405.61 66.00
2288 15.8220 4346.00 4403.16 66.00
2289 15.8280 4387.00 4401.14 66.00
2290 15.8340 4447.00 4399.45 67.00
2291 15.8400 4396.00 4398.03 66.00
2292 15.8460 4373.00 4423.70 66.00
2293 15.8520 4387.00 4441.10 66.00
2294 15.8580 4443.00 4467.67 67.00
2295 15.8640 4466.00 4494.31 67.00
2296 15.8700 4499.00 4520.99 67.00
2297 15.8760 4521.00 4547.71 67.00
2298 15.8820 4603.00 4574.47 68.00
2299 15.8880 4714.00 4601.25 69.00
2300 15.8940 4837.00 4628.05 70.00
2301 15.9000 4808.00 4654.88 69.00
2302 15.9060 4958.00 4680.04 70.00
2303 15.9120 5084.00 4707.02 71.00
2304 15.9180 5267.00 4733.99 73.00
2305 15.9240 5447.00 4774.13 74.00
2306 15.9300 5500.00 4802.17 74.00
2307 15.9360 5438.00 4830.34 74.00
2308 15.9420 5383.00 4861.13 73.00
2309 15.9480 5360.00 4889.84 73.00
2310 15.9540 5485.00 4918.79 74.00
2311 15.9600 5515.00 4948.04 74.00
2312 15.9660 5489.00 4977.64 74.00
2313 15.9720 5522.00 5007.67 74.00
2314 15.9780 5540.00 5038.23 74.00
2315 15.9840 5558.00 5069.46 75.00
2316 15.9900 5579.00 5101.51 75.00
2317 15.9960 5568.00 5134.63 75.00
2318 16.0020 5679.00 5169.14 75.00
2319 16.0080 5705.00 5205.48 76.00
2320 16.0140 5643.00 5244.29 75.00
2321 16.0200 5781.00 5286.55 76.00
2322 16.0260 5937.00 5333.67 77.00
2323 16.0320 6103.00 5388.01 78.00
2324 16.0380 6214.00 5453.38 79.00
2325 16.0440 6427.00 5536.66 80.00
2326 16.0500 6634.00 5653.24 81.00
2327 16.0560 6992.00 5858.25 84.00
2328 16.0620 7787.00 6372.23 88.00
2329 16.0680 9118.00 7754.55 95.00
2330 16.0740 10314.00 10466.70 102.00
2331 16.0800 10900.00 13243.00 104.00
2332 16.0860 11026.00 12798.10 105.00
2333 16.0920 10615.00 10372.70 103.00
2334 16.0980 9603.00 8557.73 98.00
2335 16.1040 8127.00 7291.58 90.00
2336 16.1100 6883.00 6489.41 83.00
2337 16.1160 6218.00 6095.99 79.00
2338 16.1220 6065.00 5942.17 78.00
2339 16.1280 6093.00 5885.83 78.00
2340 16.1340 6011.00 5864.27 78.00
2341 16.1400 5926.00 5858.47 77.00
2342 16.1460 5907.00 5861.91 77.00
2343 16.1520 5845.00 5871.39 76.00
2344 16.1580 5828.00 5885.00 76.00
2345 16.1640 5822.00 5901.52 76.00
2346 16.1700 5944.00 5920.18 77.00
2347 16.1760 6022.00 5940.42 78.00
2348 16.1820 5991.00 5961.86 77.00
2349 16.1880 6094.00 5978.69 78.00
2350 16.1940 6328.00 5985.13 80.00
2351 16.2000 6334.00 5992.15 80.00
2352 16.2060 6357.00 5999.64 80.00
2353 16.2120 6474.00 6007.52 80.00
2354 16.2180 6498.00 6015.72 81.00
2355 16.2240 6495.00 6024.19 81.00
2356 16.2300 6546.00 6032.87 81.00
2357 16.2360 6712.00 6041.74 82.00
2358 16.2420 6708.00 6037.96 82.00
2359 16.2480 6750.00 6048.03 82.00
2360 16.2540 6987.00 6058.13 84.00
2361 16.2600 7145.00 6065.99 85.00
2362 16.2660 7373.00 6076.29 86.00
2363 16.2720 7455.00 6086.59 86.00
2364 16.2780 7347.00 6096.88 86.00
2365 16.2840 7158.00 6107.18 85.00
2366 16.2900 7061.00 6117.48 84.00
2367 16.2960 7010.00 6127.77 84.00
2368 16.3020 6921.00 6138.07 83.00
2369 16.3080 6802.00 6148.37 82.00
2370 16.3140 6721.00 6158.66 82.00
2371 16.3200 6621.00 6168.96 81.00
2372 16.3260 6621.00 6179.25 81.00
2373 16.3320 6574.00 6189.55 81.00
2374 16.3380 6520.00 6199.85 81.00
2375 16.3440 6570.00 6210.14 81.00
2376 16.3500 6460.00 6220.44 80.00
2377 16.3560 6471.00 6230.74 80.00
2378 16.3620 6498.00 6241.03 81.00
2379 16.3680 6473.00 6251.33 80.00
2380 16.3740 6484.00 6261.63 81.00
2381 16.3800 6402.00 6271.92 80.00
2382 16.3860 6314.00 6282.22 79.00
2383 16.3920 6309.00 6412.42 79.00
2384 16.3980 6252.00 6432.52 79.00
2385 16.4040 6244.00 6645.26 79.00
2386 16.4100 6179.00 6683.37 79.00
2387 16.4160 6246.00 6725.15 79.00
2388 16.4220 6193.00 6771.24 79.00
2389 16.4280 6029.00 6822.46 78.00
2390 16.4340 6165.00 6873.63 79.00
2391 16.4400 6217.00 6932.31 79.00
2392 16.4460 6199.00 7000.15 79.00
2393 16.4520 6219.00 7079.40 79.00
2394 16.4580 6280.00 7172.90 79.00
2395 16.4640 6410.00 7284.52 80.00
2396 16.4700 6636.00 7419.48 81.00
2397 16.4760 6729.00 7585.17 82.00
2398 16.4820 6741.00 7792.00 82.00
2399 16.4880 6922.00 8055.33 83.00
2400 16.4940 7292.00 8398.07 85.00
2401 16.5000 7808.00 8856.85 88.00
2402 16.5060 8559.00 9491.70 93.00
2403 16.5120 10097.00 10413.00 100.00
2404 16.5180 12802.00 11901.90 113.00
2405 16.5240 18434.00 14984.30 136.00
2406 16.5300 29904.00 22958.70 173.00
2407 16.5360 47247.00 41661.10 217.00
2408 16.5420 67035.00 72766.20 259.00
2409 16.5480 93678.00 101743.00 306.00
2410 16.5540 121051.00 118123.00 348.00
2411 16.5600 134713.00 132870.00 367.00
2412 16.5660 113509.00 114512.00 337.00
2413 16.5720 69349.00 68873.90 263.00
2414 16.5780 36748.00 35032.20 192.00
2415 16.5840 21445.00 19528.00 146.00
2416 16.5900 15363.00 13904.30 124.00
2417 16.5960 13097.00 11589.80 114.00
2418 16.6020 12864.00 10299.90 113.00
2419 16.6080 12371.00 9453.25 111.00
2420 16.6140 10947.00 8861.59 105.00
2421 16.6200 9383.00 8432.15 97.00
2422 16.6260 8308.00 8111.15 91.00
2423 16.6320 7721.00 7865.13 88.00
2424 16.6380 7352.00 7672.69 86.00
2425 16.6440 7103.00 7519.69 84.00
2426 16.6500 6934.00 7719.77 83.00
2427 16.6560 6884.00 7644.10 83.00
2428 16.6620 6749.00 7589.05 82.00
2429 16.6680 6749.00 7551.46 82.00
2430 16.6740 6733.00 7590.60 82.00
2431 16.6800 6828.00 7581.56 83.00
2432 16.6860 6731.00 7575.17 82.00
2433 16.6920 6832.00 7692.45 83.00
2434 16.6980 7069.00 7723.38 84.00
2435 16.7040 7283.00 7771.42 85.00
2436 16.7100 7588.00 7730.03 87.00
2437 16.7160 7604.00 7827.74 87.00
2438 16.7220 7423.00 7952.14 86.00
2439 16.7280 7574.00 7934.52 87.00
2440 16.7340 7553.00 8146.94 87.00
2441 16.7400 7731.00 8414.24 88.00
2442 16.7460 7914.00 8755.84 89.00
2443 16.7520 8146.00 9200.74 90.00
2444 16.7580 8711.00 9793.37 93.00
2445 16.7640 9415.00 10605.70 97.00
2446 16.7700 10467.00 11758.70 102.00
2447 16.7760 11974.00 13484.60 109.00
2448 16.7820 14798.00 16426.80 122.00
2449 16.7880 20215.00 23116.30 142.00
2450 16.7940 35139.00 41941.50 187.00
2451 16.8000 84577.00 87332.50 291.00
2452 16.8060 188943.00 158410.00 435.00
2453 16.8120 231307.00 199058.00 481.00
2454 16.8180 158927.00 156137.00 399.00
2455 16.8240 90746.00 100121.00 301.00
2456 16.8300 65035.00 74370.40 255.00
2457 16.8360 62722.00 64209.50 250.00
2458 16.8420 66986.00 62799.20 259.00
2459 16.8480 73352.00 73782.00 271.00
2460 16.8540 70458.00 75520.80 265.00
2461 16.8600 51874.00 53315.70 228.00
2462 16.8660 31036.00 30418.30 176.00
2463 16.8720 18803.00 17896.80 137.00
2464 16.8780 13345.00 12892.10 116.00
2465 16.8840 10878.00 10858.60 104.00
2466 16.8900 9427.00 9756.38 97.00
2467 16.8960 8670.00 9020.28 93.00
2468 16.9020 8227.00 8487.61 91.00
2469 16.9080 7854.00 8085.80 89.00
2470 16.9140 7576.00 7773.24 87.00
2471 16.9200 7287.00 7523.67 85.00
2472 16.9260 7310.00 7320.33 85.00
2473 16.9320 7060.00 7151.62 84.00
2474 16.9380 7038.00 7009.36 84.00
2475 16.9440 6865.00 6887.80 83.00
2476 16.9500 6560.00 6782.65 81.00
2477 16.9560 6588.00 6690.74 81.00
2478 16.9620 6472.00 6609.56 80.00
2479 16.9680 6328.00 6537.24 80.00
2480 16.9740 6175.00 6152.24 79.00
2481 16.9800 6220.00 6115.79 79.00
2482 16.9860 6251.00 6082.31 79.00
2483 16.9920 6212.00 6051.31 79.00
2484 16.9980 6088.00 5966.20 78.00
2485 17.0040 5965.00 5942.96 77.00
2486 17.0100 6079.00 5920.86 78.00
2487 17.0160 5948.00 5795.73 77.00
2488 17.0220 5818.00 5785.38 76.00
2489 17.0280 5883.00 5775.02 77.00
2490 17.0340 5774.00 5764.66 76.00
2491 17.0400 5907.00 5754.30 77.00
2492 17.0460 5749.00 5743.94 76.00
2493 17.0520 5694.00 5733.58 75.00
2494 17.0580 5897.00 5723.22 77.00
2495 17.0640 5938.00 5712.86 77.00
2496 17.0700 6081.00 5702.50 78.00
2497 17.0760 6320.00 5704.79 79.00
2498 17.0820 7232.00 5703.26 85.00
2499 17.0880 8226.00 5694.60 91.00
2500 17.0940 8738.00 5686.15 93.00
2501 17.1000 8338.00 5677.95 91.00
2502 17.1060 7450.00 5670.03 86.00
2503 17.1120 6746.00 5662.47 82.00
2504 17.1180 5987.00 5655.30 77.00
2505 17.1240 5742.00 5648.64 76.00
2506 17.1300 5679.00 5642.58 75.00
2507 17.1360 5507.00 5794.41 74.00
2508 17.1420 5515.00 5802.48 74.00
2509 17.1480 5409.00 5907.01 74.00
2510 17.1540 5652.00 5928.37 75.00
2511 17.1600 5515.00 5954.69 74.00
2512 17.1660 5655.00 5987.10 75.00
2513 17.1720 5579.00 6027.19 75.00
2514 17.1780 5778.00 6077.08 76.00
2515 17.1840 5740.00 6139.83 76.00
2516 17.1900 5862.00 6219.89 77.00
2517 17.1960 5837.00 6324.10 76.00
2518 17.2020 5952.00 6463.88 77.00
2519 17.2080 6159.00 6662.52 78.00
2520 17.2140 6636.00 6992.33 81.00
2521 17.2200 7019.00 7713.58 84.00
2522 17.2260 8567.00 9478.59 93.00
2523 17.2320 13164.00 12974.50 115.00
2524 17.2380 19420.00 17228.70 139.00
2525 17.2440 19461.00 18364.10 140.00
2526 17.2500 15521.00 15480.10 125.00
2527 17.2560 12868.00 12420.00 113.00
2528 17.2620 12383.00 11363.60 111.00
2529 17.2680 15047.00 12473.40 123.00
2530 17.2740 21766.00 16939.60 148.00
2531 17.2800 35667.00 29540.40 189.00
2532 17.2860 56554.00 56293.30 238.00
2533 17.2920 75146.00 91971.20 274.00
2534 17.2980 88685.00 107584.00 298.00
2535 17.3040 95849.00 97615.20 310.00
2536 17.3100 87790.00 82852.70 296.00
2537 17.3160 58332.00 57490.10 242.00
2538 17.3220 31277.00 32870.60 177.00
2539 17.3280 17737.00 18487.30 133.00
2540 17.3340 11917.00 12289.60 109.00
2541 17.3400 9184.00 9814.53 96.00
2542 17.3460 7941.00 8588.66 89.00
2543 17.3520 7126.00 7821.27 84.00
2544 17.3580 6687.00 7287.27 82.00
2545 17.3640 6140.00 6897.51 78.00
2546 17.3700 5933.00 6603.29 77.00
2547 17.3760 5803.00 6375.00 76.00
2548 17.3820 5774.00 6193.54 76.00
2549 17.3880 5663.00 6046.41 75.00
2550 17.3940 5478.00 5924.99 74.00
2551 17.4000 5370.00 5823.14 73.00
2552 17.4060 5252.00 5724.15 72.00
2553 17.4120 5310.00 5642.92 73.00
2554 17.4180 5258.00 5579.25 73.00
2555 17.4240 5172.00 5523.21 72.00
2556 17.4300 5297.00 5473.43 73.00
2557 17.4360 5044.00 5428.82 71.00
2558 17.4420 5227.00 5388.52 72.00
2559 17.4480 5273.00 5351.82 73.00
2560 17.4540 5241.00 5318.16 72.00
2561 17.4600 5136.00 5287.11 72.00
2562 17.4660 5109.00 5120.49 71.00
2563 17.4720 5111.00 5102.75 71.00
2564 17.4780 5066.00 4998.07 71.00
2565 17.4840 5090.00 4987.71 71.00
2566 17.4900 5057.00 4977.35 71.00
2567 17.4960 5104.00 4966.99 71.00
2568 17.5020 5067.00 4956.63 71.00
2569 17.5080 5022.00 4946.27 71.00
2570 17.5140 4984.00 4935.91 71.00
2571 17.5200 5172.00 4925.55 72.00
2572 17.5260 5083.00 4915.19 71.00
2573 17.5320 4940.00 4904.83 70.00
2574 17.5380 4906.00 4894.47 70.00
2575 17.5440 4996.00 4884.11 71.00
2576 17.5500 4923.00 4873.76 70.00
2577 17.5560 4773.00 4863.40 69.00
2578 17.5620 4843.00 4853.04 70.00
2579 17.5680 4777.00 4842.68 69.00
2580 17.5740 4781.00 4832.32 69.00
2581 17.5800 4891.00 4821.96 70.00
2582 17.5860 4834.00 4811.60 70.00
2583 17.5920 4716.00 4801.24 69.00
2584 17.5980 4766.00 4790.88 69.00
2585 17.6040 4874.00 4780.52 70.00
2586 17.6100 4853.00 4770.16 70.00
2587 17.6160 4757.00 4759.80 69.00
2588 17.6220 4666.00 4749.44 68.00
2589 17.6280 4760.00 4739.08 69.00
2590 17.6340 4693.00 4728.72 69.00
2591 17.6400 4740.00 4718.37 69.00
2592 17.6460 4733.00 4708.01 69.00
2593 17.6520 4697.00 4697.65 69.00
2594 17.6580 4589.00 4687.60 68.00
2595 17.6640 4662.00 4679.11 68.00
2596 17.6700 4635.00 4670.62 68.00
2597 17.6760 4630.00 4662.14 68.00
2598 17.6820 4568.00 4653.65 68.00
2599 17.6880 4662.00 4645.16 68.00
2600 17.6940 4528.00 4636.67 67.00
2601 17.7000 4447.00 4628.19 67.00
2602 17.7060 4493.00 4619.70 67.00
2603 17.7120 4478.00 4611.21 67.00
2604 17.7180 4518.00 4602.72 67.00
2605 17.7240 4567.00 4594.23 68.00
2606 17.7300 4466.00 4585.75 67.00
2607 17.7360 4425.00 4577.26 67.00
2608 17.7420 4409.00 4568.77 66.00
2609 17.7480 4321.00 4560.29 66.00
2610 17.7540 4385.00 4551.80 66.00
2611 17.7600 4297.00 4543.31 66.00
2612 17.7660 4447.00 4534.82 67.00
2613 17.7720 4447.00 4526.34 67.00
2614 17.7780 4471.00 4517.85 67.00
2615 17.7840 4445.00 4517.86 67.00
2616 17.7900 4526.00 4510.03 67.00
2617 17.7960 4529.00 4502.27 67.00
2618 17.8020 4496.00 4494.61 67.00
2619 17.8080 4549.00 4487.05 67.00
2620 17.8140 4757.00 4479.62 69.00
2621 17.8200 4982.00 4472.34 71.00
2622 17.8260 5297.00 4465.23 73.00
2623 17.8320 5316.00 4458.35 73.00
2624 17.8380 5247.00 4451.73 72.00
2625 17.8440 5078.00 4445.44 71.00
2626 17.8500 4835.00 4439.55 70.00
2627 17.8560 4692.00 4434.18 68.00
2628 17.8620 4455.00 4429.47 67.00
2629 17.8680 4422.00 4425.61 66.00
2630 17.8740 4198.00 4422.89 65.00
2631 17.8800 4277.00 4421.71 65.00
2632 17.8860 4286.00 4422.65 65.00
2633 17.8920 4147.00 4426.62 64.00
2634 17.8980 4289.00 4435.05 65.00
2635 17.9040 4343.00 4450.30 66.00
2636 17.9100 4367.00 4476.70 66.00
2637 17.9160 4391.00 4524.72 66.00
2638 17.9220 4451.00 4632.12 67.00
2639 17.9280 4614.00 4932.20 68.00
2640 17.9340 5504.00 5719.10 74.00
2641 17.9400 7699.00 7199.29 88.00
2642 17.9460 9207.00 8719.70 96.00
2643 17.9520 8876.00 8502.54 94.00
2644 17.9580 7323.00 6852.41 86.00
2645 17.9640 5844.00 5475.00 76.00
2646 17.9700 5069.00 4790.76 71.00
2647 17.9760 4632.00 4527.74 68.00
2648 17.9820 4428.00 4420.58 67.00
2649 17.9880 4384.00 4362.53 66.00
2650 17.9940 4255.00 4322.06 65.00
2651 18.0000 4389.00 4291.72 66.00
2652 18.0060 4143.00 4267.70 64.00
2653 18.0120 4080.00 4247.88 64.00
2654 18.0180 4010.00 4230.95 63.00
2655 18.0240 4141.00 4216.10 64.00
2656 18.0300 3999.00 4202.79 63.00
2657 18.0360 3997.00 4190.69 63.00
2658 18.0420 3951.00 4179.56 63.00
2659 18.0480 4069.00 4169.24 64.00
2660 18.0540 4007.00 4159.67 63.00
2661 18.0600 3971.00 4155.48 63.00
2662 18.0660 3983.00 4152.96 63.00
2663 18.0720 4015.00 4151.28 63.00
2664 18.0780 4028.00 4150.59 63.00
2665 18.0840 4060.00 4151.22 64.00
2666 18.0900 4088.00 4153.66 64.00
2667 18.0960 4052.00 4158.82 64.00
2668 18.1020 4028.00 4168.47 63.00
2669 18.1080 4019.00 4187.87 63.00
2670 18.1140 4152.00 4236.41 64.00
2671 18.1200 4473.00 4361.75 67.00
2672 18.1260 4684.00 4729.41 68.00
2673 18.1320 4802.00 5183.10 69.00
2674 18.1380 4614.00 5558.78 68.00
2675 18.1440 4455.00 5433.13 67.00
2676 18.1500 4392.00 5271.21 66.00
2677 18.1560 4446.00 5180.65 67.00
2678 18.1620 4557.00 4944.08 68.00
2679 18.1680 4332.00 4675.56 66.00
2680 18.1740 4358.00 4515.04 66.00
2681 18.1800 4354.00 4457.20 66.00
2682 18.1860 4336.00 4452.77 66.00
2683 18.1920 4488.00 4470.97 67.00
2684 18.1980 4627.00 4502.08 68.00
2685 18.2040 4605.00 4544.65 68.00
2686 18.2100 4677.00 4599.75 68.00
2687 18.2160 4778.00 4669.91 69.00
2688 18.2220 4754.00 4759.10 69.00
2689 18.2280 4863.00 4873.29 70.00
2690 18.2340 5019.00 5021.38 71.00
2691 18.2400 5263.00 5217.14 73.00
2692 18.2460 5529.00 5482.19 74.00
2693 18.2520 5937.00 5852.58 77.00
2694 18.2580 6553.00 6397.64 81.00
2695 18.2640 7859.00 7307.15 89.00
2696 18.2700 10410.00 9241.59 102.00
2697 18.2760 16497.00 14064.40 128.00
2698 18.2820 27374.00 24748.60 165.00
2699 18.2880 41528.00 42078.00 204.00
2700 18.2940 56462.00 58498.50 238.00
2701 18.3000 69582.00 65517.60 264.00
2702 18.3060 70557.00 66125.50 266.00
2703 18.3120 53144.00 52053.60 231.00
2704 18.3180 29426.00 31380.20 172.00
2705 18.3240 15721.00 17158.30 125.00
2706 18.3300 10059.00 10441.40 100.00
2707 18.3360 7469.00 7805.59 86.00
2708 18.3420 6189.00 6654.28 79.00
2709 18.3480 5591.00 5999.33 75.00
2710 18.3540 5103.00 5562.98 71.00
2711 18.3600 4774.00 5253.07 69.00
2712 18.3660 4586.00 5024.57 68.00
2713 18.3720 4501.00 4851.01 67.00
2714 18.3780 4367.00 4715.97 66.00
2715 18.3840 4249.00 4608.69 65.00
2716 18.3900 4187.00 4521.93 65.00
2717 18.3960 4078.00 4450.61 64.00
2718 18.4020 4127.00 4391.18 64.00
2719 18.4080 3894.00 4341.04 62.00
2720 18.4140 4001.00 4298.27 63.00
2721 18.4200 3995.00 4261.39 63.00
2722 18.4260 3953.00 4229.31 63.00
2723 18.4320 3943.00 4201.17 63.00
2724 18.4380 3957.00 4176.29 63.00
2725 18.4440 3944.00 4154.12 63.00
2726 18.4500 3914.00 4134.25 63.00
2727 18.4560 3940.00 4116.32 63.00
2728 18.4620 3853.00 4100.04 62.00
2729 18.4680 3866.00 4022.42 62.00
2730 18.4740 3836.00 4012.89 62.00
2731 18.4800 3805.00 3921.68 62.00
2732 18.4860 3843.00 3918.23 62.00
2733 18.4920 3898.00 3914.78 62.00
2734 18.4980 3961.00 3952.65 63.00
2735 18.5040 3966.00 3952.22 63.00
2736 18.5100 4022.00 3952.14 63.00
2737 18.5160 3996.00 3952.45 63.00
2738 18.5220 3923.00 3953.22 63.00
2739 18.5280 3852.00 3954.54 62.00
2740 18.5340 3895.00 3956.49 62.00
2741 18.5400 3897.00 3959.20 62.00
2742 18.5460 3972.00 3962.81 63.00
2743 18.5520 4049.00 3967.51 64.00
2744 18.5580 4300.00 3973.54 66.00
2745 18.5640 4692.00 3981.19 68.00
2746 18.5700 5071.00 3990.87 71.00
2747 18.5760 5226.00 4003.08 72.00
2748 18.5820 4929.00 4018.54 70.00
2749 18.5880 4569.00 4038.17 68.00
2750 18.5940 4283.00 4063.31 65.00
2751 18.6000 4159.00 4095.85 64.00
2752 18.6060 3987.00 4138.56 63.00
2753 18.6120 3912.00 4195.57 63.00
2754 18.6180 3953.00 4273.41 63.00
2755 18.6240 3988.00 4382.67 63.00
2756 18.6300 4190.00 4542.00 65.00
2757 18.6360 4386.00 4793.33 66.00
2758 18.6420 4895.00 5275.54 70.00
2759 18.6480 6013.00 6485.55 78.00
2760 18.6540 8933.00 9647.29 95.00
2761 18.6600 16870.00 16084.80 130.00
2762 18.6660 28668.00 24298.90 169.00
2763 18.6720 30772.00 26689.90 175.00
2764 18.6780 20369.00 19889.70 143.00
2765 18.6840 11232.00 12124.60 106.00
2766 18.6900 7160.00 7557.01 85.00
2767 18.6960 5572.00 5650.48 75.00
2768 18.7020 4834.00 4930.54 70.00
2769 18.7080 4459.00 4596.98 67.00
2770 18.7140 4201.00 4396.92 65.00
2771 18.7200 4104.00 4261.14 64.00
2772 18.7260 3971.00 4163.80 63.00
2773 18.7320 3857.00 4091.42 62.00
2774 18.7380 3792.00 4035.95 62.00
2775 18.7440 3786.00 3992.31 62.00
2776 18.7500 3868.00 3957.18 62.00
2777 18.7560 3845.00 3928.34 62.00
2778 18.7620 3792.00 3904.23 62.00
2779 18.7680 3830.00 3883.74 62.00
2780 18.7740 3912.00 3866.08 63.00
2781 18.7800 3775.00 3850.66 61.00
2782 18.7860 3756.00 3837.04 61.00
2783 18.7920 3818.00 3824.86 62.00
2784 18.7980 3703.00 3813.88 61.00
2785 18.8040 3631.00 3803.88 60.00
2786 18.8100 3672.00 3794.70 61.00
2787 18.8160 3797.00 3786.20 62.00
2788 18.8220 3681.00 3778.29 61.00
2789 18.8280 3721.00 3770.88 61.00
2790 18.8340 3748.00 3763.89 61.00
2791 18.8400 3838.00 3757.27 62.00
2792 18.8460 3779.00 3711.16 61.00
2793 18.8520 3817.00 3707.71 62.00
2794 18.8580 3812.00 3704.26 62.00
2795 18.8640 3704.00 3700.81 61.00
2796 18.8700 3664.00 3697.36 61.00
2797 18.8760 3730.00 3693.91 61.00
2798 18.8820 3822.00 3690.45 62.00
2799 18.8880 3838.00 3687.00 62.00
2800 18.8940 3856.00 3683.55 62.00
2801 18.9000 3832.00 3680.10 62.00
2802 18.9060 3768.00 3676.65 61.00
2803 18.9120 3727.00 3673.20 61.00
2804 18.9180 3756.00 3669.75 61.00
2805 18.9240 3740.00 3666.30 61.00
2806 18.9300 3729.00 3666.78 61.00
2807 18.9360 3618.00 3667.26 60.00
2808 18.9420 3696.00 3667.74 61.00
2809 18.9480 3733.00 3668.22 61.00
2810 18.9540 3651.00 3668.70 60.00
2811 18.9600 3712.00 3669.18 61.00
2812 18.9660 3779.00 3669.66 61.00
2813 18.9720 3732.00 3670.14 61.00
2814 18.9780 3714.00 3670.62 61.00
2815 18.9840 3811.00 3671.10 62.00
2816 18.9900 3938.00 3671.58 63.00
2817 18.9960 3879.00 3672.06 62.00
2818 19.0020 3765.00 3672.54 61.00
2819 19.0080 3724.00 3673.02 61.00
2820 19.0140 3741.00 3673.50 61.00
2821 19.0200 3673.00 3673.98 61.00
2822 19.0260 3613.00 3674.46 60.00
2823 19.0320 3666.00 3674.94 61.00
2824 19.0380 3751.00 3675.42 61.00
2825 19.0440 3805.00 3675.90 62.00
2826 19.0500 3822.00 3676.38 62.00
2827 19.0560 4093.00 3676.86 64.00
2828 19.0620 4534.00 3677.34 67.00
2829 19.0680 5153.00 3677.82 72.00
2830 19.0740 5514.00 3678.30 74.00
2831 19.0800 5150.00 3678.78 72.00
2832 19.0860 4632.00 3679.26 68.00
2833 19.0920 4284.00 3679.74 65.00
2834 19.0980 4041.00 3680.22 64.00
2835 19.1040 3917.00 3680.70 63.00
2836 19.1100 3834.00 3681.18 62.00
2837 19.1160 3777.00 3681.66 61.00
2838 19.1220 3676.00 3682.14 61.00
2839 19.1280 3796.00 3682.62 62.00
2840 19.1340 3998.00 3683.10 63.00
2841 19.1400 4015.00 3683.58 63.00
2842 19.1460 3978.00 3684.06 63.00
2843 19.1520 3867.00 3794.35 62.00
2844 19.1580 3777.00 3802.79 61.00
2845 19.1640 3833.00 3812.12 62.00
2846 19.1700 3822.00 3822.49 62.00
2847 19.1760 3772.00 3834.06 61.00
2848 19.1820 3721.00 3847.04 61.00
2849 19.1880 3705.00 3861.67 61.00
2850 19.1940 3699.00 3878.26 61.00
2851 19.2000 3704.00 3897.19 61.00
2852 19.2060 3764.00 3918.92 61.00
2853 19.2120 3774.00 3944.07 61.00
2854 19.2180 3770.00 3973.39 61.00
2855 19.2240 3775.00 4007.89 61.00
2856 19.2300 3851.00 4048.85 62.00
2857 19.2360 3907.00 4098.05 63.00
2858 19.2420 3993.00 4157.86 63.00
2859 19.2480 4083.00 4231.55 64.00
2860 19.2540 4139.00 4323.83 64.00
2861 19.2600 4330.00 4441.48 66.00
2862 19.2660 4439.00 4594.66 67.00
2863 19.2720 4516.00 4799.04 67.00
2864 19.2780 4722.00 5080.19 69.00
2865 19.2840 5066.00 5482.97 71.00
2866 19.2900 5769.00 6107.07 76.00
2867 19.2960 6948.00 7270.77 83.00
2868 19.3020 9262.00 10051.50 96.00
2869 19.3080 16060.00 17051.40 127.00
2870 19.3140 34693.00 31366.10 186.00
2871 19.3200 58679.00 50998.60 242.00
2872 19.3260 64128.00 61557.20 253.00
2873 19.3320 48139.00 50597.40 219.00
2874 19.3380 28854.00 30946.20 170.00
2875 19.3440 16388.00 16812.40 128.00
2876 19.3500 10369.00 9957.80 102.00
2877 19.3560 7435.00 7247.57 86.00
2878 19.3620 6016.00 6109.81 78.00
2879 19.3680 5346.00 5496.51 73.00
2880 19.3740 4918.00 5100.44 70.00
2881 19.3800 4586.00 4824.58 68.00
2882 19.3860 4418.00 4624.82 66.00
2883 19.3920 4289.00 4476.18 65.00
2884 19.3980 4122.00 4363.18 64.00
2885 19.4040 4076.00 4275.86 64.00
2886 19.4100 4113.00 4207.58 64.00
2887 19.4160 4057.00 4153.90 64.00
2888 19.4220 4040.00 4111.74 64.00
2889 19.4280 4058.00 4079.08 64.00
2890 19.4340 3949.00 4054.56 63.00
2891 19.4400 3833.00 4089.76 62.00
2892 19.4460 3878.00 4083.67 62.00
2893 19.4520 3843.00 4085.85 62.00
2894 19.4580 3831.00 4171.11 62.00
2895 19.4640 3908.00 4201.22 63.00
2896 19.4700 3936.00 4252.09 63.00
2897 19.4760 4075.00 4345.98 64.00
2898 19.4820 4267.00 4553.28 65.00
2899 19.4880 4636.00 5036.61 68.00
2900 19.4940 5354.00 6004.57 73.00
2901 19.5000 6558.00 7463.08 81.00
2902 19.5060 7961.00 8720.69 89.00
2903 19.5120 8784.00 9505.31 94.00
2904 19.5180 8477.00 9361.23 92.00
2905 19.5240 6973.00 7827.25 84.00
2906 19.5300 5535.00 6172.23 74.00
2907 19.5360 4831.00 5175.32 70.00
2908 19.5420 4575.00 4764.17 68.00
2909 19.5480 4463.00 4655.29 67.00
2910 19.5540 4529.00 4671.37 67.00
2911 19.5600 4648.00 4753.64 68.00
2912 19.5660 4764.00 4894.78 69.00
2913 19.5720 4949.00 5106.83 70.00
2914 19.5780 5235.00 5418.85 72.00
2915 19.5840 5812.00 5898.60 76.00
2916 19.5900 6881.00 6755.02 83.00
2917 19.5960 9062.00 8662.57 95.00
2918 19.6020 14566.00 13167.50 121.00
2919 19.6080 24457.00 22045.70 156.00
2920 19.6140 36985.00 34554.30 192.00
2921 19.6200 47244.00 44204.40 217.00
2922 19.6260 53723.00 48042.10 232.00
2923 19.6320 55047.00 52004.90 235.00
2924 19.6380 48358.00 48920.40 220.00
2925 19.6440 33289.00 34430.80 182.00
2926 19.6500 19219.00 20212.40 139.00
2927 19.6560 11567.00 11785.20 108.00
2928 19.6620 8062.00 8043.19 90.00
2929 19.6680 6322.00 6513.48 80.00
2930 19.6740 5519.00 5766.32 74.00
2931 19.6800 5074.00 5307.44 71.00
2932 19.6860 4722.00 4986.50 69.00
2933 19.6920 4426.00 4757.38 67.00
2934 19.6980 4389.00 4578.31 66.00
2935 19.7040 4226.00 4447.15 65.00
2936 19.7100 4190.00 4344.41 65.00
2937 19.7160 4131.00 4262.39 64.00
2938 19.7220 4048.00 4195.95 64.00
2939 19.7280 4042.00 4141.39 64.00
2940 19.7340 4015.00 4096.06 63.00
2941 19.7400 3972.00 4057.98 63.00
2942 19.7460 3968.00 4025.71 63.00
2943 19.7520 3903.00 3998.14 62.00
2944 19.7580 3831.00 3974.42 62.00
2945 19.7640 3851.00 3953.86 62.00
2946 19.7700 3779.00 3935.93 61.00
2947 19.7760 3746.00 3920.23 61.00
2948 19.7820 3838.00 3906.39 62.00
2949 19.7880 3746.00 3894.15 61.00
2950 19.7940 3764.00 3883.27 61.00
2951 19.8000 3748.00 3822.76 61.00
2952 19.8060 3773.00 3817.27 61.00
2953 19.8120 3741.00 3812.38 61.00
2954 19.8180 3646.00 3737.83 60.00
2955 19.8240 3675.00 3738.31 61.00
2956 19.8300 3707.00 3738.79 61.00
2957 19.8360 3738.00 3739.27 61.00
2958 19.8420 3815.00 3739.75 62.00
2959 19.8480 3768.00 3740.23 61.00
2960 19.8540 3731.00 3740.71 61.00
2961 19.8600 3734.00 3741.19 61.00
2962 19.8660 3781.00 3741.67 61.00
2963 19.8720 3764.00 3742.15 61.00
2964 19.8780 3798.00 3742.63 62.00
2965 19.8840 3765.00 3743.11 61.00
2966 19.8900 3806.00 3743.59 62.00
2967 19.8960 3817.00 3744.07 62.00
2968 19.9020 3829.00 3744.55 62.00
2969 19.9080 3980.00 3745.03 63.00
2970 19.9140 4056.00 3745.51 64.00
2971 19.9200 4000.00 3745.99 63.00
2972 19.9260 3895.00 3746.47 62.00
2973 19.9320 3944.00 3748.84 63.00
2974 19.9380 3820.00 3760.63 62.00
2975 19.9440 3793.00 3772.42 62.00
2976 19.9500 3895.00 3784.21 62.00
2977 19.9560 3887.00 3796.00 62.00
2978 19.9620 3834.00 3807.79 62.00
2979 19.9680 3819.00 3819.58 62.00
2980 19.9740 3850.00 3831.37 62.00
2981 19.9800 3808.00 3843.16 62.00
2982 19.9860 3773.00 3854.95 61.00
2983 19.9920 3787.00 3866.74 62.00
2984 19.9980 3743.00 3878.52 61.00
2985 20.0040 3906.00 3890.31 62.00
2986 20.0100 3854.00 4013.80 62.00
2987 20.0160 3768.00 4033.32 61.00
2988 20.0220 3884.00 4053.66 62.00
2989 20.0280 3824.00 4074.96 62.00
2990 20.0340 3906.00 4097.40 62.00
2991 20.0400 3786.00 4121.07 62.00
2992 20.0460 3849.00 4146.22 62.00
2993 20.0520 3859.00 4173.12 62.00
2994 20.0580 3996.00 4202.08 63.00
2995 20.0640 4022.00 4233.48 63.00
2996 20.0700 3920.00 4267.84 63.00
2997 20.0760 3947.00 4305.74 63.00
2998 20.0820 4021.00 4347.99 63.00
2999 20.0880 4087.00 4395.57 64.00
3000 20.0940 4126.00 4449.83 64.00
3001 20.1000 4113.00 4512.54 64.00
3002 20.1060 4213.00 4586.06 65.00
3003 20.1120 4322.00 4673.63 66.00
3004 20.1180 4368.00 4779.90 66.00
3005 20.1240 4541.00 4911.45 67.00
3006 20.1300 4837.00 5078.00 70.00
3007 20.1360 4918.00 5321.64 70.00
3008 20.1420 5408.00 5613.74 74.00
3009 20.1480 5967.00 6019.64 77.00
3010 20.1540 7042.00 6620.72 84.00
3011 20.1600 8948.00 7653.88 95.00
3012 20.1660 12718.00 9933.67 113.00
3013 20.1720 19720.00 15673.20 140.00
3014 20.1780 33868.00 28274.60 184.00
3015 20.1840 51205.00 48222.40 226.00
3016 20.1900 59656.00 65018.10 244.00
3017 20.1960 52201.00 59589.20 228.00
3018 20.2020 38331.00 39163.40 196.00
3019 20.2080 24986.00 21964.50 158.00
3020 20.2140 16259.00 12726.80 128.00
3021 20.2200 12133.00 8890.36 110.00
3022 20.2260 10343.00 7344.83 102.00
3023 20.2320 9125.00 6582.15 96.00
3024 20.2380 8248.00 6121.05 91.00
3025 20.2440 7799.00 5817.99 88.00
3026 20.2500 7382.00 5615.33 86.00
3027 20.2560 7094.00 5483.52 84.00
3028 20.2620 6827.00 5406.79 83.00
3029 20.2680 6844.00 5378.44 83.00
3030 20.2740 6811.00 5400.10 83.00
3031 20.2800 6893.00 5486.50 83.00
3032 20.2860 7088.00 5693.42 84.00
3033 20.2920 7777.00 6222.58 88.00
3034 20.2980 9538.00 7614.20 98.00
3035 20.3040 12931.00 10671.90 114.00
3036 20.3100 17143.00 15447.90 131.00
3037 20.3160 18603.00 19346.20 136.00
3038 20.3220 16467.00 17891.70 128.00
3039 20.3280 12532.00 12986.30 112.00
3040 20.3340 9186.00 8898.14 96.00
3041 20.3400 7165.00 6702.22 85.00
3042 20.3460 6045.00 5786.04 78.00
3043 20.3520 5506.00 5414.20 74.00
3044 20.3580 5181.00 5228.35 72.00
3045 20.3640 5160.00 5114.03 72.00
3046 20.3700 4922.00 5036.84 70.00
3047 20.3760 5018.00 4874.24 71.00
3048 20.3820 4803.00 4842.50 69.00
3049 20.3880 4887.00 4821.02 70.00
3050 20.3940 4576.00 4806.84 68.00
3051 20.4000 4769.00 4797.92 69.00
3052 20.4060 4678.00 4793.02 68.00
3053 20.4120 4544.00 4783.18 67.00
3054 20.4180 4528.00 4735.96 67.00
3055 20.4240 4394.00 4690.56 66.00
3056 20.4300 4534.00 4650.42 67.00
3057 20.4360 4566.00 4607.92 68.00
3058 20.4420 4343.00 4566.41 66.00
3059 20.4480 4440.00 4525.71 67.00
3060 20.4540 4447.00 4485.71 67.00
3061 20.4600 4381.00 4446.30 66.00
3062 20.4660 4459.00 4407.40 67.00
3063 20.4720 4432.00 4368.94 67.00
3064 20.4780 4438.00 4330.88 67.00
3065 20.4840 4307.00 4293.20 66.00
3066 20.4900 4142.00 4255.86 64.00
3067 20.4960 3982.00 4218.84 63.00
3068 20.5020 3984.00 4155.89 63.00
3069 20.5080 4059.00 4132.02 64.00
3070 20.5140 4037.00 4098.25 64.00
3071 20.5200 4084.00 4064.81 64.00
3072 20.5260 4042.00 4031.82 64.00
3073 20.5320 4003.00 3999.35 63.00
3074 20.5380 3928.00 3967.58 63.00
3075 20.5440 3864.00 3936.71 62.00
3076 20.5500 4046.00 3913.28 64.00
3077 20.5560 4057.00 3922.63 64.00
3078 20.5620 3931.00 3934.34 63.00
3079 20.5680 3901.00 3949.54 62.00
3080 20.5740 3975.00 3970.25 63.00
3081 20.5800 3984.00 4001.51 63.00
3082 20.5860 3973.00 4059.90 63.00
3083 20.5920 4104.00 4195.93 64.00
3084 20.5980 4311.00 4511.31 66.00
3085 20.6040 5158.00 5089.34 72.00
3086 20.6100 6303.00 5784.33 79.00
3087 20.6160 6179.00 6014.11 79.00
3088 20.6220 5358.00 5495.28 73.00
3089 20.6280 4581.00 4835.31 68.00
3090 20.6340 4171.00 4411.01 65.00
3091 20.6400 4174.00 4228.48 65.00
3092 20.6460 3971.00 4181.55 63.00
3093 20.6520 4192.00 4199.19 65.00
3094 20.6580 4309.00 4270.62 66.00
3095 20.6640 4637.00 4454.17 68.00
3096 20.6700 5191.00 4932.63 72.00
3097 20.6760 6250.00 6008.58 79.00
3098 20.6820 8151.00 7787.42 90.00
3099 20.6880 9110.00 9504.99 95.00
3100 20.6940 8617.00 9389.13 93.00
3101 20.7000 7190.00 7589.29 85.00
3102 20.7060 5696.00 5907.72 75.00
3103 20.7120 4638.00 4898.28 68.00
3104 20.7180 4224.00 4529.01 65.00
3105 20.7240 4068.00 4357.84 64.00
3106 20.7300 4064.00 4282.40 64.00
3107 20.7360 3945.00 4242.48 63.00
3108 20.7420 3923.00 4220.39 63.00
3109 20.7480 3959.00 4209.75 63.00
3110 20.7540 3937.00 4207.38 63.00
3111 20.7600 3990.00 4211.55 63.00
3112 20.7660 3912.00 4221.31 63.00
3113 20.7720 3952.00 4236.25 63.00
3114 20.7780 4046.00 4256.35 64.00
3115 20.7840 4145.00 4281.94 64.00
3116 20.7900 4238.00 4313.63 65.00
3117 20.7960 4364.00 4352.39 66.00
3118 20.8020 4701.00 4395.98 69.00
3119 20.8080 5180.00 4453.98 72.00
3120 20.8140 5732.00 4525.20 76.00
3121 20.8200 5795.00 4613.59 76.00
3122 20.8260 5583.00 4724.72 75.00
3123 20.8320 5374.00 4866.75 73.00
3124 20.8380 5169.00 5051.88 72.00
3125 20.8440 5079.00 5299.38 71.00
3126 20.8500 5296.00 5641.45 73.00
3127 20.8560 5810.00 6144.76 76.00
3128 20.8620 6627.00 6994.68 81.00
3129 20.8680 8507.00 8754.61 92.00
3130 20.8740 12665.00 12755.70 113.00
3131 20.8800 21743.00 20944.00 147.00
3132 20.8860 36898.00 34250.40 192.00
3133 20.8920 53156.00 48817.60 231.00
3134 20.8980 64286.00 57511.70 254.00
3135 20.9040 61476.00 57315.80 248.00
3136 20.9100 42520.00 44385.90 206.00
3137 20.9160 23788.00 27763.80 154.00
3138 20.9220 13494.00 16136.40 116.00
3139 20.9280 9228.00 10197.80 96.00
3140 20.9340 7271.00 7646.59 85.00
3141 20.9400 6146.00 6510.21 78.00
3142 20.9460 5499.00 5885.81 74.00
3143 20.9520 5057.00 5477.04 71.00
3144 20.9580 4823.00 5187.33 69.00
3145 20.9640 4703.00 4973.84 69.00
3146 20.9700 4498.00 4812.20 67.00
3147 20.9760 4359.00 4686.98 66.00
3148 20.9820 4332.00 4588.15 66.00
3149 20.9880 4391.00 4508.89 66.00
3150 20.9940 4294.00 4444.45 66.00
3151 21.0000 4268.00 4391.36 65.00
3152 21.0060 4224.00 4347.22 65.00
3153 21.0120 4170.00 4310.15 65.00
3154 21.0180 4101.00 4278.77 64.00
3155 21.0240 4036.00 4252.00 64.00
3156 21.0300 4071.00 4229.03 64.00
3157 21.0360 4125.00 4209.21 64.00
3158 21.0420 4048.00 4192.01 64.00
3159 21.0480 4023.00 4177.03 63.00
3160 21.0540 4083.00 4170.11 64.00
3161 21.0600 4142.00 4159.02 64.00
3162 21.0660 4149.00 4149.34 64.00
3163 21.0720 4123.00 4147.90 64.00
3164 21.0780 4057.00 4141.02 64.00
3165 21.0840 4065.00 4090.35 64.00
3166 21.0900 4166.00 4088.07 65.00
3167 21.0960 4168.00 4016.80 65.00
3168 21.1020 4133.00 4019.88 64.00
3169 21.1080 4129.00 4025.21 64.00
3170 21.1140 4186.00 4028.88 65.00
3171 21.1200 4188.00 4032.86 65.00
3172 21.1260 4220.00 4037.20 65.00
3173 21.1320 4311.00 4042.00 66.00
3174 21.1380 4325.00 4047.34 66.00
3175 21.1440 4285.00 4053.35 65.00
3176 21.1500 4253.00 4060.19 65.00
3177 21.1560 4182.00 4068.09 65.00
3178 21.1620 4160.00 4077.35 64.00
3179 21.1680 4176.00 4088.36 65.00
3180 21.1740 4158.00 4101.72 64.00
3181 21.1800 4099.00 4118.25 64.00
3182 21.1860 4187.00 4139.20 65.00
3183 21.1920 4243.00 4166.49 65.00
3184 21.1980 4203.00 4203.37 65.00
3185 21.2040 4242.00 4256.46 65.00
3186 21.2100 4295.00 4344.30 66.00
3187 21.2160 4496.00 4523.92 67.00
3188 21.2220 4990.00 4930.09 71.00
3189 21.2280 5841.00 5751.68 76.00
3190 21.2340 7287.00 7040.10 85.00
3191 21.2400 8705.00 8365.74 93.00
3192 21.2460 9330.00 8969.93 97.00
3193 21.2520 9312.00 9106.10 96.00
3194 21.2580 8527.00 8762.50 92.00
3195 21.2640 7172.00 7527.47 85.00
3196 21.2700 6075.00 6144.67 78.00
3197 21.2760 5431.00 5269.77 74.00
3198 21.2820 5119.00 4961.95 72.00
3199 21.2880 5225.00 5062.88 72.00
3200 21.2940 5405.00 5334.23 74.00
3201 21.3000 5415.00 5406.77 74.00
3202 21.3060 5142.00 5101.62 72.00
3203 21.3120 4794.00 4715.91 69.00
3204 21.3180 4451.00 4451.77 67.00
3205 21.3240 4353.00 4319.60 66.00
3206 21.3300 4275.00 4263.67 65.00
3207 21.3360 4208.00 4239.84 65.00
3208 21.3420 4258.00 4236.46 65.00
3209 21.3480 4222.00 4233.31 65.00
3210 21.3540 4175.00 4235.44 65.00
3211 21.3600 4221.00 4250.88 65.00
3212 21.3660 4268.00 4270.94 65.00
3213 21.3720 4169.00 4296.06 65.00
3214 21.3780 4349.00 4327.81 66.00
3215 21.3840 4325.00 4366.48 66.00
3216 21.3900 4377.00 4415.09 66.00
3217 21.3960 4428.00 4477.48 67.00
3218 21.4020 4573.00 4559.82 68.00
3219 21.4080 4645.00 4673.06 68.00
3220 21.4140 4812.00 4841.94 69.00
3221 21.4200 5146.00 5142.22 72.00
3222 21.4260 5699.00 5807.10 75.00
3223 21.4320 7010.00 7357.76 84.00
3224 21.4380 10709.00 10462.50 103.00
3225 21.4440 17218.00 14980.40 131.00
3226 21.4500 20632.00 18506.90 144.00
3227 21.4560 17880.00 17510.00 134.00
3228 21.4620 12527.00 13150.80 112.00
3229 21.4680 9035.00 9100.68 95.00
3230 21.4740 6927.00 6704.96 83.00
3231 21.4800 6110.00 5624.43 78.00
3232 21.4860 5596.00 5194.94 75.00
3233 21.4920 5472.00 5017.68 74.00
3234 21.4980 5698.00 4957.54 75.00
3235 21.5040 6076.00 5007.74 78.00
3236 21.5100 6343.00 5265.65 80.00
3237 21.5160 6450.00 5911.69 80.00
3238 21.5220 6562.00 7029.17 81.00
3239 21.5280 6461.00 8218.88 80.00
3240 21.5340 6220.00 8383.34 79.00
3241 21.5400 6063.00 7308.36 78.00
3242 21.5460 5880.00 6113.68 77.00
3243 21.5520 5766.00 5383.23 76.00
3244 21.5580 5535.00 5105.21 74.00
3245 21.5640 5527.00 5051.48 74.00
3246 21.5700 5257.00 4990.72 73.00
3247 21.5760 5186.00 4857.69 72.00
3248 21.5820 4951.00 4731.35 70.00
3249 21.5880 4883.00 4651.30 70.00
3250 21.5940 4808.00 4611.61 69.00
3251 21.6000 4768.00 4594.17 69.00
3252 21.6060 4911.00 4586.63 70.00
3253 21.6120 4943.00 4583.74 70.00
3254 21.6180 4873.00 4583.58 70.00
3255 21.6240 4883.00 4585.33 70.00
3256 21.6300 4863.00 4588.49 70.00
3257 21.6360 4928.00 4592.74 70.00
3258 21.6420 4975.00 4584.33 71.00
3259 21.6480 4915.00 4578.20 70.00
3260 21.6540 4950.00 4586.02 70.00
3261 21.6600 4851.00 4594.17 70.00
3262 21.6660 4802.00 4602.59 69.00
3263 21.6720 4931.00 4611.23 70.00
3264 21.6780 4956.00 4620.06 70.00
3265 21.6840 4819.00 4629.04 69.00
3266 21.6900 4797.00 4638.16 69.00
3267 21.6960 4855.00 4656.10 70.00
3268 21.7020 4840.00 4666.00 70.00
3269 21.7080 4789.00 4676.03 69.00
3270 21.7140 4738.00 4686.21 69.00
3271 21.7200 4824.00 4696.53 69.00
3272 21.7260 4800.00 4732.53 69.00
3273 21.7320 4734.00 4743.97 69.00
3274 21.7380 4728.00 4747.32 69.00
3275 21.7440 4737.00 4751.05 69.00
3276 21.7500 4754.00 4755.23 69.00
3277 21.7560 4973.00 4759.92 71.00
3278 21.7620 4957.00 4764.61 70.00
3279 21.7680 4765.00 4770.65 69.00
3280 21.7740 4668.00 4777.52 68.00
3281 21.7800 4762.00 4785.40 69.00
3282 21.7860 4882.00 4794.48 70.00
3283 21.7920 4787.00 4805.03 69.00
3284 21.7980 4791.00 4817.41 69.00
3285 21.8040 4742.00 4832.05 69.00
3286 21.8100 4848.00 4849.57 70.00
3287 21.8160 4769.00 4870.80 69.00
3288 21.8220 4863.00 4896.93 70.00
3289 21.8280 4911.00 4929.61 70.00
3290 21.8340 5106.00 4971.39 71.00
3291 21.8400 5202.00 5026.32 72.00
3292 21.8460 5412.00 5102.14 74.00
3293 21.8520 5728.00 5219.15 76.00
3294 21.8580 6266.00 5438.46 79.00
3295 21.8640 6849.00 5908.04 83.00
3296 21.8700 7456.00 6846.32 86.00
3297 21.8760 8285.00 8317.87 91.00
3298 21.8820 9045.00 9808.23 95.00
3299 21.8880 10149.00 10162.20 101.00
3300 21.8940 11421.00 9629.03 107.00
3301 21.9000 13018.00 10068.90 114.00
3302 21.9060 15235.00 12852.10 123.00
3303 21.9120 17706.00 17911.60 133.00
3304 21.9180 19820.00 22413.70 141.00
3305 21.9240 20263.00 21427.00 142.00
3306 21.9300 17220.00 16054.80 131.00
3307 21.9360 12753.00 10945.70 113.00
3308 21.9420 9184.00 7856.49 96.00
3309 21.9480 7382.00 6419.00 86.00
3310 21.9540 6483.00 5812.66 81.00
3311 21.9600 5991.00 5523.55 77.00
3312 21.9660 5620.00 5352.77 75.00
3313 21.9720 5557.00 5237.98 75.00
3314 21.9780 5493.00 5156.79 74.00
3315 21.9840 5340.00 5098.13 73.00
3316 21.9900 5151.00 5055.41 72.00
3317 21.9960 5108.00 5024.50 71.00
3318 22.0020 4973.00 5002.73 71.00
3319 22.0080 4874.00 4988.40 70.00
3320 22.0140 4882.00 4980.42 70.00
3321 22.0200 4885.00 4978.23 70.00
3322 22.0260 4905.00 4983.69 70.00
3323 22.0320 4989.00 4995.96 71.00
3324 22.0380 5048.00 5014.64 71.00
3325 22.0440 4995.00 5040.80 71.00
3326 22.0500 4999.00 5076.12 71.00
3327 22.0560 5140.00 5123.25 72.00
3328 22.0620 5256.00 5186.21 72.00
3329 22.0680 5434.00 5271.26 74.00
3330 22.0740 5809.00 5388.43 76.00
3331 22.0800 6388.00 5556.07 80.00
3332 22.0860 6979.00 5809.80 84.00
3333 22.0920 7524.00 6299.81 87.00
3334 22.0980 8372.00 7417.74 91.00
3335 22.1040 10689.00 10008.80 103.00
3336 22.1100 15880.00 14999.00 126.00
3337 22.1160 22822.00 21911.80 151.00
3338 22.1220 26316.00 26861.00 162.00
3339 22.1280 22907.00 24423.50 151.00
3340 22.1340 16120.00 17536.10 127.00
3341 22.1400 10668.00 11601.80 103.00
3342 22.1460 8006.00 8167.53 89.00
3343 22.1520 6729.00 6608.93 82.00
3344 22.1580 6051.00 5950.05 78.00
3345 22.1640 5636.00 5628.45 75.00
3346 22.1700 5392.00 5434.42 73.00
3347 22.1760 5314.00 5302.18 73.00
3348 22.1820 5302.00 5207.20 73.00
3349 22.1880 5091.00 5136.88 71.00
3350 22.1940 4919.00 5083.67 70.00
3351 22.2000 4941.00 5042.67 70.00
3352 22.2060 4990.00 5010.63 71.00
3353 22.2120 4955.00 4985.27 70.00
3354 22.2180 4928.00 4965.00 70.00
3355 22.2240 4861.00 4948.69 70.00
3356 22.2300 4906.00 4969.39 70.00
3357 22.2360 4944.00 4960.83 70.00
3358 22.2420 4828.00 4970.77 69.00
3359 22.2480 4769.00 4967.34 69.00
3360 22.2540 4843.00 4965.63 70.00
3361 22.2600 4859.00 4965.47 70.00
3362 22.2660 5030.00 5014.02 71.00
3363 22.2720 5042.00 5019.67 71.00
3364 22.2780 4945.00 5026.15 70.00
3365 22.2840 5094.00 5032.72 71.00
3366 22.2900 5184.00 5092.61 72.00
3367 22.2960 5203.00 5106.16 72.00
3368 22.3020 5203.00 5141.88 72.00
3369 22.3080 5244.00 5161.97 72.00
3370 22.3140 5197.00 5185.40 72.00
3371 22.3200 5218.00 5172.74 72.00
3372 22.3260 5218.00 5207.07 72.00
3373 22.3320 5235.00 5246.78 72.00
3374 22.3380 5423.00 5293.14 74.00
3375 22.3440 5504.00 5347.83 74.00
3376 22.3500 5624.00 5413.07 75.00
3377 22.3560 5904.00 5491.95 77.00
3378 22.3620 6302.00 5588.69 79.00
3379 22.3680 7089.00 5709.58 84.00
3380 22.3740 7884.00 5863.85 89.00
3381 22.3800 8393.00 6066.15 92.00
3382 22.3860 8581.00 6343.80 93.00
3383 22.3920 8654.00 6802.97 93.00
3384 22.3980 8812.00 7567.08 94.00
3385 22.4040 9530.00 9185.11 98.00
3386 22.4100 12518.00 12555.30 112.00
3387 22.4160 18895.00 18403.10 137.00
3388 22.4220 27743.00 25893.90 167.00
3389 22.4280 33880.00 30776.80 184.00
3390 22.4340 34187.00 30369.00 185.00
3391 22.4400 30896.00 27552.80 176.00
3392 22.4460 26858.00 25889.80 164.00
3393 22.4520 24049.00 28533.30 155.00
3394 22.4580 23420.00 34183.20 153.00
3395 22.4640 24360.00 36624.60 156.00
3396 22.4700 27867.00 34224.80 167.00
3397 22.4760 35402.00 34142.10 188.00
3398 22.4820 44512.00 39355.40 211.00
3399 22.4880 47362.00 44226.50 218.00
3400 22.4940 41305.00 40957.00 203.00
3401 22.5000 31847.00 31317.20 178.00
3402 22.5060 22810.00 21122.40 151.00
3403 22.5120 16075.00 14097.50 127.00
3404 22.5180 12095.00 10371.40 110.00
3405 22.5240 10223.00 8666.42 101.00
3406 22.5300 9578.00 7906.39 98.00
3407 22.5360 9348.00 7557.26 97.00
3408 22.5420 9302.00 7415.82 96.00
3409 22.5480 9476.00 7438.23 97.00
3410 22.5540 10224.00 7657.63 101.00
3411 22.5600 11955.00 8250.49 109.00
3412 22.5660 14628.00 9713.60 121.00
3413 22.5720 17167.00 12929.60 131.00
3414 22.5780 19941.00 18554.80 141.00
3415 22.5840 22487.00 25530.70 150.00
3416 22.5900 25389.00 29585.50 159.00
3417 22.5960 28775.00 28134.60 170.00
3418 22.6020 33140.00 27131.30 182.00
3419 22.6080 38538.00 31898.20 196.00
3420 22.6140 43777.00 41280.60 209.00
3421 22.6200 45268.00 46268.10 213.00
3422 22.6260 39341.00 38925.90 198.00
3423 22.6320 29099.00 26488.30 171.00
3424 22.6380 20493.00 16711.40 143.00
3425 22.6440 15470.00 11264.10 124.00
3426 22.6500 12665.00 8802.85 113.00
3427 22.6560 11231.00 7754.40 106.00
3428 22.6620 10437.00 7226.22 102.00
3429 22.6680 10590.00 7033.67 103.00
3430 22.6740 11268.00 7144.15 106.00
3431 22.6800 12003.00 7816.57 110.00
3432 22.6860 12704.00 9507.74 113.00
3433 22.6920 13109.00 12407.30 114.00
3434 22.6980 13023.00 15741.80 114.00
3435 22.7040 12624.00 16847.10 112.00
3436 22.7100 12233.00 14461.50 111.00
3437 22.7160 11594.00 11305.40 108.00
3438 22.7220 11205.00 9347.72 106.00
3439 22.7280 10390.00 8664.01 102.00
3440 22.7340 9298.00 8283.54 96.00
3441 22.7400 8257.00 7498.75 91.00
3442 22.7460 7393.00 6625.97 86.00
3443 22.7520 6683.00 5992.66 82.00
3444 22.7580 6433.00 5631.39 80.00
3445 22.7640 6268.00 5445.22 79.00
3446 22.7700 6015.00 5341.98 78.00
3447 22.7760 5784.00 5275.01 76.00
3448 22.7820 5779.00 5224.84 76.00
3449 22.7880 5636.00 5185.49 75.00
3450 22.7940 5542.00 5121.48 74.00
3451 22.8000 5697.00 5097.65 75.00
3452 22.8060 5616.00 5077.96 75.00
3453 22.8120 5608.00 5061.50 75.00
3454 22.8180 5666.00 5047.60 75.00
3455 22.8240 5478.00 4967.49 74.00
3456 22.8300 5380.00 4961.13 73.00
3457 22.8360 5423.00 4957.12 74.00
3458 22.8420 5379.00 4952.98 73.00
3459 22.8480 5377.00 4949.65 73.00
3460 22.8540 5420.00 4947.02 74.00
3461 22.8600 5376.00 4945.02 73.00
3462 22.8660 5209.00 4939.31 72.00
3463 22.8720 5186.00 4931.44 72.00
3464 22.8780 5266.00 4924.13 73.00
3465 22.8840 5210.00 4917.38 72.00
3466 22.8900 5215.00 4911.22 72.00
3467 22.8960 5091.00 4905.72 71.00
3468 22.9020 5157.00 4900.98 72.00
3469 22.9080 5184.00 4877.50 72.00
3470 22.9140 5191.00 4875.86 72.00
3471 22.9200 5173.00 4875.54 72.00
3472 22.9260 5147.00 4877.05 72.00
3473 22.9320 5066.00 4881.10 71.00
3474 22.9380 4977.00 4888.13 71.00
3475 22.9440 5061.00 4903.29 71.00
3476 22.9500 4871.00 4932.75 70.00
3477 22.9560 5092.00 4994.29 71.00
3478 22.9620 5396.00 5121.85 73.00
3479 22.9680 5678.00 5364.75 75.00
3480 22.9740 6088.00 5764.60 78.00
3481 22.9800 6812.00 6292.69 83.00
3482 22.9860 7424.00 6852.62 86.00
3483 22.9920 7426.00 7144.86 86.00
3484 22.9980 6819.00 6781.18 83.00
3485 23.0040 5935.00 6086.93 77.00
3486 23.0100 5345.00 5525.78 73.00
3487 23.0160 5362.00 5234.18 73.00
3488 23.0220 5259.00 5177.42 73.00
3489 23.0280 5145.00 5280.81 72.00
3490 23.0340 5320.00 5452.41 73.00
3491 23.0400 5279.00 5548.42 73.00
3492 23.0460 5595.00 5533.77 75.00
3493 23.0520 5937.00 5585.94 77.00
3494 23.0580 6018.00 5852.31 78.00
3495 23.0640 6261.00 6231.25 79.00
3496 23.0700 6388.00 6341.93 80.00
3497 23.0760 6223.00 6000.22 79.00
3498 23.0820 5658.00 5512.15 75.00
3499 23.0880 5381.00 5152.81 73.00
3500 23.0940 5175.00 4960.46 72.00
3501 23.1000 4950.00 4880.48 70.00
3502 23.1060 4905.00 4859.65 70.00
3503 23.1120 4765.00 4882.65 69.00
3504 23.1180 4883.00 4977.15 70.00
3505 23.1240 5214.00 5206.56 72.00
3506 23.1300 5888.00 5619.51 77.00
3507 23.1360 6726.00 6135.80 82.00
3508 23.1420 6663.00 6415.48 82.00
3509 23.1480 6165.00 6145.49 79.00
3510 23.1540 5425.00 5622.00 74.00
3511 23.1600 5024.00 5193.73 71.00
3512 23.1660 4761.00 4948.58 69.00
3513 23.1720 4682.00 4839.32 68.00
3514 23.1780 4608.00 4799.00 68.00
3515 23.1840 4656.00 4788.18 68.00
3516 23.1900 4739.00 4794.49 69.00
3517 23.1960 4619.00 4814.62 68.00
3518 23.2020 4759.00 4847.30 69.00
3519 23.2080 4875.00 4908.41 70.00
3520 23.2140 5246.00 5019.20 72.00
3521 23.2200 5835.00 5252.32 76.00
3522 23.2260 6604.00 5767.88 81.00
3523 23.2320 7362.00 6775.55 86.00
3524 23.2380 7978.00 8309.70 89.00
3525 23.2440 8370.00 9840.83 91.00
3526 23.2500 8993.00 10213.00 95.00
3527 23.2560 9425.00 9461.50 97.00
3528 23.2620 10359.00 9157.63 102.00
3529 23.2680 11147.00 10259.50 106.00
3530 23.2740 12175.00 12460.10 110.00
3531 23.2800 13112.00 13908.80 115.00
3532 23.2860 12253.00 12624.50 111.00
3533 23.2920 9834.00 9833.75 99.00
3534 23.2980 7598.00 7442.42 87.00
3535 23.3040 6144.00 6006.09 78.00
3536 23.3100 5431.00 5311.91 74.00
3537 23.3160 4999.00 4997.31 71.00
3538 23.3220 4805.00 4835.33 69.00
3539 23.3280 4487.00 4733.37 67.00
3540 23.3340 4564.00 4660.35 68.00
3541 23.3400 4312.00 4604.78 66.00
3542 23.3460 4369.00 4560.91 66.00
3543 23.3520 4426.00 4522.35 67.00
3544 23.3580 4321.00 4492.86 66.00
3545 23.3640 4467.00 4467.80 67.00
3546 23.3700 4307.00 4446.10 66.00
3547 23.3760 4314.00 4426.99 66.00
3548 23.3820 4400.00 4419.60 66.00
3549 23.3880 4230.00 4404.72 65.00
3550 23.3940 4335.00 4391.19 66.00
3551 23.4000 4290.00 4378.78 65.00
3552 23.4060 4151.00 4368.44 64.00
3553 23.4120 4244.00 4360.95 65.00
3554 23.4180 4345.00 4351.25 66.00
3555 23.4240 4493.00 4342.18 67.00
3556 23.4300 4309.00 4340.25 66.00
3557 23.4360 4349.00 4340.17 66.00
3558 23.4420 4324.00 4340.59 66.00
3559 23.4480 4281.00 4341.53 65.00
3560 23.4540 4350.00 4333.77 66.00
3561 23.4600 4308.00 4336.25 66.00
3562 23.4660 4273.00 4339.26 65.00
3563 23.4720 4277.00 4342.84 65.00
3564 23.4780 4351.00 4347.07 66.00
3565 23.4840 4240.00 4352.07 65.00
3566 23.4900 4252.00 4342.12 65.00
3567 23.4960 4515.00 4350.00 67.00
3568 23.5020 4320.00 4359.18 66.00
3569 23.5080 4552.00 4370.03 67.00
3570 23.5140 4508.00 4383.06 67.00
3571 23.5200 4647.00 4398.98 68.00
3572 23.5260 5028.00 4418.83 71.00
3573 23.5320 5273.00 4444.17 73.00
3574 23.5380 5666.00 4477.42 75.00
3575 23.5440 5748.00 4522.82 76.00
3576 23.5500 5927.00 4589.92 77.00
3577 23.5560 5943.00 4706.31 77.00
3578 23.5620 6273.00 4949.54 79.00
3579 23.5680 6832.00 5484.27 83.00
3580 23.5740 7353.00 6515.17 86.00
3581 23.5800 7858.00 8059.35 89.00
3582 23.5860 7673.00 9561.74 88.00
3583 23.5920 7887.00 9833.88 89.00
3584 23.5980 7887.00 8814.12 89.00
3585 23.6040 7916.00 7786.88 89.00
3586 23.6100 8493.00 7343.59 92.00
3587 23.6160 8251.00 7178.54 91.00
3588 23.6220 7548.00 6717.55 87.00
3589 23.6280 6318.00 5971.80 79.00
3590 23.6340 5710.00 5314.49 76.00
3591 23.6400 5280.00 4894.80 73.00
3592 23.6460 4836.00 4675.50 70.00
3593 23.6520 4846.00 4569.35 70.00
3594 23.6580 4666.00 4513.25 68.00
3595 23.6640 4695.00 4478.24 69.00
3596 23.6700 4654.00 4453.66 68.00
3597 23.6760 4669.00 4435.45 68.00
3598 23.6820 4531.00 4421.60 67.00
3599 23.6880 4508.00 4410.89 67.00
3600 23.6940 4476.00 4402.48 67.00
3601 23.7000 4485.00 4395.84 67.00
3602 23.7060 4474.00 4390.54 67.00
3603 23.7120 4570.00 4386.31 68.00
3604 23.7180 4481.00 4382.92 67.00
3605 23.7240 4428.00 4380.22 67.00
3606 23.7300 4499.00 4378.07 67.00
3607 23.7360 4365.00 4376.38 66.00
3608 23.7420 4304.00 4375.06 66.00
3609 23.7480 4295.00 4374.07 66.00
3610 23.7540 4321.00 4373.35 66.00
3611 23.7600 4327.00 4372.85 66.00
3612 23.7660 4275.00 4372.56 65.00
3613 23.7720 4297.00 4372.43 66.00
3614 23.7780 4351.00 4372.45 66.00
3615 23.7840 4392.00 4372.59 66.00
3616 23.7900 4398.00 4372.85 66.00
3617 23.7960 4290.00 4373.21 65.00
3618 23.8020 4393.00 4364.42 66.00
3619 23.8080 4509.00 4365.44 67.00
3620 23.8140 4470.00 4366.49 67.00
3621 23.8200 4455.00 4367.17 67.00
3622 23.8260 4428.00 4367.60 67.00
3623 23.8320 4423.00 4365.86 67.00
3624 23.8380 4478.00 4367.20 67.00
3625 23.8440 4379.00 4368.55 66.00
3626 23.8500 4470.00 4367.47 67.00
3627 23.8560 4404.00 4365.91 66.00
3628 23.8620 4514.00 4364.35 67.00
3629 23.8680 4608.00 4362.78 68.00
3630 23.8740 4521.00 4385.49 67.00
3631 23.8800 4452.00 4385.39 67.00
3632 23.8860 4526.00 4422.63 67.00
3633 23.8920 4542.00 4425.06 67.00
3634 23.8980 4448.00 4427.87 67.00
3635 23.9040 4447.00 4431.11 67.00
3636 23.9100 4511.00 4434.84 67.00
3637 23.9160 4493.00 4439.13 67.00
3638 23.9220 4390.00 4444.07 66.00
3639 23.9280 4364.00 4449.74 66.00
3640 23.9340 4425.00 4456.26 67.00
3641 23.9400 4436.00 4463.78 67.00
3642 23.9460 4414.00 4472.47 66.00
3643 23.9520 4419.00 4482.52 66.00
3644 23.9580 4288.00 4494.20 65.00
3645 23.9640 4364.00 4507.83 66.00
3646 23.9700 4333.00 4523.79 66.00
3647 23.9760 4390.00 4542.61 66.00
3648 23.9820 4423.00 4564.93 67.00
3649 23.9880 4357.00 4591.60 66.00
3650 23.9940 4440.00 4623.72 67.00
3651 24.0000 4517.00 4662.84 67.00
3652 24.0060 4533.00 4710.97 67.00
3653 24.0120 4533.00 4771.34 67.00
3654 24.0180 4565.00 4847.32 68.00
3655 24.0240 4774.00 4945.24 69.00
3656 24.0300 4841.00 5074.22 70.00
3657 24.0360 4878.00 5249.40 70.00
3658 24.0420 5284.00 5503.36 73.00
3659 24.0480 5535.00 5912.88 74.00
3660 24.0540 6132.00 6696.23 78.00
3661 24.0600 7642.00 8344.36 87.00
3662 24.0660 10891.00 11651.40 104.00
3663 24.0720 17995.00 17314.70 134.00
3664 24.0780 29542.00 24814.40 172.00
3665 24.0840 38483.00 31162.10 196.00
3666 24.0900 38880.00 33135.40 197.00
3667 24.0960 29864.00 29156.10 173.00
3668 24.1020 18588.00 21314.20 136.00
3669 24.1080 11652.00 14218.80 108.00
3670 24.1140 8313.00 9663.21 91.00
3671 24.1200 6768.00 7340.60 82.00
3672 24.1260 5848.00 6240.33 76.00
3673 24.1320 5419.00 5726.44 74.00
3674 24.1380 4912.00 5419.23 70.00
3675 24.1440 4856.00 5215.06 70.00
3676 24.1500 4856.00 5068.87 70.00
3677 24.1560 4702.00 5012.38 69.00
3678 24.1620 4592.00 4934.31 68.00
3679 24.1680 4618.00 4876.33 68.00
3680 24.1740 4602.00 4833.82 68.00
3681 24.1800 4609.00 4803.95 68.00
3682 24.1860 4567.00 4785.38 68.00
3683 24.1920 4609.00 4779.01 68.00
3684 24.1980 4604.00 4789.21 68.00
3685 24.2040 4546.00 4823.30 67.00
3686 24.2100 4486.00 4885.56 67.00
3687 24.2160 4584.00 4965.93 68.00
3688 24.2220 4691.00 5031.30 68.00
3689 24.2280 4662.00 5069.17 68.00
3690 24.2340 4875.00 5144.17 70.00
3691 24.2400 5056.00 5318.94 71.00
3692 24.2460 5155.00 5582.05 72.00
3693 24.2520 5331.00 5804.65 73.00
3694 24.2580 5402.00 5811.85 73.00
3695 24.2640 5301.00 5672.09 73.00
3696 24.2700 5241.00 5568.05 72.00
3697 24.2760 5155.00 5580.35 72.00
3698 24.2820 5247.00 5718.25 72.00
3699 24.2880 5677.00 5979.71 75.00
3700 24.2940 6227.00 6405.79 79.00
3701 24.3000 7229.00 7142.60 85.00
3702 24.3060 8666.00 8665.52 93.00
3703 24.3120 12320.00 11946.60 111.00
3704 24.3180 19510.00 18063.00 140.00
3705 24.3240 30995.00 27159.50 176.00
3706 24.3300 40635.00 36434.40 202.00
3707 24.3360 39762.00 39939.70 199.00
3708 24.3420 32583.00 36124.00 181.00
3709 24.3480 27585.00 30176.60 166.00
3710 24.3540 27811.00 27966.70 167.00
3711 24.3600 30619.00 30907.80 175.00
3712 24.3660 33313.00 34915.80 183.00
3713 24.3720 31606.00 32964.80 178.00
3714 24.3780 23776.00 25085.30 154.00
3715 24.3840 16143.00 16946.30 127.00
3716 24.3900 11024.00 11344.90 105.00
3717 24.3960 8508.00 8308.83 92.00
3718 24.4020 7042.00 6861.18 84.00
3719 24.4080 6211.00 6147.38 79.00
3720 24.4140 5639.00 5732.21 75.00
3721 24.4200 5237.00 5450.20 72.00
3722 24.4260 5079.00 5242.56 71.00
3723 24.4320 4887.00 5083.63 70.00
3724 24.4380 4830.00 4958.44 69.00
3725 24.4440 4785.00 4858.53 69.00
3726 24.4500 4724.00 4777.17 69.00
3727 24.4560 4535.00 4709.95 67.00
3728 24.4620 4489.00 4653.65 67.00
3729 24.4680 4575.00 4604.46 68.00
3730 24.4740 4557.00 4666.14 68.00
3731 24.4800 4476.00 4636.97 67.00
3732 24.4860 4580.00 4612.87 68.00
3733 24.4920 4525.00 4593.14 67.00
3734 24.4980 4519.00 4577.21 67.00
3735 24.5040 4526.00 4564.68 67.00
3736 24.5100 4471.00 4555.26 67.00
3737 24.5160 4441.00 4548.72 67.00
3738 24.5220 4472.00 4544.97 67.00
3739 24.5280 4533.00 4543.92 67.00
3740 24.5340 4359.00 4545.61 66.00
3741 24.5400 4343.00 4550.14 66.00
3742 24.5460 4431.00 4557.65 67.00
3743 24.5520 4458.00 4527.57 67.00
3744 24.5580 4524.00 4525.92 67.00
3745 24.5640 4526.00 4547.58 67.00
3746 24.5700 4482.00 4573.76 67.00
3747 24.5760 4518.00 4605.29 67.00
3748 24.5820 4541.00 4643.29 67.00
3749 24.5880 4615.00 4640.90 68.00
3750 24.5940 4587.00 4704.07 68.00
3751 24.6000 4640.00 4774.90 68.00
3752 24.6060 4693.00 4862.19 69.00
3753 24.6120 4754.00 4969.62 69.00
3754 24.6180 4894.00 5104.84 70.00
3755 24.6240 4990.00 5277.95 71.00
3756 24.6300 5168.00 5504.10 72.00
3757 24.6360 5418.00 5807.54 74.00
3758 24.6420 5889.00 6232.44 77.00
3759 24.6480 6538.00 6884.24 81.00
3760 24.6540 7580.00 8063.60 87.00
3761 24.6600 9458.00 10570.80 97.00
3762 24.6660 13517.00 15985.40 116.00
3763 24.6720 24461.00 26151.40 156.00
3764 24.6780 46285.00 41095.70 215.00
3765 24.6840 65948.00 55710.60 257.00
3766 24.6900 63154.00 58594.50 251.00
3767 24.6960 43555.00 46635.90 209.00
3768 24.7020 25827.00 30859.70 161.00
3769 24.7080 15970.00 18883.30 126.00
3770 24.7140 11064.00 12022.60 105.00
3771 24.7200 8673.00 8746.49 93.00
3772 24.7260 7366.00 7252.66 86.00
3773 24.7320 6520.00 6492.42 81.00
3774 24.7380 6234.00 6044.97 79.00
3775 24.7440 5993.00 5783.63 77.00
3776 24.7500 5789.00 5691.59 76.00
3777 24.7560 5918.00 5780.18 77.00
3778 24.7620 6250.00 6016.42 79.00
3779 24.7680 6538.00 6241.44 81.00
3780 24.7740 6402.00 6200.35 80.00
3781 24.7800 6077.00 5949.83 78.00
3782 24.7860 5946.00 5835.93 77.00
3783 24.7920 6281.00 6076.87 79.00
3784 24.7980 7195.00 6646.76 85.00
3785 24.8040 7889.00 7194.08 89.00
3786 24.8100 7778.00 7157.01 88.00
3787 24.8160 6692.00 6551.45 82.00
3788 24.8220 5794.00 5831.33 76.00
3789 24.8280 5222.00 5235.97 72.00
3790 24.8340 4898.00 4842.83 70.00
3791 24.8400 4727.00 4618.30 69.00
3792 24.8460 4662.00 4495.36 68.00
3793 24.8520 4408.00 4424.43 66.00
3794 24.8580 4373.00 4378.35 66.00
3795 24.8640 4453.00 4344.60 67.00
3796 24.8700 4409.00 4317.88 66.00
3797 24.8760 4352.00 4295.82 66.00
3798 24.8820 4299.00 4277.13 66.00
3799 24.8880 4323.00 4261.00 66.00
3800 24.8940 4330.00 4246.89 66.00
3801 24.9000 4349.00 4234.38 66.00
3802 24.9060 4242.00 4124.44 65.00
3803 24.9120 4192.00 4119.53 65.00
3804 24.9180 4280.00 4115.12 65.00
3805 24.9240 4305.00 4111.13 66.00
3806 24.9300 4299.00 4107.47 66.00
3807 24.9360 4233.00 4104.08 65.00
3808 24.9420 4262.00 4100.92 65.00
3809 24.9480 4442.00 4097.96 67.00
3810 24.9540 4589.00 4095.15 68.00
3811 24.9600 4803.00 4092.49 69.00
3812 24.9660 4953.00 4089.94 70.00
3813 24.9720 4900.00 4087.50 70.00
3814 24.9780 4807.00 4085.14 69.00
3815 24.9840 4565.00 4082.86 68.00
3816 24.9900 4347.00 4078.36 66.00
3817 24.9960 4311.00 4076.33 66.00
3818 25.0020 4298.00 4074.34 66.00
3819 25.0080 4191.00 4072.38 65.00
3820 25.0140 4085.00 4070.47 64.00
3821 25.0200 4081.00 4068.58 64.00
3822 25.0260 4138.00 4062.15 64.00
3823 25.0320 4109.00 4060.55 64.00
3824 25.0380 3964.00 4058.95 63.00
3825 25.0440 4041.00 4056.78 64.00
3826 25.0500 4112.00 4055.22 64.00
3827 25.0560 4075.00 4069.22 64.00
3828 25.0620 4071.00 4068.54 64.00
3829 25.0680 4012.00 4067.94 63.00
3830 25.0740 3954.00 4067.43 63.00
3831 25.0800 3924.00 4067.02 63.00
3832 25.0860 3978.00 4068.96 63.00
3833 25.0920 3956.00 4068.92 63.00
3834 25.0980 3917.00 4069.02 63.00
3835 25.1040 3938.00 4069.30 63.00
3836 25.1100 3932.00 4069.79 63.00
3837 25.1160 3908.00 4070.50 63.00
3838 25.1220 3912.00 4071.48 63.00
3839 25.1280 3929.00 4072.77 63.00
3840 25.1340 3891.00 4074.42 62.00
3841 25.1400 3908.00 4076.50 63.00
3842 25.1460 3994.00 4084.27 63.00
3843 25.1520 3958.00 4087.75 63.00
3844 25.1580 3949.00 4091.99 63.00
3845 25.1640 4008.00 4097.14 63.00
3846 25.1700 4051.00 4103.40 64.00
3847 25.1760 4118.00 4127.10 64.00
3848 25.1820 4128.00 4137.38 64.00
3849 25.1880 4186.00 4149.93 65.00
3850 25.1940 4292.00 4165.39 66.00
3851 25.2000 4302.00 4184.63 66.00
3852 25.2060 4341.00 4208.90 66.00
3853 25.2120 4424.00 4240.01 67.00
3854 25.2180 4498.00 4280.70 67.00
3855 25.2240 4662.00 4335.37 68.00
3856 25.2300 4792.00 4412.73 69.00
3857 25.2360 5051.00 4534.96 71.00
3858 25.2420 5650.00 4763.97 75.00
3859 25.2480 6635.00 5248.64 81.00
3860 25.2540 7900.00 6244.45 89.00
3861 25.2600 9073.00 7983.55 95.00
3862 25.2660 9724.00 10334.50 99.00
3863 25.2720 9847.00 12332.20 99.00
3864 25.2780 9684.00 12360.60 98.00
3865 25.2840 9165.00 10535.80 96.00
3866 25.2900 8373.00 8530.41 92.00
3867 25.2960 7518.00 7198.07 87.00
3868 25.3020 6694.00 6438.89 82.00
3869 25.3080 5925.00 5848.60 77.00
3870 25.3140 5273.00 5339.04 73.00
3871 25.3200 4866.00 4976.37 70.00
3872 25.3260 4751.00 4779.94 69.00
3873 25.3320 4846.00 4737.75 70.00
3874 25.3380 5146.00 4857.07 72.00
3875 25.3440 5711.00 5194.22 76.00
3876 25.3500 6458.00 5813.34 80.00
3877 25.3560 7490.00 6673.68 87.00
3878 25.3620 8445.00 7494.38 92.00
3879 25.3680 9266.00 7889.82 96.00
3880 25.3740 10057.00 8181.20 100.00
3881 25.3800 10937.00 9148.09 105.00
3882 25.3860 12010.00 10957.80 110.00
3883 25.3920 12956.00 12686.00 114.00
3884 25.3980 12778.00 12574.20 113.00
3885 25.4040 10803.00 10498.00 104.00
3886 25.4100 8235.00 8081.90 91.00
3887 25.4160 6416.00 6293.33 80.00
3888 25.4220 5403.00 5263.54 74.00
3889 25.4280 4907.00 4757.20 70.00
3890 25.4340 4660.00 4514.28 68.00
3891 25.4400 4461.00 4382.38 67.00
3892 25.4460 4406.00 4297.41 66.00
3893 25.4520 4593.00 4242.33 68.00
3894 25.4580 4675.00 4196.28 68.00
3895 25.4640 4604.00 4160.35 68.00
3896 25.4700 4442.00 4131.70 67.00
3897 25.4760 4336.00 4108.42 66.00
3898 25.4820 4195.00 4089.20 65.00
3899 25.4880 4122.00 4073.13 64.00
3900 25.4940 4117.00 4059.52 64.00
3901 25.5000 4018.00 4033.20 63.00
3902 25.5060 4004.00 4023.94 63.00
3903 25.5120 4001.00 4015.95 63.00
3904 25.5180 4005.00 4009.04 63.00
3905 25.5240 3972.00 4003.04 63.00
3906 25.5300 3899.00 3995.83 62.00
3907 25.5360 3819.00 3991.46 62.00
3908 25.5420 3834.00 3987.73 62.00
3909 25.5480 3860.00 3984.62 62.00
3910 25.5540 3919.00 3982.11 63.00
3911 25.5600 3929.00 3980.21 63.00
3912 25.5660 3917.00 3978.94 63.00
3913 25.5720 3836.00 3978.37 62.00
3914 25.5780 3835.00 3998.10 62.00
3915 25.5840 3868.00 4010.37 62.00
3916 25.5900 3926.00 4018.92 63.00
3917 25.5960 3928.00 4034.02 63.00
3918 25.6020 3966.00 4050.93 63.00
3919 25.6080 3959.00 4070.27 63.00
3920 25.6140 3944.00 4107.83 63.00
3921 25.6200 3952.00 4120.83 63.00
3922 25.6260 3954.00 4171.13 63.00
3923 25.6320 4037.00 4222.50 64.00
3924 25.6380 4136.00 4306.23 64.00
3925 25.6440 4286.00 4468.05 65.00
3926 25.6500 4503.00 4793.97 67.00
3927 25.6560 5134.00 5380.41 72.00
3928 25.6620 6392.00 6230.64 80.00
3929 25.6680 7751.00 7091.02 88.00
3930 25.6740 7823.00 7369.44 88.00
3931 25.6800 6554.00 6797.95 81.00
3932 25.6860 5329.00 5917.12 73.00
3933 25.6920 4702.00 5203.19 69.00
3934 25.6980 4422.00 4766.98 66.00
3935 25.7040 4314.00 4555.66 66.00
3936 25.7100 4292.00 4472.65 66.00
3937 25.7160 4167.00 4442.96 65.00
3938 25.7220 4070.00 4438.35 64.00
3939 25.7280 4111.00 4447.78 64.00
3940 25.7340 4147.00 4467.92 64.00
3941 25.7400 4122.00 4498.33 64.00
3942 25.7460 4160.00 4540.12 64.00
3943 25.7520 4175.00 4596.33 65.00
3944 25.7580 4334.00 4674.11 66.00
3945 25.7640 4365.00 4792.47 66.00
3946 25.7700 4506.00 5000.42 67.00
3947 25.7760 4839.00 5400.55 70.00
3948 25.7820 5693.00 6140.09 75.00
3949 25.7880 7465.00 7309.95 86.00
3950 25.7940 9387.00 8744.69 97.00
3951 25.8000 9985.00 9820.52 100.00
3952 25.8060 9448.00 9878.05 97.00
3953 25.8120 8450.00 9424.08 92.00
3954 25.8180 8461.00 9642.92 92.00
3955 25.8240 10428.00 11270.70 102.00
3956 25.8300 15392.00 14244.10 124.00
3957 25.8360 20300.00 17325.30 142.00
3958 25.8420 20811.00 18557.80 144.00
3959 25.8480 17380.00 17225.00 132.00
3960 25.8540 12828.00 13979.30 113.00
3961 25.8600 9048.00 10537.20 95.00
3962 25.8660 7014.00 8034.36 84.00
3963 25.8720 6198.00 6586.74 79.00
3964 25.8780 6088.00 5892.07 78.00
3965 25.8840 6013.00 5642.94 78.00
3966 25.8900 6297.00 5698.47 79.00
3967 25.8960 6699.00 6073.74 82.00
3968 25.9020 7432.00 6817.89 86.00
3969 25.9080 8000.00 7864.83 89.00
3970 25.9140 8403.00 8800.09 92.00
3971 25.9200 8713.00 9020.90 93.00
3972 25.9260 8999.00 8601.67 95.00
3973 25.9320 8350.00 7926.20 91.00
3974 25.9380 7268.00 7058.84 85.00
3975 25.9440 6228.00 6206.27 79.00
3976 25.9500 5605.00 5574.02 75.00
3977 25.9560 5335.00 5184.01 73.00
3978 25.9620 5182.00 4972.32 72.00
3979 25.9680 4906.00 4863.74 70.00
3980 25.9740 4858.00 4805.23 70.00
3981 25.9800 4860.00 4769.80 70.00
3982 25.9860 4931.00 4754.62 70.00
3983 25.9920 4826.00 4738.76 69.00
3984 25.9980 4760.00 4727.98 69.00
3985 26.0040 4743.00 4733.26 69.00
3986 26.0100 4792.00 4704.72 69.00
3987 26.0160 4780.00 4678.50 69.00
3988 26.0220 4748.00 4654.15 69.00
3989 26.0280 4610.00 4627.75 68.00
3990 26.0340 4649.00 4601.63 68.00
3991 26.0400 4517.00 4581.67 67.00
3992 26.0460 4605.00 4562.69 68.00
3993 26.0520 4570.00 4544.60 68.00
3994 26.0580 4575.00 4527.36 68.00
3995 26.0640 4566.00 4496.46 68.00
3996 26.0700 4575.00 4481.56 68.00
3997 26.0760 4563.00 4454.54 68.00
3998 26.0820 4433.00 4441.87 67.00
3999 26.0880 4420.00 4430.04 66.00
4000 26.0940 4400.00 4419.14 66.00
4001 26.1000 4456.00 4409.33 67.00
4002 26.1060 4413.00 4400.78 66.00
4003 26.1120 4360.00 4393.74 66.00
4004 26.1180 4334.00 4388.52 66.00
4005 26.1240 4244.00 4385.54 65.00
4006 26.1300 4270.00 4389.01 65.00
4007 26.1360 4253.00 4403.37 65.00
4008 26.1420 4399.00 4422.32 66.00
4009 26.1480 4383.00 4472.28 66.00
4010 26.1540 4294.00 4507.47 66.00
4011 26.1600 4397.00 4551.05 66.00
4012 26.1660 4472.00 4615.03 67.00
4013 26.1720 4634.00 4754.73 68.00
4014 26.1780 4726.00 4908.08 69.00
4015 26.1840 5266.00 5189.61 73.00
4016 26.1900 5959.00 5735.61 77.00
4017 26.1960 6826.00 6738.22 83.00
4018 26.2020 8219.00 8359.37 91.00
4019 26.2080 9953.00 10539.70 100.00
4020 26.2140 11528.00 12742.40 107.00
4021 26.2200 13557.00 14394.30 116.00
4022 26.2260 14828.00 15322.60 122.00
4023 26.2320 13423.00 14639.00 116.00
4024 26.2380 10856.00 12177.50 104.00
4025 26.2440 8332.00 9398.44 91.00
4026 26.2500 6652.00 7293.01 82.00
4027 26.2560 5762.00 6027.95 76.00
4028 26.2620 5178.00 5383.00 72.00
4029 26.2680 4901.00 5078.60 70.00
4030 26.2740 4803.00 4930.49 69.00
4031 26.2800 4642.00 4853.02 68.00
4032 26.2860 4551.00 4814.05 67.00
4033 26.2920 4641.00 4802.18 68.00
4034 26.2980 4632.00 4813.44 68.00
4035 26.3040 4758.00 4847.20 69.00
4036 26.3100 4834.00 4905.34 70.00
4037 26.3160 4901.00 4992.56 70.00
4038 26.3220 5066.00 5117.50 71.00
4039 26.3280 5458.00 5297.20 74.00
4040 26.3340 5933.00 5572.33 77.00
4041 26.3400 6785.00 6048.90 82.00
4042 26.3460 8318.00 6976.06 91.00
4043 26.3520 11140.00 8796.32 106.00
4044 26.3580 14979.00 12002.50 122.00
4045 26.3640 18408.00 16684.90 136.00
4046 26.3700 21291.00 21879.30 146.00
4047 26.3760 24383.00 25301.40 156.00
4048 26.3820 27674.00 26267.80 166.00
4049 26.3880 30387.00 27618.30 174.00
4050 26.3940 33379.00 30669.20 183.00
4051 26.4000 34455.00 32570.40 186.00
4052 26.4060 30111.00 29198.40 174.00
4053 26.4120 21191.00 22082.60 146.00
4054 26.4180 14085.00 15246.50 119.00
4055 26.4240 9797.00 10488.40 99.00
4056 26.4300 7798.00 7775.39 88.00
4057 26.4360 6676.00 6411.67 82.00
4058 26.4420 6008.00 5726.04 78.00
4059 26.4480 5430.00 5326.73 74.00
4060 26.4540 5236.00 5071.73 72.00
4061 26.4600 5053.00 4866.68 71.00
4062 26.4660 4857.00 4722.83 70.00
4063 26.4720 4721.00 4654.94 69.00
4064 26.4780 4637.00 4598.12 68.00
4065 26.4840 4595.00 4529.03 68.00
4066 26.4900 4591.00 4506.24 68.00
4067 26.4960 4580.00 4507.83 68.00
4068 26.5020 4634.00 4475.35 68.00
4069 26.5080 4483.00 4450.28 67.00
4070 26.5140 4577.00 4431.56 68.00
4071 26.5200 4606.00 4418.48 68.00
4072 26.5260 4665.00 4410.58 68.00
4073 26.5320 4965.00 4407.55 70.00
4074 26.5380 5239.00 4409.30 72.00
4075 26.5440 5239.00 4415.87 72.00
4076 26.5500 5069.00 4427.47 71.00
4077 26.5560 4772.00 4444.48 69.00
4078 26.5620 4646.00 4471.96 68.00
4079 26.5680 4532.00 4502.00 67.00
4080 26.5740 4501.00 4539.99 67.00
4081 26.5800 4551.00 4587.51 67.00
4082 26.5860 4601.00 4646.62 68.00
4083 26.5920 4718.00 4720.25 69.00
4084 26.5980 4617.00 4812.65 68.00
4085 26.6040 4879.00 4930.27 70.00
4086 26.6100 5059.00 5055.99 71.00
4087 26.6160 5383.00 5276.19 73.00
4088 26.6220 5740.00 5628.19 76.00
4089 26.6280 6812.00 6260.64 83.00
4090 26.6340 8288.00 7369.44 91.00
4091 26.6400 9976.00 9271.13 100.00
4092 26.6460 11223.00 11852.80 106.00
4093 26.6520 12400.00 14384.10 111.00
4094 26.6580 12699.00 15449.50 113.00
4095 26.6640 13804.00 14818.60 117.00
4096 26.6700 14969.00 14240.70 122.00
4097 26.6760 17660.00 15396.90 133.00
4098 26.6820 22487.00 19374.30 150.00
4099 26.6880 28151.00 26811.60 168.00
4100 26.6940 35278.00 37915.40 188.00
4101 26.7000 47985.00 51135.60 219.00
4102 26.7060 65476.00 62260.70 256.00
4103 26.7120 76757.00 68422.60 277.00
4104 26.7180 74144.00 68220.80 272.00
4105 26.7240 59954.00 60306.70 245.00
4106 26.7300 41655.00 46172.30 204.00
4107 26.7360 27380.00 31478.60 165.00
4108 26.7420 17260.00 20405.80 131.00
4109 26.7480 11998.00 13585.10 110.00
4110 26.7540 9156.00 9923.87 96.00
4111 26.7600 7604.00 8090.40 87.00
4112 26.7660 6854.00 7183.90 83.00
4113 26.7720 6313.00 6793.81 79.00
4114 26.7780 6248.00 6784.63 79.00
4115 26.7840 7050.00 7064.95 84.00
4116 26.7900 7601.00 7407.78 87.00
4117 26.7960 7258.00 7384.17 85.00
4118 26.8020 6545.00 6800.48 81.00
4119 26.8080 6040.00 6007.49 78.00
4120 26.8140 5373.00 5331.50 73.00
4121 26.8200 5018.00 4870.33 71.00
4122 26.8260 4686.00 4591.47 68.00
4123 26.8320 4520.00 4425.06 67.00
4124 26.8380 4331.00 4314.50 66.00
4125 26.8440 4209.00 4231.66 65.00
4126 26.8500 4328.00 4164.33 66.00
4127 26.8560 4081.00 4107.38 64.00
4128 26.8620 4094.00 4058.19 64.00
4129 26.8680 3977.00 4015.08 63.00
4130 26.8740 3923.00 3976.90 63.00
4131 26.8800 3873.00 3942.78 62.00
4132 26.8860 3866.00 3912.01 62.00
4133 26.8920 3818.00 3868.64 62.00
4134 26.8980 3691.00 3843.88 61.00
4135 26.9040 3622.00 3821.15 60.00
4136 26.9100 3788.00 3800.60 62.00
4137 26.9160 3704.00 3781.16 61.00
4138 26.9220 3738.00 3758.79 61.00
4139 26.9280 3720.00 3742.08 61.00
4140 26.9340 3660.00 3726.40 60.00
4141 26.9400 3477.00 3669.35 59.00
4142 26.9460 3684.00 3626.79 61.00
4143 26.9520 3495.00 3617.05 59.00
4144 26.9580 3541.00 3577.62 60.00
4145 26.9640 3497.00 3529.24 59.00
4146 26.9700 3664.00 3524.12 61.00
4147 26.9760 3528.00 3519.18 59.00
4148 26.9820 3717.00 3514.44 61.00
4149 26.9880 3604.00 3509.95 60.00
4150 26.9940 3524.00 3505.76 59.00
4151 27.0000 3576.00 3501.97 60.00
4152 27.0060 3593.00 3498.72 60.00
4153 27.0120 3612.00 3496.26 60.00
4154 27.0180 3586.00 3495.12 60.00
4155 27.0240 3588.00 3496.67 60.00
4156 27.0300 3519.00 3500.07 59.00
4157 27.0360 3563.00 3521.88 60.00
4158 27.0420 3710.00 3568.92 61.00
4159 27.0480 3663.00 3650.16 61.00
4160 27.0540 3826.00 3758.33 62.00
4161 27.0600 4009.00 3851.83 63.00
4162 27.0660 3950.00 3858.53 63.00
4163 27.0720 3861.00 3767.54 62.00
4164 27.0780 3699.00 3648.51 61.00
4165 27.0840 3687.00 3551.55 61.00
4166 27.0900 3671.00 3489.55 61.00
4167 27.0960 3544.00 3455.75 60.00
4168 27.1020 3471.00 3439.14 59.00
4169 27.1080 3469.00 3433.02 59.00
4170 27.1140 3450.00 3437.08 59.00
4171 27.1200 3509.00 3455.76 59.00
4172 27.1260 3536.00 3493.63 59.00
4173 27.1320 3539.00 3547.62 59.00
4174 27.1380 3628.00 3607.05 60.00
4175 27.1440 3563.00 3613.36 60.00
4176 27.1500 3442.00 3576.94 59.00
4177 27.1560 3385.00 3509.63 58.00
4178 27.1620 3382.00 3452.71 58.00
4179 27.1680 3342.00 3414.75 58.00
4180 27.1740 3331.00 3392.62 58.00
4181 27.1800 3300.00 3379.98 57.00
4182 27.1860 3228.00 3371.94 57.00
4183 27.1920 3228.00 3366.01 57.00
4184 27.1980 3195.00 3361.17 57.00
4185 27.2040 3190.00 3357.08 56.00
4186 27.2100 3323.00 3353.59 58.00
4187 27.2160 3345.00 3351.41 58.00
4188 27.2220 3333.00 3353.57 58.00
4189 27.2280 3226.00 3356.28 57.00
4190 27.2340 3311.00 3359.58 58.00
4191 27.2400 3354.00 3363.52 58.00
4192 27.2460 3282.00 3368.18 57.00
4193 27.2520 3314.00 3373.69 58.00
4194 27.2580 3313.00 3380.19 58.00
4195 27.2640 3308.00 3387.86 58.00
4196 27.2700 3346.00 3396.95 58.00
4197 27.2760 3303.00 3407.78 57.00
4198 27.2820 3320.00 3420.76 58.00
4199 27.2880 3307.00 3436.43 58.00
4200 27.2940 3278.00 3455.56 57.00
4201 27.3000 3356.00 3479.14 58.00
4202 27.3060 3573.00 3507.87 60.00
4203 27.3120 3576.00 3545.34 60.00
4204 27.3180 3498.00 3593.92 59.00
4205 27.3240 3575.00 3659.09 60.00
4206 27.3300 3755.00 3752.71 61.00
4207 27.3360 4011.00 3903.85 63.00
4208 27.3420 4482.00 4180.75 67.00
4209 27.3480 5259.00 4715.05 73.00
4210 27.3540 6270.00 5691.44 79.00
4211 27.3600 7548.00 7262.70 87.00
4212 27.3660 9163.00 9368.46 96.00
4213 27.3720 10863.00 11477.60 104.00
4214 27.3780 12436.00 12807.40 112.00
4215 27.3840 13103.00 13221.70 114.00
4216 27.3900 12143.00 12492.00 110.00
4217 27.3960 9775.00 10478.30 99.00
4218 27.4020 7257.00 8115.93 85.00
4219 27.4080 5634.00 6232.43 75.00
4220 27.4140 4740.00 5013.24 69.00
4221 27.4200 4223.00 4337.71 65.00
4222 27.4260 3961.00 3992.31 63.00
4223 27.4320 3749.00 3810.52 61.00
4224 27.4380 3680.00 3702.27 61.00
4225 27.4440 3585.00 3629.04 60.00
4226 27.4500 3484.00 3575.35 59.00
4227 27.4560 3482.00 3534.55 59.00
4228 27.4620 3431.00 3502.91 59.00
4229 27.4680 3430.00 3478.08 59.00
4230 27.4740 3441.00 3458.45 59.00
4231 27.4800 3361.00 3442.92 58.00
4232 27.4860 3322.00 3430.66 58.00
4233 27.4920 3340.00 3421.14 58.00
4234 27.4980 3309.00 3413.96 58.00
4235 27.5040 3312.00 3408.84 58.00
4236 27.5100 3275.00 3405.62 57.00
4237 27.5160 3231.00 3404.24 57.00
4238 27.5220 3260.00 3404.69 57.00
4239 27.5280 3305.00 3407.08 57.00
4240 27.5340 3360.00 3411.59 58.00
4241 27.5400 3353.00 3418.54 58.00
4242 27.5460 3310.00 3428.41 58.00
4243 27.5520 3318.00 3441.89 58.00
4244 27.5580 3368.00 3460.02 58.00
4245 27.5640 3366.00 3484.35 58.00
4246 27.5700 3422.00 3517.47 58.00
4247 27.5760 3442.00 3564.63 59.00
4248 27.5820 3470.00 3638.45 59.00
4249 27.5880 3687.00 3770.24 61.00
4250 27.5940 4055.00 4025.97 64.00
4251 27.6000 4575.00 4508.22 68.00
4252 27.6060 5312.00 5311.65 73.00
4253 27.6120 6151.00 6422.96 78.00
4254 27.6180 6823.00 7580.66 83.00
4255 27.6240 7346.00 8284.52 86.00
4256 27.6300 7752.00 8369.73 88.00
4257 27.6360 8168.00 8400.95 90.00
4258 27.6420 8476.00 8595.51 92.00
4259 27.6480 8240.00 8477.17 91.00
4260 27.6540 7244.00 7585.34 85.00
4261 27.6600 5987.00 6315.34 77.00
4262 27.6660 4874.00 5205.04 70.00
4263 27.6720 4254.00 4452.58 65.00
4264 27.6780 3805.00 4023.32 62.00
4265 27.6840 3570.00 3794.65 60.00
4266 27.6900 3431.00 3660.03 59.00
4267 27.6960 3413.00 3566.62 58.00
4268 27.7020 3399.00 3498.10 58.00
4269 27.7080 3414.00 3448.36 58.00
4270 27.7140 3483.00 3412.67 59.00
4271 27.7200 3484.00 3386.67 59.00
4272 27.7260 3643.00 3366.96 60.00
4273 27.7320 3877.00 3351.36 62.00
4274 27.7380 3953.00 3338.61 63.00
4275 27.7440 3883.00 3327.96 62.00
4276 27.7500 3653.00 3318.93 60.00
4277 27.7560 3531.00 3311.19 59.00
4278 27.7620 3420.00 3304.49 58.00
4279 27.7680 3336.00 3298.62 58.00
4280 27.7740 3272.00 3327.69 57.00
4281 27.7800 3098.00 3324.85 56.00
4282 27.7860 3043.00 3322.64 55.00
4283 27.7920 3067.00 3320.99 55.00
4284 27.7980 3089.00 3319.85 56.00
4285 27.8040 3061.00 3319.20 55.00
4286 27.8100 3092.00 3319.02 56.00
4287 27.8160 3232.00 3320.12 57.00
4288 27.8220 3265.00 3321.68 57.00
4289 27.8280 3201.00 3323.71 57.00
4290 27.8340 3187.00 3329.27 56.00
4291 27.8400 3186.00 3332.46 56.00
4292 27.8460 3212.00 3336.23 57.00
4293 27.8520 3197.00 3340.63 57.00
4294 27.8580 3210.00 3345.72 57.00
4295 27.8640 3239.00 3360.57 57.00
4296 27.8700 3246.00 3360.91 57.00
4297 27.8760 3222.00 3369.51 57.00
4298 27.8820 3213.00 3379.30 57.00
4299 27.8880 3243.00 3390.51 57.00
4300 27.8940 3255.00 3395.74 57.00
4301 27.9000 3229.00 3410.98 57.00
4302 27.9060 3223.00 3428.63 57.00
4303 27.9120 3281.00 3449.21 57.00
4304 27.9180 3315.00 3473.44 58.00
4305 27.9240 3352.00 3502.19 58.00
4306 27.9300 3458.00 3536.71 59.00
4307 27.9360 3503.00 3578.87 59.00
4308 27.9420 3488.00 3630.87 59.00
4309 27.9480 3606.00 3696.10 60.00
4310 27.9540 3745.00 3779.52 61.00
4311 27.9600 3814.00 3889.13 62.00
4312 27.9660 3911.00 4040.58 63.00
4313 27.9720 4151.00 4271.46 64.00
4314 27.9780 4577.00 4675.82 68.00
4315 27.9840 5163.00 5469.66 72.00
4316 27.9900 6491.00 7029.21 81.00
4317 27.9960 9617.00 9789.29 98.00
4318 28.0020 15582.00 13877.80 125.00
4319 28.0080 21957.00 18536.50 148.00
4320 28.0140 24811.00 21584.80 158.00
4321 28.0200 22487.00 20663.80 150.00
4322 28.0260 17151.00 16591.50 131.00
4323 28.0320 12029.00 12044.10 110.00
4324 28.0380 8725.00 8565.38 93.00
4325 28.0440 6594.00 6460.08 81.00
4326 28.0500 5608.00 5436.47 75.00
4327 28.0560 5441.00 5100.49 74.00
4328 28.0620 5562.00 5182.65 75.00
4329 28.0680 5874.00 5521.91 77.00
4330 28.0740 6079.00 5962.22 78.00
4331 28.0800 6485.00 6327.73 81.00
4332 28.0860 7111.00 6673.61 84.00
4333 28.0920 7740.00 7264.00 88.00
4334 28.0980 8277.00 8085.63 91.00
4335 28.1040 8709.00 8614.62 93.00
4336 28.1100 8385.00 8188.29 92.00
4337 28.1160 7026.00 7005.35 84.00
4338 28.1220 5609.00 5751.49 75.00
4339 28.1280 4761.00 4799.33 69.00
4340 28.1340 4067.00 4208.96 64.00
4341 28.1400 3710.00 3889.42 61.00
4342 28.1460 3539.00 3723.89 59.00
4343 28.1520 3363.00 3632.03 58.00
4344 28.1580 3401.00 3573.98 58.00
4345 28.1640 3392.00 3533.46 58.00
4346 28.1700 3416.00 3504.34 58.00
4347 28.1760 3333.00 3484.76 58.00
4348 28.1820 3324.00 3475.78 58.00
4349 28.1880 3273.00 3481.77 57.00
4350 28.1940 3283.00 3510.21 57.00
4351 28.2000 3351.00 3569.15 58.00
4352 28.2060 3413.00 3660.64 58.00
4353 28.2120 3476.00 3769.07 59.00
4354 28.2180 3637.00 3860.72 60.00
4355 28.2240 3674.00 3912.90 61.00
4356 28.2300 3525.00 3896.11 59.00
4357 28.2360 3370.00 3790.75 58.00
4358 28.2420 3256.00 3648.45 57.00
4359 28.2480 3191.00 3525.14 56.00
4360 28.2540 3195.00 3439.98 57.00
4361 28.2600 3195.00 3373.95 57.00
4362 28.2660 3203.00 3329.64 57.00
4363 28.2720 3242.00 3315.41 57.00
4364 28.2780 3157.00 3306.79 56.00
4365 28.2840 3244.00 3300.83 57.00
4366 28.2900 3234.00 3296.33 57.00
4367 28.2960 3236.00 3292.78 57.00
4368 28.3020 3250.00 3289.89 57.00
4369 28.3080 3351.00 3287.52 58.00
4370 28.3140 3154.00 3285.54 56.00
4371 28.3200 3185.00 3283.86 56.00
4372 28.3260 3168.00 3279.50 56.00
4373 28.3320 3179.00 3278.42 56.00
4374 28.3380 3143.00 3277.49 56.00
4375 28.3440 3140.00 3276.69 56.00
4376 28.3500 3210.00 3277.24 57.00
4377 28.3560 3227.00 3269.53 57.00
4378 28.3620 3118.00 3270.64 56.00
4379 28.3680 3068.00 3271.80 55.00
4380 28.3740 3159.00 3272.99 56.00
4381 28.3800 3187.00 3274.21 56.00
4382 28.3860 3132.00 3275.46 56.00
4383 28.3920 3170.00 3276.74 56.00
4384 28.3980 3130.00 3278.03 56.00
4385 28.4040 3169.00 3279.34 56.00
4386 28.4100 3130.00 3280.67 56.00
4387 28.4160 3239.00 3282.01 57.00
4388 28.4220 3182.00 3283.36 56.00
4389 28.4280 3216.00 3284.72 57.00
4390 28.4340 3102.00 3298.08 56.00
4391 28.4400 3132.00 3300.06 56.00
4392 28.4460 3234.00 3305.13 57.00
4393 28.4520 3300.00 3307.37 57.00
4394 28.4580 3138.00 3309.69 56.00
4395 28.4640 3188.00 3311.70 56.00
4396 28.4700 3242.00 3314.20 57.00
4397 28.4760 3330.00 3322.84 58.00
4398 28.4820 3187.00 3339.47 56.00
4399 28.4880 3232.00 3343.38 57.00
4400 28.4940 3325.00 3347.50 58.00
4401 28.5000 3224.00 3351.86 57.00
4402 28.5060 3146.00 3356.49 56.00
4403 28.5120 3229.00 3361.43 57.00
4404 28.5180 3240.00 3366.71 57.00
4405 28.5240 3303.00 3379.49 57.00
4406 28.5300 3173.00 3385.97 56.00
4407 28.5360 3299.00 3393.00 57.00
4408 28.5420 3271.00 3400.65 57.00
4409 28.5480 3262.00 3409.03 57.00
4410 28.5540 3299.00 3418.27 57.00
4411 28.5600 3277.00 3428.51 57.00
4412 28.5660 3327.00 3439.94 58.00
4413 28.5720 3368.00 3455.10 58.00
4414 28.5780 3459.00 3469.77 59.00
4415 28.5840 3474.00 3486.53 59.00
4416 28.5900 3386.00 3505.85 58.00
4417 28.5960 3336.00 3528.38 58.00
4418 28.6020 3604.00 3554.93 60.00
4419 28.6080 3456.00 3586.67 59.00
4420 28.6140 3603.00 3625.17 60.00
4421 28.6200 3702.00 3672.75 61.00
4422 28.6260 3862.00 3733.04 62.00
4423 28.6320 3902.00 3812.95 62.00
4424 28.6380 4301.00 3928.13 66.00
4425 28.6440 4328.00 4116.47 66.00
4426 28.6500 4795.00 4460.60 69.00
4427 28.6560 5300.00 5101.94 73.00
4428 28.6620 5860.00 6207.07 77.00
4429 28.6680 7154.00 7847.00 85.00
4430 28.6740 8979.00 9803.74 95.00
4431 28.6800 10342.00 11361.70 102.00
4432 28.6860 10179.00 11661.10 101.00
4433 28.6920 9932.00 10787.50 100.00
4434 28.6980 9456.00 9622.36 97.00
4435 28.7040 9893.00 9068.50 99.00
4436 28.7100 10785.00 9659.91 104.00
4437 28.7160 13523.00 11358.10 116.00
4438 28.7220 15822.00 13451.30 126.00
4439 28.7280 15681.00 14684.90 125.00
4440 28.7340 14342.00 14050.50 120.00
4441 28.7400 13181.00 11878.10 115.00
4442 28.7460 11436.00 9533.24 107.00
4443 28.7520 9749.00 7957.23 99.00
4444 28.7580 8344.00 7394.73 91.00
4445 28.7640 7477.00 7610.75 86.00
4446 28.7700 7096.00 8023.74 84.00
4447 28.7760 6557.00 7910.83 81.00
4448 28.7820 6241.00 7103.58 79.00
4449 28.7880 5680.00 6091.16 75.00
4450 28.7940 5272.00 5286.33 73.00
4451 28.8000 5353.00 4839.41 73.00
4452 28.8060 5339.00 4732.49 73.00
4453 28.8120 4995.00 4850.50 71.00
4454 28.8180 4959.00 5008.85 70.00
4455 28.8240 4811.00 4985.62 69.00
4456 28.8300 4513.00 4721.00 67.00
4457 28.8360 4302.00 4370.27 66.00
4458 28.8420 4083.00 4068.97 64.00
4459 28.8480 3746.00 3859.67 61.00
4460 28.8540 3800.00 3734.55 62.00
4461 28.8600 3757.00 3664.97 61.00
4462 28.8660 3736.00 3625.46 61.00
4463 28.8720 3592.00 3600.95 60.00
4464 28.8780 3553.00 3584.60 60.00
4465 28.8840 3562.00 3573.80 60.00
4466 28.8900 3739.00 3567.96 61.00
4467 28.8960 3849.00 3568.22 62.00
4468 28.9020 3771.00 3578.65 61.00
4469 28.9080 3910.00 3608.37 63.00
4470 28.9140 3900.00 3671.85 62.00
4471 28.9200 3928.00 3782.95 63.00
4472 28.9260 4130.00 3940.51 64.00
4473 28.9320 4509.00 4104.14 67.00
4474 28.9380 4345.00 4188.76 66.00
4475 28.9440 4373.00 4127.43 66.00
4476 28.9500 4159.00 3969.02 64.00
4477 28.9560 3923.00 3811.54 63.00
4478 28.9620 3615.00 3693.66 60.00
4479 28.9680 3500.00 3632.55 59.00
4480 28.9740 3513.00 3633.53 59.00
4481 28.9800 3821.00 3665.04 62.00
4482 28.9860 3670.00 3727.03 61.00
4483 28.9920 3781.00 3825.16 61.00
4484 28.9980 3735.00 3905.98 61.00
4485 29.0040 3638.00 3921.34 60.00
4486 29.0100 3621.00 3880.25 60.00
4487 29.0160 3650.00 3838.97 60.00
4488 29.0220 3662.00 3831.37 61.00
4489 29.0280 3644.00 3852.31 60.00
4490 29.0340 3739.00 3904.79 61.00
4491 29.0400 3655.00 3954.32 60.00
4492 29.0460 3689.00 3950.71 61.00
4493 29.0520 3830.00 3883.60 62.00
4494 29.0580 3691.00 3806.06 61.00
4495 29.0640 3877.00 3769.43 62.00
4496 29.0700 3877.00 3801.77 62.00
4497 29.0760 3914.00 3906.50 63.00
4498 29.0820 3812.00 4064.33 62.00
4499 29.0880 3937.00 4205.58 63.00
4500 29.0940 4051.00 4229.68 64.00
4501 29.1000 4011.00 4114.13 63.00
4502 29.1060 3820.00 3946.72 62.00
4503 29.1120 3732.00 3803.40 61.00
4504 29.1180 3513.00 3708.44 59.00
4505 29.1240 3566.00 3659.61 60.00
4506 29.1300 3419.00 3642.37 58.00
4507 29.1360 3410.00 3643.65 58.00
4508 29.1420 3575.00 3656.11 60.00
4509 29.1480 3493.00 3677.20 59.00
4510 29.1540 3585.00 3707.35 60.00
4511 29.1600 3642.00 3749.32 60.00
4512 29.1660 3547.00 3809.90 60.00
4513 29.1720 3622.00 3905.29 60.00
4514 29.1780 3765.00 4071.75 61.00
4515 29.1840 4133.00 4378.90 64.00
4516 29.1900 4667.00 4931.04 68.00
4517 29.1960 5473.00 5835.24 74.00
4518 29.2020 6549.00 7135.45 81.00
4519 29.2080 7677.00 8664.42 88.00
4520 29.2140 8987.00 9984.84 95.00
4521 29.2200 10249.00 10738.00 101.00
4522 29.2260 10201.00 10669.70 101.00
4523 29.2320 8870.00 9556.23 94.00
4524 29.2380 6781.00 7879.51 82.00
4525 29.2440 5222.00 6333.59 72.00
4526 29.2500 4536.00 5216.44 67.00
4527 29.2560 4110.00 4531.10 64.00
4528 29.2620 3822.00 4157.65 62.00
4529 29.2680 3701.00 3961.90 61.00
4530 29.2740 3708.00 3853.68 61.00
4531 29.2800 3609.00 3786.40 60.00
4532 29.2860 3501.00 3739.93 59.00
4533 29.2920 3436.00 3705.89 59.00
4534 29.2980 3420.00 3680.39 58.00
4535 29.3040 3406.00 3660.63 58.00
4536 29.3100 3469.00 3646.69 59.00
4537 29.3160 3398.00 3637.26 58.00
4538 29.3220 3407.00 3634.27 58.00
4539 29.3280 3413.00 3639.24 58.00
4540 29.3340 3543.00 3655.45 60.00
4541 29.3400 3546.00 3695.00 60.00
4542 29.3460 3581.00 3764.06 60.00
4543 29.3520 3734.00 3868.96 61.00
4544 29.3580 3833.00 4003.09 62.00
4545 29.3640 3906.00 4109.02 62.00
4546 29.3700 3964.00 4120.43 63.00
4547 29.3760 3877.00 4028.55 62.00
4548 29.3820 3843.00 3904.13 62.00
4549 29.3880 3668.00 3793.88 61.00
4550 29.3940 3578.00 3719.64 60.00
4551 29.4000 3606.00 3678.39 60.00
4552 29.4060 3581.00 3659.12 60.00
4553 29.4120 3565.00 3651.81 60.00
4554 29.4180 3522.00 3654.93 59.00
4555 29.4240 3532.00 3657.02 59.00
4556 29.4300 3581.00 3661.40 60.00
4557 29.4360 3589.00 3667.99 60.00
4558 29.4420 3644.00 3677.45 60.00
4559 29.4480 3745.00 3691.83 61.00
4560 29.4540 3814.00 3716.07 62.00
4561 29.4600 3912.00 3760.77 63.00
4562 29.4660 4045.00 3836.82 64.00
4563 29.4720 4003.00 3949.65 63.00
4564 29.4780 3965.00 4103.66 63.00
4565 29.4840 3970.00 4243.53 63.00
4566 29.4900 3912.00 4309.49 63.00
4567 29.4960 4001.00 4246.06 63.00
4568 29.5020 4052.00 4113.46 64.00
4569 29.5080 3955.00 3988.98 63.00
4570 29.5140 3848.00 3908.83 62.00
4571 29.5200 3867.00 3878.08 62.00
4572 29.5260 3865.00 3884.70 62.00
4573 29.5320 3808.00 3909.42 62.00
4574 29.5380 3700.00 3931.79 61.00
4575 29.5440 3773.00 3944.54 61.00
4576 29.5500 3809.00 3962.50 62.00
4577 29.5560 3918.00 4008.92 63.00
4578 29.5620 3943.00 4111.53 63.00
4579 29.5680 4119.00 4305.25 64.00
4580 29.5740 4523.00 4625.68 67.00
4581 29.5800 5290.00 5089.67 73.00
4582 29.5860 6056.00 5663.44 78.00
4583 29.5920 6660.00 6245.34 82.00
4584 29.5980 7007.00 6714.42 84.00
4585 29.6040 7075.00 7064.69 84.00
4586 29.6100 6908.00 7287.86 83.00
4587 29.6160 6902.00 7234.13 83.00
4588 29.6220 7035.00 6963.49 84.00
4589 29.6280 7083.00 6750.46 84.00
4590 29.6340 7204.00 6675.33 85.00
4591 29.6400 7149.00 6552.61 85.00
4592 29.6460 6964.00 6240.00 83.00
4593 29.6520 6581.00 5917.17 81.00
4594 29.6580 6110.00 5818.18 78.00
4595 29.6640 5872.00 6011.27 77.00
4596 29.6700 5696.00 6363.65 75.00
4597 29.6760 5519.00 6544.70 74.00
4598 29.6820 5383.00 6282.59 73.00
4599 29.6880 5275.00 5719.25 73.00
4600 29.6940 5201.00 5165.57 72.00
4601 29.7000 5064.00 4790.03 71.00
4602 29.7060 4873.00 4622.94 70.00
4603 29.7120 4708.00 4605.79 69.00
4604 29.7180 4670.00 4626.81 68.00
4605 29.7240 4500.00 4582.59 67.00
4606 29.7300 4198.00 4435.88 65.00
4607 29.7360 4080.00 4267.14 64.00
4608 29.7420 4086.00 4127.67 64.00
4609 29.7480 4016.00 4032.89 63.00
4610 29.7540 3904.00 3975.76 62.00
4611 29.7600 3872.00 3945.27 62.00
4612 29.7660 3936.00 3928.87 63.00
4613 29.7720 3876.00 3919.62 62.00
4614 29.7780 3819.00 3914.20 62.00
4615 29.7840 3891.00 3911.18 62.00
4616 29.7900 3910.00 3909.90 63.00
4617 29.7960 3893.00 3909.80 62.00
4618 29.8020 3911.00 3911.04 63.00
4619 29.8080 3913.00 3913.29 63.00
4620 29.8140 3907.00 3916.44 63.00
4621 29.8200 3978.00 3920.46 63.00
4622 29.8260 4026.00 3925.32 63.00
4623 29.8320 4010.00 3931.05 63.00
4624 29.8380 4001.00 3937.71 63.00
4625 29.8440 4071.00 3942.66 64.00
4626 29.8500 4077.00 3945.48 64.00
4627 29.8560 4023.00 3947.70 63.00
4628 29.8620 3972.00 3954.06 63.00
4629 29.8680 3948.00 3962.44 63.00
4630 29.8740 3992.00 3969.02 63.00
4631 29.8800 3981.00 3983.54 63.00
4632 29.8860 4018.00 4009.62 63.00
4633 29.8920 4067.00 4037.21 64.00
4634 29.8980 4165.00 4079.77 65.00
4635 29.9040 4243.00 4149.25 65.00
4636 29.9100 4310.00 4280.50 66.00
4637 29.9160 4415.00 4506.65 66.00
4638 29.9220 4522.00 4854.13 67.00
4639 29.9280 4827.00 5304.44 69.00
4640 29.9340 5108.00 5752.36 71.00
4641 29.9400 5313.00 5996.16 73.00
4642 29.9460 5715.00 5965.63 76.00
4643 29.9520 6045.00 5898.60 78.00
4644 29.9580 6613.00 6121.83 81.00
4645 29.9640 7423.00 6839.29 86.00
4646 29.9700 8329.00 8046.14 91.00
4647 29.9760 9222.00 9421.03 96.00
4648 29.9820 9963.00 10238.10 100.00
4649 29.9880 10151.00 9831.48 101.00
4650 29.9940 9269.00 8492.73 96.00
4651 30.0000 7750.00 6996.92 88.00
4652 30.0060 6388.00 5803.05 80.00
4653 30.0120 5585.00 5021.95 75.00
4654 30.0180 5108.00 4579.11 71.00
4655 30.0240 4787.00 4348.29 69.00
4656 30.0300 4628.00 4227.69 68.00
4657 30.0360 4495.00 4159.52 67.00
4658 30.0420 4405.00 4117.63 66.00
4659 30.0480 4387.00 4091.74 66.00
4660 30.0540 4374.00 4078.54 66.00
4661 30.0600 4408.00 4078.96 66.00
4662 30.0660 4384.00 4099.13 66.00
4663 30.0720 4401.00 4152.71 66.00
4664 30.0780 4567.00 4260.24 68.00
4665 30.0840 4592.00 4440.51 68.00
4666 30.0900 4588.00 4709.05 68.00
4667 30.0960 4734.00 4983.44 69.00
4668 30.1020 4938.00 5180.28 70.00
4669 30.1080 5208.00 5208.93 72.00
4670 30.1140 5482.00 5108.39 74.00
4671 30.1200 5829.00 5095.43 76.00
4672 30.1260 6231.00 5321.83 79.00
4673 30.1320 6697.00 5857.94 82.00
4674 30.1380 7200.00 6680.29 85.00
4675 30.1440 7558.00 7471.19 87.00
4676 30.1500 7859.00 7815.88 89.00
4677 30.1560 7823.00 7407.60 88.00
4678 30.1620 7105.00 6572.70 84.00
4679 30.1680 6376.00 5741.23 80.00
4680 30.1740 5851.00 5120.75 76.00
4681 30.1800 5443.00 4743.17 74.00
4682 30.1860 5251.00 4554.11 72.00
4683 30.1920 5134.00 4483.03 72.00
4684 30.1980 5039.00 4481.10 71.00
4685 30.2040 4905.00 4526.72 70.00
4686 30.2100 4855.00 4638.22 70.00
4687 30.2160 5089.00 4862.86 71.00
4688 30.2220 5354.00 5312.57 73.00
4689 30.2280 5991.00 6114.45 77.00
4690 30.2340 7549.00 7379.33 87.00
4691 30.2400 9955.00 9066.19 100.00
4692 30.2460 12431.00 10792.30 111.00
4693 30.2520 13390.00 11731.90 116.00
4694 30.2580 12134.00 11240.20 110.00
4695 30.2640 9853.00 9716.47 99.00
4696 30.2700 8127.00 8044.44 90.00
4697 30.2760 7035.00 6735.74 84.00
4698 30.2820 6510.00 5916.38 81.00
4699 30.2880 6363.00 5508.18 80.00
4700 30.2940 6355.00 5374.04 80.00
4701 30.3000 6399.00 5409.55 80.00
4702 30.3060 6531.00 5572.99 81.00
4703 30.3120 7043.00 5895.63 84.00
4704 30.3180 7946.00 6469.81 89.00
4705 30.3240 9648.00 7499.78 98.00
4706 30.3300 12265.00 9267.84 111.00
4707 30.3360 16333.00 12057.10 128.00
4708 30.3420 21000.00 15975.20 145.00
4709 30.3480 24720.00 20679.30 157.00
4710 30.3540 27447.00 25233.70 166.00
4711 30.3600 29075.00 29016.00 171.00
4712 30.3660 27989.00 31797.70 167.00
4713 30.3720 25194.00 32644.60 159.00
4714 30.3780 23374.00 31242.60 153.00
4715 30.3840 24460.00 29419.30 156.00
4716 30.3900 30461.00 29148.40 175.00
4717 30.3960 38730.00 30376.30 197.00
4718 30.4020 38794.00 31035.20 197.00
4719 30.4080 31028.00 29386.90 176.00
4720 30.4140 23050.00 25856.50 152.00
4721 30.4200 17785.00 21195.30 133.00
4722 30.4260 14301.00 16335.00 120.00
4723 30.4320 11254.00 12313.10 106.00
4724 30.4380 9249.00 9518.92 96.00
4725 30.4440 8099.00 7826.01 90.00
4726 30.4500 7396.00 6966.07 86.00
4727 30.4560 7228.00 6731.08 85.00
4728 30.4620 7612.00 7069.39 87.00
4729 30.4680 8542.00 8048.69 92.00
4730 30.4740 10270.00 9710.56 101.00
4731 30.4800 12359.00 11847.70 111.00
4732 30.4860 13521.00 13777.00 116.00
4733 30.4920 13069.00 14382.50 114.00
4734 30.4980 12097.00 13197.40 110.00
4735 30.5040 10817.00 11060.50 104.00
4736 30.5100 9394.00 8969.96 97.00
4737 30.5160 8186.00 7360.73 90.00
4738 30.5220 7212.00 6245.52 85.00
4739 30.5280 6686.00 5548.87 82.00
4740 30.5340 6379.00 5150.09 80.00
4741 30.5400 6140.00 4975.47 78.00
4742 30.5460 6194.00 5006.92 79.00
4743 30.5520 6463.00 5264.45 80.00
4744 30.5580 7060.00 5758.82 84.00
4745 30.5640 7846.00 6425.85 89.00
4746 30.5700 8114.00 7048.75 90.00
4747 30.5760 7770.00 7250.20 88.00
4748 30.5820 7139.00 6836.55 84.00
4749 30.5880 6478.00 6086.58 80.00
4750 30.5940 5741.00 5347.41 76.00
4751 30.6000 5154.00 4784.29 72.00
4752 30.6060 4816.00 4423.78 69.00
4753 30.6120 4545.00 4214.46 67.00
4754 30.6180 4364.00 4098.52 66.00
4755 30.6240 4247.00 4014.64 65.00
4756 30.6300 4233.00 3971.95 65.00
4757 30.6360 4097.00 3931.36 64.00
4758 30.6420 4167.00 3883.25 65.00
4759 30.6480 4255.00 3870.68 65.00
4760 30.6540 4217.00 3865.65 65.00
4761 30.6600 4166.00 3870.58 65.00
4762 30.6660 4097.00 3893.21 64.00
4763 30.6720 4122.00 3916.97 64.00
4764 30.6780 4232.00 4028.77 65.00
4765 30.6840 4480.00 4203.54 67.00
4766 30.6900 4682.00 4477.12 68.00
4767 30.6960 5250.00 4795.54 72.00
4768 30.7020 5702.00 5056.02 76.00
4769 30.7080 5598.00 5125.16 75.00
4770 30.7140 5141.00 4989.12 72.00
4771 30.7200 4597.00 4711.51 68.00
4772 30.7260 4203.00 4396.99 65.00
4773 30.7320 4105.00 4133.37 64.00
4774 30.7380 3971.00 3949.79 63.00
4775 30.7440 3899.00 3845.32 62.00
4776 30.7500 3893.00 3782.08 62.00
4777 30.7560 3733.00 3747.30 61.00
4778 30.7620 3676.00 3710.15 61.00
4779 30.7680 3718.00 3698.63 61.00
4780 30.7740 3775.00 3691.54 61.00
4781 30.7800 3640.00 3687.69 60.00
4782 30.7860 3722.00 3686.03 61.00
4783 30.7920 3784.00 3689.33 62.00
4784 30.7980 3801.00 3698.81 62.00
4785 30.8040 3804.00 3718.01 62.00
4786 30.8100 3819.00 3750.66 62.00
4787 30.8160 3819.00 3797.99 62.00
4788 30.8220 3945.00 3855.01 63.00
4789 30.8280 4130.00 3907.11 64.00
4790 30.8340 4289.00 3937.38 65.00
4791 30.8400 4464.00 3956.88 67.00
4792 30.8460 4569.00 4004.85 68.00
4793 30.8520 4777.00 4137.65 69.00
4794 30.8580 4829.00 4375.33 69.00
4795 30.8640 4724.00 4699.93 69.00
4796 30.8700 4664.00 5022.08 68.00
4797 30.8760 4649.00 5172.07 68.00
4798 30.8820 4528.00 5036.90 67.00
4799 30.8880 4345.00 4723.11 66.00
4800 30.8940 4324.00 4400.74 66.00
4801 30.9000 4289.00 4160.51 65.00
4802 30.9060 4059.00 4023.15 64.00
4803 30.9120 3914.00 3969.24 63.00
4804 30.9180 3872.00 3963.74 62.00
4805 30.9240 4011.00 3976.89 63.00
4806 30.9300 4218.00 4007.50 65.00
4807 30.9360 4254.00 4088.93 65.00
4808 30.9420 4420.00 4273.26 66.00
4809 30.9480 4616.00 4614.62 68.00
4810 30.9540 4862.00 5138.53 70.00
4811 30.9600 5052.00 5794.42 71.00
4812 30.9660 5244.00 6402.82 72.00
4813 30.9720 5498.00 6666.99 74.00
4814 30.9780 5847.00 6487.14 76.00
4815 30.9840 6217.00 6182.33 79.00
4816 30.9900 6407.00 6111.27 80.00
4817 30.9960 6827.00 6457.15 83.00
4818 31.0020 7256.00 7166.96 85.00
4819 31.0080 7666.00 7922.00 88.00
4820 31.0140 7846.00 8175.05 89.00
4821 31.0200 7361.00 7627.52 86.00
4822 31.0260 6533.00 6621.60 81.00
4823 31.0320 5569.00 5617.37 75.00
4824 31.0380 4889.00 4843.76 70.00
4825 31.0440 4345.00 4340.75 66.00
4826 31.0500 4224.00 4051.80 65.00
4827 31.0560 4020.00 3895.33 63.00
4828 31.0620 3807.00 3808.91 62.00
4829 31.0680 3736.00 3757.22 61.00
4830 31.0740 3736.00 3724.79 61.00
4831 31.0800 3629.00 3707.20 60.00
4832 31.0860 3709.00 3705.88 61.00
4833 31.0920 3729.00 3724.59 61.00
4834 31.0980 3694.00 3765.22 61.00
4835 31.1040 3837.00 3821.71 62.00
4836 31.1100 3834.00 3874.95 62.00
4837 31.1160 3884.00 3890.01 62.00
4838 31.1220 3759.00 3848.33 61.00
4839 31.1280 3684.00 3774.34 61.00
4840 31.1340 3554.00 3700.46 60.00
4841 31.1400 3469.00 3642.87 59.00
4842 31.1460 3508.00 3604.59 59.00
4843 31.1520 3467.00 3579.22 59.00
4844 31.1580 3451.00 3566.54 59.00
4845 31.1640 3446.00 3559.54 59.00
4846 31.1700 3456.00 3555.79 59.00
4847 31.1760 3432.00 3554.30 59.00
4848 31.1820 3469.00 3554.80 59.00
4849 31.1880 3549.00 3557.49 60.00
4850 31.1940 3483.00 3562.77 59.00
4851 31.2000 3465.00 3572.48 59.00
4852 31.2060 3564.00 3589.84 60.00
4853 31.2120 3651.00 3622.68 60.00
4854 31.2180 3664.00 3686.58 61.00
4855 31.2240 3862.00 3806.20 62.00
4856 31.2300 4153.00 4008.77 64.00
4857 31.2360 4593.00 4306.29 68.00
4858 31.2420 4913.00 4666.70 70.00
4859 31.2480 5167.00 4979.65 72.00
4860 31.2540 5078.00 5086.55 71.00
4861 31.2600 4808.00 4902.01 69.00
4862 31.2660 4527.00 4550.95 67.00
4863 31.2720 4229.00 4196.34 65.00
4864 31.2780 3939.00 3929.45 63.00
4865 31.2840 3787.00 3747.31 62.00
4866 31.2900 3947.00 3648.59 63.00
4867 31.2960 3946.00 3591.08 63.00
4868 31.3020 3908.00 3559.28 63.00
4869 31.3080 3740.00 3540.13 61.00
4870 31.3140 3689.00 3527.29 61.00
4871 31.3200 3662.00 3517.96 61.00
4872 31.3260 3658.00 3510.88 60.00
4873 31.3320 3492.00 3505.43 59.00
4874 31.3380 3434.00 3501.21 59.00
4875 31.3440 3471.00 3501.64 59.00
4876 31.3500 3439.00 3499.39 59.00
4877 31.3560 3393.00 3497.85 58.00
4878 31.3620 3430.00 3503.17 59.00
4879 31.3680 3450.00 3503.14 59.00
4880 31.3740 3462.00 3503.70 59.00
4881 31.3800 3448.00 3504.85 59.00
4882 31.3860 3353.00 3506.58 58.00
4883 31.3920 3413.00 3508.91 58.00
4884 31.3980 3418.00 3512.97 58.00
4885 31.4040 3451.00 3517.76 59.00
4886 31.4100 3422.00 3526.27 58.00
4887 31.4160 3468.00 3532.92 59.00
4888 31.4220 3447.00 3540.62 59.00
4889 31.4280 3384.00 3549.52 58.00
4890 31.4340 3499.00 3559.85 59.00
4891 31.4400 3473.00 3571.86 59.00
4892 31.4460 3481.00 3586.01 59.00
4893 31.4520 3544.00 3602.43 60.00
4894 31.4580 3548.00 3621.80 60.00
4895 31.4640 3571.00 3644.80 60.00
4896 31.4700 3692.00 3672.32 61.00
4897 31.4760 3572.00 3705.62 60.00
4898 31.4820 3590.00 3746.37 60.00
4899 31.4880 3608.00 3797.46 60.00
4900 31.4940 3615.00 3861.25 60.00
4901 31.5000 3809.00 3944.41 62.00
4902 31.5060 3833.00 4059.07 62.00
4903 31.5120 3865.00 4232.42 62.00
4904 31.5180 4117.00 4528.31 64.00
4905 31.5240 4695.00 5053.75 69.00
4906 31.5300 5227.00 5992.57 72.00
4907 31.5360 6613.00 7557.45 81.00
4908 31.5420 9894.00 9862.49 99.00
4909 31.5480 15694.00 12726.20 125.00
4910 31.5540 21061.00 15437.30 145.00
4911 31.5600 22208.00 16875.30 149.00
4912 31.5660 18380.00 16260.80 136.00
4913 31.5720 13480.00 13912.50 116.00
4914 31.5780 9700.00 11033.90 98.00
4915 31.5840 7651.00 8584.84 87.00
4916 31.5900 6285.00 6944.23 79.00
4917 31.5960 5824.00 6126.74 76.00
4918 31.6020 5862.00 5997.93 77.00
4919 31.6080 6571.00 6396.51 81.00
4920 31.6140 7322.00 7143.64 86.00
4921 31.6200 8485.00 7973.35 92.00
4922 31.6260 9356.00 8564.37 97.00
4923 31.6320 9680.00 8706.06 98.00
4924 31.6380 8661.00 8260.86 93.00
4925 31.6440 7055.00 7345.50 84.00
4926 31.6500 5553.00 6360.36 75.00
4927 31.6560 4962.00 5611.85 70.00
4928 31.6620 4605.00 5211.50 68.00
4929 31.6680 4879.00 5135.78 70.00
4930 31.6740 5029.00 5269.27 71.00
4931 31.6800 5241.00 5422.16 72.00
4932 31.6860 5325.00 5382.74 73.00
4933 31.6920 4813.00 5102.90 69.00
4934 31.6980 4395.00 4726.45 66.00
4935 31.7040 4116.00 4389.24 64.00
4936 31.7100 3994.00 4148.79 63.00
4937 31.7160 3936.00 4006.22 63.00
4938 31.7220 3779.00 3933.07 61.00
4939 31.7280 3836.00 3896.74 62.00
4940 31.7340 3777.00 3882.85 61.00
4941 31.7400 3755.00 3895.87 61.00
4942 31.7460 3781.00 3944.86 61.00
4943 31.7520 3988.00 4035.84 63.00
4944 31.7580 4177.00 4169.78 65.00
4945 31.7640 4364.00 4342.87 66.00
4946 31.7700 4625.00 4561.24 68.00
4947 31.7760 4739.00 4867.69 69.00
4948 31.7820 4972.00 5304.34 71.00
4949 31.7880 5096.00 5837.70 71.00
4950 31.7940 5497.00 6318.38 74.00
4951 31.8000 5859.00 6551.02 77.00
4952 31.8060 6015.00 6600.58 78.00
4953 31.8120 6460.00 6782.49 80.00
4954 31.8180 7448.00 7418.63 86.00
4955 31.8240 8441.00 8587.56 92.00
4956 31.8300 9281.00 10068.00 96.00
4957 31.8360 10130.00 11162.30 101.00
4958 31.8420 9950.00 11172.50 100.00
4959 31.8480 9154.00 9987.37 96.00
4960 31.8540 7953.00 8285.50 89.00
4961 31.8600 6653.00 6690.21 82.00
4962 31.8660 5347.00 5492.02 73.00
4963 31.8720 4605.00 4718.46 68.00
4964 31.8780 4215.00 4271.35 65.00
4965 31.8840 3986.00 4041.11 63.00
4966 31.8900 3828.00 3904.77 62.00
4967 31.8960 3785.00 3821.82 62.00
4968 31.9020 3723.00 3762.45 61.00
4969 31.9080 3661.00 3722.43 61.00
4970 31.9140 3558.00 3692.76 60.00
4971 31.9200 3625.00 3678.30 60.00
4972 31.9260 3435.00 3662.98 59.00
4973 31.9320 3587.00 3652.49 60.00
4974 31.9380 3528.00 3646.07 59.00
4975 31.9440 3555.00 3643.24 60.00
4976 31.9500 3581.00 3643.67 60.00
4977 31.9560 3645.00 3647.19 60.00
4978 31.9620 3528.00 3653.77 59.00
4979 31.9680 3520.00 3668.87 59.00
4980 31.9740 3487.00 3682.39 59.00
4981 31.9800 3606.00 3699.60 60.00
4982 31.9860 3682.00 3720.97 61.00
4983 31.9920 3779.00 3747.19 61.00
4984 31.9980 3730.00 3783.90 61.00
4985 32.0040 3731.00 3823.07 61.00
4986 32.0100 3814.00 3870.71 62.00
4987 32.0160 3769.00 3929.51 61.00
4988 32.0220 3800.00 4002.67 62.00
4989 32.0280 3816.00 4095.67 62.00
4990 32.0340 3960.00 4218.74 63.00
4991 32.0400 4161.00 4393.51 65.00
4992 32.0460 4549.00 4665.89 67.00
4993 32.0520 4881.00 5122.65 70.00
4994 32.0580 5324.00 5904.67 73.00
4995 32.0640 6487.00 7182.41 81.00
4996 32.0700 8738.00 9096.90 93.00
4997 32.0760 12263.00 11657.90 111.00
4998 32.0820 15268.00 14585.90 124.00
4999 32.0880 18433.00 17262.00 136.00
5000 32.0940 20647.00 19274.70 144.00
5001 32.1000 22447.00 20770.10 150.00
5002 32.1060 22790.00 21407.70 151.00
5003 32.1120 20668.00 20200.10 144.00
5004 32.1180 16210.00 17196.00 127.00
5005 32.1240 12125.00 13736.70 110.00
5006 32.1300 9754.00 10954.60 99.00
5007 32.1360 8346.00 9344.63 91.00
5008 32.1420 8366.00 8999.99 91.00
5009 32.1480 8902.00 9744.67 94.00
5010 32.1540 10422.00 11186.40 102.00
5011 32.1600 12001.00 12677.10 110.00
5012 32.1660 11992.00 13399.70 110.00
5013 32.1720 11297.00 13088.20 106.00
5014 32.1780 11120.00 12423.20 105.00
5015 32.1840 11652.00 12131.90 108.00
5016 32.1900 12529.00 12345.50 112.00
5017 32.1960 12686.00 12552.30 113.00
5018 32.2020 12378.00 11990.70 111.00
5019 32.2080 11138.00 10601.10 106.00
5020 32.2140 10392.00 9037.63 102.00
5021 32.2200 9527.00 7874.29 98.00
5022 32.2260 9207.00 7374.99 96.00
5023 32.2320 9143.00 7535.46 96.00
5024 32.2380 8935.00 8130.98 95.00
5025 32.2440 8794.00 8735.00 94.00
5026 32.2500 8722.00 8859.02 93.00
5027 32.2560 8740.00 8429.83 93.00
5028 32.2620 8751.00 7850.45 94.00
5029 32.2680 8658.00 7452.48 93.00
5030 32.2740 8530.00 7259.94 92.00
5031 32.2800 8264.00 7033.95 91.00
5032 32.2860 7290.00 6542.98 85.00
5033 32.2920 6350.00 5849.14 80.00
5034 32.2980 5452.00 5165.46 74.00
5035 32.3040 4971.00 4616.08 71.00
5036 32.3100 4515.00 4232.37 67.00
5037 32.3160 4172.00 3990.38 65.00
5038 32.3220 4141.00 3845.47 64.00
5039 32.3280 4043.00 3757.06 64.00
5040 32.3340 3908.00 3698.77 63.00
5041 32.3400 3915.00 3659.08 63.00
5042 32.3460 3839.00 3626.36 62.00
5043 32.3520 3745.00 3599.99 61.00
5044 32.3580 3672.00 3578.33 61.00
5045 32.3640 3546.00 3560.41 60.00
5046 32.3700 3594.00 3545.53 60.00
5047 32.3760 3583.00 3519.52 60.00
5048 32.3820 3492.00 3517.31 59.00
5049 32.3880 3556.00 3510.09 60.00
5050 32.3940 3486.00 3479.94 59.00
5051 32.4000 3480.00 3477.35 59.00
5052 32.4060 3594.00 3476.49 60.00
5053 32.4120 3625.00 3477.43 60.00
5054 32.4180 3575.00 3480.33 60.00
5055 32.4240 3491.00 3485.49 59.00
5056 32.4300 3524.00 3493.36 59.00
5057 32.4360 3463.00 3504.68 59.00
5058 32.4420 3485.00 3520.89 59.00
5059 32.4480 3578.00 3539.61 60.00
5060 32.4540 3520.00 3567.87 59.00
5061 32.4600 3613.00 3628.19 60.00
5062 32.4660 3652.00 3726.97 60.00
5063 32.4720 3836.00 3886.54 62.00
5064 32.4780 3866.00 4134.29 62.00
5065 32.4840 4188.00 4481.54 65.00
5066 32.4900 4684.00 4955.76 68.00
5067 32.4960 5471.00 5515.04 74.00
5068 32.5020 6296.00 6106.62 79.00
5069 32.5080 7011.00 6591.31 84.00
5070 32.5140 6954.00 6737.06 83.00
5071 32.5200 6462.00 6462.64 80.00
5072 32.5260 5796.00 5929.36 76.00
5073 32.5320 5214.00 5351.61 72.00
5074 32.5380 5007.00 4903.62 71.00
5075 32.5440 5026.00 4709.67 71.00
5076 32.5500 5231.00 4795.52 72.00
5077 32.5560 5910.00 5130.18 77.00
5078 32.5620 6839.00 5609.58 83.00
5079 32.5680 7180.00 6027.21 85.00
5080 32.5740 6918.00 6123.30 83.00
5081 32.5800 6247.00 5812.70 79.00
5082 32.5860 5471.00 5309.54 74.00
5083 32.5920 4872.00 4855.40 70.00
5084 32.5980 4499.00 4583.97 67.00
5085 32.6040 4329.00 4535.55 66.00
5086 32.6100 4209.00 4683.92 65.00
5087 32.6160 4311.00 4941.31 66.00
5088 32.6220 4362.00 5179.39 66.00
5089 32.6280 4428.00 5281.78 67.00
5090 32.6340 4754.00 5299.39 69.00
5091 32.6400 5299.00 5422.95 73.00
5092 32.6460 5878.00 5793.41 77.00
5093 32.6520 6237.00 6413.19 79.00
5094 32.6580 6919.00 7100.40 83.00
5095 32.6640 7251.00 7477.72 85.00
5096 32.6700 7209.00 7219.99 85.00
5097 32.6760 6489.00 6457.16 81.00
5098 32.6820 5630.00 5567.99 75.00
5099 32.6880 4859.00 4805.34 70.00
5100 32.6940 4318.00 4258.48 66.00
5101 32.7000 4040.00 3915.53 64.00
5102 32.7060 3925.00 3719.68 63.00
5103 32.7120 3956.00 3610.57 63.00
5104 32.7180 3961.00 3552.83 63.00
5105 32.7240 3938.00 3513.35 63.00
5106 32.7300 3893.00 3491.77 62.00
5107 32.7360 3785.00 3474.80 62.00
5108 32.7420 3737.00 3466.83 61.00
5109 32.7480 3698.00 3470.28 61.00
5110 32.7540 3580.00 3489.67 60.00
5111 32.7600 3586.00 3529.88 60.00
5112 32.7660 3691.00 3592.38 61.00
5113 32.7720 3719.00 3669.84 61.00
5114 32.7780 3824.00 3741.30 62.00
5115 32.7840 3814.00 3771.88 62.00
5116 32.7900 3852.00 3740.51 62.00
5117 32.7960 3826.00 3666.16 62.00
5118 32.8020 3671.00 3581.19 61.00
5119 32.8080 3644.00 3518.09 60.00
5120 32.8140 3518.00 3480.55 59.00
5121 32.8200 3416.00 3473.57 58.00
5122 32.8260 3532.00 3497.59 59.00
5123 32.8320 3623.00 3555.34 60.00
5124 32.8380 3633.00 3647.72 60.00
5125 32.8440 3838.00 3767.57 62.00
5126 32.8500 3942.00 3891.98 63.00
5127 32.8560 3958.00 3981.02 63.00
5128 32.8620 4062.00 4007.56 64.00
5129 32.8680 4271.00 4022.22 65.00
5130 32.8740 4420.00 4087.72 66.00
5131 32.8800 4495.00 4239.63 67.00
5132 32.8860 4619.00 4461.42 68.00
5133 32.8920 4781.00 4674.25 69.00
5134 32.8980 4846.00 4759.69 70.00
5135 32.9040 5034.00 4666.05 71.00
5136 32.9100 4984.00 4469.87 71.00
5137 32.9160 4695.00 4271.80 69.00
5138 32.9220 4380.00 4120.78 66.00
5139 32.9280 4137.00 4001.07 64.00
5140 32.9340 3940.00 3890.18 63.00
5141 32.9400 3749.00 3794.11 61.00
5142 32.9460 3640.00 3729.38 60.00
5143 32.9520 3600.00 3706.53 60.00
5144 32.9580 3584.00 3726.79 60.00
5145 32.9640 3697.00 3816.34 61.00
5146 32.9700 3820.00 3992.26 62.00
5147 32.9760 4016.00 4298.16 63.00
5148 32.9820 4428.00 4789.18 67.00
5149 32.9880 5332.00 5503.54 73.00
5150 32.9940 6536.00 6413.27 81.00
5151 33.0000 7879.00 7395.26 89.00
5152 33.0060 8869.00 8195.98 94.00
5153 33.0120 9195.00 8531.63 96.00
5154 33.0180 8878.00 8311.15 94.00
5155 33.0240 7460.00 7585.92 86.00
5156 33.0300 5873.00 6576.69 77.00
5157 33.0360 4770.00 5578.01 69.00
5158 33.0420 4087.00 4784.37 64.00
5159 33.0480 3797.00 4235.69 62.00
5160 33.0540 3612.00 3893.47 60.00
5161 33.0600 3486.00 3693.79 59.00
5162 33.0660 3403.00 3578.84 58.00
5163 33.0720 3367.00 3509.40 58.00
5164 33.0780 3431.00 3462.75 59.00
5165 33.0840 3428.00 3429.50 59.00
5166 33.0900 3331.00 3403.98 58.00
5167 33.0960 3248.00 3383.71 57.00
5168 33.1020 3216.00 3367.30 57.00
5169 33.1080 3253.00 3353.86 57.00
5170 33.1140 3267.00 3342.75 57.00
5171 33.1200 3251.00 3333.50 57.00
5172 33.1260 3318.00 3325.77 58.00
5173 33.1320 3359.00 3319.31 58.00
5174 33.1380 3295.00 3313.92 57.00
5175 33.1440 3216.00 3309.45 57.00
5176 33.1500 3197.00 3304.90 57.00
5177 33.1560 3259.00 3312.04 57.00
5178 33.1620 3368.00 3312.94 58.00
5179 33.1680 3380.00 3311.90 58.00
5180 33.1740 3338.00 3310.77 58.00
5181 33.1800 3296.00 3310.30 57.00
5182 33.1860 3261.00 3309.24 57.00
5183 33.1920 3362.00 3314.53 58.00
5184 33.1980 3341.00 3316.54 58.00
5185 33.2040 3248.00 3319.41 57.00
5186 33.2100 3248.00 3323.29 57.00
5187 33.2160 3299.00 3328.32 57.00
5188 33.2220 3296.00 3334.14 57.00
5189 33.2280 3267.00 3342.22 57.00
5190 33.2340 3262.00 3352.34 57.00
5191 33.2400 3239.00 3365.02 57.00
5192 33.2460 3293.00 3380.97 57.00
5193 33.2520 3333.00 3401.27 58.00
5194 33.2580 3372.00 3427.63 58.00
5195 33.2640 3440.00 3463.29 59.00
5196 33.2700 3394.00 3515.63 58.00
5197 33.2760 3365.00 3600.37 58.00
5198 33.2820 3428.00 3761.36 59.00
5199 33.2880 3638.00 4028.25 60.00
5200 33.2940 4005.00 4493.84 63.00
5201 33.3000 4668.00 5190.54 68.00
5202 33.3060 5870.00 6131.21 77.00
5203 33.3120 7337.00 7172.96 86.00
5204 33.3180 8103.00 7978.20 90.00
5205 33.3240 7698.00 8117.33 88.00
5206 33.3300 6718.00 7494.54 82.00
5207 33.3360 5585.00 6495.73 75.00
5208 33.3420 4711.00 5514.32 69.00
5209 33.3480 4156.00 4746.09 64.00
5210 33.3540 3856.00 4233.00 62.00
5211 33.3600 3688.00 3932.41 61.00
5212 33.3660 3638.00 3787.39 60.00
5213 33.3720 3698.00 3713.41 61.00
5214 33.3780 3608.00 3685.46 60.00
5215 33.3840 3543.00 3685.36 60.00
5216 33.3900 3510.00 3707.13 59.00
5217 33.3960 3673.00 3753.10 61.00
5218 33.4020 3755.00 3840.62 61.00
5219 33.4080 3851.00 3988.44 62.00
5220 33.4140 4082.00 4258.16 64.00
5221 33.4200 4533.00 4738.74 67.00
5222 33.4260 5162.00 5535.15 72.00
5223 33.4320 6223.00 6714.49 79.00
5224 33.4380 7870.00 8226.40 89.00
5225 33.4440 9311.00 9807.91 96.00
5226 33.4500 9844.00 10918.40 99.00
5227 33.4560 9480.00 11030.50 97.00
5228 33.4620 8634.00 10295.00 93.00
5229 33.4680 7740.00 9347.49 88.00
5230 33.4740 7205.00 8605.08 85.00
5231 33.4800 7118.00 8073.47 84.00
5232 33.4860 6720.00 7507.84 82.00
5233 33.4920 6094.00 6764.59 78.00
5234 33.4980 5327.00 5963.80 73.00
5235 33.5040 4708.00 5269.93 69.00
5236 33.5100 4365.00 4759.63 66.00
5237 33.5160 4126.00 4440.46 64.00
5238 33.5220 4043.00 4284.60 64.00
5239 33.5280 4099.00 4259.42 64.00
5240 33.5340 4183.00 4356.54 65.00
5241 33.5400 4306.00 4613.34 66.00
5242 33.5460 4710.00 5125.43 69.00
5243 33.5520 5255.00 6035.31 72.00
5244 33.5580 6410.00 7489.68 80.00
5245 33.5640 9035.00 9528.20 95.00
5246 33.5700 13532.00 11949.70 116.00
5247 33.5760 17382.00 14157.80 132.00
5248 33.5820 17816.00 15251.00 133.00
5249 33.5880 15009.00 14684.70 123.00
5250 33.5940 11748.00 12778.80 108.00
5251 33.6000 9045.00 10395.40 95.00
5252 33.6060 7215.00 8258.40 85.00
5253 33.6120 6382.00 6702.51 80.00
5254 33.6180 6195.00 5774.86 79.00
5255 33.6240 6528.00 5432.27 81.00
5256 33.6300 7122.00 5603.63 84.00
5257 33.6360 8120.00 6261.44 90.00
5258 33.6420 8703.00 7367.43 93.00
5259 33.6480 9174.00 8781.99 96.00
5260 33.6540 9610.00 10151.20 98.00
5261 33.6600 9642.00 10881.20 98.00
5262 33.6660 9629.00 10563.40 98.00
5263 33.6720 9217.00 9531.47 96.00
5264 33.6780 8774.00 8444.60 94.00
5265 33.6840 8316.00 7706.72 91.00
5266 33.6900 7812.00 7383.96 88.00
5267 33.6960 7461.00 7264.74 86.00
5268 33.7020 7132.00 7000.47 84.00
5269 33.7080 6356.00 6431.02 80.00
5270 33.7140 5574.00 5714.64 75.00
5271 33.7200 4782.00 5053.04 69.00
5272 33.7260 4367.00 4556.51 66.00
5273 33.7320 4200.00 4261.87 65.00
5274 33.7380 4177.00 4167.64 65.00
5275 33.7440 4229.00 4262.18 65.00
5276 33.7500 4529.00 4518.77 67.00
5277 33.7560 5065.00 4933.26 71.00
5278 33.7620 5835.00 5418.02 76.00
5279 33.7680 6207.00 5823.59 79.00
5280 33.7740 6429.00 5986.58 80.00
5281 33.7800 6047.00 5901.51 78.00
5282 33.7860 5783.00 5667.31 76.00
5283 33.7920 5257.00 5328.35 73.00
5284 33.7980 4689.00 4890.85 68.00
5285 33.8040 4121.00 4436.52 64.00
5286 33.8100 3877.00 4048.24 62.00
5287 33.8160 3689.00 3757.27 61.00
5288 33.8220 3516.00 3559.09 59.00
5289 33.8280 3515.00 3433.01 59.00
5290 33.8340 3443.00 3355.37 59.00
5291 33.8400 3361.00 3306.52 58.00
5292 33.8460 3359.00 3273.62 58.00
5293 33.8520 3465.00 3249.49 59.00
5294 33.8580 3422.00 3233.76 58.00
5295 33.8640 3347.00 3218.47 58.00
5296 33.8700 3384.00 3205.74 58.00
5297 33.8760 3216.00 3195.04 57.00
5298 33.8820 3230.00 3174.47 57.00
5299 33.8880 3231.00 3159.19 57.00
5300 33.8940 3344.00 3153.68 58.00
5301 33.9000 3227.00 3149.29 57.00
5302 33.9060 3242.00 3145.97 57.00
5303 33.9120 3281.00 3143.73 57.00
5304 33.9180 3248.00 3142.63 57.00
5305 33.9240 3281.00 3142.81 57.00
5306 33.9300 3212.00 3144.53 57.00
5307 33.9360 3141.00 3148.27 56.00
5308 33.9420 3132.00 3155.06 56.00
5309 33.9480 3195.00 3167.16 57.00
5310 33.9540 3326.00 3189.42 58.00
5311 33.9600 3400.00 3218.81 58.00
5312 33.9660 3347.00 3295.03 58.00
5313 33.9720 3445.00 3422.54 59.00
5314 33.9780 3722.00 3613.23 61.00
5315 33.9840 4190.00 3860.06 65.00
5316 33.9900 4804.00 4121.82 69.00
5317 33.9960 5276.00 4309.26 73.00
5318 34.0020 4901.00 4314.03 70.00
5319 34.0080 4229.00 4140.94 65.00
5320 34.0140 3845.00 3884.75 62.00
5321 34.0200 3597.00 3638.63 60.00
5322 34.0260 3374.00 3447.92 58.00
5323 34.0320 3366.00 3321.52 58.00
5324 34.0380 3231.00 3247.13 57.00
5325 34.0440 3185.00 3205.20 56.00
5326 34.0500 3247.00 3181.05 57.00
5327 34.0560 3198.00 3168.76 57.00
5328 34.0620 3215.00 3167.02 57.00
5329 34.0680 3212.00 3174.69 57.00
5330 34.0740 3202.00 3185.02 57.00
5331 34.0800 3313.00 3198.38 58.00
5332 34.0860 3423.00 3202.72 59.00
5333 34.0920 3440.00 3194.16 59.00
5334 34.0980 3487.00 3184.79 59.00
5335 34.1040 3510.00 3182.07 59.00
5336 34.1100 3632.00 3195.20 60.00
5337 34.1160 3725.00 3235.96 61.00
5338 34.1220 4044.00 3321.86 64.00
5339 34.1280 4370.00 3475.15 66.00
5340 34.1340 4749.00 3716.13 69.00
5341 34.1400 4847.00 4046.00 70.00
5342 34.1460 5124.00 4428.63 72.00
5343 34.1520 5218.00 4768.76 72.00
5344 34.1580 5256.00 4924.89 72.00
5345 34.1640 5338.00 4840.35 73.00
5346 34.1700 5286.00 4617.06 73.00
5347 34.1760 5154.00 4390.58 72.00
5348 34.1820 5065.00 4211.41 71.00
5349 34.1880 4736.00 4050.99 69.00
5350 34.1940 4369.00 3865.94 66.00
5351 34.2000 3968.00 3663.04 63.00
5352 34.2060 3628.00 3476.90 60.00
5353 34.2120 3388.00 3328.01 58.00
5354 34.2180 3281.00 3221.03 57.00
5355 34.2240 3192.00 3150.41 56.00
5356 34.2300 3097.00 3106.28 56.00
5357 34.2360 3094.00 3078.79 56.00
5358 34.2420 3110.00 3060.76 56.00
5359 34.2480 3111.00 3047.91 56.00
5360 34.2540 3167.00 3038.02 56.00
5361 34.2600 3075.00 3030.00 55.00
5362 34.2660 3148.00 3023.30 56.00
5363 34.2720 3029.00 3017.60 55.00
5364 34.2780 3039.00 3012.69 55.00
5365 34.2840 2848.00 3008.42 53.00
5366 34.2900 2969.00 3004.68 54.00
5367 34.2960 2988.00 3001.39 55.00
5368 34.3020 2887.00 2996.29 54.00
5369 34.3080 3017.00 2993.82 55.00
5370 34.3140 3041.00 2991.66 55.00
5371 34.3200 2934.00 2989.78 54.00
5372 34.3260 2819.00 2988.19 53.00
5373 34.3320 2946.00 2988.10 54.00
5374 34.3380 2883.00 2988.29 54.00
5375 34.3440 2837.00 2988.78 53.00
5376 34.3500 2974.00 2989.53 55.00
5377 34.3560 3118.00 2990.71 56.00
5378 34.3620 2957.00 2992.31 54.00
5379 34.3680 2974.00 2994.39 55.00
5380 34.3740 3075.00 2997.07 55.00
5381 34.3800 3061.00 3000.47 55.00
5382 34.3860 3074.00 3004.78 55.00
5383 34.3920 2942.00 3010.11 54.00
5384 34.3980 3034.00 3017.23 55.00
5385 34.4040 3020.00 3026.71 55.00
5386 34.4100 3021.00 3040.15 55.00
5387 34.4160 3105.00 3060.94 56.00
5388 34.4220 3133.00 3096.04 56.00
5389 34.4280 3141.00 3157.83 56.00
5390 34.4340 3222.00 3264.21 57.00
5391 34.4400 3349.00 3434.33 58.00
5392 34.4460 3698.00 3677.62 61.00
5393 34.4520 4102.00 3978.87 64.00
5394 34.4580 4475.00 4282.34 67.00
5395 34.4640 4580.00 4473.44 68.00
5396 34.4700 4402.00 4458.60 66.00
5397 34.4760 4156.00 4261.52 64.00
5398 34.4820 3872.00 4008.90 62.00
5399 34.4880 3882.00 3778.41 62.00
5400 34.4940 3717.00 3598.12 61.00
5401 34.5000 3516.00 3462.24 59.00
5402 34.5060 3529.00 3352.61 59.00
5403 34.5120 3410.00 3261.72 58.00
5404 34.5180 3247.00 3188.84 57.00
5405 34.5240 3172.00 3130.44 56.00
5406 34.5300 2988.00 3087.80 55.00
5407 34.5360 3062.00 3058.61 55.00
5408 34.5420 3049.00 3039.50 55.00
5409 34.5480 3009.00 3027.20 55.00
5410 34.5540 3008.00 3023.90 55.00
5411 34.5600 3077.00 3018.66 55.00
5412 34.5660 3107.00 3015.07 56.00
5413 34.5720 3142.00 3012.59 56.00
5414 34.5780 3036.00 3011.99 55.00
5415 34.5840 3040.00 3011.06 55.00
5416 34.5900 3093.00 3013.42 56.00
5417 34.5960 3018.00 3013.69 55.00
5418 34.6020 3068.00 3014.44 55.00
5419 34.6080 3164.00 3015.66 56.00
5420 34.6140 3106.00 3017.33 56.00
5421 34.6200 3170.00 3019.47 56.00
5422 34.6260 3198.00 3022.11 57.00
5423 34.6320 3157.00 3025.26 56.00
5424 34.6380 3203.00 3028.98 57.00
5425 34.6440 3158.00 3033.33 56.00
5426 34.6500 3111.00 3038.39 56.00
5427 34.6560 3118.00 3044.27 56.00
5428 34.6620 3080.00 3051.08 55.00
5429 34.6680 3032.00 3059.01 55.00
5430 34.6740 3043.00 3068.25 55.00
5431 34.6800 3040.00 3079.07 55.00
5432 34.6860 3060.00 3091.83 55.00
5433 34.6920 3111.00 3112.46 56.00
5434 34.6980 3089.00 3130.85 56.00
5435 34.7040 3097.00 3153.20 56.00
5436 34.7100 3108.00 3181.05 56.00
5437 34.7160 3097.00 3217.12 56.00
5438 34.7220 3091.00 3273.82 56.00
5439 34.7280 3330.00 3345.68 58.00
5440 34.7340 3423.00 3454.65 59.00
5441 34.7400 3565.00 3622.95 60.00
5442 34.7460 3951.00 3881.00 63.00
5443 34.7520 4407.00 4267.47 66.00
5444 34.7580 5108.00 4821.19 71.00
5445 34.7640 6083.00 5560.85 78.00
5446 34.7700 7334.00 6470.92 86.00
5447 34.7760 8635.00 7509.67 93.00
5448 34.7820 9801.00 8557.42 99.00
5449 34.7880 10513.00 9290.45 103.00
5450 34.7940 10057.00 9325.50 100.00
5451 34.8000 8621.00 8655.22 93.00
5452 34.8060 7200.00 7680.18 85.00
5453 34.8120 6184.00 6772.54 79.00
5454 34.8180 5579.00 6084.03 75.00
5455 34.8240 5329.00 5608.20 73.00
5456 34.8300 5419.00 5319.57 74.00
5457 34.8360 5611.00 5243.84 75.00
5458 34.8420 5759.00 5396.81 76.00
5459 34.8480 6099.00 5734.10 78.00
5460 34.8540 6449.00 6127.61 80.00
5461 34.8600 6595.00 6373.24 81.00
5462 34.8660 6547.00 6341.97 81.00
5463 34.8720 6252.00 6138.65 79.00
5464 34.8780 6143.00 5947.24 78.00
5465 34.8840 6101.00 5838.10 78.00
5466 34.8900 5876.00 5753.00 77.00
5467 34.8960 5290.00 5576.43 73.00
5468 34.9020 4886.00 5236.90 70.00
5469 34.9080 4446.00 4788.40 67.00
5470 34.9140 4024.00 4344.81 63.00
5471 34.9200 3849.00 3981.12 62.00
5472 34.9260 3701.00 3721.32 61.00
5473 34.9320 3496.00 3558.14 59.00
5474 34.9380 3428.00 3469.99 59.00
5475 34.9440 3510.00 3435.42 59.00
5476 34.9500 3487.00 3442.27 59.00
5477 34.9560 3472.00 3492.26 59.00
5478 34.9620 3672.00 3603.06 61.00
5479 34.9680 3974.00 3807.38 63.00
5480 34.9740 4281.00 4145.86 65.00
5481 34.9800 4664.00 4649.19 68.00
5482 34.9860 4980.00 5314.55 71.00
5483 34.9920 5491.00 6075.78 74.00
5484 34.9980 5949.00 6779.27 77.00
5485 35.0040 6411.00 7241.62 80.00
5486 35.0100 7000.00 7463.84 84.00
5487 35.0160 7526.00 7638.46 87.00
5488 35.0220 8041.00 7866.10 90.00
5489 35.0280 8278.00 8006.12 91.00
5490 35.0340 7708.00 7772.73 88.00
5491 35.0400 6380.00 7068.86 80.00
5492 35.0460 5217.00 6131.44 72.00
5493 35.0520 4594.00 5227.87 68.00
5494 35.0580 4134.00 4498.43 64.00
5495 35.0640 3700.00 3980.23 61.00
5496 35.0700 3465.00 3647.74 59.00
5497 35.0760 3355.00 3447.19 58.00
5498 35.0820 3288.00 3327.09 57.00
5499 35.0880 3165.00 3253.73 56.00
5500 35.0940 3122.00 3204.45 56.00
5501 35.1000 3159.00 3163.92 56.00
5502 35.1060 3106.00 3130.49 56.00
5503 35.1120 3036.00 3108.25 55.00
5504 35.1180 3025.00 3090.00 55.00
5505 35.1240 3040.00 3074.82 55.00
5506 35.1300 2941.00 3062.07 54.00
5507 35.1360 2977.00 3049.55 55.00
5508 35.1420 2975.00 3040.41 55.00
5509 35.1480 2915.00 3032.58 54.00
5510 35.1540 2932.00 3025.84 54.00
5511 35.1600 2957.00 3020.03 54.00
5512 35.1660 2989.00 3015.01 55.00
5513 35.1720 2976.00 3006.11 55.00
5514 35.1780 2971.00 3002.56 55.00
5515 35.1840 2938.00 2999.55 54.00
5516 35.1900 2939.00 2997.39 54.00
5517 35.1960 2940.00 2996.41 54.00
5518 35.2020 3004.00 2994.86 55.00
5519 35.2080 3020.00 2992.12 55.00
5520 35.2140 2956.00 2992.53 54.00
5521 35.2200 2965.00 2994.88 54.00
5522 35.2260 3027.00 2996.22 55.00
5523 35.2320 2959.00 2998.03 54.00
5524 35.2380 3000.00 3001.10 55.00
5525 35.2440 3005.00 3004.76 55.00
5526 35.2500 3006.00 3008.51 55.00
5527 35.2560 3009.00 3013.13 55.00
5528 35.2620 3025.00 3018.83 55.00
5529 35.2680 3057.00 3025.91 55.00
5530 35.2740 3052.00 3034.81 55.00
5531 35.2800 3086.00 3046.40 56.00
5532 35.2860 3136.00 3062.34 56.00
5533 35.2920 3234.00 3086.46 57.00
5534 35.2980 3348.00 3125.54 58.00
5535 35.3040 3507.00 3192.53 59.00
5536 35.3100 3835.00 3306.06 62.00
5537 35.3160 4116.00 3481.25 64.00
5538 35.3220 4338.00 3740.93 66.00
5539 35.3280 4516.00 4069.05 67.00
5540 35.3340 4484.00 4418.23 67.00
5541 35.3400 4465.00 4680.01 67.00
5542 35.3460 4430.00 4722.46 67.00
5543 35.3520 4339.00 4549.60 66.00
5544 35.3580 4195.00 4271.09 65.00
5545 35.3640 3988.00 4006.88 63.00
5546 35.3700 3818.00 3815.46 62.00
5547 35.3760 3620.00 3700.08 60.00
5548 35.3820 3510.00 3623.86 59.00
5549 35.3880 3483.00 3541.37 59.00
5550 35.3940 3386.00 3439.66 58.00
5551 35.4000 3261.00 3335.13 57.00
5552 35.4060 3157.00 3244.49 56.00
5553 35.4120 3120.00 3175.26 56.00
5554 35.4180 3094.00 3127.85 56.00
5555 35.4240 3024.00 3098.35 55.00
5556 35.4300 3002.00 3081.37 55.00
5557 35.4360 2985.00 3072.26 55.00
5558 35.4420 3021.00 3067.92 55.00
5559 35.4480 3057.00 3066.65 55.00
5560 35.4540 3051.00 3067.65 55.00
5561 35.4600 3079.00 3070.70 55.00
5562 35.4660 3085.00 3075.90 56.00
5563 35.4720 3057.00 3083.78 55.00
5564 35.4780 3097.00 3095.61 56.00
5565 35.4840 3087.00 3114.05 56.00
5566 35.4900 3085.00 3144.25 56.00
5567 35.4960 3098.00 3194.61 56.00
5568 35.5020 3164.00 3276.64 56.00
5569 35.5080 3367.00 3402.01 58.00
5570 35.5140 3658.00 3577.31 60.00
5571 35.5200 4066.00 3796.35 64.00
5572 35.5260 4458.00 4030.09 67.00
5573 35.5320 4602.00 4222.39 68.00
5574 35.5380 4619.00 4325.35 68.00
5575 35.5440 4670.00 4344.90 68.00
5576 35.5500 4597.00 4300.58 68.00
5577 35.5560 4323.00 4184.16 66.00
5578 35.5620 4037.00 4001.05 64.00
5579 35.5680 3750.00 3797.54 61.00
5580 35.5740 3522.00 3621.80 59.00
5581 35.5800 3457.00 3497.80 59.00
5582 35.5860 3453.00 3429.69 59.00
5583 35.5920 3503.00 3410.41 59.00
5584 35.5980 3564.00 3428.80 60.00
5585 35.6040 3554.00 3476.89 60.00
5586 35.6100 3529.00 3562.16 59.00
5587 35.6160 3564.00 3716.97 60.00
5588 35.6220 3707.00 3989.00 61.00
5589 35.6280 4134.00 4419.21 64.00
5590 35.6340 5080.00 5016.44 71.00
5591 35.6400 6423.00 5723.57 80.00
5592 35.6460 7655.00 6384.85 87.00
5593 35.6520 7876.00 6759.87 89.00
5594 35.6580 6941.00 6671.61 83.00
5595 35.6640 5770.00 6157.33 76.00
5596 35.6700 4810.00 5444.53 69.00
5597 35.6760 4113.00 4746.40 64.00
5598 35.6820 3720.00 4180.99 61.00
5599 35.6880 3537.00 3780.53 59.00
5600 35.6940 3372.00 3522.39 58.00
5601 35.7000 3215.00 3366.89 57.00
5602 35.7060 3067.00 3276.62 55.00
5603 35.7120 3010.00 3222.44 55.00
5604 35.7180 3068.00 3187.48 55.00
5605 35.7240 3050.00 3162.89 55.00
5606 35.7300 3055.00 3144.43 55.00
5607 35.7360 3013.00 3130.00 55.00
5608 35.7420 2995.00 3118.47 55.00
5609 35.7480 3004.00 3109.15 55.00
5610 35.7540 2968.00 3101.54 54.00
5611 35.7600 2984.00 3095.39 55.00
5612 35.7660 3084.00 3090.27 56.00
5613 35.7720 3083.00 3086.10 56.00
5614 35.7780 3029.00 3086.12 55.00
5615 35.7840 2995.00 3083.42 55.00
5616 35.7900 2994.00 3081.26 55.00
5617 35.7960 3029.00 3080.49 55.00
5618 35.8020 3051.00 3081.03 55.00
5619 35.8080 3002.00 3081.94 55.00
5620 35.8140 2999.00 3086.12 55.00
5621 35.8200 3038.00 3087.77 55.00
5622 35.8260 3064.00 3090.46 55.00
5623 35.8320 3032.00 3092.71 55.00
5624 35.8380 3067.00 3095.25 55.00
5625 35.8440 3113.00 3098.07 56.00
5626 35.8500 3074.00 3101.26 55.00
5627 35.8560 3108.00 3104.88 56.00
5628 35.8620 3132.00 3108.98 56.00
5629 35.8680 3173.00 3114.93 56.00
5630 35.8740 3175.00 3119.09 56.00
5631 35.8800 3212.00 3125.44 57.00
5632 35.8860 3290.00 3132.87 57.00
5633 35.8920 3290.00 3140.59 57.00
5634 35.8980 3224.00 3148.40 57.00
5635 35.9040 3226.00 3155.91 57.00
5636 35.9100 3224.00 3163.45 57.00
5637 35.9160 3121.00 3172.21 56.00
5638 35.9220 3139.00 3183.88 56.00
5639 35.9280 3176.00 3200.79 56.00
5640 35.9340 3176.00 3227.50 56.00
5641 35.9400 3271.00 3270.31 57.00
5642 35.9460 3412.00 3337.53 58.00
5643 35.9520 3570.00 3437.05 60.00
5644 35.9580 3708.00 3572.07 61.00
5645 35.9640 3727.00 3735.96 61.00
5646 35.9700 3757.00 3902.63 61.00
5647 35.9760 3794.00 4039.18 62.00
5648 35.9820 3828.00 4108.54 62.00
5649 35.9880 3991.00 4134.87 63.00
5650 35.9940 4094.00 4152.40 64.00
5651 36.0000 4123.00 4167.28 64.00
5652 36.0060 4043.00 4145.29 64.00
5653 36.0120 3882.00 4051.99 62.00
5654 36.0180 3732.00 3903.59 61.00
5655 36.0240 3458.00 3746.46 59.00
5656 36.0300 3375.00 3614.34 58.00
5657 36.0360 3398.00 3524.35 58.00
5658 36.0420 3341.00 3476.07 58.00
5659 36.0480 3410.00 3471.17 58.00
5660 36.0540 3556.00 3509.58 60.00
5661 36.0600 3704.00 3601.10 61.00
5662 36.0660 3986.00 3763.80 63.00
5663 36.0720 4384.00 4011.68 66.00
5664 36.0780 4613.00 4351.69 68.00
5665 36.0840 4868.00 4764.30 70.00
5666 36.0900 5129.00 5183.76 72.00
5667 36.0960 5281.00 5501.54 73.00
5668 36.1020 5381.00 5613.06 73.00
5669 36.1080 5552.00 5550.19 75.00
5670 36.1140 5590.00 5457.22 75.00
5671 36.1200 5745.00 5454.80 76.00
5672 36.1260 5987.00 5565.67 77.00
5673 36.1320 6045.00 5714.22 78.00
5674 36.1380 6132.00 5773.18 78.00
5675 36.1440 6065.00 5686.06 78.00
5676 36.1500 5885.00 5510.79 77.00
5677 36.1560 5668.00 5336.52 75.00
5678 36.1620 5538.00 5215.80 74.00
5679 36.1680 5586.00 5135.28 75.00
5680 36.1740 5617.00 5045.67 75.00
5681 36.1800 5575.00 4922.39 75.00
5682 36.1860 5224.00 4756.80 72.00
5683 36.1920 4944.00 4543.58 70.00
5684 36.1980 4463.00 4309.50 67.00
5685 36.2040 4171.00 4092.22 65.00
5686 36.2100 3936.00 3906.51 63.00
5687 36.2160 3693.00 3753.15 61.00
5688 36.2220 3584.00 3632.85 60.00
5689 36.2280 3551.00 3544.59 60.00
5690 36.2340 3441.00 3483.40 59.00
5691 36.2400 3364.00 3442.94 58.00
5692 36.2460 3343.00 3417.40 58.00
5693 36.2520 3359.00 3402.10 58.00
5694 36.2580 3361.00 3393.68 58.00
5695 36.2640 3375.00 3389.95 58.00
5696 36.2700 3328.00 3387.68 58.00
5697 36.2760 3344.00 3387.27 58.00
5698 36.2820 3270.00 3389.57 57.00
5699 36.2880 3299.00 3394.77 57.00
5700 36.2940 3375.00 3403.54 58.00
5701 36.3000 3400.00 3416.17 58.00
5702 36.3060 3379.00 3443.26 58.00
5703 36.3120 3472.00 3479.70 59.00
5704 36.3180 3541.00 3540.47 60.00
5705 36.3240 3627.00 3639.95 60.00
5706 36.3300 3794.00 3796.09 62.00
5707 36.3360 4095.00 4016.53 64.00
5708 36.3420 4498.00 4301.09 67.00
5709 36.3480 4700.00 4622.57 69.00
5710 36.3540 4782.00 4920.14 69.00
5711 36.3600 4872.00 5121.87 70.00
5712 36.3660 4829.00 5210.77 69.00
5713 36.3720 4651.00 5238.36 68.00
5714 36.3780 4589.00 5274.84 68.00
5715 36.3840 4705.00 5360.01 69.00
5716 36.3900 4875.00 5474.53 70.00
5717 36.3960 5007.00 5575.29 71.00
5718 36.4020 5106.00 5639.53 71.00
5719 36.4080 5019.00 5645.36 71.00
5720 36.4140 4886.00 5565.76 70.00
5721 36.4200 4961.00 5432.39 70.00
5722 36.4260 5131.00 5256.55 72.00
5723 36.4320 5072.00 5016.71 71.00
5724 36.4380 4860.00 4694.38 70.00
5725 36.4440 4598.00 4367.91 68.00
5726 36.4500 4304.00 4074.48 66.00
5727 36.4560 4031.00 3846.91 63.00
5728 36.4620 3754.00 3690.61 61.00
5729 36.4680 3686.00 3589.29 61.00
5730 36.4740 3580.00 3524.12 60.00
5731 36.4800 3468.00 3485.47 59.00
5732 36.4860 3503.00 3466.11 59.00
5733 36.4920 3461.00 3451.78 59.00
5734 36.4980 3449.00 3441.42 59.00
5735 36.5040 3494.00 3436.24 59.00
5736 36.5100 3477.00 3433.90 59.00
5737 36.5160 3434.00 3432.80 59.00
5738 36.5220 3461.00 3435.13 59.00
5739 36.5280 3471.00 3442.21 59.00
5740 36.5340 3479.00 3448.71 59.00
5741 36.5400 3569.00 3457.84 60.00
5742 36.5460 3625.00 3475.54 60.00
5743 36.5520 3561.00 3490.52 60.00
5744 36.5580 3612.00 3511.88 60.00
5745 36.5640 3650.00 3535.40 60.00
5746 36.5700 3655.00 3565.57 60.00
5747 36.5760 3699.00 3606.23 61.00
5748 36.5820 3754.00 3665.01 61.00
5749 36.5880 3765.00 3756.23 61.00
5750 36.5940 3969.00 3903.51 63.00
5751 36.6000 4050.00 4139.35 64.00
5752 36.6060 4430.00 4499.10 67.00
5753 36.6120 4855.00 5005.82 70.00
5754 36.6180 5851.00 5651.60 76.00
5755 36.6240 6988.00 6365.91 84.00
5756 36.6300 8037.00 6999.37 90.00
5757 36.6360 7886.00 7367.57 89.00
5758 36.6420 7509.00 7418.40 87.00
5759 36.6480 7139.00 7247.95 84.00
5760 36.6540 6767.00 6920.39 82.00
5761 36.6600 6206.00 6445.82 79.00
5762 36.6660 5648.00 5896.45 75.00
5763 36.6720 5360.00 5390.92 73.00
5764 36.6780 5333.00 5008.20 73.00
5765 36.6840 5436.00 4777.81 74.00
5766 36.6900 5797.00 4713.43 76.00
5767 36.6960 6068.00 4823.39 78.00
5768 36.7020 6543.00 5135.06 81.00
5769 36.7080 7103.00 5691.99 84.00
5770 36.7140 7912.00 6548.62 89.00
5771 36.7200 8846.00 7747.46 94.00
5772 36.7260 10463.00 9282.09 102.00
5773 36.7320 11912.00 11043.20 109.00
5774 36.7380 13541.00 12871.80 116.00
5775 36.7440 15059.00 14661.40 123.00
5776 36.7500 16926.00 16242.80 130.00
5777 36.7560 18463.00 17317.70 136.00
5778 36.7620 19871.00 17774.50 141.00
5779 36.7680 20103.00 17764.10 142.00
5780 36.7740 18907.00 17413.70 138.00
5781 36.7800 17483.00 16757.80 132.00
5782 36.7860 16008.00 15869.10 127.00
5783 36.7920 14392.00 14720.80 120.00
5784 36.7980 12525.00 13315.30 112.00
5785 36.8040 10590.00 11850.40 103.00
5786 36.8100 9031.00 10518.50 95.00
5787 36.8160 8082.00 9342.47 90.00
5788 36.8220 7523.00 8301.54 87.00
5789 36.8280 7326.00 7472.27 86.00
5790 36.8340 7577.00 6963.27 87.00
5791 36.8400 8233.00 6827.62 91.00
5792 36.8460 9574.00 7055.00 98.00
5793 36.8520 10357.00 7563.21 102.00
5794 36.8580 10368.00 8197.56 102.00
5795 36.8640 10185.00 8783.30 101.00
5796 36.8700 9646.00 9158.36 98.00
5797 36.8760 9158.00 9156.96 96.00
5798 36.8820 8866.00 8731.25 94.00
5799 36.8880 7876.00 7991.66 89.00
5800 36.8940 7181.00 7091.87 85.00
5801 36.9000 6305.00 6200.01 79.00
5802 36.9060 5832.00 5453.31 76.00
5803 36.9120 5553.00 4913.07 75.00
5804 36.9180 5289.00 4578.02 73.00
5805 36.9240 4999.00 4417.06 71.00
5806 36.9300 4948.00 4384.53 70.00
5807 36.9360 4860.00 4418.58 70.00
5808 36.9420 4711.00 4453.73 69.00
5809 36.9480 4530.00 4426.58 67.00
5810 36.9540 4614.00 4310.91 68.00
5811 36.9600 4551.00 4144.50 67.00
5812 36.9660 4323.00 3969.36 66.00
5813 36.9720 4006.00 3825.88 63.00
5814 36.9780 3869.00 3717.03 62.00
5815 36.9840 3829.00 3640.82 62.00
5816 36.9900 3755.00 3597.76 61.00
5817 36.9960 3743.00 3577.90 61.00
5818 37.0020 3659.00 3576.89 60.00
5819 37.0080 3644.00 3593.25 60.00
5820 37.0140 3712.00 3627.07 61.00
5821 37.0200 3692.00 3677.86 61.00
5822 37.0260 3900.00 3742.44 62.00
5823 37.0320 4122.00 3814.01 64.00
5824 37.0380 4146.00 3882.47 64.00
5825 37.0440 4115.00 3950.96 64.00
5826 37.0500 4057.00 4048.58 64.00
5827 37.0560 4186.00 4225.98 65.00
5828 37.0620 4470.00 4538.53 67.00
5829 37.0680 4979.00 5020.80 71.00
5830 37.0740 5986.00 5681.42 77.00
5831 37.0800 7253.00 6441.43 85.00
5832 37.0860 8006.00 7131.30 89.00
5833 37.0920 8201.00 7508.46 91.00
5834 37.0980 7537.00 7364.86 87.00
5835 37.1040 6683.00 6766.83 82.00
5836 37.1100 5462.00 5988.49 74.00
5837 37.1160 4842.00 5236.71 70.00
5838 37.1220 4383.00 4618.76 66.00
5839 37.1280 3985.00 4180.65 63.00
5840 37.1340 3759.00 3904.61 61.00
5841 37.1400 3665.00 3746.74 61.00
5842 37.1460 3610.00 3663.25 60.00
5843 37.1520 3519.00 3627.84 59.00
5844 37.1580 3544.00 3611.30 60.00
5845 37.1640 3517.00 3594.98 59.00
5846 37.1700 3614.00 3570.50 60.00
5847 37.1760 3516.00 3541.52 59.00
5848 37.1820 3487.00 3516.16 59.00
5849 37.1880 3528.00 3501.73 59.00
5850 37.1940 3471.00 3499.77 59.00
5851 37.2000 3583.00 3521.55 60.00
5852 37.2060 3528.00 3565.90 59.00
5853 37.2120 3508.00 3653.78 59.00
5854 37.2180 3688.00 3789.09 61.00
5855 37.2240 3799.00 3977.38 62.00
5856 37.2300 4051.00 4225.02 64.00
5857 37.2360 4226.00 4516.23 65.00
5858 37.2420 4336.00 4824.86 66.00
5859 37.2480 4573.00 5135.85 68.00
5860 37.2540 5014.00 5448.62 71.00
5861 37.2600 5293.00 5733.24 73.00
5862 37.2660 5566.00 5931.66 75.00
5863 37.2720 5690.00 6015.45 75.00
5864 37.2780 5617.00 5978.17 75.00
5865 37.2840 5358.00 5818.36 73.00
5866 37.2900 4955.00 5572.55 70.00
5867 37.2960 4637.00 5290.88 68.00
5868 37.3020 4653.00 4981.00 68.00
5869 37.3080 4233.00 4643.69 65.00
5870 37.3140 4240.00 4315.05 65.00
5871 37.3200 3970.00 4035.87 63.00
5872 37.3260 3731.00 3825.43 61.00
5873 37.3320 3591.00 3685.49 60.00
5874 37.3380 3507.00 3608.49 59.00
5875 37.3440 3448.00 3582.11 59.00
5876 37.3500 3496.00 3591.22 59.00
5877 37.3560 3582.00 3617.93 60.00
5878 37.3620 3616.00 3640.21 60.00
5879 37.3680 3529.00 3636.00 59.00
5880 37.3740 3335.00 3598.25 58.00
5881 37.3800 3217.00 3540.98 57.00
5882 37.3860 3348.00 3480.70 58.00
5883 37.3920 3395.00 3428.34 58.00
5884 37.3980 3337.00 3388.80 58.00
5885 37.4040 3309.00 3363.31 58.00
5886 37.4100 3536.00 3353.10 59.00
5887 37.4160 3572.00 3354.20 60.00
5888 37.4220 3608.00 3373.70 60.00
5889 37.4280 3536.00 3404.32 59.00
5890 37.4340 3624.00 3469.70 60.00
5891 37.4400 3641.00 3564.14 60.00
5892 37.4460 3640.00 3691.11 60.00
5893 37.4520 3820.00 3840.21 62.00
5894 37.4580 3895.00 3984.47 62.00
5895 37.4640 3952.00 4080.59 63.00
5896 37.4700 3806.00 4095.16 62.00
5897 37.4760 3794.00 4035.95 62.00
5898 37.4820 3805.00 3942.67 62.00
5899 37.4880 3850.00 3831.77 62.00
5900 37.4940 3782.00 3740.24 61.00
5901 37.5000 3635.00 3687.02 60.00
5902 37.5060 3594.00 3674.92 60.00
5903 37.5120 3572.00 3690.32 60.00
5904 37.5180 3555.00 3706.84 60.00
5905 37.5240 3548.00 3695.96 60.00
5906 37.5300 3366.00 3644.58 58.00
5907 37.5360 3307.00 3569.29 58.00
5908 37.5420 3266.00 3491.39 57.00
5909 37.5480 3403.00 3424.41 58.00
5910 37.5540 3257.00 3373.62 57.00
5911 37.5600 3241.00 3338.97 57.00
5912 37.5660 3197.00 3317.36 57.00
5913 37.5720 3236.00 3304.70 57.00
5914 37.5780 3312.00 3296.60 58.00
5915 37.5840 3154.00 3293.11 56.00
5916 37.5900 3205.00 3291.58 57.00
5917 37.5960 3240.00 3291.44 57.00
5918 37.6020 3230.00 3290.35 57.00
5919 37.6080 3312.00 3292.31 58.00
5920 37.6140 3346.00 3295.17 58.00
5921 37.6200 3241.00 3296.61 57.00
5922 37.6260 3448.00 3303.84 59.00
5923 37.6320 3361.00 3309.73 58.00
5924 37.6380 3379.00 3315.25 58.00
5925 37.6440 3367.00 3323.65 58.00
5926 37.6500 3254.00 3333.57 57.00
5927 37.6560 3319.00 3345.28 58.00
5928 37.6620 3410.00 3359.16 58.00
5929 37.6680 3378.00 3375.70 58.00
5930 37.6740 3335.00 3395.59 58.00
5931 37.6800 3257.00 3424.15 57.00
5932 37.6860 3331.00 3454.66 58.00
5933 37.6920 3477.00 3494.37 59.00
5934 37.6980 3400.00 3549.18 58.00
5935 37.7040 3410.00 3629.20 58.00
5936 37.7100 3545.00 3754.26 60.00
5937 37.7160 3674.00 3952.01 61.00
5938 37.7220 3891.00 4260.04 62.00
5939 37.7280 4351.00 4718.64 66.00
5940 37.7340 5132.00 5355.60 72.00
5941 37.7400 6340.00 6161.34 80.00
5942 37.7460 7836.00 7059.53 89.00
5943 37.7520 9184.00 7905.52 96.00
5944 37.7580 9717.00 8520.92 99.00
5945 37.7640 9336.00 8742.35 97.00
5946 37.7700 7994.00 8515.39 89.00
5947 37.7760 6983.00 7970.69 84.00
5948 37.7820 6029.00 7365.52 78.00
5949 37.7880 5657.00 6949.15 75.00
5950 37.7940 6091.00 6861.02 78.00
5951 37.8000 7093.00 7108.23 84.00
5952 37.8060 8006.00 7565.93 89.00
5953 37.8120 8822.00 7985.93 94.00
5954 37.8180 8359.00 8061.45 91.00
5955 37.8240 7505.00 7662.73 87.00
5956 37.8300 6323.00 6954.36 80.00
5957 37.8360 5434.00 6193.04 74.00
5958 37.8420 4900.00 5547.35 70.00
5959 37.8480 4838.00 5081.24 70.00
5960 37.8540 4737.00 4777.06 69.00
5961 37.8600 4614.00 4564.33 68.00
5962 37.8660 4263.00 4375.24 65.00
5963 37.8720 3927.00 4193.27 63.00
5964 37.8780 3659.00 4019.43 60.00
5965 37.8840 3559.00 3874.51 60.00
5966 37.8900 3483.00 3765.77 59.00
5967 37.8960 3481.00 3693.81 59.00
5968 37.9020 3504.00 3654.15 59.00
5969 37.9080 3467.00 3640.36 59.00
5970 37.9140 3546.00 3650.80 60.00
5971 37.9200 3603.00 3684.69 60.00
5972 37.9260 3621.00 3751.34 60.00
5973 37.9320 3662.00 3862.65 61.00
5974 37.9380 3676.00 4028.08 61.00
5975 37.9440 3673.00 4248.27 61.00
5976 37.9500 3803.00 4494.08 62.00
5977 37.9560 3894.00 4717.92 62.00
5978 37.9620 3909.00 4845.50 63.00
5979 37.9680 4009.00 4823.27 63.00
5980 37.9740 4155.00 4689.34 64.00
5981 37.9800 4322.00 4539.09 66.00
5982 37.9860 4477.00 4465.83 67.00
5983 37.9920 4580.00 4526.41 68.00
5984 37.9980 4849.00 4738.38 70.00
5985 38.0040 5052.00 5074.69 71.00
5986 38.0100 5398.00 5455.19 73.00
5987 38.0160 5681.00 5742.21 75.00
5988 38.0220 5780.00 5782.63 76.00
5989 38.0280 5597.00 5535.44 75.00
5990 38.0340 5349.00 5111.30 73.00
5991 38.0400 4690.00 4651.40 68.00
5992 38.0460 4356.00 4245.94 66.00
5993 38.0520 4070.00 3933.27 64.00
5994 38.0580 3784.00 3715.79 62.00
5995 38.0640 3646.00 3576.64 60.00
5996 38.0700 3466.00 3492.46 59.00
5997 38.0760 3469.00 3442.55 59.00
5998 38.0820 3336.00 3412.45 58.00
5999 38.0880 3399.00 3393.57 58.00
6000 38.0940 3395.00 3379.55 58.00
6001 38.1000 3356.00 3372.01 58.00
6002 38.1060 3397.00 3362.99 58.00
6003 38.1120 3344.00 3359.32 58.00
6004 38.1180 3305.00 3361.46 57.00
6005 38.1240 3395.00 3366.50 58.00
6006 38.1300 3423.00 3374.66 59.00
6007 38.1360 3329.00 3386.39 58.00
6008 38.1420 3345.00 3402.53 58.00
6009 38.1480 3330.00 3424.72 58.00
6010 38.1540 3400.00 3456.17 58.00
6011 38.1600 3421.00 3495.93 58.00
6012 38.1660 3607.00 3571.35 60.00
6013 38.1720 3612.00 3695.29 60.00
6014 38.1780 3737.00 3897.26 61.00
6015 38.1840 4012.00 4210.86 63.00
6016 38.1900 4186.00 4662.37 65.00
6017 38.1960 5015.00 5251.15 71.00
6018 38.2020 6186.00 5927.67 79.00
6019 38.2080 7338.00 6574.94 86.00
6020 38.2140 7510.00 6999.95 87.00
6021 38.2200 6901.00 7035.99 83.00
6022 38.2260 6217.00 6723.77 79.00
6023 38.2320 5648.00 6268.67 75.00
6024 38.2380 5404.00 5856.76 74.00
6025 38.2440 5352.00 5579.29 73.00
6026 38.2500 5446.00 5451.79 74.00
6027 38.2560 5794.00 5440.51 76.00
6028 38.2620 6183.00 5535.73 79.00
6029 38.2680 6609.00 5751.23 81.00
6030 38.2740 6846.00 6073.88 83.00
6031 38.2800 7138.00 6426.17 84.00
6032 38.2860 7283.00 6663.97 85.00
6033 38.2920 7039.00 6665.89 84.00
6034 38.2980 7018.00 6449.34 84.00
6035 38.3040 6731.00 6127.80 82.00
6036 38.3100 6439.00 5772.87 80.00
6037 38.3160 5806.00 5392.96 76.00
6038 38.3220 5219.00 4982.96 72.00
6039 38.3280 4634.00 4579.11 68.00
6040 38.3340 4123.00 4227.44 64.00
6041 38.3400 3772.00 3946.46 61.00
6042 38.3460 3654.00 3739.82 60.00
6043 38.3520 3579.00 3594.56 60.00
6044 38.3580 3514.00 3497.65 59.00
6045 38.3640 3454.00 3430.17 59.00
6046 38.3700 3329.00 3390.97 58.00
6047 38.3760 3436.00 3362.28 59.00
6048 38.3820 3427.00 3341.33 59.00
6049 38.3880 3330.00 3325.23 58.00
6050 38.3940 3169.00 3312.41 56.00
6051 38.4000 3193.00 3302.00 57.00
6052 38.4060 3283.00 3293.49 57.00
6053 38.4120 3238.00 3286.54 57.00
6054 38.4180 3258.00 3280.90 57.00
6055 38.4240 3275.00 3276.42 57.00
6056 38.4300 3260.00 3272.95 57.00
6057 38.4360 3300.00 3270.43 57.00
6058 38.4420 3262.00 3268.77 57.00
6059 38.4480 3173.00 3267.97 56.00
6060 38.4540 3194.00 3268.03 57.00
6061 38.4600 3202.00 3268.96 57.00
6062 38.4660 3263.00 3270.83 57.00
6063 38.4720 3229.00 3273.74 57.00
6064 38.4780 3224.00 3277.84 57.00
6065 38.4840 3319.00 3283.34 58.00
6066 38.4900 3341.00 3290.61 58.00
6067 38.4960 3318.00 3300.28 58.00
6068 38.5020 3338.00 3313.54 58.00
6069 38.5080 3422.00 3332.57 58.00
6070 38.5140 3449.00 3361.26 59.00
6071 38.5200 3559.00 3405.75 60.00
6072 38.5260 3695.00 3474.51 61.00
6073 38.5320 3884.00 3577.35 62.00
6074 38.5380 4231.00 3722.91 65.00
6075 38.5440 4746.00 3915.76 69.00
6076 38.5500 5318.00 4151.26 73.00
6077 38.5560 5877.00 4409.93 77.00
6078 38.5620 6107.00 4653.40 78.00
6079 38.5680 6029.00 4874.02 78.00
6080 38.5740 5896.00 5072.95 77.00
6081 38.5800 5808.00 5248.45 76.00
6082 38.5860 5598.00 5365.68 75.00
6083 38.5920 5302.00 5377.38 73.00
6084 38.5980 4960.00 5247.37 70.00
6085 38.6040 4750.00 4987.61 69.00
6086 38.6100 4727.00 4678.41 69.00
6087 38.6160 4546.00 4403.23 67.00
6088 38.6220 4456.00 4216.95 67.00
6089 38.6280 4409.00 4143.10 66.00
6090 38.6340 4267.00 4177.50 65.00
6091 38.6400 4213.00 4307.07 65.00
6092 38.6460 4271.00 4492.71 65.00
6093 38.6520 4304.00 4682.17 66.00
6094 38.6580 4229.00 4835.00 65.00
6095 38.6640 4286.00 4950.42 65.00
6096 38.6700 4364.00 5062.01 66.00
6097 38.6760 4505.00 5181.76 67.00
6098 38.6820 4674.00 5298.02 68.00
6099 38.6880 4828.00 5400.64 69.00
6100 38.6940 4952.00 5477.14 70.00
6101 38.7000 5184.00 5511.77 72.00
6102 38.7060 5297.00 5498.30 73.00
6103 38.7120 5257.00 5419.69 73.00
6104 38.7180 5192.00 5233.27 72.00
6105 38.7240 4958.00 4929.67 70.00
6106 38.7300 4655.00 4567.48 68.00
6107 38.7360 4375.00 4219.04 66.00
6108 38.7420 4033.00 3925.78 64.00
6109 38.7480 3818.00 3702.50 62.00
6110 38.7540 3648.00 3545.42 60.00
6111 38.7600 3504.00 3441.50 59.00
6112 38.7660 3409.00 3374.98 58.00
6113 38.7720 3334.00 3332.36 58.00
6114 38.7780 3347.00 3303.92 58.00
6115 38.7840 3313.00 3283.67 58.00
6116 38.7900 3349.00 3268.27 58.00
6117 38.7960 3380.00 3255.98 58.00
6118 38.8020 3331.00 3245.85 58.00
6119 38.8080 3301.00 3237.36 57.00
6120 38.8140 3385.00 3230.14 58.00
6121 38.8200 3452.00 3223.97 59.00
6122 38.8260 3404.00 3218.66 58.00
6123 38.8320 3451.00 3214.06 59.00
6124 38.8380 3416.00 3210.08 58.00
6125 38.8440 3422.00 3206.62 58.00
6126 38.8500 3440.00 3203.64 59.00
6127 38.8560 3324.00 3201.06 58.00
6128 38.8620 3332.00 3198.47 58.00
6129 38.8680 3274.00 3195.45 57.00
6130 38.8740 3155.00 3195.21 56.00
6131 38.8800 3098.00 3195.44 56.00
6132 38.8860 3153.00 3193.63 56.00
6133 38.8920 3306.00 3193.44 57.00
6134 38.8980 3381.00 3192.62 58.00
6135 38.9040 3375.00 3192.56 58.00
6136 38.9100 3350.00 3192.87 58.00
6137 38.9160 3368.00 3195.96 58.00
6138 38.9220 3353.00 3201.90 58.00
6139 38.9280 3340.00 3214.24 58.00
6140 38.9340 3444.00 3227.71 59.00
6141 38.9400 3464.00 3248.91 59.00
6142 38.9460 3472.00 3269.09 59.00
6143 38.9520 3534.00 3291.44 59.00
6144 38.9580 3517.00 3308.16 59.00
6145 38.9640 3510.00 3315.12 59.00
6146 38.9700 3548.00 3314.17 60.00
6147 38.9760 3673.00 3311.52 61.00
6148 38.9820 3706.00 3312.32 61.00
6149 38.9880 3768.00 3318.71 61.00
6150 38.9940 3928.00 3330.90 63.00
6151 39.0000 3989.00 3350.53 63.00
6152 39.0060 3935.00 3386.63 63.00
6153 39.0120 3878.00 3438.83 62.00
6154 39.0180 3867.00 3513.31 62.00
6155 39.0240 3847.00 3602.79 62.00
6156 39.0300 3806.00 3688.44 62.00
6157 39.0360 3859.00 3744.37 62.00
6158 39.0420 3917.00 3745.50 63.00
6159 39.0480 3815.00 3696.04 62.00
6160 39.0540 3819.00 3629.79 62.00
6161 39.0600 3918.00 3580.06 63.00
6162 39.0660 3907.00 3550.05 63.00
6163 39.0720 3933.00 3548.30 63.00
6164 39.0780 4000.00 3564.30 63.00
6165 39.0840 3828.00 3575.10 62.00
6166 39.0900 3744.00 3559.25 61.00
6167 39.0960 3729.00 3513.10 61.00
6168 39.1020 3629.00 3450.90 60.00
6169 39.1080 3554.00 3388.77 60.00
6170 39.1140 3538.00 3336.71 59.00
6171 39.1200 3532.00 3298.75 59.00
6172 39.1260 3535.00 3275.00 59.00
6173 39.1320 3443.00 3263.31 59.00
6174 39.1380 3367.00 3267.66 58.00
6175 39.1440 3335.00 3272.41 58.00
6176 39.1500 3355.00 3288.45 58.00
6177 39.1560 3425.00 3304.49 59.00
6178 39.1620 3392.00 3327.24 58.00
6179 39.1680 3469.00 3359.87 59.00
6180 39.1740 3481.00 3408.75 59.00
6181 39.1800 3506.00 3485.10 59.00
6182 39.1860 3622.00 3606.37 60.00
6183 39.1920 3795.00 3795.81 62.00
6184 39.1980 4072.00 4081.01 64.00
6185 39.2040 4586.00 4475.08 68.00
6186 39.2100 5501.00 4979.43 74.00
6187 39.2160 6467.00 5556.39 80.00
6188 39.2220 7034.00 6123.31 84.00
6189 39.2280 6965.00 6546.18 83.00
6190 39.2340 6581.00 6745.17 81.00
6191 39.2400 6073.00 6688.75 78.00
6192 39.2460 5784.00 6471.80 76.00
6193 39.2520 5684.00 6204.22 75.00
6194 39.2580 5594.00 6004.89 75.00
6195 39.2640 5654.00 5932.10 75.00
6196 39.2700 5950.00 5984.90 77.00
6197 39.2760 6069.00 6112.21 78.00
6198 39.2820 6003.00 6198.56 77.00
6199 39.2880 5985.00 6140.71 77.00
6200 39.2940 5737.00 5909.95 76.00
6201 39.3000 5401.00 5545.79 73.00
6202 39.3060 5074.00 5139.58 71.00
6203 39.3120 4812.00 4788.03 69.00
6204 39.3180 4726.00 4559.88 69.00
6205 39.3240 4775.00 4487.83 69.00
6206 39.3300 4828.00 4583.43 69.00
6207 39.3360 4843.00 4832.19 70.00
6208 39.3420 4861.00 5192.26 70.00
6209 39.3480 4864.00 5585.65 70.00
6210 39.3540 5006.00 5894.03 71.00
6211 39.3600 5170.00 5995.66 72.00
6212 39.3660 5323.00 5870.68 73.00
6213 39.3720 5327.00 5635.33 73.00
6214 39.3780 5418.00 5442.06 74.00
6215 39.3840 5762.00 5399.38 76.00
6216 39.3900 6082.00 5555.02 78.00
6217 39.3960 6227.00 5891.38 79.00
6218 39.4020 6547.00 6324.63 81.00
6219 39.4080 7094.00 6696.31 84.00
6220 39.4140 7269.00 6817.66 85.00
6221 39.4200 6864.00 6602.21 83.00
6222 39.4260 6470.00 6146.04 80.00
6223 39.4320 5827.00 5621.51 76.00
6224 39.4380 5242.00 5162.19 72.00
6225 39.4440 4969.00 4848.16 70.00
6226 39.4500 4954.00 4727.45 70.00
6227 39.4560 4878.00 4830.80 70.00
6228 39.4620 5146.00 5185.03 72.00
6229 39.4680 5701.00 5810.27 76.00
6230 39.4740 6851.00 6704.46 83.00
6231 39.4800 8870.00 7811.15 94.00
6232 39.4860 11300.00 8983.85 106.00
6233 39.4920 13374.00 9964.97 116.00
6234 39.4980 13370.00 10473.80 116.00
6235 39.5040 12221.00 10372.60 111.00
6236 39.5100 10115.00 9734.34 101.00
6237 39.5160 8708.00 8802.94 93.00
6238 39.5220 7662.00 7878.94 88.00
6239 39.5280 7756.00 7190.00 88.00
6240 39.5340 7787.00 6859.94 88.00
6241 39.5400 8337.00 6933.75 91.00
6242 39.5460 9165.00 7403.48 96.00
6243 39.5520 10266.00 8221.34 101.00
6244 39.5580 11592.00 9326.17 108.00
6245 39.5640 12634.00 10672.20 112.00
6246 39.5700 13837.00 12194.00 118.00
6247 39.5760 15047.00 13739.70 123.00
6248 39.5820 15900.00 15071.40 126.00
6249 39.5880 16393.00 15967.40 128.00
6250 39.5940 15499.00 16289.20 124.00
6251 39.6000 14909.00 16106.30 122.00
6252 39.6060 14670.00 15625.10 121.00
6253 39.6120 14615.00 15079.30 121.00
6254 39.6180 15274.00 14645.40 124.00
6255 39.6240 15035.00 14328.70 123.00
6256 39.6300 14575.00 13903.40 121.00
6257 39.6360 13028.00 13070.30 114.00
6258 39.6420 10972.00 11771.20 105.00
6259 39.6480 9289.00 10250.10 96.00
6260 39.6540 8124.00 8795.87 90.00
6261 39.6600 7485.00 7583.29 87.00
6262 39.6660 6964.00 6645.71 83.00
6263 39.6720 6194.00 5926.63 79.00
6264 39.6780 5473.00 5348.77 74.00
6265 39.6840 4853.00 4871.26 70.00
6266 39.6900 4421.00 4481.67 66.00
6267 39.6960 4184.00 4172.66 65.00
6268 39.7020 4008.00 3936.22 63.00
6269 39.7080 3824.00 3758.15 62.00
6270 39.7140 3724.00 3628.07 61.00
6271 39.7200 3556.00 3529.72 60.00
6272 39.7260 3383.00 3460.48 58.00
6273 39.7320 3502.00 3408.08 59.00
6274 39.7380 3322.00 3366.90 58.00
6275 39.7440 3366.00 3337.87 58.00
6276 39.7500 3347.00 3312.36 58.00
6277 39.7560 3338.00 3289.64 58.00
6278 39.7620 3317.00 3270.85 58.00
6279 39.7680 3249.00 3255.56 57.00
6280 39.7740 3323.00 3238.25 58.00
6281 39.7800 3353.00 3230.03 58.00
6282 39.7860 3222.00 3225.95 57.00
6283 39.7920 3352.00 3227.36 58.00
6284 39.7980 3307.00 3236.59 58.00
6285 39.8040 3414.00 3257.00 58.00
6286 39.8100 3455.00 3292.59 59.00
6287 39.8160 3478.00 3347.00 59.00
6288 39.8220 3717.00 3421.91 61.00
6289 39.8280 3753.00 3515.56 61.00
6290 39.8340 3733.00 3620.39 61.00
6291 39.8400 3899.00 3721.69 62.00
6292 39.8460 3948.00 3803.70 63.00
6293 39.8520 3963.00 3865.46 63.00
6294 39.8580 4132.00 3917.26 64.00
6295 39.8640 4439.00 3982.36 67.00
6296 39.8700 4577.00 4067.72 68.00
6297 39.8760 4367.00 4162.30 66.00
6298 39.8820 4219.00 4275.83 65.00
6299 39.8880 4324.00 4441.20 66.00
6300 39.8940 4630.00 4703.48 68.00
6301 39.9000 5266.00 5083.02 73.00
6302 39.9060 6244.00 5553.12 79.00
6303 39.9120 7064.00 6026.67 84.00
6304 39.9180 7495.00 6354.82 87.00
6305 39.9240 6843.00 6396.40 83.00
6306 39.9300 5947.00 6109.12 77.00
6307 39.9360 5070.00 5592.11 71.00
6308 39.9420 4428.00 5007.79 67.00
6309 39.9480 4046.00 4460.85 64.00
6310 39.9540 3827.00 4018.66 62.00
6311 39.9600 3517.00 3697.14 59.00
6312 39.9660 3423.00 3474.35 59.00
6313 39.9720 3279.00 3337.03 57.00
6314 39.9780 3248.00 3252.73 57.00
6315 39.9840 3249.00 3203.80 57.00
6316 39.9900 3291.00 3175.56 57.00
6317 39.9960 3317.00 3147.66 58.00
6318 40.0020 3242.00 3143.02 57.00
6319 40.0080 3313.00 3148.26 58.00
6320 40.0140 3349.00 3165.92 58.00
6321 40.0200 3318.00 3201.06 58.00
6322 40.0260 3465.00 3260.90 59.00
6323 40.0320 3538.00 3351.85 59.00
6324 40.0380 3574.00 3483.76 60.00
6325 40.0440 3637.00 3657.21 60.00
6326 40.0500 3609.00 3867.09 60.00
6327 40.0560 3836.00 4098.44 62.00
6328 40.0620 3962.00 4327.49 63.00
6329 40.0680 4042.00 4541.28 64.00
6330 40.0740 4475.00 4767.73 67.00
6331 40.0800 5072.00 5061.27 71.00
6332 40.0860 5827.00 5450.74 76.00
6333 40.0920 6547.00 5905.32 81.00
6334 40.0980 6930.00 6319.31 83.00
6335 40.1040 6868.00 6533.79 83.00
6336 40.1100 6615.00 6431.38 81.00
6337 40.1160 5822.00 6030.03 76.00
6338 40.1220 5073.00 5456.09 71.00
6339 40.1280 4456.00 4852.08 67.00
6340 40.1340 4009.00 4314.99 63.00
6341 40.1400 3779.00 3889.76 61.00
6342 40.1460 3591.00 3582.65 60.00
6343 40.1520 3379.00 3376.29 58.00
6344 40.1580 3286.00 3244.80 57.00
6345 40.1640 3277.00 3164.34 57.00
6346 40.1700 3314.00 3114.01 58.00
6347 40.1760 3302.00 3082.63 57.00
6348 40.1820 3306.00 3064.04 57.00
6349 40.1880 3327.00 3055.61 58.00
6350 40.1940 3307.00 3061.43 58.00
6351 40.2000 3323.00 3079.90 58.00
6352 40.2060 3350.00 3116.64 58.00
6353 40.2120 3377.00 3177.77 58.00
6354 40.2180 3307.00 3265.07 58.00
6355 40.2240 3461.00 3376.05 59.00
6356 40.2300 3599.00 3496.17 60.00
6357 40.2360 3564.00 3601.98 60.00
6358 40.2420 3535.00 3660.90 59.00
6359 40.2480 3503.00 3650.98 59.00
6360 40.2540 3499.00 3589.60 59.00
6361 40.2600 3508.00 3517.15 59.00
6362 40.2660 3651.00 3466.88 60.00
6363 40.2720 3672.00 3459.42 61.00
6364 40.2780 3629.00 3497.73 60.00
6365 40.2840 3635.00 3565.82 60.00
6366 40.2900 3641.00 3633.53 60.00
6367 40.2960 3673.00 3663.86 61.00
6368 40.3020 3652.00 3623.39 60.00
6369 40.3080 3424.00 3520.06 59.00
6370 40.3140 3382.00 3387.41 58.00
6371 40.3200 3314.00 3255.91 58.00
6372 40.3260 3211.00 3143.24 57.00
6373 40.3320 3110.00 3056.29 56.00
6374 40.3380 2957.00 2994.55 54.00
6375 40.3440 3042.00 2953.42 55.00
6376 40.3500 3005.00 2927.14 55.00
6377 40.3560 2991.00 2910.28 55.00
6378 40.3620 2872.00 2899.18 54.00
6379 40.3680 2859.00 2891.47 53.00
6380 40.3740 2935.00 2885.84 54.00
6381 40.3800 2864.00 2881.60 54.00
6382 40.3860 2886.00 2878.40 54.00
6383 40.3920 2873.00 2876.06 54.00
6384 40.3980 2853.00 2874.48 53.00
6385 40.4040 2932.00 2873.60 54.00
6386 40.4100 2899.00 2873.68 54.00
6387 40.4160 2930.00 2874.98 54.00
6388 40.4220 2882.00 2877.01 54.00
6389 40.4280 2935.00 2879.84 54.00
6390 40.4340 2869.00 2882.03 54.00
6391 40.4400 2949.00 2886.83 54.00
6392 40.4460 2943.00 2892.84 54.00
6393 40.4520 2924.00 2900.36 54.00
6394 40.4580 2855.00 2909.91 53.00
6395 40.4640 2941.00 2922.32 54.00
6396 40.4700 3029.00 2934.94 55.00
6397 40.4760 3093.00 2958.76 56.00
6398 40.4820 3043.00 2991.53 55.00
6399 40.4880 3273.00 3042.34 57.00
6400 40.4940 3292.00 3115.75 57.00
6401 40.5000 3260.00 3218.42 57.00
6402 40.5060 3403.00 3356.03 58.00
6403 40.5120 3625.00 3531.84 60.00
6404 40.5180 3866.00 3744.56 62.00
6405 40.5240 4122.00 3986.36 64.00
6406 40.5300 4417.00 4250.17 66.00
6407 40.5360 4909.00 4542.92 70.00
6408 40.5420 5238.00 4878.11 72.00
6409 40.5480 5601.00 5245.44 75.00
6410 40.5540 6120.00 5592.03 78.00
6411 40.5600 6321.00 5827.65 80.00
6412 40.5660 6208.00 5875.60 79.00
6413 40.5720 5743.00 5744.30 76.00
6414 40.5780 5162.00 5516.97 72.00
6415 40.5840 4895.00 5279.83 70.00
6416 40.5900 4883.00 5075.24 70.00
6417 40.5960 4649.00 4906.25 68.00
6418 40.6020 4637.00 4760.40 68.00
6419 40.6080 4458.00 4617.89 67.00
6420 40.6140 4356.00 4461.81 66.00
6421 40.6200 4083.00 4292.10 64.00
6422 40.6260 4049.00 4105.07 64.00
6423 40.6320 3955.00 3897.63 63.00
6424 40.6380 3800.00 3683.00 62.00
6425 40.6440 3624.00 3484.79 60.00
6426 40.6500 3566.00 3321.67 60.00
6427 40.6560 3498.00 3194.20 59.00
6428 40.6620 3331.00 3101.42 58.00
6429 40.6680 3439.00 3034.96 59.00
6430 40.6740 3483.00 2993.96 59.00
6431 40.6800 3337.00 2961.85 58.00
6432 40.6860 3234.00 2939.62 57.00
6433 40.6920 3218.00 2925.14 57.00
6434 40.6980 3259.00 2916.64 57.00
6435 40.7040 3143.00 2912.12 56.00
6436 40.7100 3054.00 2908.87 55.00
6437 40.7160 3082.00 2903.65 56.00
6438 40.7220 2930.00 2894.36 54.00
6439 40.7280 2814.00 2881.27 53.00
6440 40.7340 2846.00 2866.81 53.00
6441 40.7400 2842.00 2855.20 53.00
6442 40.7460 2902.00 2843.36 54.00
6443 40.7520 2957.00 2833.81 54.00
6444 40.7580 2929.00 2826.46 54.00
6445 40.7640 2927.00 2820.96 54.00
6446 40.7700 2895.00 2816.83 54.00
6447 40.7760 2890.00 2813.68 54.00
6448 40.7820 2787.00 2811.18 53.00
6449 40.7880 2819.00 2809.15 53.00
6450 40.7940 2874.00 2807.47 54.00
6451 40.8000 2756.00 2806.08 52.00
6452 40.8060 2871.00 2804.94 54.00
6453 40.8120 2753.00 2804.02 52.00
6454 40.8180 2746.00 2803.32 52.00
6455 40.8240 2804.00 2802.83 53.00
6456 40.8300 2811.00 2802.54 53.00
6457 40.8360 2948.00 2802.47 54.00
6458 40.8420 2827.00 2803.27 53.00
6459 40.8480 2838.00 2805.43 53.00
6460 40.8540 2810.00 2806.11 53.00
6461 40.8600 2855.00 2807.23 53.00
6462 40.8660 2733.00 2809.60 52.00
6463 40.8720 2733.00 2811.81 52.00
6464 40.8780 2854.00 2814.23 53.00
6465 40.8840 2830.00 2817.05 53.00
6466 40.8900 2894.00 2820.30 54.00
6467 40.8960 2863.00 2824.07 54.00
6468 40.9020 2803.00 2827.47 53.00
6469 40.9080 2964.00 2832.55 54.00
6470 40.9140 2914.00 2838.44 54.00
6471 40.9200 2924.00 2845.09 54.00
6472 40.9260 2885.00 2853.15 54.00
6473 40.9320 2895.00 2861.65 54.00
6474 40.9380 2953.00 2872.55 54.00
6475 40.9440 2964.00 2887.95 54.00
6476 40.9500 2986.00 2905.82 55.00
6477 40.9560 3057.00 2929.42 55.00
6478 40.9620 3124.00 2961.34 56.00
6479 40.9680 3223.00 3009.51 57.00
6480 40.9740 3285.00 3081.88 57.00
6481 40.9800 3369.00 3189.02 58.00
6482 40.9860 3623.00 3346.69 60.00
6483 40.9920 3792.00 3566.12 62.00
6484 40.9980 4165.00 3853.59 65.00
6485 41.0040 4576.00 4208.56 68.00
6486 41.0100 4811.00 4609.05 69.00
6487 41.0160 5156.00 5012.81 72.00
6488 41.0220 5522.00 5376.76 74.00
6489 41.0280 5562.00 5686.69 75.00
6490 41.0340 5739.00 5942.12 76.00
6491 41.0400 5904.00 6097.91 77.00
6492 41.0460 5585.00 6065.23 75.00
6493 41.0520 5083.00 5797.81 71.00
6494 41.0580 4668.00 5361.25 68.00
6495 41.0640 4416.00 4880.34 66.00
6496 41.0700 4166.00 4459.46 65.00
6497 41.0760 4175.00 4152.23 65.00
6498 41.0820 4262.00 3984.28 65.00
6499 41.0880 4473.00 3945.99 67.00
6500 41.0940 4781.00 4009.77 69.00
6501 41.1000 4908.00 4129.49 70.00
6502 41.1060 5017.00 4245.29 71.00
6503 41.1120 4952.00 4288.84 70.00
6504 41.1180 4754.00 4215.37 69.00
6505 41.1240 4371.00 4039.53 66.00
6506 41.1300 4089.00 3815.79 64.00
6507 41.1360 3801.00 3594.90 62.00
6508 41.1420 3655.00 3406.73 60.00
6509 41.1480 3504.00 3264.01 59.00
6510 41.1540 3360.00 3168.37 58.00
6511 41.1600 3234.00 3115.62 57.00
6512 41.1660 3147.00 3101.15 56.00
6513 41.1720 3226.00 3123.76 57.00
6514 41.1780 3218.00 3186.92 57.00
6515 41.1840 3367.00 3297.53 58.00
6516 41.1900 3611.00 3462.16 60.00
6517 41.1960 3906.00 3681.14 62.00
6518 41.2020 4455.00 3942.23 67.00
6519 41.2080 5096.00 4213.47 71.00
6520 41.2140 5494.00 4438.89 74.00
6521 41.2200 5509.00 4554.50 74.00
6522 41.2260 5053.00 4532.33 71.00
6523 41.2320 4423.00 4398.84 67.00
6524 41.2380 4075.00 4199.01 64.00
6525 41.2440 3788.00 3972.20 62.00
6526 41.2500 3553.00 3754.80 60.00
6527 41.2560 3470.00 3578.51 59.00
6528 41.2620 3401.00 3465.46 58.00
6529 41.2680 3324.00 3428.17 58.00
6530 41.2740 3342.00 3475.45 58.00
6531 41.2800 3492.00 3612.66 59.00
6532 41.2860 3732.00 3839.03 61.00
6533 41.2920 4326.00 4140.89 66.00
6534 41.2980 5053.00 4483.91 71.00
6535 41.3040 5793.00 4804.89 76.00
6536 41.3100 6249.00 5019.15 79.00
6537 41.3160 5815.00 5059.33 76.00
6538 41.3220 5034.00 4911.35 71.00
6539 41.3280 4310.00 4622.29 66.00
6540 41.3340 3804.00 4271.85 62.00
6541 41.3400 3479.00 3934.49 59.00
6542 41.3460 3312.00 3651.73 58.00
6543 41.3520 3301.00 3445.52 57.00
6544 41.3580 3221.00 3314.62 57.00
6545 41.3640 3110.00 3253.21 56.00
6546 41.3700 3136.00 3250.96 56.00
6547 41.3760 3117.00 3294.64 56.00
6548 41.3820 3089.00 3374.41 56.00
6549 41.3880 3079.00 3471.42 55.00
6550 41.3940 3138.00 3567.03 56.00
6551 41.4000 3240.00 3647.71 57.00
6552 41.4060 3374.00 3710.00 58.00
6553 41.4120 3459.00 3780.09 59.00
6554 41.4180 3603.00 3894.82 60.00
6555 41.4240 3905.00 4073.90 62.00
6556 41.4300 4399.00 4325.37 66.00
6557 41.4360 4963.00 4611.47 70.00
6558 41.4420 5384.00 4863.34 73.00
6559 41.4480 5451.00 4992.90 74.00
6560 41.4540 4895.00 4942.16 70.00
6561 41.4600 4241.00 4721.29 65.00
6562 41.4660 3882.00 4395.68 62.00
6563 41.4720 3668.00 4043.89 61.00
6564 41.4780 3423.00 3724.34 59.00
6565 41.4840 3331.00 3466.52 58.00
6566 41.4900 3185.00 3275.40 56.00
6567 41.4960 3057.00 3148.18 55.00
6568 41.5020 3023.00 3068.24 55.00
6569 41.5080 2997.00 3019.69 55.00
6570 41.5140 2960.00 2988.37 54.00
6571 41.5200 2925.00 2964.47 54.00
6572 41.5260 2928.00 2943.72 54.00
6573 41.5320 2894.00 2925.56 54.00
6574 41.5380 2936.00 2910.29 54.00
6575 41.5440 2903.00 2897.70 54.00
6576 41.5500 2866.00 2886.98 54.00
6577 41.5560 2931.00 2880.80 54.00
6578 41.5620 2853.00 2872.55 53.00
6579 41.5680 2770.00 2865.97 53.00
6580 41.5740 2862.00 2861.57 53.00
6581 41.5800 2828.00 2859.77 53.00
6582 41.5860 2791.00 2861.13 53.00
6583 41.5920 2839.00 2866.45 53.00
6584 41.5980 2799.00 2874.46 53.00
6585 41.6040 2872.00 2891.20 54.00
6586 41.6100 2969.00 2915.29 54.00
6587 41.6160 3103.00 2946.38 56.00
6588 41.6220 3191.00 2984.36 56.00
6589 41.6280 3183.00 3025.48 56.00
6590 41.6340 3223.00 3063.66 57.00
6591 41.6400 3153.00 3091.73 56.00
6592 41.6460 3183.00 3107.31 56.00
6593 41.6520 3288.00 3117.91 57.00
6594 41.6580 3297.00 3137.63 57.00
6595 41.6640 3380.00 3180.91 58.00
6596 41.6700 3499.00 3259.93 59.00
6597 41.6760 3545.00 3383.86 60.00
6598 41.6820 3640.00 3556.99 60.00
6599 41.6880 3868.00 3773.97 62.00
6600 41.6940 4123.00 4024.63 64.00
6601 41.7000 4459.00 4286.54 67.00
6602 41.7060 4797.00 4547.81 69.00
6603 41.7120 5133.00 4791.77 72.00
6604 41.7180 5438.00 4992.69 74.00
6605 41.7240 5665.00 5134.91 75.00
6606 41.7300 5695.00 5216.25 75.00
6607 41.7360 5493.00 5243.54 74.00
6608 41.7420 5415.00 5230.44 74.00
6609 41.7480 5425.00 5183.40 74.00
6610 41.7540 5272.00 5080.73 73.00
6611 41.7600 4983.00 4888.34 71.00
6612 41.7660 4630.00 4602.30 68.00
6613 41.7720 4207.00 4264.40 65.00
6614 41.7780 3817.00 3929.82 62.00
6615 41.7840 3565.00 3635.85 60.00
6616 41.7900 3361.00 3406.43 58.00
6617 41.7960 3150.00 3232.21 56.00
6618 41.8020 3113.00 3110.66 56.00
6619 41.8080 3115.00 3029.90 56.00
6620 41.8140 3053.00 2977.98 55.00
6621 41.8200 2996.00 2944.95 55.00
6622 41.8260 2981.00 2926.04 55.00
6623 41.8320 2970.00 2911.60 54.00
6624 41.8380 2902.00 2901.66 54.00
6625 41.8440 2903.00 2896.86 54.00
6626 41.8500 2950.00 2895.24 54.00
6627 41.8560 3000.00 2896.76 55.00
6628 41.8620 3005.00 2905.29 55.00
6629 41.8680 2994.00 2915.40 55.00
6630 41.8740 3003.00 2932.92 55.00
6631 41.8800 2965.00 2962.55 54.00
6632 41.8860 2966.00 3011.93 54.00
6633 41.8920 3020.00 3091.96 55.00
6634 41.8980 3062.00 3215.79 55.00
6635 41.9040 3214.00 3395.73 57.00
6636 41.9100 3516.00 3639.98 59.00
6637 41.9160 4109.00 3936.12 64.00
6638 41.9220 4914.00 4258.90 70.00
6639 41.9280 5561.00 4552.89 75.00
6640 41.9340 5727.00 4736.22 76.00
6641 41.9400 5309.00 4737.49 73.00
6642 41.9460 4603.00 4556.14 68.00
6643 41.9520 4006.00 4263.54 63.00
6644 41.9580 3566.00 3941.59 60.00
6645 41.9640 3297.00 3645.97 57.00
6646 41.9700 3202.00 3408.13 57.00
6647 41.9760 3110.00 3228.67 56.00
6648 41.9820 3093.00 3105.39 56.00
6649 41.9880 3032.00 3026.05 55.00
6650 41.9940 3002.00 2977.55 55.00
6651 42.0000 2977.00 2951.12 55.00
6652 42.0060 2923.00 2934.86 54.00
6653 42.0120 2902.00 2926.18 54.00
6654 42.0180 2937.00 2922.61 54.00
6655 42.0240 2938.00 2923.37 54.00
6656 42.0300 2870.00 2929.13 54.00
6657 42.0360 2876.00 2938.36 54.00
6658 42.0420 2847.00 2954.21 53.00
6659 42.0480 2892.00 2979.91 54.00
6660 42.0540 2963.00 3020.27 54.00
6661 42.0600 2971.00 3081.42 55.00
6662 42.0660 3029.00 3170.85 55.00
6663 42.0720 3090.00 3290.73 56.00
6664 42.0780 3179.00 3442.16 56.00
6665 42.0840 3254.00 3615.90 57.00
6666 42.0900 3382.00 3793.20 58.00
6667 42.0960 3576.00 3941.47 60.00
6668 42.1020 3646.00 4028.04 60.00
6669 42.1080 3636.00 4043.21 60.00
6670 42.1140 3538.00 3996.43 59.00
6671 42.1200 3491.00 3918.39 59.00
6672 42.1260 3573.00 3857.59 60.00
6673 42.1320 3665.00 3859.50 61.00
6674 42.1380 3779.00 3959.25 61.00
6675 42.1440 4050.00 4182.39 64.00
6676 42.1500 4718.00 4540.99 69.00
6677 42.1560 5672.00 5018.78 75.00
6678 42.1620 6488.00 5572.87 81.00
6679 42.1680 6755.00 6117.61 82.00
6680 42.1740 6828.00 6536.80 83.00
6681 42.1800 6823.00 6742.27 83.00
6682 42.1860 6810.00 6753.36 83.00
6683 42.1920 6911.00 6667.60 83.00
6684 42.1980 6929.00 6559.46 83.00
6685 42.2040 6781.00 6435.66 82.00
6686 42.2100 6670.00 6263.30 82.00
6687 42.2160 6469.00 6037.96 80.00
6688 42.2220 6133.00 5818.71 78.00
6689 42.2280 5804.00 5670.16 76.00
6690 42.2340 5467.00 5615.31 74.00
6691 42.2400 5359.00 5624.92 73.00
6692 42.2460 5343.00 5626.88 73.00
6693 42.2520 5356.00 5546.82 73.00
6694 42.2580 5377.00 5373.68 73.00
6695 42.2640 5448.00 5167.11 74.00
6696 42.2700 5384.00 4997.72 73.00
6697 42.2760 5363.00 4903.58 73.00
6698 42.2820 5511.00 4881.99 74.00
6699 42.2880 5632.00 4892.28 75.00
6700 42.2940 5568.00 4867.76 75.00
6701 42.3000 5398.00 4765.51 73.00
6702 42.3060 5074.00 4604.05 71.00
6703 42.3120 4890.00 4445.15 70.00
6704 42.3180 4824.00 4349.35 69.00
6705 42.3240 4769.00 4352.66 69.00
6706 42.3300 4814.00 4475.99 69.00
6707 42.3360 4899.00 4703.31 70.00
6708 42.3420 4925.00 4993.13 70.00
6709 42.3480 4994.00 5273.68 71.00
6710 42.3540 5180.00 5462.12 72.00
6711 42.3600 5330.00 5517.72 73.00
6712 42.3660 5283.00 5476.07 73.00
6713 42.3720 5379.00 5406.38 73.00
6714 42.3780 5576.00 5350.92 75.00
6715 42.3840 5595.00 5305.73 75.00
6716 42.3900 5506.00 5242.80 74.00
6717 42.3960 5298.00 5150.93 73.00
6718 42.4020 5141.00 5042.46 72.00
6719 42.4080 5051.00 4923.79 71.00
6720 42.4140 4969.00 4785.54 70.00
6721 42.4200 4841.00 4621.03 70.00
6722 42.4260 4777.00 4442.93 69.00
6723 42.4320 4683.00 4278.77 68.00
6724 42.4380 4744.00 4146.87 69.00
6725 42.4440 4655.00 4042.53 68.00
6726 42.4500 4524.00 3942.43 67.00
6727 42.4560 4330.00 3822.77 66.00
6728 42.4620 4104.00 3682.49 64.00
6729 42.4680 3881.00 3540.50 62.00
6730 42.4740 3656.00 3417.73 60.00
6731 42.4800 3519.00 3329.11 59.00
6732 42.4860 3522.00 3282.28 59.00
6733 42.4920 3561.00 3282.49 60.00
6734 42.4980 3672.00 3326.32 61.00
6735 42.5040 3847.00 3407.78 62.00
6736 42.5100 3991.00 3513.12 63.00
6737 42.5160 4118.00 3620.80 64.00
6738 42.5220 4185.00 3704.48 65.00
6739 42.5280 4272.00 3747.11 65.00
6740 42.5340 4254.00 3752.40 65.00
6741 42.5400 4310.00 3733.58 66.00
6742 42.5460 4199.00 3695.76 65.00
6743 42.5520 3979.00 3642.16 63.00
6744 42.5580 3783.00 3584.48 62.00
6745 42.5640 3644.00 3538.38 60.00
6746 42.5700 3696.00 3530.05 61.00
6747 42.5760 3783.00 3557.83 62.00
6748 42.5820 3857.00 3611.85 62.00
6749 42.5880 3994.00 3675.30 63.00
6750 42.5940 3997.00 3724.74 63.00
6751 42.6000 3988.00 3728.82 63.00
6752 42.6060 3876.00 3676.34 62.00
6753 42.6120 3655.00 3572.27 60.00
6754 42.6180 3467.00 3444.81 59.00
6755 42.6240 3348.00 3321.97 58.00
6756 42.6300 3277.00 3222.60 57.00
6757 42.6360 3218.00 3156.42 57.00
6758 42.6420 3403.00 3122.79 58.00
6759 42.6480 3574.00 3126.25 60.00
6760 42.6540 3723.00 3158.53 61.00
6761 42.6600 3906.00 3212.14 62.00
6762 42.6660 4034.00 3274.94 64.00
6763 42.6720 4099.00 3328.14 64.00
6764 42.6780 3979.00 3348.74 63.00
6765 42.6840 3801.00 3319.58 62.00
6766 42.6900 3728.00 3251.81 61.00
6767 42.6960 3513.00 3163.08 59.00
6768 42.7020 3235.00 3072.49 57.00
6769 42.7080 3105.00 2991.99 56.00
6770 42.7140 3059.00 2927.19 55.00
6771 42.7200 2982.00 2878.92 55.00
6772 42.7260 2852.00 2845.16 53.00
6773 42.7320 2879.00 2822.61 54.00
6774 42.7380 2918.00 2807.84 54.00
6775 42.7440 2763.00 2796.14 53.00
6776 42.7500 2846.00 2788.15 53.00
6777 42.7560 2776.00 2783.56 53.00
6778 42.7620 2798.00 2780.32 53.00
6779 42.7680 2789.00 2778.13 53.00
6780 42.7740 2759.00 2776.77 53.00
6781 42.7800 2762.00 2774.24 53.00
6782 42.7860 2755.00 2775.00 52.00
6783 42.7920 2738.00 2777.67 52.00
6784 42.7980 2756.00 2781.66 52.00
6785 42.8040 2812.00 2789.94 53.00
6786 42.8100 2793.00 2799.98 53.00
6787 42.8160 2841.00 2816.11 53.00
6788 42.8220 2931.00 2834.99 54.00
6789 42.8280 2972.00 2855.75 55.00
6790 42.8340 3060.00 2878.65 55.00
6791 42.8400 3010.00 2892.05 55.00
6792 42.8460 3026.00 2893.93 55.00
6793 42.8520 2956.00 2889.93 54.00
6794 42.8580 2822.00 2875.81 53.00
6795 42.8640 2854.00 2861.73 53.00
6796 42.8700 2918.00 2849.68 54.00
6797 42.8760 2898.00 2844.01 54.00
6798 42.8820 2994.00 2847.26 55.00
6799 42.8880 2988.00 2861.79 55.00
6800 42.8940 2938.00 2889.85 54.00
6801 42.9000 3119.00 2933.72 56.00
6802 42.9060 3257.00 2993.19 57.00
6803 42.9120 3348.00 3067.32 58.00
6804 42.9180 3441.00 3150.04 59.00
6805 42.9240 3413.00 3233.44 58.00
6806 42.9300 3558.00 3302.92 60.00
6807 42.9360 3706.00 3348.37 61.00
6808 42.9420 3762.00 3369.14 61.00
6809 42.9480 3869.00 3373.03 62.00
6810 42.9540 3929.00 3363.43 63.00
6811 42.9600 3721.00 3338.67 61.00
6812 42.9660 3606.00 3293.26 60.00
6813 42.9720 3407.00 3226.28 58.00
6814 42.9780 3196.00 3147.45 57.00
6815 42.9840 3022.00 3068.99 55.00
6816 42.9900 2994.00 2997.19 55.00
6817 42.9960 3005.00 2937.36 55.00
6818 43.0020 2824.00 2892.78 53.00
6819 43.0080 2879.00 2861.07 54.00
6820 43.0140 2849.00 2841.35 53.00
6821 43.0200 2817.00 2828.02 53.00
6822 43.0260 2808.00 2820.04 53.00
6823 43.0320 2780.00 2815.55 53.00
6824 43.0380 2809.00 2813.26 53.00
6825 43.0440 2777.00 2812.55 53.00
6826 43.0500 2745.00 2812.94 52.00
6827 43.0560 2773.00 2814.19 53.00
6828 43.0620 2798.00 2816.22 53.00
6829 43.0680 2819.00 2818.98 53.00
6830 43.0740 2782.00 2821.59 53.00
6831 43.0800 2709.00 2825.90 52.00
6832 43.0860 2819.00 2831.04 53.00
6833 43.0920 2778.00 2837.12 53.00
6834 43.0980 2833.00 2844.26 53.00
6835 43.1040 2897.00 2852.64 54.00
6836 43.1100 2847.00 2862.52 53.00
6837 43.1160 2801.00 2874.29 53.00
6838 43.1220 2881.00 2888.55 54.00
6839 43.1280 2925.00 2906.28 54.00
6840 43.1340 2795.00 2929.10 53.00
6841 43.1400 2937.00 2959.51 54.00
6842 43.1460 2975.00 3001.22 55.00
6843 43.1520 2936.00 3059.36 54.00
6844 43.1580 3014.00 3140.43 55.00
6845 43.1640 3108.00 3252.03 56.00
6846 43.1700 3315.00 3404.90 58.00
6847 43.1760 3423.00 3600.98 59.00
6848 43.1820 3613.00 3847.99 60.00
6849 43.1880 3879.00 4147.50 62.00
6850 43.1940 4175.00 4498.60 65.00
6851 43.2000 4406.00 4900.23 66.00
6852 43.2060 4837.00 5351.12 70.00
6853 43.2120 5519.00 5843.87 74.00
6854 43.2180 6924.00 6353.72 83.00
6855 43.2240 8434.00 6835.02 92.00
6856 43.2300 8679.00 7201.25 93.00
6857 43.2360 8355.00 7391.40 91.00
6858 43.2420 7656.00 7372.61 87.00
6859 43.2480 6941.00 7132.54 83.00
6860 43.2540 6183.00 6690.80 79.00
6861 43.2600 5335.00 6118.85 73.00
6862 43.2660 4878.00 5511.57 70.00
6863 43.2720 4323.00 4951.29 66.00
6864 43.2780 3823.00 4485.99 62.00
6865 43.2840 3661.00 4128.73 61.00
6866 43.2900 3517.00 3865.01 59.00
6867 43.2960 3429.00 3671.21 59.00
6868 43.3020 3413.00 3522.64 58.00
6869 43.3080 3369.00 3409.12 58.00
6870 43.3140 3325.00 3326.92 58.00
6871 43.3200 3205.00 3276.36 57.00
6872 43.3260 3151.00 3260.73 56.00
6873 43.3320 3234.00 3286.12 57.00
6874 43.3380 3250.00 3362.17 57.00
6875 43.3440 3263.00 3496.95 57.00
6876 43.3500 3457.00 3696.03 59.00
6877 43.3560 3575.00 3956.88 60.00
6878 43.3620 3814.00 4263.55 62.00
6879 43.3680 3929.00 4581.29 63.00
6880 43.3740 4021.00 4852.77 63.00
6881 43.3800 3988.00 5013.10 63.00
6882 43.3860 4084.00 5031.10 64.00
6883 43.3920 3923.00 4934.37 63.00
6884 43.3980 3906.00 4776.88 62.00
6885 43.4040 3807.00 4594.02 62.00
6886 43.4100 3654.00 4391.10 60.00
6887 43.4160 3628.00 4163.96 60.00
6888 43.4220 3342.00 3923.30 58.00
6889 43.4280 3222.00 3692.83 57.00
6890 43.4340 3077.00 3491.54 55.00
6891 43.4400 2965.00 3327.78 54.00
6892 43.4460 2846.00 3202.45 53.00
6893 43.4520 2947.00 3111.83 54.00
6894 43.4580 2966.00 3049.82 54.00
6895 43.4640 2956.00 3009.67 54.00
6896 43.4700 2926.00 2985.31 54.00
6897 43.4760 2907.00 2971.70 54.00
6898 43.4820 2948.00 2965.65 54.00
6899 43.4880 2960.00 2965.29 54.00
6900 43.4940 2930.00 2971.44 54.00
6901 43.5000 2992.00 2981.98 55.00
6902 43.5060 2871.00 3000.52 54.00
6903 43.5120 2878.00 3031.14 54.00
6904 43.5180 3020.00 3080.29 55.00
6905 43.5240 3186.00 3156.72 56.00
6906 43.5300 3197.00 3272.02 57.00
6907 43.5360 3414.00 3432.97 58.00
6908 43.5420 3597.00 3646.78 60.00
6909 43.5480 3685.00 3907.39 61.00
6910 43.5540 3860.00 4198.92 62.00
6911 43.5600 3978.00 4487.99 63.00
6912 43.5660 4167.00 4724.54 65.00
6913 43.5720 4165.00 4864.56 65.00
6914 43.5780 4461.00 4913.17 67.00
6915 43.5840 4544.00 4929.81 67.00
6916 43.5900 4834.00 4990.79 70.00
6917 43.5960 5011.00 5144.89 71.00
6918 43.6020 5393.00 5396.62 73.00
6919 43.6080 5595.00 5705.28 75.00
6920 43.6140 5754.00 5977.82 76.00
6921 43.6200 5986.00 6094.81 77.00
6922 43.6260 5978.00 5972.93 77.00
6923 43.6320 5521.00 5633.61 74.00
6924 43.6380 5278.00 5187.86 73.00
6925 43.6440 4677.00 4739.91 68.00
6926 43.6500 4371.00 4356.67 66.00
6927 43.6560 4235.00 4084.89 65.00
6928 43.6620 4038.00 3935.00 64.00
6929 43.6680 3915.00 3896.69 63.00
6930 43.6740 3940.00 3943.68 63.00
6931 43.6800 3990.00 4036.62 63.00
6932 43.6860 3907.00 4128.68 63.00
6933 43.6920 3981.00 4176.21 63.00
6934 43.6980 4023.00 4149.79 63.00
6935 43.7040 4043.00 4045.45 64.00
6936 43.7100 3934.00 3885.06 63.00
6937 43.7160 3889.00 3705.37 62.00
6938 43.7220 3733.00 3541.83 61.00
6939 43.7280 3507.00 3408.97 59.00
6940 43.7340 3467.00 3317.98 59.00
6941 43.7400 3386.00 3267.51 58.00
6942 43.7460 3261.00 3248.70 57.00
6943 43.7520 3124.00 3247.07 56.00
6944 43.7580 3102.00 3244.87 56.00
6945 43.7640 3147.00 3226.75 56.00
6946 43.7700 3142.00 3188.10 56.00
6947 43.7760 3054.00 3135.70 55.00
6948 43.7820 3025.00 3076.84 55.00
6949 43.7880 2942.00 3025.50 54.00
6950 43.7940 2914.00 2983.39 54.00
6951 43.8000 2890.00 2951.33 54.00
6952 43.8060 2822.00 2929.52 53.00
6953 43.8120 2839.00 2915.31 53.00
6954 43.8180 2877.00 2910.05 54.00
6955 43.8240 2958.00 2911.26 54.00
6956 43.8300 3043.00 2918.73 55.00
6957 43.8360 2946.00 2933.34 54.00
6958 43.8420 3056.00 2957.22 55.00
6959 43.8480 3092.00 2993.77 56.00
6960 43.8540 3190.00 3047.40 56.00
6961 43.8600 3229.00 3122.67 57.00
6962 43.8660 3330.00 3223.49 58.00
6963 43.8720 3449.00 3351.02 59.00
6964 43.8780 3790.00 3504.42 62.00
6965 43.8840 4147.00 3675.54 64.00
6966 43.8900 4420.00 3852.77 66.00
6967 43.8960 4562.00 4015.16 68.00
6968 43.9020 4716.00 4143.03 69.00
6969 43.9080 4953.00 4236.60 70.00
6970 43.9140 4945.00 4316.54 70.00
6971 43.9200 4999.00 4399.72 71.00
6972 43.9260 5067.00 4481.34 71.00
6973 43.9320 4985.00 4539.06 71.00
6974 43.9380 4981.00 4548.95 71.00
6975 43.9440 5001.00 4503.24 71.00
6976 43.9500 4690.00 4407.48 68.00
6977 43.9560 4682.00 4282.41 68.00
6978 43.9620 4826.00 4154.96 69.00
6979 43.9680 4834.00 4040.74 70.00
6980 43.9740 4575.00 3933.31 68.00
6981 43.9800 4426.00 3823.63 67.00
6982 43.9860 4070.00 3701.69 64.00
6983 43.9920 3831.00 3576.96 62.00
6984 43.9980 3501.00 3468.39 59.00
6985 44.0040 3447.00 3391.54 59.00
6986 44.0100 3398.00 3355.83 58.00
6987 44.0160 3263.00 3364.31 57.00
6988 44.0220 3351.00 3413.44 58.00
6989 44.0280 3746.00 3487.14 61.00
6990 44.0340 3928.00 3576.21 63.00
6991 44.0400 3938.00 3647.76 63.00
6992 44.0460 3808.00 3672.93 62.00
6993 44.0520 3571.00 3639.61 60.00
6994 44.0580 3421.00 3562.78 58.00
6995 44.0640 3264.00 3472.23 57.00
6996 44.0700 3170.00 3396.31 56.00
6997 44.0760 3097.00 3356.82 56.00
6998 44.0820 3165.00 3369.66 56.00
6999 44.0880 3309.00 3445.04 58.00
7000 44.0940 3608.00 3585.55 60.00
7001 44.1000 3961.00 3787.34 63.00
7002 44.1060 4470.00 4028.78 67.00
7003 44.1120 4648.00 4279.64 68.00
7004 44.1180 4870.00 4487.84 70.00
7005 44.1240 5003.00 4592.81 71.00
7006 44.1300 4769.00 4553.60 69.00
7007 44.1360 4399.00 4383.59 66.00
7008 44.1420 4042.00 4139.35 64.00
7009 44.1480 3663.00 3880.31 61.00
7010 44.1540 3433.00 3648.74 59.00
7011 44.1600 3310.00 3467.01 58.00
7012 44.1660 3224.00 3342.05 57.00
7013 44.1720 3230.00 3272.52 57.00
7014 44.1780 3183.00 3244.57 56.00
7015 44.1840 3190.00 3243.92 56.00
7016 44.1900 3244.00 3253.49 57.00
7017 44.1960 3160.00 3257.31 56.00
7018 44.2020 3179.00 3244.60 56.00
7019 44.2080 3199.00 3214.26 57.00
7020 44.2140 3192.00 3175.01 56.00
7021 44.2200 3241.00 3139.66 57.00
7022 44.2260 3189.00 3114.00 56.00
7023 44.2320 3269.00 3107.29 57.00
7024 44.2380 3441.00 3124.61 59.00
7025 44.2440 3558.00 3169.11 60.00
7026 44.2500 3550.00 3241.71 60.00
7027 44.2560 3682.00 3343.46 61.00
7028 44.2620 3869.00 3463.70 62.00
7029 44.2680 4004.00 3597.00 63.00
7030 44.2740 4084.00 3731.36 64.00
7031 44.2800 4083.00 3851.94 64.00
7032 44.2860 4097.00 3950.62 64.00
7033 44.2920 4180.00 4036.28 65.00
7034 44.2980 4225.00 4137.93 65.00
7035 44.3040 4315.00 4282.69 66.00
7036 44.3100 4513.00 4478.02 67.00
7037 44.3160 5000.00 4710.37 71.00
7038 44.3220 5591.00 4936.93 75.00
7039 44.3280 5923.00 5101.82 77.00
7040 44.3340 5868.00 5152.89 77.00
7041 44.3400 5455.00 5060.99 74.00
7042 44.3460 4875.00 4839.28 70.00
7043 44.3520 4402.00 4533.59 66.00
7044 44.3580 4088.00 4207.63 64.00
7045 44.3640 3732.00 3909.05 61.00
7046 44.3700 3468.00 3663.82 59.00
7047 44.3760 3307.00 3479.60 58.00
7048 44.3820 3205.00 3350.25 57.00
7049 44.3880 3099.00 3260.14 56.00
7050 44.3940 3085.00 3194.16 56.00
7051 44.4000 3067.00 3138.46 55.00
7052 44.4060 2950.00 3091.25 54.00
7053 44.4120 2924.00 3046.05 54.00
7054 44.4180 2959.00 3007.29 54.00
7055 44.4240 2952.00 2975.92 54.00
7056 44.4300 2919.00 2952.27 54.00
7057 44.4360 2928.00 2936.28 54.00
7058 44.4420 2924.00 2927.69 54.00
7059 44.4480 3071.00 2926.51 55.00
7060 44.4540 2976.00 2931.99 55.00
7061 44.4600 2992.00 2947.52 55.00
7062 44.4660 3071.00 2975.49 55.00
7063 44.4720 2979.00 3015.96 55.00
7064 44.4780 2995.00 3073.45 55.00
7065 44.4840 3084.00 3141.42 56.00
7066 44.4900 3165.00 3217.97 56.00
7067 44.4960 3191.00 3294.02 56.00
7068 44.5020 3128.00 3355.96 56.00
7069 44.5080 3131.00 3389.88 56.00
7070 44.5140 3227.00 3392.22 57.00
7071 44.5200 3189.00 3374.86 56.00
7072 44.5260 3316.00 3354.15 58.00
7073 44.5320 3305.00 3344.82 57.00
7074 44.5380 3425.00 3351.49 59.00
7075 44.5440 3520.00 3381.02 59.00
7076 44.5500 3546.00 3428.60 60.00
7077 44.5560 3595.00 3492.71 60.00
7078 44.5620 3668.00 3571.50 61.00
7079 44.5680 3704.00 3658.20 61.00
7080 44.5740 3814.00 3738.90 62.00
7081 44.5800 3976.00 3798.60 63.00
7082 44.5860 4085.00 3835.91 64.00
7083 44.5920 4076.00 3871.02 64.00
7084 44.5980 3978.00 3933.35 63.00
7085 44.6040 4048.00 4045.45 64.00
7086 44.6100 4083.00 4214.19 64.00
7087 44.6160 4097.00 4430.36 64.00
7088 44.6220 4195.00 4664.86 65.00
7089 44.6280 4218.00 4875.64 65.00
7090 44.6340 4397.00 5027.94 66.00
7091 44.6400 4609.00 5118.66 68.00
7092 44.6460 4709.00 5173.37 69.00
7093 44.6520 4933.00 5212.21 70.00
7094 44.6580 5083.00 5224.87 71.00
7095 44.6640 4978.00 5173.21 71.00
7096 44.6700 4730.00 5029.37 69.00
7097 44.6760 4474.00 4806.49 67.00
7098 44.6820 4214.00 4547.17 65.00
7099 44.6880 3920.00 4288.30 63.00
7100 44.6940 3769.00 4046.27 61.00
7101 44.7000 3743.00 3827.26 61.00
7102 44.7060 3575.00 3631.24 60.00
7103 44.7120 3550.00 3462.94 60.00
7104 44.7180 3401.00 3325.27 58.00
7105 44.7240 3386.00 3219.53 58.00
7106 44.7300 3402.00 3141.38 58.00
7107 44.7360 3345.00 3087.54 58.00
7108 44.7420 3411.00 3054.31 58.00
7109 44.7480 3557.00 3039.82 60.00
7110 44.7540 3574.00 3043.55 60.00
7111 44.7600 3575.00 3069.87 60.00
7112 44.7660 3655.00 3122.77 60.00
7113 44.7720 3770.00 3211.32 61.00
7114 44.7780 3791.00 3345.10 62.00
7115 44.7840 3791.00 3531.19 62.00
7116 44.7900 3978.00 3769.92 63.00
7117 44.7960 4020.00 4050.25 63.00
7118 44.8020 3993.00 4344.90 63.00
7119 44.8080 4036.00 4606.56 64.00
7120 44.8140 4018.00 4772.35 63.00
7121 44.8200 4076.00 4792.03 64.00
7122 44.8260 4268.00 4670.65 65.00
7123 44.8320 4214.00 4469.29 65.00
7124 44.8380 4230.00 4260.39 65.00
7125 44.8440 4332.00 4103.33 66.00
7126 44.8500 4357.00 4035.80 66.00
7127 44.8560 4432.00 4074.62 67.00
7128 44.8620 4479.00 4216.47 67.00
7129 44.8680 4547.00 4436.79 67.00
7130 44.8740 4560.00 4690.65 68.00
7131 44.8800 4605.00 4909.88 68.00
7132 44.8860 4550.00 5025.21 67.00
7133 44.8920 4556.00 4988.61 67.00
7134 44.8980 4463.00 4815.34 67.00
7135 44.9040 4227.00 4565.42 65.00
7136 44.9100 4105.00 4299.55 64.00
7137 44.9160 3868.00 4059.41 62.00
7138 44.9220 3741.00 3859.19 61.00
7139 44.9280 3730.00 3694.94 61.00
7140 44.9340 3633.00 3550.98 60.00
7141 44.9400 3471.00 3416.88 59.00
7142 44.9460 3301.00 3292.52 57.00
7143 44.9520 3209.00 3182.00 57.00
7144 44.9580 3197.00 3088.30 57.00
7145 44.9640 3101.00 3012.00 56.00
7146 44.9700 2918.00 2952.93 54.00
7147 44.9760 2877.00 2908.87 54.00
7148 44.9820 2872.00 2877.18 54.00
7149 44.9880 2848.00 2854.99 53.00
7150 44.9940 2816.00 2838.71 53.00
7151 45.0000 2817.00 2828.72 53.00
7152 45.0060 2847.00 2822.77 53.00
7153 45.0120 2904.00 2821.16 54.00
7154 45.0180 2946.00 2822.92 54.00
7155 45.0240 2891.00 2829.61 54.00
7156 45.0300 2904.00 2842.55 54.00
7157 45.0360 2999.00 2863.22 55.00
7158 45.0420 3075.00 2892.64 55.00
7159 45.0480 3118.00 2928.24 56.00
7160 45.0540 3151.00 2973.03 56.00
7161 45.0600 3207.00 3021.09 57.00
7162 45.0660 3211.00 3066.21 57.00
7163 45.0720 3158.00 3100.93 56.00
7164 45.0780 3150.00 3121.66 56.00
7165 45.0840 3157.00 3130.44 56.00
7166 45.0900 3081.00 3144.10 56.00
7167 45.0960 3111.00 3170.42 56.00
7168 45.1020 3155.00 3215.18 56.00
7169 45.1080 3231.00 3278.94 57.00
7170 45.1140 3422.00 3356.36 58.00
7171 45.1200 3639.00 3438.72 60.00
7172 45.1260 3768.00 3509.25 61.00
7173 45.1320 3797.00 3548.73 62.00
7174 45.1380 3688.00 3543.29 61.00
7175 45.1440 3416.00 3493.42 58.00
7176 45.1500 3236.00 3415.02 57.00
7177 45.1560 3169.00 3329.10 56.00
7178 45.1620 3100.00 3251.02 56.00
7179 45.1680 3041.00 3187.51 55.00
7180 45.1740 2988.00 3137.61 55.00
7181 45.1800 3036.00 3096.36 55.00
7182 45.1860 3053.00 3060.34 55.00
7183 45.1920 3040.00 3031.23 55.00
7184 45.1980 3047.00 3014.14 55.00
7185 45.2040 3048.00 3014.64 55.00
7186 45.2100 3037.00 3037.38 55.00
7187 45.2160 3097.00 3085.30 56.00
7188 45.2220 3095.00 3158.84 56.00
7189 45.2280 3104.00 3254.98 56.00
7190 45.2340 3171.00 3363.17 56.00
7191 45.2400 3175.00 3477.50 56.00
7192 45.2460 3269.00 3579.48 57.00
7193 45.2520 3268.00 3660.78 57.00
7194 45.2580 3267.00 3729.25 57.00
7195 45.2640 3502.00 3808.47 59.00
7196 45.2700 3757.00 3922.26 61.00
7197 45.2760 4188.00 4079.47 65.00
7198 45.2820 4798.00 4273.96 69.00
7199 45.2880 5003.00 4477.99 71.00
7200 45.2940 4998.00 4657.58 71.00
7201 45.3000 4822.00 4777.60 69.00
7202 45.3060 4705.00 4804.21 69.00
7203 45.3120 4583.00 4726.20 68.00
7204 45.3180 4160.00 4548.33 64.00
7205 45.3240 3806.00 4298.22 62.00
7206 45.3300 3577.00 4014.13 60.00
7207 45.3360 3412.00 3734.44 58.00
7208 45.3420 3309.00 3486.32 58.00
7209 45.3480 3211.00 3283.42 57.00
7210 45.3540 3144.00 3127.54 56.00
7211 45.3600 3055.00 3015.72 55.00
7212 45.3660 2960.00 2939.94 54.00
7213 45.3720 2791.00 2892.52 53.00
7214 45.3780 2812.00 2867.42 53.00
7215 45.3840 2921.00 2859.99 54.00
7216 45.3900 2914.00 2868.65 54.00
7217 45.3960 2968.00 2892.99 54.00
7218 45.4020 3055.00 2933.13 55.00
7219 45.4080 3043.00 2988.57 55.00
7220 45.4140 3135.00 3057.01 56.00
7221 45.4200 3172.00 3133.10 56.00
7222 45.4260 3176.00 3208.32 56.00
7223 45.4320 3169.00 3269.68 56.00
7224 45.4380 3278.00 3310.69 57.00
7225 45.4440 3286.00 3333.10 57.00
7226 45.4500 3305.00 3341.71 57.00
7227 45.4560 3329.00 3336.54 58.00
7228 45.4620 3357.00 3311.40 58.00
7229 45.4680 3339.00 3260.82 58.00
7230 45.4740 3190.00 3187.95 56.00
7231 45.4800 3002.00 3105.09 55.00
7232 45.4860 2887.00 3022.44 54.00
7233 45.4920 2918.00 2948.39 54.00
7234 45.4980 2855.00 2886.39 53.00
7235 45.5040 2754.00 2835.84 52.00
7236 45.5100 2682.00 2796.17 52.00
7237 45.5160 2728.00 2765.95 52.00
7238 45.5220 2711.00 2743.53 52.00
7239 45.5280 2687.00 2727.06 52.00
7240 45.5340 2740.00 2715.24 52.00
7241 45.5400 2652.00 2706.76 51.00
7242 45.5460 2652.00 2700.75 51.00
7243 45.5520 2716.00 2696.19 52.00
7244 45.5580 2615.00 2692.57 51.00
7245 45.5640 2654.00 2691.18 52.00
7246 45.5700 2651.00 2690.54 51.00
7247 45.5760 2645.00 2690.71 51.00
7248 45.5820 2673.00 2692.39 52.00
7249 45.5880 2714.00 2695.64 52.00
7250 45.5940 2703.00 2699.93 52.00
7251 45.6000 2749.00 2705.23 52.00
7252 45.6060 2642.00 2712.63 51.00
7253 45.6120 2645.00 2722.63 51.00
7254 45.6180 2711.00 2736.46 52.00
7255 45.6240 2697.00 2755.96 52.00
7256 45.6300 2674.00 2783.63 52.00
7257 45.6360 2808.00 2822.66 53.00
7258 45.6420 2790.00 2876.71 53.00
7259 45.6480 2901.00 2949.61 54.00
7260 45.6540 3024.00 3044.42 55.00
7261 45.6600 2983.00 3162.33 55.00
7262 45.6660 3199.00 3301.30 57.00
7263 45.6720 3304.00 3455.01 57.00
7264 45.6780 3392.00 3617.59 58.00
7265 45.6840 3648.00 3778.99 60.00
7266 45.6900 3852.00 3926.09 62.00
7267 45.6960 3998.00 4045.78 63.00
7268 45.7020 4079.00 4123.67 64.00
7269 45.7080 4062.00 4154.77 64.00
7270 45.7140 4159.00 4134.62 64.00
7271 45.7200 4055.00 4061.92 64.00
7272 45.7260 3891.00 3934.44 62.00
7273 45.7320 3755.00 3762.33 61.00
7274 45.7380 3580.00 3576.00 60.00
7275 45.7440 3251.00 3396.44 57.00
7276 45.7500 3083.00 3244.41 56.00
7277 45.7560 2949.00 3129.96 54.00
7278 45.7620 2904.00 3048.77 54.00
7279 45.7680 2925.00 3000.38 54.00
7280 45.7740 2942.00 2978.65 54.00
7281 45.7800 2956.00 2976.22 54.00
7282 45.7860 3021.00 2985.76 55.00
7283 45.7920 3119.00 3000.13 56.00
7284 45.7980 3071.00 3012.82 55.00
7285 45.8040 3085.00 3020.64 56.00
7286 45.8100 3058.00 3026.40 55.00
7287 45.8160 3008.00 3037.97 55.00
7288 45.8220 2997.00 3059.78 55.00
7289 45.8280 3027.00 3095.44 55.00
7290 45.8340 2977.00 3142.88 55.00
7291 45.8400 3140.00 3194.88 56.00
7292 45.8460 3102.00 3239.68 56.00
7293 45.8520 3153.00 3265.58 56.00
7294 45.8580 3089.00 3269.43 56.00
7295 45.8640 3238.00 3261.71 57.00
7296 45.8700 3313.00 3258.08 58.00
7297 45.8760 3399.00 3272.69 58.00
7298 45.8820 3549.00 3314.11 60.00
7299 45.8880 3660.00 3384.93 60.00
7300 45.8940 3855.00 3475.09 62.00
7301 45.9000 3863.00 3569.82 62.00
7302 45.9060 3870.00 3645.99 62.00
7303 45.9120 3867.00 3684.28 62.00
7304 45.9180 3821.00 3675.84 62.00
7305 45.9240 3596.00 3619.45 60.00
7306 45.9300 3612.00 3521.75 60.00
7307 45.9360 3487.00 3399.69 59.00
7308 45.9420 3462.00 3274.20 59.00
7309 45.9480 3265.00 3162.19 57.00
7310 45.9540 3035.00 3073.11 55.00
7311 45.9600 2958.00 3009.86 54.00
7312 45.9660 3064.00 2970.75 55.00
7313 45.9720 3065.00 2950.73 55.00
7314 45.9780 3030.00 2942.52 55.00
7315 45.9840 3130.00 2937.75 56.00
7316 45.9900 3088.00 2929.18 56.00
7317 45.9960 2949.00 2913.84 54.00
7318 46.0020 2905.00 2892.72 54.00
7319 46.0080 2933.00 2869.59 54.00
7320 46.0140 2895.00 2847.82 54.00
7321 46.0200 2916.00 2829.68 54.00
7322 46.0260 2884.00 2816.39 54.00
7323 46.0320 2897.00 2808.94 54.00
7324 46.0380 2810.00 2806.08 53.00
7325 46.0440 2940.00 2808.26 54.00
7326 46.0500 2874.00 2815.53 54.00
7327 46.0560 2930.00 2828.22 54.00
7328 46.0620 2981.00 2849.01 55.00
7329 46.0680 3133.00 2881.11 56.00
7330 46.0740 3032.00 2928.85 55.00
7331 46.0800 3195.00 2997.15 57.00
7332 46.0860 3165.00 3090.33 56.00
7333 46.0920 3123.00 3210.76 56.00
7334 46.0980 3320.00 3357.47 58.00
7335 46.1040 3528.00 3522.66 59.00
7336 46.1100 3589.00 3692.82 60.00
7337 46.1160 3602.00 3845.95 60.00
7338 46.1220 3767.00 3960.91 61.00
7339 46.1280 3928.00 4031.05 63.00
7340 46.1340 4267.00 4076.27 65.00
7341 46.1400 4709.00 4133.51 69.00
7342 46.1460 5030.00 4231.31 71.00
7343 46.1520 5472.00 4379.53 74.00
7344 46.1580 5550.00 4570.46 74.00
7345 46.1640 5507.00 4774.34 74.00
7346 46.1700 5467.00 4950.98 74.00
7347 46.1760 5302.00 5061.37 73.00
7348 46.1820 5049.00 5073.32 71.00
7349 46.1880 4847.00 4964.70 70.00
7350 46.1940 4718.00 4747.22 69.00
7351 46.2000 4447.00 4468.51 67.00
7352 46.2060 4189.00 4184.48 65.00
7353 46.2120 4039.00 3937.74 64.00
7354 46.2180 4021.00 3751.34 63.00
7355 46.2240 3853.00 3631.34 62.00
7356 46.2300 3803.00 3570.60 62.00
7357 46.2360 3838.00 3551.86 62.00
7358 46.2420 3665.00 3550.19 61.00
7359 46.2480 3736.00 3541.01 61.00
7360 46.2540 3766.00 3511.78 61.00
7361 46.2600 3643.00 3467.24 60.00
7362 46.2660 3556.00 3421.06 60.00
7363 46.2720 3470.00 3385.46 59.00
7364 46.2780 3446.00 3366.03 59.00
7365 46.2840 3505.00 3362.73 59.00
7366 46.2900 3471.00 3375.68 59.00
7367 46.2960 3747.00 3403.95 61.00
7368 46.3020 3857.00 3446.04 62.00
7369 46.3080 4117.00 3495.33 64.00
7370 46.3140 4303.00 3537.25 66.00
7371 46.3200 4129.00 3553.66 64.00
7372 46.3260 3815.00 3532.96 62.00
7373 46.3320 3617.00 3477.13 60.00
7374 46.3380 3429.00 3396.86 59.00
7375 46.3440 3233.00 3307.57 57.00
7376 46.3500 3217.00 3219.92 57.00
7377 46.3560 3189.00 3140.01 56.00
7378 46.3620 3113.00 3072.19 56.00
7379 46.3680 3045.00 3014.20 55.00
7380 46.3740 3059.00 2965.53 55.00
7381 46.3800 3027.00 2927.08 55.00
7382 46.3860 2970.00 2897.72 54.00
7383 46.3920 2949.00 2879.17 54.00
7384 46.3980 2968.00 2870.99 54.00
7385 46.4040 2973.00 2873.43 55.00
7386 46.4100 3019.00 2885.98 55.00
7387 46.4160 2988.00 2907.52 55.00
7388 46.4220 3025.00 2935.87 55.00
7389 46.4280 2993.00 2968.96 55.00
7390 46.4340 3001.00 3004.70 55.00
7391 46.4400 2990.00 3042.41 55.00
7392 46.4460 2928.00 3080.50 54.00
7393 46.4520 3039.00 3114.38 55.00
7394 46.4580 2935.00 3135.94 54.00
7395 46.4640 2903.00 3137.47 54.00
7396 46.4700 2970.00 3118.25 54.00
7397 46.4760 3081.00 3086.69 56.00
7398 46.4820 3009.00 3055.12 55.00
7399 46.4880 3074.00 3034.24 55.00
7400 46.4940 3128.00 3031.36 56.00
7401 46.5000 3113.00 3050.06 56.00
7402 46.5060 3102.00 3090.09 56.00
7403 46.5120 3196.00 3148.08 57.00
7404 46.5180 3221.00 3214.11 57.00
7405 46.5240 3276.00 3277.10 57.00
7406 46.5300 3370.00 3323.93 58.00
7407 46.5360 3462.00 3347.02 59.00
7408 46.5420 3433.00 3352.81 59.00
7409 46.5480 3367.00 3361.88 58.00
7410 46.5540 3419.00 3395.00 58.00
7411 46.5600 3327.00 3475.24 58.00
7412 46.5660 3590.00 3614.33 60.00
7413 46.5720 3857.00 3815.14 62.00
7414 46.5780 4354.00 4066.95 66.00
7415 46.5840 4987.00 4343.40 71.00
7416 46.5900 5402.00 4599.64 73.00
7417 46.5960 5434.00 4776.32 74.00
7418 46.6020 5125.00 4819.49 72.00
7419 46.6080 4908.00 4717.09 70.00
7420 46.6140 4346.00 4501.61 66.00
7421 46.6200 4052.00 4226.75 64.00
7422 46.6260 3741.00 3948.27 61.00
7423 46.6320 3378.00 3694.82 58.00
7424 46.6380 3422.00 3481.71 58.00
7425 46.6440 3306.00 3314.15 57.00
7426 46.6500 3187.00 3188.84 56.00
7427 46.6560 3102.00 3099.57 56.00
7428 46.6620 3066.00 3036.92 55.00
7429 46.6680 3077.00 2992.42 55.00
7430 46.6740 3054.00 2960.89 55.00
7431 46.6800 3144.00 2942.42 56.00
7432 46.6860 3125.00 2931.98 56.00
7433 46.6920 3161.00 2930.61 56.00
7434 46.6980 3280.00 2934.63 57.00
7435 46.7040 3121.00 2941.22 56.00
7436 46.7100 3165.00 2944.81 56.00
7437 46.7160 3273.00 2943.49 57.00
7438 46.7220 3204.00 2936.13 57.00
7439 46.7280 3162.00 2923.63 56.00
7440 46.7340 3126.00 2908.58 56.00
7441 46.7400 3001.00 2892.19 55.00
7442 46.7460 3038.00 2880.85 55.00
7443 46.7520 3159.00 2882.14 56.00
7444 46.7580 3044.00 2894.08 55.00
7445 46.7640 3154.00 2924.36 56.00
7446 46.7700 3216.00 2976.50 57.00
7447 46.7760 3530.00 3046.23 59.00
7448 46.7820 3660.00 3134.46 60.00
7449 46.7880 3823.00 3232.72 62.00
7450 46.7940 3824.00 3331.75 62.00
7451 46.8000 4014.00 3420.54 63.00
7452 46.8060 4036.00 3483.57 64.00
7453 46.8120 3972.00 3510.96 63.00
7454 46.8180 3910.00 3496.39 63.00
7455 46.8240 3798.00 3443.06 62.00
7456 46.8300 3517.00 3361.33 59.00
7457 46.8360 3497.00 3263.50 59.00
7458 46.8420 3358.00 3161.81 58.00
7459 46.8480 3153.00 3069.50 56.00
7460 46.8540 3118.00 2988.78 56.00
7461 46.8600 3043.00 2927.27 55.00
7462 46.8660 3031.00 2883.97 55.00
7463 46.8720 2859.00 2852.36 53.00
7464 46.8780 2894.00 2833.70 54.00
7465 46.8840 2958.00 2826.05 54.00
7466 46.8900 2891.00 2828.38 54.00
7467 46.8960 2867.00 2840.74 54.00
7468 46.9020 2969.00 2863.77 54.00
7469 46.9080 2936.00 2900.67 54.00
7470 46.9140 3044.00 2953.93 55.00
7471 46.9200 3033.00 3023.97 55.00
7472 46.9260 3200.00 3112.32 57.00
7473 46.9320 3440.00 3217.56 59.00
7474 46.9380 3666.00 3335.04 61.00
7475 46.9440 3820.00 3455.98 62.00
7476 46.9500 3885.00 3570.03 62.00
7477 46.9560 3888.00 3669.70 62.00
7478 46.9620 3884.00 3757.83 62.00
7479 46.9680 3828.00 3840.00 62.00
7480 46.9740 3741.00 3916.95 61.00
7481 46.9800 3750.00 3975.75 61.00
7482 46.9860 3575.00 3999.62 60.00
7483 46.9920 3542.00 3978.67 60.00
7484 46.9980 3484.00 3915.32 59.00
7485 47.0040 3394.00 3819.65 58.00
7486 47.0100 3317.00 3702.40 58.00
7487 47.0160 3176.00 3574.62 56.00
7488 47.0220 3107.00 3450.17 56.00
7489 47.0280 3207.00 3342.91 57.00
7490 47.0340 3101.00 3261.30 56.00
7491 47.0400 3020.00 3212.15 55.00
7492 47.0460 3082.00 3199.91 56.00
7493 47.0520 3047.00 3223.05 55.00
7494 47.0580 3076.00 3281.23 55.00
7495 47.0640 3145.00 3373.79 56.00
7496 47.0700 3236.00 3500.26 57.00
7497 47.0760 3436.00 3656.98 59.00
7498 47.0820 3591.00 3842.69 60.00
7499 47.0880 3798.00 4058.10 62.00
7500 47.0940 4080.00 4307.41 64.00
7501 47.1000 4494.00 4588.63 67.00
7502 47.1060 5036.00 4886.50 71.00
7503 47.1120 5385.00 5164.90 73.00
7504 47.1180 5668.00 5374.37 75.00
7505 47.1240 5526.00 5477.15 74.00
7506 47.1300 5343.00 5474.48 73.00
7507 47.1360 4990.00 5405.02 71.00
7508 47.1420 4928.00 5317.11 70.00
7509 47.1480 4944.00 5256.45 70.00
7510 47.1540 5158.00 5261.29 72.00
7511 47.1600 5242.00 5357.93 72.00
7512 47.1660 5687.00 5552.97 75.00
7513 47.1720 6227.00 5829.51 79.00
7514 47.1780 7000.00 6150.42 84.00
7515 47.1840 7618.00 6472.87 87.00
7516 47.1900 8176.00 6750.95 90.00
7517 47.1960 8440.00 6939.12 92.00
7518 47.2020 8361.00 7008.01 91.00
7519 47.2080 7743.00 6953.88 88.00
7520 47.2140 6785.00 6797.11 82.00
7521 47.2200 6058.00 6573.53 78.00
7522 47.2260 5628.00 6316.72 75.00
7523 47.2320 5523.00 6049.21 74.00
7524 47.2380 5404.00 5786.47 74.00
7525 47.2440 5373.00 5553.89 73.00
7526 47.2500 5351.00 5390.08 73.00
7527 47.2560 5531.00 5339.44 74.00
7528 47.2620 5950.00 5435.56 77.00
7529 47.2680 6228.00 5689.46 79.00
7530 47.2740 6756.00 6084.73 82.00
7531 47.2800 7349.00 6572.34 86.00
7532 47.2860 7851.00 7071.62 89.00
7533 47.2920 7998.00 7483.87 89.00
7534 47.2980 7996.00 7714.51 89.00
7535 47.3040 7628.00 7694.09 87.00
7536 47.3100 7300.00 7403.91 85.00
7537 47.3160 6873.00 6899.57 83.00
7538 47.3220 6268.00 6288.46 79.00
7539 47.3280 5619.00 5675.56 75.00
7540 47.3340 5231.00 5133.50 72.00
7541 47.3400 4957.00 4698.72 70.00
7542 47.3460 4637.00 4377.90 68.00
7543 47.3520 4499.00 4156.12 67.00
7544 47.3580 4436.00 4006.87 67.00
7545 47.3640 4407.00 3904.76 66.00
7546 47.3700 4420.00 3833.04 66.00
7547 47.3760 4369.00 3780.89 66.00
7548 47.3820 4352.00 3736.17 66.00
7549 47.3880 4362.00 3683.85 66.00
7550 47.3940 4206.00 3610.43 65.00
7551 47.4000 3885.00 3514.52 62.00
7552 47.4060 3608.00 3402.88 60.00
7553 47.4120 3458.00 3287.65 59.00
7554 47.4180 3290.00 3179.65 57.00
7555 47.4240 3108.00 3084.79 56.00
7556 47.4300 3003.00 3007.99 55.00
7557 47.4360 3005.00 2948.33 55.00
7558 47.4420 2969.00 2905.77 54.00
7559 47.4480 2915.00 2877.94 54.00
7560 47.4540 2974.00 2862.62 55.00
7561 47.4600 3001.00 2860.01 55.00
7562 47.4660 2990.00 2869.52 55.00
7563 47.4720 3026.00 2891.85 55.00
7564 47.4780 3119.00 2927.90 56.00
7565 47.4840 3129.00 2978.09 56.00
7566 47.4900 3197.00 3041.49 57.00
7567 47.4960 3470.00 3114.88 59.00
7568 47.5020 3694.00 3191.92 61.00
7569 47.5080 3822.00 3262.77 62.00
7570 47.5140 3808.00 3317.06 62.00
7571 47.5200 3712.00 3349.85 61.00
7572 47.5260 3658.00 3363.66 60.00
7573 47.5320 3625.00 3366.09 60.00
7574 47.5380 3628.00 3361.67 60.00
7575 47.5440 3521.00 3354.95 59.00
7576 47.5500 3408.00 3351.30 58.00
7577 47.5560 3516.00 3355.65 59.00
7578 47.5620 3542.00 3368.10 60.00
7579 47.5680 3603.00 3389.77 60.00
7580 47.5740 3691.00 3411.47 61.00
7581 47.5800 3709.00 3419.68 61.00
7582 47.5860 3718.00 3407.21 61.00
7583 47.5920 3649.00 3374.86 60.00
7584 47.5980 3550.00 3332.47 60.00
7585 47.6040 3433.00 3285.99 59.00
7586 47.6100 3340.00 3236.70 58.00
7587 47.6160 3228.00 3182.84 57.00
7588 47.6220 3226.00 3123.65 57.00
7589 47.6280 3279.00 3067.17 57.00
7590 47.6340 3167.00 3019.54 56.00
7591 47.6400 3154.00 2985.10 56.00
7592 47.6460 3228.00 2972.21 57.00
7593 47.6520 3211.00 2978.42 57.00
7594 47.6580 3263.00 3009.07 57.00
7595 47.6640 3261.00 3059.81 57.00
7596 47.6700 3299.00 3125.78 57.00
7597 47.6760 3349.00 3202.22 58.00
7598 47.6820 3323.00 3280.16 58.00
7599 47.6880 3383.00 3353.42 58.00
7600 47.6940 3445.00 3419.60 59.00
7601 47.7000 3385.00 3468.19 58.00
7602 47.7060 3209.00 3491.29 57.00
7603 47.7120 3084.00 3479.41 56.00
7604 47.7180 3061.00 3433.89 55.00
7605 47.7240 3132.00 3358.45 56.00
7606 47.7300 3130.00 3262.95 56.00
7607 47.7360 3071.00 3158.99 55.00
7608 47.7420 3011.00 3064.73 55.00
7609 47.7480 2964.00 2981.86 54.00
7610 47.7540 2925.00 2915.00 54.00
7611 47.7600 2914.00 2868.25 54.00
7612 47.7660 2870.00 2834.12 54.00
7613 47.7720 2791.00 2807.61 53.00
7614 47.7780 2791.00 2784.29 53.00
7615 47.7840 2839.00 2761.97 53.00
7616 47.7900 2861.00 2740.65 53.00
7617 47.7960 2739.00 2721.15 52.00
7618 47.8020 2694.00 2704.08 52.00
7619 47.8080 2728.00 2690.09 52.00
7620 47.8140 2730.00 2678.38 52.00
7621 47.8200 2709.00 2668.89 52.00
7622 47.8260 2697.00 2661.15 52.00
7623 47.8320 2688.00 2654.77 52.00
7624 47.8380 2665.00 2648.86 52.00
7625 47.8440 2648.00 2644.22 51.00
7626 47.8500 2696.00 2641.63 52.00
7627 47.8560 2641.00 2638.77 51.00
7628 47.8620 2588.00 2637.69 51.00
7629 47.8680 2682.00 2637.07 52.00
7630 47.8740 2701.00 2635.69 52.00
7631 47.8800 2680.00 2634.65 52.00
7632 47.8860 2685.00 2633.87 52.00
7633 47.8920 2617.00 2633.67 51.00
7634 47.8980 2653.00 2633.33 52.00
7635 47.9040 2725.00 2633.17 52.00
7636 47.9100 2720.00 2633.17 52.00
7637 47.9160 2641.00 2633.33 51.00
7638 47.9220 2634.00 2633.64 51.00
7639 47.9280 2705.00 2634.12 52.00
7640 47.9340 2736.00 2634.75 52.00
7641 47.9400 2724.00 2635.96 52.00
7642 47.9460 2698.00 2636.96 52.00
7643 47.9520 2621.00 2638.16 51.00
7644 47.9580 2637.00 2639.57 51.00
7645 47.9640 2638.00 2640.58 51.00
7646 47.9700 2616.00 2642.52 51.00
7647 47.9760 2689.00 2644.77 52.00
7648 47.9820 2684.00 2647.37 52.00
7649 47.9880 2643.00 2650.03 51.00
7650 47.9940 2636.00 2653.56 51.00
7651 48.0000 2675.00 2657.56 52.00
7652 48.0060 2690.00 2662.56 52.00
7653 48.0120 2713.00 2668.72 52.00
7654 48.0180 2713.00 2678.18 52.00
7655 48.0240 2726.00 2688.49 52.00
7656 48.0300 2690.00 2701.50 52.00
7657 48.0360 2717.00 2720.33 52.00
7658 48.0420 2678.00 2745.85 52.00
7659 48.0480 2640.00 2781.61 51.00
7660 48.0540 2713.00 2825.89 52.00
7661 48.0600 2791.00 2881.62 53.00
7662 48.0660 3009.00 2949.27 55.00
7663 48.0720 2983.00 3028.14 55.00
7664 48.0780 3048.00 3116.71 55.00
7665 48.0840 3187.00 3209.09 56.00
7666 48.0900 3257.00 3302.86 57.00
7667 48.0960 3367.00 3399.32 58.00
7668 48.1020 3426.00 3504.39 59.00
7669 48.1080 3480.00 3623.21 59.00
7670 48.1140 3571.00 3754.52 60.00
7671 48.1200 3695.00 3889.18 61.00
7672 48.1260 3899.00 4013.68 62.00
7673 48.1320 4167.00 4118.61 65.00
7674 48.1380 4330.00 4205.40 66.00
7675 48.1440 4688.00 4277.12 68.00
7676 48.1500 5163.00 4329.93 72.00
7677 48.1560 5299.00 4347.24 73.00
7678 48.1620 4914.00 4313.10 70.00
7679 48.1680 4360.00 4225.46 66.00
7680 48.1740 3958.00 4100.94 63.00
7681 48.1800 3785.00 3961.79 62.00
7682 48.1860 3665.00 3819.54 61.00
7683 48.1920 3620.00 3678.41 60.00
7684 48.1980 3613.00 3542.72 60.00
7685 48.2040 3542.00 3421.63 60.00
7686 48.2100 3422.00 3325.79 58.00
7687 48.2160 3359.00 3263.24 58.00
7688 48.2220 3256.00 3237.76 57.00
7689 48.2280 3204.00 3249.22 57.00
7690 48.2340 3252.00 3294.76 57.00
7691 48.2400 3256.00 3368.07 57.00
7692 48.2460 3247.00 3459.81 57.00
7693 48.2520 3204.00 3557.59 57.00
7694 48.2580 3264.00 3648.21 57.00
7695 48.2640 3349.00 3725.40 58.00
7696 48.2700 3518.00 3797.15 59.00
7697 48.2760 3697.00 3882.36 61.00
7698 48.2820 3894.00 3998.83 62.00
7699 48.2880 4121.00 4153.05 64.00
7700 48.2940 4412.00 4336.99 66.00
7701 48.3000 4672.00 4525.64 68.00
7702 48.3060 4754.00 4680.52 69.00
7703 48.3120 4866.00 4763.41 70.00
7704 48.3180 4811.00 4750.90 69.00
7705 48.3240 4580.00 4640.38 68.00
7706 48.3300 4299.00 4454.51 66.00
7707 48.3360 3998.00 4224.95 63.00
7708 48.3420 3711.00 3984.22 61.00
7709 48.3480 3575.00 3756.71 60.00
7710 48.3540 3457.00 3558.00 59.00
7711 48.3600 3362.00 3398.12 58.00
7712 48.3660 3260.00 3279.85 57.00
7713 48.3720 3253.00 3199.55 57.00
7714 48.3780 3246.00 3148.97 57.00
7715 48.3840 3266.00 3116.97 57.00
7716 48.3900 3202.00 3092.18 57.00
7717 48.3960 3165.00 3066.74 56.00
7718 48.4020 3051.00 3039.47 55.00
7719 48.4080 2992.00 3015.45 55.00
7720 48.4140 2989.00 3000.87 55.00
7721 48.4200 2979.00 3003.36 55.00
7722 48.4260 3005.00 3030.22 55.00
7723 48.4320 3029.00 3086.10 55.00
7724 48.4380 3210.00 3175.73 57.00
7725 48.4440 3300.00 3300.78 57.00
7726 48.4500 3429.00 3459.48 59.00
7727 48.4560 3453.00 3644.99 59.00
7728 48.4620 3644.00 3844.16 60.00
7729 48.4680 3656.00 4036.40 60.00
7730 48.4740 3765.00 4199.22 61.00
7731 48.4800 3868.00 4323.68 62.00
7732 48.4860 4043.00 4415.81 64.00
7733 48.4920 4186.00 4485.03 65.00
7734 48.4980 4032.00 4530.05 63.00
7735 48.5040 4181.00 4538.83 65.00
7736 48.5100 4208.00 4502.51 65.00
7737 48.5160 4228.00 4423.44 65.00
7738 48.5220 4100.00 4311.72 64.00
7739 48.5280 3905.00 4173.98 62.00
7740 48.5340 3912.00 4010.98 63.00
7741 48.5400 3754.00 3829.02 61.00
7742 48.5460 3447.00 3640.61 59.00
7743 48.5520 3401.00 3463.66 58.00
7744 48.5580 3198.00 3309.93 57.00
7745 48.5640 2996.00 3186.38 55.00
7746 48.5700 3020.00 3093.77 55.00
7747 48.5760 3013.00 3028.57 55.00
7748 48.5820 2902.00 2983.67 54.00
7749 48.5880 2860.00 2950.71 53.00
7750 48.5940 2820.00 2922.13 53.00
7751 48.6000 2859.00 2891.55 53.00
7752 48.6060 2836.00 2857.86 53.00
7753 48.6120 2830.00 2823.39 53.00
7754 48.6180 2694.00 2788.34 52.00
7755 48.6240 2730.00 2758.74 52.00
7756 48.6300 2687.00 2733.77 52.00
7757 48.6360 2672.00 2713.80 52.00
7758 48.6420 2678.00 2698.66 52.00
7759 48.6480 2619.00 2687.71 51.00
7760 48.6540 2649.00 2680.40 51.00
7761 48.6600 2650.00 2675.93 51.00
7762 48.6660 2641.00 2673.74 51.00
7763 48.6720 2748.00 2673.14 52.00
7764 48.6780 2736.00 2674.35 52.00
7765 48.6840 2722.00 2677.51 52.00
7766 48.6900 2654.00 2683.08 52.00
7767 48.6960 2704.00 2691.99 52.00
7768 48.7020 2744.00 2705.86 52.00
7769 48.7080 2755.00 2726.74 52.00
7770 48.7140 2889.00 2757.72 54.00
7771 48.7200 2862.00 2798.91 53.00
7772 48.7260 2808.00 2857.14 53.00
7773 48.7320 2903.00 2934.36 54.00
7774 48.7380 3131.00 3032.65 56.00
7775 48.7440 3245.00 3151.61 57.00
7776 48.7500 3316.00 3287.22 58.00
7777 48.7560 3562.00 3431.33 60.00
7778 48.7620 3871.00 3570.86 62.00
7779 48.7680 4222.00 3695.02 65.00
7780 48.7740 4345.00 3788.12 66.00
7781 48.7800 4566.00 3838.94 68.00
7782 48.7860 4347.00 3841.11 66.00
7783 48.7920 4106.00 3793.81 64.00
7784 48.7980 3637.00 3705.40 60.00
7785 48.8040 3468.00 3589.34 59.00
7786 48.8100 3356.00 3461.29 58.00
7787 48.8160 3173.00 3335.27 56.00
7788 48.8220 2977.00 3224.44 55.00
7789 48.8280 2964.00 3138.89 54.00
7790 48.8340 2812.00 3084.75 53.00
7791 48.8400 2837.00 3064.13 53.00
7792 48.8460 2892.00 3075.90 54.00
7793 48.8520 2888.00 3117.07 54.00
7794 48.8580 2929.00 3179.30 54.00
7795 48.8640 2958.00 3254.14 54.00
7796 48.8700 2985.00 3332.06 55.00
7797 48.8760 3109.00 3404.87 56.00
7798 48.8820 3188.00 3465.04 56.00
7799 48.8880 3240.00 3512.02 57.00
7800 48.8940 3409.00 3547.79 58.00
7801 48.9000 3428.00 3578.58 59.00
7802 48.9060 3663.00 3610.53 61.00
7803 48.9120 3700.00 3644.04 61.00
7804 48.9180 3829.00 3671.99 62.00
7805 48.9240 3822.00 3684.31 62.00
7806 48.9300 3689.00 3670.94 61.00
7807 48.9360 3519.00 3632.20 59.00
7808 48.9420 3539.00 3582.54 59.00
7809 48.9480 3554.00 3535.56 60.00
7810 48.9540 3574.00 3502.24 60.00
7811 48.9600 3573.00 3485.31 60.00
7812 48.9660 3638.00 3478.06 60.00
7813 48.9720 3659.00 3474.43 60.00
7814 48.9780 3552.00 3462.84 60.00
7815 48.9840 3636.00 3434.94 60.00
7816 48.9900 3346.00 3387.59 58.00
7817 48.9960 3196.00 3322.03 57.00
7818 49.0020 3179.00 3248.40 56.00
7819 49.0080 3157.00 3171.52 56.00
7820 49.0140 3023.00 3096.53 55.00
7821 49.0200 2971.00 3026.02 55.00
7822 49.0260 2820.00 2963.27 53.00
7823 49.0320 2854.00 2912.43 53.00
7824 49.0380 2890.00 2875.97 54.00
7825 49.0440 2941.00 2856.37 54.00
7826 49.0500 2933.00 2852.07 54.00
7827 49.0560 3034.00 2862.55 55.00
7828 49.0620 2989.00 2886.28 55.00
7829 49.0680 3169.00 2921.61 56.00
7830 49.0740 3149.00 2960.22 56.00
7831 49.0800 3168.00 3000.08 56.00
7832 49.0860 3090.00 3039.61 56.00
7833 49.0920 3096.00 3077.12 56.00
7834 49.0980 3197.00 3111.38 57.00
7835 49.1040 3288.00 3138.11 57.00
7836 49.1100 3193.00 3155.02 57.00
7837 49.1160 3177.00 3159.66 56.00
7838 49.1220 3269.00 3162.69 57.00
7839 49.1280 3185.00 3177.27 56.00
7840 49.1340 3276.00 3215.19 57.00
7841 49.1400 3474.00 3283.39 59.00
7842 49.1460 3708.00 3382.57 61.00
7843 49.1520 3923.00 3508.13 63.00
7844 49.1580 4397.00 3642.37 66.00
7845 49.1640 4502.00 3762.44 67.00
7846 49.1700 4556.00 3841.08 67.00
7847 49.1760 4442.00 3858.65 67.00
7848 49.1820 4049.00 3809.19 64.00
7849 49.1880 3911.00 3705.34 63.00
7850 49.1940 3717.00 3570.95 61.00
7851 49.2000 3648.00 3429.22 60.00
7852 49.2060 3407.00 3297.49 58.00
7853 49.2120 3254.00 3179.64 57.00
7854 49.2180 3188.00 3080.72 56.00
7855 49.2240 3205.00 2996.25 57.00
7856 49.2300 3061.00 2928.24 55.00
7857 49.2360 3041.00 2875.96 55.00
7858 49.2420 3154.00 2838.05 56.00
7859 49.2480 3078.00 2816.22 55.00
7860 49.2540 3094.00 2808.01 56.00
7861 49.2600 3107.00 2816.86 56.00
7862 49.2660 3079.00 2844.53 55.00
7863 49.2720 3112.00 2894.35 56.00
7864 49.2780 3010.00 2971.45 55.00
7865 49.2840 3276.00 3079.71 57.00
7866 49.2900 3241.00 3222.09 57.00
7867 49.2960 3604.00 3398.22 60.00
7868 49.3020 3950.00 3602.63 63.00
7869 49.3080 4313.00 3822.61 66.00
7870 49.3140 4613.00 4036.88 68.00
7871 49.3200 4857.00 4220.49 70.00
7872 49.3260 4704.00 4353.34 69.00
7873 49.3320 4599.00 4423.64 68.00
7874 49.3380 4488.00 4423.72 67.00
7875 49.3440 4383.00 4353.48 66.00
7876 49.3500 4072.00 4226.20 64.00
7877 49.3560 3787.00 4070.75 62.00
7878 49.3620 3641.00 3917.06 60.00
7879 49.3680 3606.00 3784.65 60.00
7880 49.3740 3603.00 3679.95 60.00
7881 49.3800 3503.00 3597.43 59.00
7882 49.3860 3536.00 3523.64 59.00
7883 49.3920 3484.00 3445.21 59.00
7884 49.3980 3346.00 3356.37 58.00
7885 49.4040 3217.00 3264.48 57.00
7886 49.4100 3216.00 3178.48 57.00
7887 49.4160 3113.00 3107.45 56.00
7888 49.4220 3115.00 3058.03 56.00
7889 49.4280 3008.00 3034.52 55.00
7890 49.4340 2940.00 3038.58 54.00
7891 49.4400 3072.00 3071.09 55.00
7892 49.4460 3287.00 3129.40 57.00
7893 49.4520 3428.00 3208.53 59.00
7894 49.4580 3648.00 3303.25 60.00
7895 49.4640 3616.00 3404.03 60.00
7896 49.4700 3761.00 3502.30 61.00
7897 49.4760 3774.00 3595.18 61.00
7898 49.4820 3876.00 3688.39 62.00
7899 49.4880 3987.00 3793.31 63.00
7900 49.4940 4102.00 3917.41 64.00
7901 49.5000 4471.00 4061.33 67.00
7902 49.5060 4647.00 4219.25 68.00
7903 49.5120 4705.00 4382.18 69.00
7904 49.5180 4906.00 4541.72 70.00
7905 49.5240 5039.00 4689.44 71.00
7906 49.5300 5082.00 4812.77 71.00
7907 49.5360 5103.00 4896.06 71.00
7908 49.5420 5319.00 4932.70 73.00
7909 49.5480 5349.00 4934.43 73.00
7910 49.5540 5527.00 4920.68 74.00
7911 49.5600 5573.00 4911.41 75.00
7912 49.5660 5667.00 4917.83 75.00
7913 49.5720 5772.00 4941.77 76.00
7914 49.5780 5958.00 4982.63 77.00
7915 49.5840 5862.00 5050.84 77.00
7916 49.5900 5902.00 5164.91 77.00
7917 49.5960 5938.00 5337.45 77.00
7918 49.6020 6211.00 5565.36 79.00
7919 49.6080 6414.00 5819.01 80.00
7920 49.6140 6533.00 6047.96 81.00
7921 49.6200 6737.00 6193.60 82.00
7922 49.6260 6728.00 6216.15 82.00
7923 49.6320 6661.00 6115.79 82.00
7924 49.6380 6440.00 5929.44 80.00
7925 49.6440 6230.00 5711.94 79.00
7926 49.6500 6159.00 5515.45 78.00
7927 49.6560 6060.00 5374.93 78.00
7928 49.6620 6040.00 5297.65 78.00
7929 49.6680 6122.00 5265.00 78.00
7930 49.6740 5939.00 5238.44 77.00
7931 49.6800 5705.00 5175.51 76.00
7932 49.6860 5476.00 5048.35 74.00
7933 49.6920 5185.00 4854.20 72.00
7934 49.6980 4921.00 4610.57 70.00
7935 49.7040 4657.00 4343.86 68.00
7936 49.7100 4434.00 4075.56 67.00
7937 49.7160 4016.00 3819.18 63.00
7938 49.7220 3777.00 3583.19 61.00
7939 49.7280 3555.00 3374.75 60.00
7940 49.7340 3291.00 3198.39 57.00
7941 49.7400 3196.00 3054.90 57.00
7942 49.7460 3069.00 2941.80 55.00
7943 49.7520 2913.00 2854.64 54.00
7944 49.7580 2835.00 2788.67 53.00
7945 49.7640 2799.00 2739.33 53.00
7946 49.7700 2782.00 2702.68 53.00
7947 49.7760 2779.00 2675.57 53.00
7948 49.7820 2842.00 2655.66 53.00
7949 49.7880 2790.00 2640.16 53.00
7950 49.7940 2879.00 2630.74 54.00
7951 49.8000 2871.00 2625.91 54.00
7952 49.8060 2687.00 2625.43 52.00
7953 49.8120 2690.00 2629.31 52.00
7954 49.8180 2742.00 2640.46 52.00
7955 49.8240 2796.00 2657.54 53.00
7956 49.8300 2735.00 2680.04 52.00
7957 49.8360 2956.00 2706.43 54.00
7958 49.8420 3030.00 2733.92 55.00
7959 49.8480 3088.00 2758.11 56.00
7960 49.8540 3141.00 2773.33 56.00
7961 49.8600 3068.00 2773.61 55.00
7962 49.8660 3004.00 2759.34 55.00
7963 49.8720 2816.00 2732.77 53.00
7964 49.8780 2766.00 2699.49 53.00
7965 49.8840 2705.00 2664.67 52.00
7966 49.8900 2647.00 2631.98 51.00
7967 49.8960 2578.00 2603.60 51.00
7968 49.9020 2615.00 2580.49 51.00
7969 49.9080 2573.00 2562.70 51.00
7970 49.9140 2587.00 2549.73 51.00
7971 49.9200 2664.00 2540.76 52.00
7972 49.9260 2650.00 2534.93 51.00
7973 49.9320 2571.00 2531.53 51.00
7974 49.9380 2590.00 2530.07 51.00
7975 49.9440 2574.00 2529.65 51.00
7976 49.9500 2673.00 2531.92 52.00
7977 49.9560 2721.00 2536.73 52.00
7978 49.9620 2687.00 2544.72 52.00
7979 49.9680 2743.00 2557.26 52.00
7980 49.9740 2690.00 2575.18 52.00
7981 49.9800 2666.00 2600.53 52.00
7982 49.9860 2669.00 2633.57 52.00
7983 49.9920 2740.00 2676.68 52.00
7984 49.9980 2763.00 2728.22 53.00
7985 50.0040 2771.00 2787.33 53.00
7986 50.0100 2787.00 2849.42 53.00
7987 50.0160 2752.00 2913.15 52.00
7988 50.0220 2821.00 2971.12 53.00
7989 50.0280 2864.00 3021.84 54.00
7990 50.0340 2864.00 3066.96 54.00
7991 50.0400 2948.00 3110.86 54.00
7992 50.0460 3137.00 3155.60 56.00
7993 50.0520 3205.00 3195.76 57.00
7994 50.0580 3265.00 3225.62 57.00
7995 50.0640 3103.00 3232.34 56.00
7996 50.0700 3019.00 3208.29 55.00
7997 50.0760 2865.00 3152.81 54.00
7998 50.0820 2823.00 3072.42 53.00
7999 50.0880 2752.00 2978.29 52.00
8000 50.0940 2734.00 2879.82 52.00
8001 50.1000 2721.00 2788.58 52.00
8002 50.1060 2748.00 2710.96 52.00
8003 50.1120 2697.00 2646.11 52.00
8004 50.1180 2676.00 2596.59 52.00
8005 50.1240 2586.00 2559.64 51.00
8006 50.1300 2510.00 2533.10 50.00
8007 50.1360 2511.00 2514.66 50.00
8008 50.1420 2509.00 2502.28 50.00
8009 50.1480 2596.00 2494.02 51.00
8010 50.1540 2582.00 2489.36 51.00
8011 50.1600 2571.00 2486.58 51.00
8012 50.1660 2570.00 2485.06 51.00
8013 50.1720 2587.00 2486.37 51.00
8014 50.1780 2578.00 2487.97 51.00
8015 50.1840 2474.00 2490.11 50.00
8016 50.1900 2521.00 2490.44 50.00
8017 50.1960 2446.00 2489.75 49.00
8018 50.2020 2466.00 2487.20 50.00
8019 50.2080 2566.00 2483.15 51.00
8020 50.2140 2617.00 2478.39 51.00
8021 50.2200 2562.00 2473.72 51.00
8022 50.2260 2553.00 2469.69 51.00
8023 50.2320 2533.00 2466.62 50.00
8024 50.2380 2516.00 2464.58 50.00
8025 50.2440 2471.00 2463.44 50.00
8026 50.2500 2464.00 2462.84 50.00
8027 50.2560 2559.00 2462.31 51.00
8028 50.2620 2479.00 2461.35 50.00
8029 50.2680 2533.00 2459.67 50.00
8030 50.2740 2494.00 2457.34 50.00
8031 50.2800 2493.00 2454.65 50.00
8032 50.2860 2418.00 2451.92 49.00
8033 50.2920 2451.00 2450.17 50.00
8034 50.2980 2451.00 2448.81 50.00
8035 50.3040 2515.00 2447.91 50.00
8036 50.3100 2481.00 2447.51 50.00
8037 50.3160 2490.00 2447.58 50.00
8038 50.3220 2480.00 2448.11 50.00
8039 50.3280 2478.00 2449.39 50.00
8040 50.3340 2468.00 2450.32 50.00
8041 50.3400 2439.00 2452.07 49.00
8042 50.3460 2474.00 2454.28 50.00
8043 50.3520 2456.00 2457.75 50.00
8044 50.3580 2496.00 2461.34 50.00
8045 50.3640 2493.00 2466.00 50.00
8046 50.3700 2485.00 2472.11 50.00
8047 50.3760 2468.00 2480.18 50.00
8048 50.3820 2530.00 2490.83 50.00
8049 50.3880 2570.00 2504.79 51.00
8050 50.3940 2561.00 2523.16 51.00
8051 50.4000 2513.00 2546.21 50.00
8052 50.4060 2509.00 2574.77 50.00
8053 50.4120 2539.00 2609.98 50.00
8054 50.4180 2575.00 2650.93 51.00
8055 50.4240 2614.00 2698.13 51.00
8056 50.4300 2669.00 2751.20 52.00
8057 50.4360 2655.00 2809.14 52.00
8058 50.4420 2724.00 2870.04 52.00
8059 50.4480 2806.00 2931.26 53.00
8060 50.4540 2817.00 2989.06 53.00
8061 50.4600 2813.00 3038.35 53.00
8062 50.4660 2886.00 3072.56 54.00
8063 50.4720 2961.00 3085.54 54.00
8064 50.4780 2907.00 3074.38 54.00
8065 50.4840 2833.00 3040.01 53.00
8066 50.4900 2777.00 2986.23 53.00
8067 50.4960 2743.00 2919.51 52.00
8068 50.5020 2661.00 2848.28 52.00
8069 50.5080 2647.00 2779.59 51.00
8070 50.5140 2642.00 2719.01 51.00
8071 50.5200 2608.00 2669.16 51.00
8072 50.5260 2574.00 2630.65 51.00
8073 50.5320 2523.00 2603.04 50.00
8074 50.5380 2519.00 2584.16 50.00
8075 50.5440 2557.00 2574.42 51.00
8076 50.5500 2587.00 2573.04 51.00
8077 50.5560 2574.00 2578.95 51.00
8078 50.5620 2588.00 2594.60 51.00
8079 50.5680 2621.00 2621.32 51.00
8080 50.5740 2576.00 2661.64 51.00
8081 50.5800 2623.00 2718.96 51.00
8082 50.5860 2664.00 2794.40 52.00
8083 50.5920 2774.00 2890.09 53.00
8084 50.5980 2936.00 3005.41 54.00
8085 50.6040 3149.00 3136.60 56.00
8086 50.6100 3436.00 3275.40 59.00
8087 50.6160 3586.00 3408.61 60.00
8088 50.6220 3599.00 3516.98 60.00
8089 50.6280 3583.00 3585.32 60.00
8090 50.6340 3601.00 3608.99 60.00
8091 50.6400 3639.00 3595.24 60.00
8092 50.6460 3533.00 3554.68 59.00
8093 50.6520 3436.00 3493.13 59.00
8094 50.6580 3414.00 3411.31 58.00
8095 50.6640 3310.00 3310.41 58.00
8096 50.6700 3187.00 3195.25 56.00
8097 50.6760 3109.00 3075.62 56.00
8098 50.6820 2938.00 2961.51 54.00
8099 50.6880 2784.00 2859.76 53.00
8100 50.6940 2741.00 2773.83 52.00
8101 50.7000 2728.00 2705.02 52.00
8102 50.7060 2648.00 2651.58 51.00
8103 50.7120 2562.00 2612.35 51.00
8104 50.7180 2554.00 2584.34 51.00
8105 50.7240 2593.00 2565.91 51.00
8106 50.7300 2637.00 2554.05 51.00
8107 50.7360 2606.00 2547.93 51.00
8108 50.7420 2550.00 2546.69 50.00
8109 50.7480 2571.00 2549.36 51.00
8110 50.7540 2635.00 2556.67 51.00
8111 50.7600 2678.00 2569.39 52.00
8112 50.7660 2694.00 2588.60 52.00
8113 50.7720 2748.00 2615.47 52.00
8114 50.7780 2811.00 2651.78 53.00
8115 50.7840 2927.00 2696.68 54.00
8116 50.7900 2950.00 2751.39 54.00
8117 50.7960 2935.00 2812.44 54.00
8118 50.8020 3026.00 2877.06 55.00
8119 50.8080 3088.00 2940.38 56.00
8120 50.8140 3062.00 2997.70 55.00
8121 50.8200 3074.00 3046.27 55.00
8122 50.8260 3115.00 3084.43 56.00
8123 50.8320 3073.00 3109.74 55.00
8124 50.8380 3029.00 3119.89 55.00
8125 50.8440 3086.00 3116.34 56.00
8126 50.8500 3158.00 3105.83 56.00
8127 50.8560 3188.00 3096.91 56.00
8128 50.8620 3208.00 3095.37 57.00
8129 50.8680 3234.00 3102.04 57.00
8130 50.8740 3254.00 3112.87 57.00
8131 50.8800 3212.00 3122.17 57.00
8132 50.8860 3192.00 3120.53 56.00
8133 50.8920 3195.00 3103.72 57.00
8134 50.8980 3185.00 3068.84 56.00
8135 50.9040 3092.00 3017.19 56.00
8136 50.9100 3007.00 2955.16 55.00
8137 50.9160 2935.00 2891.48 54.00
8138 50.9220 2858.00 2834.18 53.00
8139 50.9280 2781.00 2789.58 53.00
8140 50.9340 2759.00 2762.07 53.00
8141 50.9400 2816.00 2753.52 53.00
8142 50.9460 2895.00 2765.16 54.00
8143 50.9520 2955.00 2796.69 54.00
8144 50.9580 3115.00 2846.87 56.00
8145 50.9640 3234.00 2911.30 57.00
8146 50.9700 3277.00 2984.33 57.00
8147 50.9760 3367.00 3058.62 58.00
8148 50.9820 3450.00 3123.34 59.00
8149 50.9880 3407.00 3169.43 58.00
8150 50.9940 3392.00 3191.75 58.00
8151 51.0000 3408.00 3195.03 58.00
8152 51.0060 3393.00 3187.95 58.00
8153 51.0120 3399.00 3178.26 58.00
8154 51.0180 3351.00 3170.44 58.00
8155 51.0240 3286.00 3166.27 57.00
8156 51.0300 3218.00 3165.76 57.00
8157 51.0360 3189.00 3167.99 56.00
8158 51.0420 3263.00 3172.90 57.00
8159 51.0480 3275.00 3180.81 57.00
8160 51.0540 3225.00 3190.37 57.00
8161 51.0600 3145.00 3197.42 56.00
8162 51.0660 3022.00 3197.24 55.00
8163 51.0720 3064.00 3188.64 55.00
8164 51.0780 3180.00 3175.15 56.00
8165 51.0840 3214.00 3161.57 57.00
8166 51.0900 3219.00 3150.01 57.00
8167 51.0960 3221.00 3138.39 57.00
8168 51.1020 3133.00 3122.08 56.00
8169 51.1080 3086.00 3098.10 56.00
8170 51.1140 3003.00 3066.51 55.00
8171 51.1200 2826.00 3036.33 53.00
8172 51.1260 2734.00 3012.80 52.00
8173 51.1320 2707.00 3000.48 52.00
8174 51.1380 2748.00 3001.13 52.00
8175 51.1440 2729.00 3013.64 52.00
8176 51.1500 2713.00 3036.49 52.00
8177 51.1560 2811.00 3069.35 53.00
8178 51.1620 2907.00 3113.25 54.00
8179 51.1680 2995.00 3170.68 55.00
8180 51.1740 3031.00 3242.36 55.00
8181 51.1800 3097.00 3325.31 56.00
8182 51.1860 3216.00 3412.95 57.00
8183 51.1920 3329.00 3497.10 58.00
8184 51.1980 3456.00 3570.46 59.00
8185 51.2040 3497.00 3626.61 59.00
8186 51.2100 3560.00 3662.28 60.00
8187 51.2160 3631.00 3677.00 60.00
8188 51.2220 3570.00 3673.83 60.00
8189 51.2280 3447.00 3658.73 59.00
8190 51.2340 3326.00 3640.25 58.00
8191 51.2400 3359.00 3628.24 58.00
8192 51.2460 3566.00 3630.20 60.00
8193 51.2520 3676.00 3647.70 61.00
8194 51.2580 3899.00 3671.45 62.00
8195 51.2640 4062.00 3686.73 64.00
8196 51.2700 3940.00 3676.74 63.00
8197 51.2760 3698.00 3626.87 61.00
8198 51.2820 3440.00 3537.80 59.00
8199 51.2880 3254.00 3420.95 57.00
8200 51.2940 3101.00 3293.11 56.00
8201 51.3000 2918.00 3169.93 54.00
8202 51.3060 2758.00 3064.28 53.00
8203 51.3120 2721.00 2983.76 52.00
8204 51.3180 2727.00 2933.08 52.00
8205 51.3240 2828.00 2913.55 53.00
8206 51.3300 2870.00 2926.18 54.00
8207 51.3360 2956.00 2967.77 54.00
8208 51.3420 3061.00 3033.69 55.00
8209 51.3480 3232.00 3116.87 57.00
8210 51.3540 3403.00 3207.38 58.00
8211 51.3600 3550.00 3292.03 60.00
8212 51.3660 3511.00 3355.39 59.00
8213 51.3720 3540.00 3386.03 59.00
8214 51.3780 3528.00 3383.38 59.00
8215 51.3840 3435.00 3356.50 59.00
8216 51.3900 3347.00 3323.22 58.00
8217 51.3960 3296.00 3299.21 57.00
8218 51.4020 3245.00 3296.08 57.00
8219 51.4080 3233.00 3314.67 57.00
8220 51.4140 3337.00 3353.72 58.00
8221 51.4200 3546.00 3404.87 60.00
8222 51.4260 3603.00 3457.58 60.00
8223 51.4320 3687.00 3498.68 61.00
8224 51.4380 3924.00 3520.28 63.00
8225 51.4440 3777.00 3517.64 61.00
8226 51.4500 3649.00 3489.05 60.00
8227 51.4560 3560.00 3440.05 60.00
8228 51.4620 3456.00 3379.40 59.00
8229 51.4680 3390.00 3308.99 58.00
8230 51.4740 3287.00 3232.15 57.00
8231 51.4800 3104.00 3147.95 56.00
8232 51.4860 3050.00 3061.61 55.00
8233 51.4920 2927.00 2976.62 54.00
8234 51.4980 2776.00 2899.38 53.00
8235 51.5040 2693.00 2832.14 52.00
8236 51.5100 2729.00 2776.69 52.00
8237 51.5160 2686.00 2732.04 52.00
8238 51.5220 2540.00 2696.18 50.00
8239 51.5280 2650.00 2668.97 51.00
8240 51.5340 2612.00 2646.97 51.00
8241 51.5400 2534.00 2630.90 50.00
8242 51.5460 2623.00 2619.72 51.00
8243 51.5520 2587.00 2613.74 51.00
8244 51.5580 2668.00 2612.15 52.00
8245 51.5640 2598.00 2615.96 51.00
8246 51.5700 2479.00 2623.92 50.00
8247 51.5760 2536.00 2635.05 50.00
8248 51.5820 2521.00 2647.75 50.00
8249 51.5880 2580.00 2660.17 51.00
8250 51.5940 2652.00 2668.46 51.00
8251 51.6000 2665.00 2671.46 52.00
8252 51.6060 2660.00 2667.86 52.00
8253 51.6120 2704.00 2658.86 52.00
8254 51.6180 2742.00 2647.19 52.00
8255 51.6240 2575.00 2635.62 51.00
8256 51.6300 2605.00 2626.39 51.00
8257 51.6360 2603.00 2621.18 51.00
8258 51.6420 2653.00 2620.79 52.00
8259 51.6480 2699.00 2626.58 52.00
8260 51.6540 2816.00 2638.44 53.00
8261 51.6600 2736.00 2656.15 52.00
8262 51.6660 2776.00 2678.92 53.00
8263 51.6720 2736.00 2705.61 52.00
8264 51.6780 2836.00 2734.95 53.00
8265 51.6840 2802.00 2765.01 53.00
8266 51.6900 2836.00 2795.69 53.00
8267 51.6960 2874.00 2827.88 54.00
8268 51.7020 2822.00 2865.62 53.00
8269 51.7080 2898.00 2915.57 54.00
8270 51.7140 2938.00 2982.36 54.00
8271 51.7200 2933.00 3068.93 54.00
8272 51.7260 3120.00 3175.39 56.00
8273 51.7320 3321.00 3296.10 58.00
8274 51.7380 3661.00 3420.77 61.00
8275 51.7440 3770.00 3533.91 61.00
8276 51.7500 3813.00 3617.93 62.00
8277 51.7560 3590.00 3657.74 60.00
8278 51.7620 3489.00 3644.65 59.00
8279 51.7680 3421.00 3580.46 58.00
8280 51.7740 3204.00 3478.60 57.00
8281 51.7800 3153.00 3356.46 56.00
8282 51.7860 3196.00 3232.02 57.00
8283 51.7920 3004.00 3118.91 55.00
8284 51.7980 2999.00 3026.00 55.00
8285 51.8040 2979.00 2958.60 55.00
8286 51.8100 2942.00 2919.69 54.00
8287 51.8160 3076.00 2911.07 55.00
8288 51.8220 3113.00 2934.27 56.00
8289 51.8280 3161.00 2991.01 56.00
8290 51.8340 3347.00 3083.08 58.00
8291 51.8400 3544.00 3211.75 60.00
8292 51.8460 3563.00 3376.74 60.00
8293 51.8520 3714.00 3574.98 61.00
8294 51.8580 3828.00 3798.16 62.00
8295 51.8640 3857.00 4030.52 62.00
8296 51.8700 4061.00 4255.07 64.00
8297 51.8760 4164.00 4449.12 65.00
8298 51.8820 4232.00 4599.14 65.00
8299 51.8880 4339.00 4702.94 66.00
8300 51.8940 4413.00 4765.21 66.00
8301 51.9000 4487.00 4794.69 67.00
8302 51.9060 4614.00 4805.53 68.00
8303 51.9120 4792.00 4815.00 69.00
8304 51.9180 4737.00 4834.63 69.00
8305 51.9240 4709.00 4867.65 69.00
8306 51.9300 4845.00 4908.88 70.00
8307 51.9360 4717.00 4951.39 69.00
8308 51.9420 4506.00 4987.29 67.00
8309 51.9480 4620.00 5006.55 68.00
8310 51.9540 4676.00 4996.19 68.00
8311 51.9600 4591.00 4946.24 68.00
8312 51.9660 4651.00 4855.74 68.00
8313 51.9720 4407.00 4732.84 66.00
8314 51.9780 4144.00 4591.46 64.00
8315 51.9840 3923.00 4442.36 63.00
8316 51.9900 3978.00 4295.38 63.00
8317 51.9960 3995.00 4159.44 63.00
8318 52.0020 3973.00 4042.43 63.00
8319 52.0080 4074.00 3948.97 64.00
8320 52.0140 4087.00 3877.30 64.00
8321 52.0200 4059.00 3818.63 64.00
8322 52.0260 3975.00 3759.65 63.00
8323 52.0320 3934.00 3689.23 63.00
8324 52.0380 3703.00 3603.55 61.00
8325 52.0440 3716.00 3506.67 61.00
8326 52.0500 3594.00 3407.48 60.00
8327 52.0560 3427.00 3315.14 59.00
8328 52.0620 3221.00 3235.81 57.00
8329 52.0680 3338.00 3171.34 58.00
8330 52.0740 3122.00 3119.41 56.00
8331 52.0800 3128.00 3074.68 56.00
8332 52.0860 3168.00 3031.39 56.00
8333 52.0920 2931.00 2986.16 54.00
8334 52.0980 2914.00 2939.30 54.00
8335 52.1040 2982.00 2894.44 55.00
8336 52.1100 2880.00 2855.40 54.00
8337 52.1160 2771.00 2825.62 53.00
8338 52.1220 2817.00 2807.35 53.00
8339 52.1280 2818.00 2801.58 53.00
8340 52.1340 2839.00 2807.93 53.00
8341 52.1400 2780.00 2824.57 53.00
8342 52.1460 2873.00 2848.67 54.00
8343 52.1520 2819.00 2875.12 53.00
8344 52.1580 2806.00 2899.58 53.00
8345 52.1640 2873.00 2918.14 54.00
8346 52.1700 2909.00 2928.04 54.00
8347 52.1760 2894.00 2928.21 54.00
8348 52.1820 2785.00 2918.50 53.00
8349 52.1880 2876.00 2899.31 54.00
8350 52.1940 2952.00 2872.78 54.00
8351 52.2000 2886.00 2841.17 54.00
8352 52.2060 2827.00 2806.38 53.00
8353 52.2120 2727.00 2772.00 52.00
8354 52.2180 2781.00 2742.23 53.00
8355 52.2240 2669.00 2719.39 52.00
8356 52.2300 2680.00 2704.42 52.00
8357 52.2360 2708.00 2696.92 52.00
8358 52.2420 2729.00 2696.85 52.00
8359 52.2480 2720.00 2697.89 52.00
8360 52.2540 2665.00 2699.87 52.00
8361 52.2600 2709.00 2697.57 52.00
8362 52.2660 2676.00 2690.95 52.00
8363 52.2720 2682.00 2678.56 52.00
8364 52.2780 2748.00 2662.12 52.00
8365 52.2840 2687.00 2644.34 52.00
8366 52.2900 2662.00 2627.79 52.00
8367 52.2960 2576.00 2614.50 51.00
8368 52.3020 2658.00 2605.90 52.00
8369 52.3080 2680.00 2602.88 52.00
8370 52.3140 2667.00 2606.31 52.00
8371 52.3200 2629.00 2615.05 51.00
8372 52.3260 2691.00 2628.90 52.00
8373 52.3320 2679.00 2646.56 52.00
8374 52.3380 2702.00 2666.07 52.00
8375 52.3440 2755.00 2684.73 52.00
8376 52.3500 2875.00 2699.42 54.00
8377 52.3560 2886.00 2708.11 54.00
8378 52.3620 2762.00 2709.07 53.00
8379 52.3680 2755.00 2703.93 52.00
8380 52.3740 2847.00 2693.86 53.00
8381 52.3800 2857.00 2682.44 53.00
8382 52.3860 2794.00 2672.16 53.00
8383 52.3920 2793.00 2664.74 53.00
8384 52.3980 2778.00 2658.92 53.00
8385 52.4040 2746.00 2657.40 52.00
8386 52.4100 2703.00 2659.11 52.00
8387 52.4160 2640.00 2663.70 51.00
8388 52.4220 2634.00 2670.79 51.00
8389 52.4280 2638.00 2677.66 51.00
8390 52.4340 2637.00 2685.11 51.00
8391 52.4400 2675.00 2690.78 52.00
8392 52.4460 2801.00 2696.40 53.00
8393 52.4520 2814.00 2702.48 53.00
8394 52.4580 2782.00 2708.15 53.00
8395 52.4640 2850.00 2716.44 53.00
8396 52.4700 2941.00 2723.76 54.00
8397 52.4760 2869.00 2729.15 54.00
8398 52.4820 2847.00 2730.19 53.00
8399 52.4880 2829.00 2725.82 53.00
8400 52.4940 2773.00 2718.01 53.00
8401 52.5000 2792.00 2708.57 53.00
8402 52.5060 2740.00 2698.48 52.00
8403 52.5120 2688.00 2688.26 52.00
8404 52.5180 2624.00 2677.49 51.00
8405 52.5240 2573.00 2665.19 51.00
8406 52.5300 2554.00 2650.77 51.00
8407 52.5360 2649.00 2636.01 51.00
8408 52.5420 2665.00 2621.61 52.00
8409 52.5480 2652.00 2608.50 51.00
8410 52.5540 2535.00 2597.67 50.00
8411 52.5600 2517.00 2589.64 50.00
8412 52.5660 2546.00 2585.48 50.00
8413 52.5720 2472.00 2584.15 50.00
8414 52.5780 2500.00 2586.45 50.00
8415 52.5840 2561.00 2592.33 51.00
8416 52.5900 2535.00 2602.92 50.00
8417 52.5960 2533.00 2618.89 50.00
8418 52.6020 2622.00 2640.90 51.00
8419 52.6080 2719.00 2668.65 52.00
8420 52.6140 2701.00 2703.13 52.00
8421 52.6200 2749.00 2745.24 52.00
8422 52.6260 2749.00 2793.74 52.00
8423 52.6320 2703.00 2848.51 52.00
8424 52.6380 2803.00 2908.34 53.00
8425 52.6440 2919.00 2971.98 54.00
8426 52.6500 2977.00 3039.42 55.00
8427 52.6560 3039.00 3113.93 55.00
8428 52.6620 3076.00 3199.94 55.00
8429 52.6680 3236.00 3303.70 57.00
8430 52.6740 3342.00 3428.69 58.00
8431 52.6800 3551.00 3574.38 60.00
8432 52.6860 3788.00 3735.17 62.00
8433 52.6920 3922.00 3899.69 63.00
8434 52.6980 4035.00 4049.52 64.00
8435 52.7040 4163.00 4164.65 65.00
8436 52.7100 4317.00 4230.92 66.00
8437 52.7160 4341.00 4248.27 66.00
8438 52.7220 4294.00 4229.60 66.00
8439 52.7280 4313.00 4191.55 66.00
8440 52.7340 4266.00 4144.74 65.00
8441 52.7400 4130.00 4089.45 64.00
8442 52.7460 4073.00 4017.45 64.00
8443 52.7520 4032.00 3919.42 63.00
8444 52.7580 3794.00 3794.49 62.00
8445 52.7640 3609.00 3652.70 60.00
8446 52.7700 3432.00 3509.16 59.00
8447 52.7760 3164.00 3378.16 56.00
8448 52.7820 3081.00 3269.12 56.00
8449 52.7880 2977.00 3186.41 55.00
8450 52.7940 2948.00 3131.45 54.00
8451 52.8000 2957.00 3101.03 54.00
8452 52.8060 2925.00 3090.17 54.00
8453 52.8120 2883.00 3091.44 54.00
8454 52.8180 2846.00 3097.32 53.00
8455 52.8240 2885.00 3102.84 54.00
8456 52.8300 2885.00 3107.95 54.00
8457 52.8360 2898.00 3116.08 54.00
8458 52.8420 2964.00 3131.85 54.00
8459 52.8480 2972.00 3156.49 55.00
8460 52.8540 3017.00 3190.50 55.00
8461 52.8600 3056.00 3231.66 55.00
8462 52.8660 3085.00 3278.29 56.00
8463 52.8720 3138.00 3329.51 56.00
8464 52.8780 3255.00 3385.60 57.00
8465 52.8840 3416.00 3445.25 58.00
8466 52.8900 3576.00 3501.76 60.00
8467 52.8960 3568.00 3544.73 60.00
8468 52.9020 3546.00 3562.49 60.00
8469 52.9080 3543.00 3547.36 60.00
8470 52.9140 3576.00 3500.66 60.00
8471 52.9200 3535.00 3430.17 59.00
8472 52.9260 3594.00 3344.90 60.00
8473 52.9320 3284.00 3252.55 57.00
8474 52.9380 3151.00 3159.00 56.00
8475 52.9440 3018.00 3070.04 55.00
8476 52.9500 2979.00 2990.09 55.00
8477 52.9560 2970.00 2921.60 54.00
8478 52.9620 2897.00 2865.28 54.00
8479 52.9680 2790.00 2821.55 53.00
8480 52.9740 2772.00 2789.14 53.00
8481 52.9800 2799.00 2768.59 53.00
8482 52.9860 2749.00 2759.87 52.00
8483 52.9920 2823.00 2764.61 53.00
8484 52.9980 2864.00 2781.74 54.00
8485 53.0040 3023.00 2812.95 55.00
8486 53.0100 3042.00 2858.82 55.00
8487 53.0160 3103.00 2919.79 56.00
8488 53.0220 3176.00 2995.06 56.00
8489 53.0280 3142.00 3082.62 56.00
8490 53.0340 3233.00 3178.45 57.00
8491 53.0400 3285.00 3277.26 57.00
8492 53.0460 3306.00 3372.73 57.00
8493 53.0520 3400.00 3459.71 58.00
8494 53.0580 3406.00 3536.59 58.00
8495 53.0640 3466.00 3604.24 59.00
8496 53.0700 3514.00 3664.57 59.00
8497 53.0760 3547.00 3718.34 60.00
8498 53.0820 3645.00 3767.16 60.00
8499 53.0880 3677.00 3815.38 61.00
8500 53.0940 3748.00 3864.29 61.00
8501 53.1000 3898.00 3908.85 62.00
8502 53.1060 4009.00 3938.14 63.00
8503 53.1120 3939.00 3940.61 63.00
8504 53.1180 3865.00 3909.47 62.00
8505 53.1240 3795.00 3847.16 62.00
8506 53.1300 3792.00 3761.28 62.00
8507 53.1360 3552.00 3661.95 60.00
8508 53.1420 3645.00 3559.12 60.00
8509 53.1480 3556.00 3460.59 60.00
8510 53.1540 3383.00 3369.55 58.00
8511 53.1600 3497.00 3284.71 59.00
8512 53.1660 3260.00 3202.41 57.00
8513 53.1720 3151.00 3120.48 56.00
8514 53.1780 3031.00 3040.03 55.00
8515 53.1840 3054.00 2964.08 55.00
8516 53.1900 2950.00 2895.66 54.00
8517 53.1960 2895.00 2836.53 54.00
8518 53.2020 2704.00 2787.43 52.00
8519 53.2080 2745.00 2748.35 52.00
8520 53.2140 2765.00 2718.47 53.00
8521 53.2200 2745.00 2696.61 52.00
8522 53.2260 2774.00 2683.48 53.00
8523 53.2320 2671.00 2678.33 52.00
8524 53.2380 2755.00 2680.32 52.00
8525 53.2440 2697.00 2689.44 52.00
8526 53.2500 2758.00 2705.93 53.00
8527 53.2560 2706.00 2730.11 52.00
8528 53.2620 2879.00 2760.61 54.00
8529 53.2680 2910.00 2800.15 54.00
8530 53.2740 2928.00 2846.03 54.00
8531 53.2800 2954.00 2896.16 54.00
8532 53.2860 2899.00 2947.14 54.00
8533 53.2920 3017.00 2995.05 55.00
8534 53.2980 3073.00 3036.74 55.00
8535 53.3040 2951.00 3069.07 54.00
8536 53.3100 3041.00 3091.42 55.00
8537 53.3160 3145.00 3105.33 56.00
8538 53.3220 3175.00 3113.45 56.00
8539 53.3280 3204.00 3119.21 57.00
8540 53.3340 3326.00 3125.01 58.00
8541 53.3400 3246.00 3132.37 57.00
8542 53.3460 3266.00 3138.80 57.00
8543 53.3520 3258.00 3141.05 57.00
8544 53.3580 3242.00 3136.56 57.00
8545 53.3640 3260.00 3126.57 57.00
8546 53.3700 3197.00 3115.06 57.00
8547 53.3760 3137.00 3106.21 56.00
8548 53.3820 3135.00 3102.60 56.00
8549 53.3880 3110.00 3104.54 56.00
8550 53.3940 3145.00 3107.94 56.00
8551 53.4000 3147.00 3110.67 56.00
8552 53.4060 3261.00 3111.08 57.00
8553 53.4120 3201.00 3108.53 57.00
8554 53.4180 3234.00 3105.48 57.00
8555 53.4240 3125.00 3104.15 56.00
8556 53.4300 3131.00 3108.15 56.00
8557 53.4360 3102.00 3117.87 56.00
8558 53.4420 3062.00 3135.46 55.00
8559 53.4480 3116.00 3160.21 56.00
8560 53.4540 3216.00 3191.71 57.00
8561 53.4600 3212.00 3227.33 57.00
8562 53.4660 3362.00 3266.41 58.00
8563 53.4720 3389.00 3306.32 58.00
8564 53.4780 3460.00 3341.53 59.00
8565 53.4840 3575.00 3370.04 60.00
8566 53.4900 3418.00 3385.63 58.00
8567 53.4960 3407.00 3388.27 58.00
8568 53.5020 3446.00 3376.04 59.00
8569 53.5080 3361.00 3346.92 58.00
8570 53.5140 3271.00 3301.88 57.00
8571 53.5200 3158.00 3247.47 56.00
8572 53.5260 3216.00 3193.12 57.00
8573 53.5320 3058.00 3149.32 55.00
8574 53.5380 3054.00 3124.63 55.00
8575 53.5440 2993.00 3123.65 55.00
8576 53.5500 3129.00 3150.25 56.00
8577 53.5560 3217.00 3202.18 57.00
8578 53.5620 3354.00 3277.98 58.00
8579 53.5680 3592.00 3368.64 60.00
8580 53.5740 3721.00 3466.72 61.00
8581 53.5800 3915.00 3558.54 63.00
8582 53.5860 4123.00 3628.95 64.00
8583 53.5920 4047.00 3664.50 64.00
8584 53.5980 4036.00 3661.75 64.00
8585 53.6040 3834.00 3625.52 62.00
8586 53.6100 3676.00 3567.36 61.00
8587 53.6160 3543.00 3498.59 60.00
8588 53.6220 3420.00 3426.32 58.00
8589 53.6280 3289.00 3355.77 57.00
8590 53.6340 3280.00 3290.39 57.00
8591 53.6400 3153.00 3233.14 56.00
8592 53.6460 3157.00 3186.23 56.00
8593 53.6520 3108.00 3148.23 56.00
8594 53.6580 3064.00 3117.15 55.00
8595 53.6640 3081.00 3089.47 56.00
8596 53.6700 3123.00 3061.30 56.00
8597 53.6760 2986.00 3029.47 55.00
8598 53.6820 3008.00 2992.58 55.00
8599 53.6880 2974.00 2953.55 55.00
8600 53.6940 2931.00 2915.21 54.00
8601 53.7000 2947.00 2880.72 54.00
8602 53.7060 2913.00 2852.11 54.00
8603 53.7120 2806.00 2830.19 53.00
8604 53.7180 2844.00 2814.68 53.00
8605 53.7240 2831.00 2804.39 53.00
8606 53.7300 2753.00 2797.55 52.00
8607 53.7360 2682.00 2792.46 52.00
8608 53.7420 2596.00 2788.31 51.00
8609 53.7480 2740.00 2785.63 52.00
8610 53.7540 2814.00 2786.05 53.00
8611 53.7600 2787.00 2791.71 53.00
8612 53.7660 2755.00 2804.90 52.00
8613 53.7720 2831.00 2828.14 53.00
8614 53.7780 2878.00 2863.06 54.00
8615 53.7840 2855.00 2911.56 53.00
8616 53.7900 2969.00 2974.54 54.00
8617 53.7960 3012.00 3051.59 55.00
8618 53.8020 3059.00 3140.45 55.00
8619 53.8080 3188.00 3236.89 56.00
8620 53.8140 3253.00 3334.42 57.00
8621 53.8200 3395.00 3425.84 58.00
8622 53.8260 3443.00 3503.93 59.00
8623 53.8320 3585.00 3562.07 60.00
8624 53.8380 3529.00 3594.90 59.00
8625 53.8440 3484.00 3601.86 59.00
8626 53.8500 3548.00 3590.04 60.00
8627 53.8560 3378.00 3571.73 58.00
8628 53.8620 3336.00 3558.98 58.00
8629 53.8680 3372.00 3560.54 58.00
8630 53.8740 3312.00 3580.50 58.00
8631 53.8800 3399.00 3620.49 58.00
8632 53.8860 3453.00 3676.98 59.00
8633 53.8920 3388.00 3743.72 58.00
8634 53.8980 3499.00 3812.79 59.00
8635 53.9040 3552.00 3877.02 60.00
8636 53.9100 3694.00 3935.92 61.00
8637 53.9160 3805.00 3995.53 62.00
8638 53.9220 3860.00 4066.25 62.00
8639 53.9280 3978.00 4155.29 63.00
8640 53.9340 4074.00 4264.75 64.00
8641 53.9400 4239.00 4389.46 65.00
8642 53.9460 4499.00 4521.86 67.00
8643 53.9520 4666.00 4654.81 68.00
8644 53.9580 4874.00 4785.04 70.00
8645 53.9640 5115.00 4911.32 72.00
8646 53.9700 5219.00 5029.66 72.00
8647 53.9760 5225.00 5132.33 72.00
8648 53.9820 5235.00 5208.34 72.00
8649 53.9880 5129.00 5245.02 72.00
8650 53.9940 4945.00 5231.63 70.00
8651 54.0000 4895.00 5162.71 70.00
8652 54.0060 4787.00 5043.72 69.00
8653 54.0120 4670.00 4887.72 68.00
8654 54.0180 4591.00 4717.88 68.00
8655 54.0240 4458.00 4559.81 67.00
8656 54.0300 4409.00 4432.30 66.00
8657 54.0360 4324.00 4347.43 66.00
8658 54.0420 4237.00 4305.86 65.00
8659 54.0480 4168.00 4301.65 65.00
8660 54.0540 4016.00 4322.65 63.00
8661 54.0600 3896.00 4351.53 62.00
8662 54.0660 3935.00 4368.61 63.00
8663 54.0720 3869.00 4357.14 62.00
8664 54.0780 3750.00 4306.62 61.00
8665 54.0840 3683.00 4215.52 61.00
8666 54.0900 3615.00 4090.16 60.00
8667 54.0960 3467.00 3943.91 59.00
8668 54.1020 3370.00 3794.41 58.00
8669 54.1080 3296.00 3657.99 57.00
8670 54.1140 3199.00 3547.89 57.00
8671 54.1200 3205.00 3471.59 57.00
8672 54.1260 3197.00 3430.59 57.00
8673 54.1320 3276.00 3422.02 57.00
8674 54.1380 3281.00 3438.73 57.00
8675 54.1440 3244.00 3470.10 57.00
8676 54.1500 3265.00 3503.15 57.00
8677 54.1560 3248.00 3525.84 57.00
8678 54.1620 3222.00 3525.90 57.00
8679 54.1680 3286.00 3495.96 57.00
8680 54.1740 3250.00 3435.27 57.00
8681 54.1800 3131.00 3351.22 56.00
8682 54.1860 3076.00 3254.74 55.00
8683 54.1920 2951.00 3156.37 54.00
8684 54.1980 2869.00 3063.59 54.00
8685 54.2040 2888.00 2982.10 54.00
8686 54.2100 2794.00 2913.93 53.00
8687 54.2160 2767.00 2859.77 53.00
8688 54.2220 2725.00 2819.02 52.00
8689 54.2280 2698.00 2790.35 52.00
8690 54.2340 2739.00 2772.17 52.00
8691 54.2400 2743.00 2762.95 52.00
8692 54.2460 2742.00 2761.45 52.00
8693 54.2520 2745.00 2766.72 52.00
8694 54.2580 2788.00 2777.08 53.00
8695 54.2640 2767.00 2791.35 53.00
8696 54.2700 2717.00 2810.51 52.00
8697 54.2760 2736.00 2833.71 52.00
8698 54.2820 2846.00 2859.69 53.00
8699 54.2880 2847.00 2886.78 53.00
8700 54.2940 2849.00 2913.47 53.00
8701 54.3000 2939.00 2939.21 54.00
8702 54.3060 2997.00 2964.80 55.00
8703 54.3120 3133.00 2991.67 56.00
8704 54.3180 3325.00 3020.51 58.00
8705 54.3240 3356.00 3050.70 58.00
8706 54.3300 3297.00 3079.45 57.00
8707 54.3360 3270.00 3104.09 57.00
8708 54.3420 3248.00 3122.87 57.00
8709 54.3480 3210.00 3135.03 57.00
8710 54.3540 3158.00 3140.68 56.00
8711 54.3600 3111.00 3140.56 56.00
8712 54.3660 3120.00 3136.99 56.00
8713 54.3720 3096.00 3131.38 56.00
8714 54.3780 3116.00 3123.00 56.00
8715 54.3840 3148.00 3110.35 56.00
8716 54.3900 3147.00 3093.21 56.00
8717 54.3960 3174.00 3073.68 56.00
8718 54.4020 3141.00 3055.42 56.00
8719 54.4080 3081.00 3042.43 56.00
8720 54.4140 3065.00 3036.74 55.00
8721 54.4200 3083.00 3038.90 56.00
8722 54.4260 3107.00 3047.48 56.00
8723 54.4320 3139.00 3061.84 56.00
8724 54.4380 3151.00 3082.62 56.00
8725 54.4440 3169.00 3107.86 56.00
8726 54.4500 3209.00 3134.36 57.00
8727 54.4560 3189.00 3157.44 56.00
8728 54.4620 3216.00 3172.51 57.00
8729 54.4680 3236.00 3177.52 57.00
8730 54.4740 3176.00 3174.05 56.00
8731 54.4800 3154.00 3168.11 56.00
8732 54.4860 3120.00 3160.74 56.00
8733 54.4920 3080.00 3153.74 55.00
8734 54.4980 3138.00 3149.93 56.00
8735 54.5040 3143.00 3149.74 56.00
8736 54.5100 3156.00 3156.70 56.00
8737 54.5160 3155.00 3169.21 56.00
8738 54.5220 3196.00 3185.07 57.00
8739 54.5280 3245.00 3197.01 57.00
8740 54.5340 3259.00 3195.48 57.00
8741 54.5400 3237.00 3176.36 57.00
8742 54.5460 3138.00 3137.40 56.00
8743 54.5520 3088.00 3083.44 56.00
8744 54.5580 2965.00 3022.40 54.00
8745 54.5640 2918.00 2962.18 54.00
8746 54.5700 2867.00 2908.36 54.00
8747 54.5760 2803.00 2865.48 53.00
8748 54.5820 2765.00 2833.56 53.00
8749 54.5880 2733.00 2812.01 52.00
8750 54.5940 2711.00 2798.43 52.00
8751 54.6000 2701.00 2790.80 52.00
8752 54.6060 2704.00 2785.45 52.00
8753 54.6120 2691.00 2780.00 52.00
8754 54.6180 2689.00 2776.75 52.00
8755 54.6240 2723.00 2775.27 52.00
8756 54.6300 2699.00 2775.61 52.00
8757 54.6360 2806.00 2776.70 53.00
8758 54.6420 2820.00 2776.68 53.00
8759 54.6480 2757.00 2773.87 53.00
8760 54.6540 2745.00 2767.91 52.00
8761 54.6600 2767.00 2759.83 53.00
8762 54.6660 2847.00 2751.08 53.00
8763 54.6720 2778.00 2742.21 53.00
8764 54.6780 2744.00 2732.31 52.00
8765 54.6840 2806.00 2719.69 53.00
8766 54.6900 2770.00 2702.26 53.00
8767 54.6960 2753.00 2678.32 52.00
8768 54.7020 2756.00 2650.97 52.00
8769 54.7080 2642.00 2621.43 51.00
8770 54.7140 2615.00 2592.02 51.00
8771 54.7200 2580.00 2564.47 51.00
8772 54.7260 2530.00 2539.94 50.00
8773 54.7320 2506.00 2518.99 50.00
8774 54.7380 2396.00 2501.74 49.00
8775 54.7440 2410.00 2488.03 49.00
8776 54.7500 2408.00 2477.53 49.00
8777 54.7560 2404.00 2469.80 49.00
8778 54.7620 2449.00 2464.46 49.00
8779 54.7680 2397.00 2461.23 49.00
8780 54.7740 2470.00 2460.03 50.00
8781 54.7800 2554.00 2460.98 51.00
8782 54.7860 2511.00 2464.88 50.00
8783 54.7920 2510.00 2473.97 50.00
8784 54.7980 2516.00 2487.14 50.00
8785 54.8040 2552.00 2505.39 51.00
8786 54.8100 2490.00 2529.70 50.00
8787 54.8160 2531.00 2560.84 50.00
8788 54.8220 2588.00 2598.83 51.00
8789 54.8280 2554.00 2643.67 51.00
8790 54.8340 2607.00 2693.54 51.00
8791 54.8400 2564.00 2745.46 51.00
8792 54.8460 2608.00 2794.93 51.00
8793 54.8520 2615.00 2836.25 51.00
8794 54.8580 2680.00 2864.11 52.00
8795 54.8640 2648.00 2873.41 51.00
8796 54.8700 2565.00 2864.22 51.00
8797 54.8760 2561.00 2838.67 51.00
8798 54.8820 2580.00 2801.99 51.00
8799 54.8880 2589.00 2760.33 51.00
8800 54.8940 2618.00 2719.37 51.00
8801 54.9000 2597.00 2683.29 51.00
8802 54.9060 2591.00 2655.10 51.00
8803 54.9120 2616.00 2634.93 51.00
8804 54.9180 2641.00 2623.63 51.00
8805 54.9240 2662.00 2621.10 52.00
8806 54.9300 2653.00 2625.62 52.00
8807 54.9360 2691.00 2635.77 52.00
8808 54.9420 2754.00 2649.67 52.00
8809 54.9480 2738.00 2665.68 52.00
8810 54.9540 2811.00 2682.83 53.00
8811 54.9600 2839.00 2702.44 53.00
8812 54.9660 2910.00 2726.27 54.00
8813 54.9720 2780.00 2757.15 53.00
8814 54.9780 2885.00 2796.42 54.00
8815 54.9840 2883.00 2846.25 54.00
8816 54.9900 2871.00 2906.67 54.00
8817 54.9960 2933.00 2976.09 54.00
8818 55.0020 2927.00 3052.40 54.00
8819 55.0080 2976.00 3129.71 55.00
8820 55.0140 3151.00 3202.39 56.00
8821 55.0200 3178.00 3266.07 56.00
8822 55.0260 3169.00 3318.01 56.00
8823 55.0320 3328.00 3356.45 58.00
8824 55.0380 3293.00 3378.88 57.00
8825 55.0440 3312.00 3382.84 58.00
8826 55.0500 3276.00 3366.61 57.00
8827 55.0560 3123.00 3330.62 56.00
8828 55.0620 3049.00 3278.75 55.00
8829 55.0680 2984.00 3216.86 55.00
8830 55.0740 3016.00 3154.41 55.00
8831 55.0800 2966.00 3098.99 54.00
8832 55.0860 3025.00 3055.08 55.00
8833 55.0920 3106.00 3023.76 56.00
8834 55.0980 3277.00 3002.72 57.00
8835 55.1040 3281.00 2986.87 57.00
8836 55.1100 3182.00 2970.10 56.00
8837 55.1160 3222.00 2947.58 57.00
8838 55.1220 3043.00 2917.12 55.00
8839 55.1280 3014.00 2878.81 55.00
8840 55.1340 2948.00 2834.07 54.00
8841 55.1400 2844.00 2785.26 53.00
8842 55.1460 2725.00 2736.38 52.00
8843 55.1520 2650.00 2690.73 51.00
8844 55.1580 2694.00 2651.34 52.00
8845 55.1640 2658.00 2619.69 52.00
8846 55.1700 2558.00 2596.66 51.00
8847 55.1760 2561.00 2582.12 51.00
8848 55.1820 2592.00 2574.96 51.00
8849 55.1880 2570.00 2574.33 51.00
8850 55.1940 2620.00 2578.13 51.00
8851 55.2000 2670.00 2583.82 52.00
8852 55.2060 2604.00 2588.49 51.00
8853 55.2120 2650.00 2589.89 51.00
8854 55.2180 2602.00 2585.78 51.00
8855 55.2240 2592.00 2575.74 51.00
8856 55.2300 2604.00 2561.72 51.00
8857 55.2360 2589.00 2545.49 51.00
8858 55.2420 2466.00 2528.83 50.00
8859 55.2480 2560.00 2513.10 51.00
8860 55.2540 2420.00 2499.17 49.00
8861 55.2600 2483.00 2487.56 50.00
8862 55.2660 2488.00 2478.32 50.00
8863 55.2720 2548.00 2471.57 50.00
8864 55.2780 2462.00 2466.78 50.00
8865 55.2840 2469.00 2464.09 50.00
8866 55.2900 2471.00 2462.66 50.00
8867 55.2960 2439.00 2462.85 49.00
8868 55.3020 2457.00 2463.77 50.00
8869 55.3080 2454.00 2466.08 50.00
8870 55.3140 2447.00 2469.83 49.00
8871 55.3200 2447.00 2475.17 49.00
8872 55.3260 2485.00 2482.82 50.00
8873 55.3320 2519.00 2493.46 50.00
8874 55.3380 2496.00 2507.96 50.00
8875 55.3440 2585.00 2527.23 51.00
8876 55.3500 2586.00 2552.16 51.00
8877 55.3560 2683.00 2583.52 52.00
8878 55.3620 2721.00 2621.72 52.00
8879 55.3680 2870.00 2666.69 54.00
8880 55.3740 2987.00 2717.65 55.00
8881 55.3800 3098.00 2772.82 56.00
8882 55.3860 3181.00 2829.35 56.00
8883 55.3920 3308.00 2883.48 58.00
8884 55.3980 3342.00 2932.94 58.00
8885 55.4040 3316.00 2976.65 58.00
8886 55.4100 3382.00 3014.54 58.00
8887 55.4160 3413.00 3047.35 58.00
8888 55.4220 3379.00 3073.98 58.00
8889 55.4280 3311.00 3093.19 58.00
8890 55.4340 3163.00 3104.72 56.00
8891 55.4400 3151.00 3107.28 56.00
8892 55.4460 3169.00 3099.62 56.00
8893 55.4520 3277.00 3080.50 57.00
8894 55.4580 3152.00 3052.10 56.00
8895 55.4640 3073.00 3018.27 55.00
8896 55.4700 2969.00 2984.18 54.00
8897 55.4760 2887.00 2954.89 54.00
8898 55.4820 2876.00 2933.97 54.00
8899 55.4880 2988.00 2922.53 55.00
8900 55.4940 2921.00 2919.76 54.00
8901 55.5000 2860.00 2922.05 53.00
8902 55.5060 2957.00 2924.54 54.00
8903 55.5120 2893.00 2922.53 54.00
8904 55.5180 2871.00 2913.37 54.00
8905 55.5240 2805.00 2896.82 53.00
8906 55.5300 2723.00 2874.75 52.00
8907 55.5360 2696.00 2850.41 52.00
8908 55.5420 2679.00 2827.35 52.00
8909 55.5480 2807.00 2808.39 53.00
8910 55.5540 2899.00 2794.69 54.00
8911 55.5600 2918.00 2786.25 54.00
8912 55.5660 2990.00 2781.98 55.00
8913 55.5720 2933.00 2779.00 54.00
8914 55.5780 2816.00 2777.44 53.00
8915 55.5840 2885.00 2776.40 54.00
8916 55.5900 2728.00 2774.69 52.00
8917 55.5960 2827.00 2771.03 53.00
8918 55.6020 2706.00 2762.32 52.00
8919 55.6080 2723.00 2747.67 52.00
8920 55.6140 2761.00 2726.30 53.00
8921 55.6200 2695.00 2699.62 52.00
8922 55.6260 2566.00 2671.13 51.00
8923 55.6320 2625.00 2641.79 51.00
8924 55.6380 2627.00 2614.98 51.00
8925 55.6440 2629.00 2593.48 51.00
8926 55.6500 2518.00 2576.17 50.00
8927 55.6560 2464.00 2565.60 50.00
8928 55.6620 2568.00 2562.13 51.00
8929 55.6680 2523.00 2564.51 50.00
8930 55.6740 2665.00 2572.77 52.00
8931 55.6800 2622.00 2586.95 51.00
8932 55.6860 2638.00 2606.16 51.00
8933 55.6920 2577.00 2629.57 51.00
8934 55.6980 2627.00 2656.36 51.00
8935 55.7040 2701.00 2685.98 52.00
8936 55.7100 2737.00 2718.44 52.00
8937 55.7160 2856.00 2753.82 53.00
8938 55.7220 2865.00 2791.91 54.00
8939 55.7280 2873.00 2830.54 54.00
8940 55.7340 2963.00 2867.09 54.00
8941 55.7400 2983.00 2898.68 55.00
8942 55.7460 2968.00 2921.90 54.00
8943 55.7520 2935.00 2933.93 54.00
8944 55.7580 2873.00 2934.48 54.00
8945 55.7640 2905.00 2925.32 54.00
8946 55.7700 2800.00 2910.02 53.00
8947 55.7760 2796.00 2894.03 53.00
8948 55.7820 2894.00 2882.99 54.00
8949 55.7880 2865.00 2881.27 54.00
8950 55.7940 2902.00 2890.91 54.00
8951 55.8000 3027.00 2911.47 55.00
8952 55.8060 2948.00 2941.28 54.00
8953 55.8120 3093.00 2977.11 56.00
8954 55.8180 3242.00 3013.48 57.00
8955 55.8240 3312.00 3045.71 58.00
8956 55.8300 3246.00 3068.87 57.00
8957 55.8360 3189.00 3078.16 56.00
8958 55.8420 3136.00 3070.86 56.00
8959 55.8480 2992.00 3046.22 55.00
8960 55.8540 3084.00 3005.87 56.00
8961 55.8600 2885.00 2953.61 54.00
8962 55.8660 2933.00 2894.87 54.00
8963 55.8720 2761.00 2834.75 53.00
8964 55.8780 2769.00 2778.34 53.00
8965 55.8840 2706.00 2729.12 52.00
8966 55.8900 2742.00 2689.55 52.00
8967 55.8960 2700.00 2660.81 52.00
8968 55.9020 2636.00 2643.96 51.00
8969 55.9080 2576.00 2639.90 51.00
8970 55.9140 2584.00 2649.73 51.00
8971 55.9200 2622.00 2674.95 51.00
8972 55.9260 2634.00 2717.45 51.00
8973 55.9320 2679.00 2779.20 52.00
8974 55.9380 2763.00 2861.36 53.00
8975 55.9440 2744.00 2965.23 52.00
8976 55.9500 2960.00 3089.16 54.00
8977 55.9560 3254.00 3228.88 57.00
8978 55.9620 3550.00 3376.89 60.00
8979 55.9680 3964.00 3521.02 63.00
8980 55.9740 4013.00 3646.56 63.00
8981 55.9800 3929.00 3735.70 63.00
8982 55.9860 3838.00 3773.58 62.00
8983 55.9920 3757.00 3752.78 61.00
8984 55.9980 3379.00 3677.94 58.00
8985 56.0040 3182.00 3562.16 56.00
8986 56.0100 3225.00 3423.87 57.00
8987 56.0160 2981.00 3279.69 55.00
8988 56.0220 2811.00 3142.81 53.00
8989 56.0280 2809.00 3022.30 53.00
8990 56.0340 2807.00 2923.46 53.00
8991 56.0400 2772.00 2848.87 53.00
8992 56.0460 2658.00 2799.04 52.00
8993 56.0520 2602.00 2772.78 51.00
8994 56.0580 2668.00 2769.17 52.00
8995 56.0640 2757.00 2785.66 53.00
8996 56.0700 2831.00 2819.48 53.00
8997 56.0760 2933.00 2868.13 54.00
8998 56.0820 2913.00 2927.73 54.00
8999 56.0880 3139.00 2993.73 56.00
9000 56.0940 3142.00 3060.49 56.00
9001 56.1000 3315.00 3121.90 58.00
9002 56.1060 3334.00 3172.95 58.00
9003 56.1120 3263.00 3211.17 57.00
9004 56.1180 3381.00 3238.89 58.00
9005 56.1240 3226.00 3261.34 57.00
9006 56.1300 3234.00 3285.64 57.00
9007 56.1360 3335.00 3318.41 58.00
9008 56.1420 3487.00 3364.71 59.00
9009 56.1480 3547.00 3427.98 60.00
9010 56.1540 3723.00 3508.76 61.00
9011 56.1600 4003.00 3604.54 63.00
9012 56.1660 4077.00 3706.93 64.00
9013 56.1720 4356.00 3803.82 66.00
9014 56.1780 4370.00 3881.18 66.00
9015 56.1840 4360.00 3927.08 66.00
9016 56.1900 4198.00 3934.45 65.00
9017 56.1960 4004.00 3901.66 63.00
9018 56.2020 3730.00 3832.53 61.00
9019 56.2080 3548.00 3735.24 60.00
9020 56.2140 3343.00 3620.68 58.00
9021 56.2200 3424.00 3501.83 59.00
9022 56.2260 3230.00 3391.82 57.00
9023 56.2320 3238.00 3301.90 57.00
9024 56.2380 3173.00 3239.83 56.00
9025 56.2440 3303.00 3209.75 57.00
9026 56.2500 3380.00 3212.02 58.00
9027 56.2560 3449.00 3243.99 59.00
9028 56.2620 3506.00 3299.54 59.00
9029 56.2680 3503.00 3369.96 59.00
9030 56.2740 3465.00 3444.62 59.00
9031 56.2800 3491.00 3511.87 59.00
9032 56.2860 3482.00 3560.98 59.00
9033 56.2920 3485.00 3584.86 59.00
9034 56.2980 3503.00 3582.94 59.00
9035 56.3040 3511.00 3561.38 59.00
9036 56.3100 3683.00 3530.73 61.00
9037 56.3160 3564.00 3500.96 60.00
9038 56.3220 3617.00 3477.83 60.00
9039 56.3280 3671.00 3462.29 61.00
9040 56.3340 3616.00 3451.05 60.00
9041 56.3400 3582.00 3438.54 60.00
9042 56.3460 3505.00 3419.59 59.00
9043 56.3520 3503.00 3391.11 59.00
9044 56.3580 3385.00 3352.32 58.00
9045 56.3640 3231.00 3303.57 57.00
9046 56.3700 3218.00 3246.71 57.00
9047 56.3760 3112.00 3184.17 56.00
9048 56.3820 3039.00 3120.07 55.00
9049 56.3880 3135.00 3057.76 56.00
9050 56.3940 3041.00 2999.96 55.00
9051 56.4000 2902.00 2948.82 54.00
9052 56.4060 2885.00 2904.37 54.00
9053 56.4120 2876.00 2864.70 54.00
9054 56.4180 2963.00 2827.65 54.00
9055 56.4240 2850.00 2791.82 53.00
9056 56.4300 2843.00 2756.71 53.00
9057 56.4360 2730.00 2722.70 52.00
9058 56.4420 2712.00 2689.55 52.00
9059 56.4480 2781.00 2658.13 53.00
9060 56.4540 2703.00 2629.59 52.00
9061 56.4600 2601.00 2605.06 51.00
9062 56.4660 2676.00 2584.00 52.00
9063 56.4720 2655.00 2567.44 52.00
9064 56.4780 2527.00 2554.90 50.00
9065 56.4840 2593.00 2545.69 51.00
9066 56.4900 2572.00 2539.53 51.00
9067 56.4960 2516.00 2533.65 50.00
9068 56.5020 2549.00 2527.52 50.00
9069 56.5080 2547.00 2520.61 50.00
9070 56.5140 2548.00 2512.26 50.00
9071 56.5200 2519.00 2503.16 50.00
9072 56.5260 2509.00 2493.95 50.00
9073 56.5320 2507.00 2484.65 50.00
9074 56.5380 2405.00 2476.00 49.00
9075 56.5440 2537.00 2468.44 50.00
9076 56.5500 2500.00 2462.79 50.00
9077 56.5560 2486.00 2458.19 50.00
9078 56.5620 2532.00 2454.42 50.00
9079 56.5680 2491.00 2451.56 50.00
9080 56.5740 2440.00 2448.69 49.00
9081 56.5800 2583.00 2445.95 51.00
9082 56.5860 2540.00 2443.31 50.00
9083 56.5920 2363.00 2440.77 49.00
9084 56.5980 2411.00 2438.94 49.00
9085 56.6040 2466.00 2436.80 50.00
9086 56.6100 2417.00 2434.91 49.00
9087 56.6160 2419.00 2433.95 49.00
9088 56.6220 2457.00 2432.81 50.00
9089 56.6280 2511.00 2431.73 50.00
9090 56.6340 2413.00 2431.22 49.00
9091 56.6400 2478.00 2430.62 50.00
9092 56.6460 2455.00 2430.22 50.00
9093 56.6520 2467.00 2429.90 50.00
9094 56.6580 2436.00 2429.87 49.00
9095 56.6640 2479.00 2429.57 50.00
9096 56.6700 2397.00 2429.96 49.00
9097 56.6760 2426.00 2430.62 49.00
9098 56.6820 2423.00 2431.81 49.00
9099 56.6880 2459.00 2433.83 50.00
9100 56.6940 2464.00 2436.21 50.00
9101 56.7000 2460.00 2439.60 50.00
9102 56.7060 2457.00 2443.91 50.00
9103 56.7120 2434.00 2449.30 49.00
9104 56.7180 2399.00 2455.87 49.00
9105 56.7240 2368.00 2464.31 49.00
9106 56.7300 2395.00 2472.24 49.00
9107 56.7360 2450.00 2481.90 49.00
9108 56.7420 2513.00 2491.87 50.00
9109 56.7480 2426.00 2500.53 49.00
9110 56.7540 2441.00 2508.85 49.00
9111 56.7600 2399.00 2515.02 49.00
9112 56.7660 2409.00 2518.63 49.00
9113 56.7720 2497.00 2519.85 50.00
9114 56.7780 2533.00 2519.67 50.00
9115 56.7840 2496.00 2519.40 50.00
9116 56.7900 2483.00 2520.26 50.00
9117 56.7960 2475.00 2523.21 50.00
9118 56.8020 2587.00 2529.56 51.00
9119 56.8080 2562.00 2538.42 51.00
9120 56.8140 2529.00 2549.62 50.00
9121 56.8200 2465.00 2562.81 50.00
9122 56.8260 2567.00 2576.64 51.00
9123 56.8320 2549.00 2590.29 50.00
9124 56.8380 2547.00 2602.33 50.00
9125 56.8440 2500.00 2611.66 50.00
9126 56.8500 2496.00 2617.52 50.00
9127 56.8560 2593.00 2620.36 51.00
9128 56.8620 2524.00 2618.95 50.00
9129 56.8680 2616.00 2613.33 51.00
9130 56.8740 2587.00 2604.44 51.00
9131 56.8800 2564.00 2594.03 51.00
9132 56.8860 2508.00 2584.04 50.00
9133 56.8920 2474.00 2575.83 50.00
9134 56.8980 2580.00 2571.51 51.00
9135 56.9040 2561.00 2571.86 51.00
9136 56.9100 2567.00 2578.24 51.00
9137 56.9160 2522.00 2591.17 50.00
9138 56.9220 2555.00 2610.92 51.00
9139 56.9280 2613.00 2638.78 51.00
9140 56.9340 2636.00 2674.43 51.00
9141 56.9400 2760.00 2718.35 53.00
9142 56.9460 2724.00 2769.98 52.00
9143 56.9520 2725.00 2828.54 52.00
9144 56.9580 2681.00 2892.68 52.00
9145 56.9640 2674.00 2960.94 52.00
9146 56.9700 2772.00 3032.29 53.00
9147 56.9760 2954.00 3107.53 54.00
9148 56.9820 2983.00 3187.08 55.00
9149 56.9880 3080.00 3271.00 55.00
9150 56.9940 3178.00 3357.74 56.00
9151 57.0000 3315.00 3444.23 58.00
9152 57.0060 3501.00 3525.90 59.00
9153 57.0120 3702.00 3596.87 61.00
9154 57.0180 3806.00 3649.81 62.00
9155 57.0240 3832.00 3680.77 62.00
9156 57.0300 3808.00 3688.49 62.00
9157 57.0360 3757.00 3673.97 61.00
9158 57.0420 3773.00 3639.46 61.00
9159 57.0480 3749.00 3586.69 61.00
9160 57.0540 3499.00 3518.52 59.00
9161 57.0600 3322.00 3439.84 58.00
9162 57.0660 3219.00 3356.99 57.00
9163 57.0720 3088.00 3275.81 56.00
9164 57.0780 2997.00 3201.40 55.00
9165 57.0840 3017.00 3138.30 55.00
9166 57.0900 2984.00 3090.09 55.00
9167 57.0960 2909.00 3059.46 54.00
9168 57.1020 2832.00 3047.07 53.00
9169 57.1080 2817.00 3053.24 53.00
9170 57.1140 2857.00 3076.79 53.00
9171 57.1200 2802.00 3115.40 53.00
9172 57.1260 2773.00 3166.14 53.00
9173 57.1320 2991.00 3225.67 55.00
9174 57.1380 3142.00 3291.72 56.00
9175 57.1440 3215.00 3361.57 57.00
9176 57.1500 3322.00 3431.25 58.00
9177 57.1560 3447.00 3495.29 59.00
9178 57.1620 3511.00 3548.37 59.00
9179 57.1680 3449.00 3585.17 59.00
9180 57.1740 3480.00 3601.75 59.00
9181 57.1800 3395.00 3594.67 58.00
9182 57.1860 3365.00 3563.82 58.00
9183 57.1920 3269.00 3510.94 57.00
9184 57.1980 3239.00 3441.39 57.00
9185 57.2040 3106.00 3360.11 56.00
9186 57.2100 3028.00 3273.42 55.00
9187 57.2160 3028.00 3187.75 55.00
9188 57.2220 2899.00 3108.68 54.00
9189 57.2280 2860.00 3041.83 53.00
9190 57.2340 2831.00 2991.27 53.00
9191 57.2400 2778.00 2959.43 53.00
9192 57.2460 2767.00 2947.05 53.00
9193 57.2520 2786.00 2953.37 53.00
9194 57.2580 2730.00 2976.28 52.00
9195 57.2640 2760.00 3012.39 53.00
9196 57.2700 2911.00 3056.99 54.00
9197 57.2760 2848.00 3104.27 53.00
9198 57.2820 2855.00 3148.49 53.00
9199 57.2880 2996.00 3185.43 55.00
9200 57.2940 3014.00 3214.18 55.00
9201 57.3000 3010.00 3238.06 55.00
9202 57.3060 3141.00 3260.31 56.00
9203 57.3120 3256.00 3283.66 57.00
9204 57.3180 3211.00 3308.10 57.00
9205 57.3240 3214.00 3331.97 57.00
9206 57.3300 3262.00 3353.89 57.00
9207 57.3360 3244.00 3374.03 57.00
9208 57.3420 3307.00 3394.05 58.00
9209 57.3480 3358.00 3414.85 58.00
9210 57.3540 3360.00 3434.08 58.00
9211 57.3600 3321.00 3446.64 58.00
9212 57.3660 3377.00 3445.59 58.00
9213 57.3720 3442.00 3425.57 59.00
9214 57.3780 3456.00 3386.00 59.00
9215 57.3840 3520.00 3330.55 59.00
9216 57.3900 3496.00 3264.98 59.00
9217 57.3960 3426.00 3194.19 59.00
9218 57.4020 3312.00 3121.07 58.00
9219 57.4080 3170.00 3047.18 56.00
9220 57.4140 3050.00 2974.01 55.00
9221 57.4200 2959.00 2904.03 54.00
9222 57.4260 2802.00 2839.43 53.00
9223 57.4320 2730.00 2782.30 52.00
9224 57.4380 2649.00 2733.48 51.00
9225 57.4440 2609.00 2692.90 51.00
9226 57.4500 2637.00 2660.18 51.00
9227 57.4560 2638.00 2634.45 51.00
9228 57.4620 2604.00 2614.84 51.00
9229 57.4680 2555.00 2600.42 51.00
9230 57.4740 2571.00 2590.58 51.00
9231 57.4800 2523.00 2584.15 50.00
9232 57.4860 2523.00 2580.88 50.00
9233 57.4920 2548.00 2580.19 50.00
9234 57.4980 2529.00 2581.81 50.00
9235 57.5040 2556.00 2586.73 51.00
9236 57.5100 2545.00 2595.90 50.00
9237 57.5160 2589.00 2609.60 51.00
9238 57.5220 2600.00 2629.73 51.00
9239 57.5280 2583.00 2656.05 51.00
9240 57.5340 2620.00 2690.88 51.00
9241 57.5400 2734.00 2734.33 52.00
9242 57.5460 2803.00 2786.23 53.00
9243 57.5520 2795.00 2845.70 53.00
9244 57.5580 2837.00 2910.31 53.00
9245 57.5640 2961.00 2976.97 54.00
9246 57.5700 3129.00 3040.19 56.00
9247 57.5760 3198.00 3093.84 57.00
9248 57.5820 3229.00 3131.49 57.00
9249 57.5880 3242.00 3150.16 57.00
9250 57.5940 3203.00 3145.69 57.00
9251 57.6000 3111.00 3120.34 56.00
9252 57.6060 2985.00 3078.97 55.00
9253 57.6120 2860.00 3028.32 53.00
9254 57.6180 2798.00 2977.05 53.00
9255 57.6240 2818.00 2930.42 53.00
9256 57.6300 2882.00 2892.16 54.00
9257 57.6360 2813.00 2863.98 53.00
9258 57.6420 2766.00 2846.46 53.00
9259 57.6480 2830.00 2837.85 53.00
9260 57.6540 2866.00 2836.10 54.00
9261 57.6600 2855.00 2837.12 53.00
9262 57.6660 2780.00 2839.54 53.00
9263 57.6720 2761.00 2841.95 53.00
9264 57.6780 2757.00 2845.91 53.00
9265 57.6840 2747.00 2851.21 52.00
9266 57.6900 2735.00 2859.10 52.00
9267 57.6960 2723.00 2870.26 52.00
9268 57.7020 2703.00 2886.39 52.00
9269 57.7080 2713.00 2908.63 52.00
9270 57.7140 2817.00 2938.22 53.00
9271 57.7200 2820.00 2974.99 53.00
9272 57.7260 2790.00 3019.51 53.00
9273 57.7320 2876.00 3066.83 54.00
9274 57.7380 3005.00 3113.87 55.00
9275 57.7440 3090.00 3155.40 56.00
9276 57.7500 3144.00 3188.18 56.00
9277 57.7560 3221.00 3207.83 57.00
9278 57.7620 3202.00 3210.92 57.00
9279 57.7680 3131.00 3197.05 56.00
9280 57.7740 3048.00 3168.71 55.00
9281 57.7800 2923.00 3126.24 54.00
9282 57.7860 2771.00 3076.70 53.00
9283 57.7920 2776.00 3025.81 53.00
9284 57.7980 2759.00 2979.72 53.00
9285 57.8040 2678.00 2942.92 52.00
9286 57.8100 2676.00 2918.22 52.00
9287 57.8160 2736.00 2908.11 52.00
9288 57.8220 2862.00 2912.56 53.00
9289 57.8280 2945.00 2930.14 54.00
9290 57.8340 3083.00 2957.01 56.00
9291 57.8400 3148.00 2988.70 56.00
9292 57.8460 3081.00 3019.65 56.00
9293 57.8520 3099.00 3043.29 56.00
9294 57.8580 3001.00 3056.72 55.00
9295 57.8640 2958.00 3058.03 54.00
9296 57.8700 2889.00 3048.74 54.00
9297 57.8760 2837.00 3031.95 53.00
9298 57.8820 2899.00 3012.59 54.00
9299 57.8880 2902.00 2995.57 54.00
9300 57.8940 2908.00 2984.10 54.00
9301 57.9000 2890.00 2981.67 54.00
9302 57.9060 2973.00 2987.82 55.00
9303 57.9120 3008.00 3001.03 55.00
9304 57.9180 3043.00 3018.65 55.00
9305 57.9240 3079.00 3037.79 55.00
9306 57.9300 3128.00 3055.61 56.00
9307 57.9360 3198.00 3068.48 57.00
9308 57.9420 3130.00 3073.99 56.00
9309 57.9480 3147.00 3068.45 56.00
9310 57.9540 3106.00 3049.28 56.00
9311 57.9600 3005.00 3016.11 55.00
9312 57.9660 2913.00 2972.13 54.00
9313 57.9720 2901.00 2922.11 54.00
9314 57.9780 2850.00 2871.10 53.00
9315 57.9840 2749.00 2824.36 52.00
9316 57.9900 2719.00 2784.95 52.00
9317 57.9960 2736.00 2755.23 52.00
9318 58.0020 2731.00 2736.55 52.00
9319 58.0080 2751.00 2729.75 52.00
9320 58.0140 2730.00 2734.49 52.00
9321 58.0200 2732.00 2750.49 52.00
9322 58.0260 2770.00 2776.92 53.00
9323 58.0320 2791.00 2812.56 53.00
9324 58.0380 2772.00 2855.65 53.00
9325 58.0440 2799.00 2904.81 53.00
9326 58.0500 2871.00 2958.39 54.00
9327 58.0560 2907.00 3016.15 54.00
9328 58.0620 3009.00 3077.68 55.00
9329 58.0680 3128.00 3141.98 56.00
9330 58.0740 3232.00 3206.14 57.00
9331 58.0800 3227.00 3265.90 57.00
9332 58.0860 3279.00 3315.94 57.00
9333 58.0920 3307.00 3351.47 58.00
9334 58.0980 3204.00 3368.87 57.00
9335 58.1040 3269.00 3366.94 57.00
9336 58.1100 3213.00 3347.25 57.00
9337 58.1160 3140.00 3313.84 56.00
9338 58.1220 3095.00 3272.46 56.00
9339 58.1280 2964.00 3229.28 54.00
9340 58.1340 2890.00 3188.65 54.00
9341 58.1400 2969.00 3153.76 54.00
9342 58.1460 2865.00 3124.57 54.00
9343 58.1520 2782.00 3098.79 53.00
9344 58.1580 2856.00 3074.94 53.00
9345 58.1640 2898.00 3051.86 54.00
9346 58.1700 2863.00 3030.87 54.00
9347 58.1760 2884.00 3016.48 54.00
9348 58.1820 2855.00 3012.86 53.00
9349 58.1880 2971.00 3023.80 55.00
9350 58.1940 3021.00 3051.80 55.00
9351 58.2000 3022.00 3097.81 55.00
9352 58.2060 3225.00 3160.74 57.00
9353 58.2120 3300.00 3237.62 57.00
9354 58.2180 3444.00 3322.92 59.00
9355 58.2240 3493.00 3409.69 59.00
9356 58.2300 3641.00 3490.70 60.00
9357 58.2360 3723.00 3559.50 61.00
9358 58.2420 3706.00 3612.63 61.00
9359 58.2480 3590.00 3647.02 60.00
9360 58.2540 3630.00 3661.72 60.00
9361 58.2600 3624.00 3658.36 60.00
9362 58.2660 3629.00 3642.03 60.00
9363 58.2720 3604.00 3620.59 60.00
9364 58.2780 3648.00 3602.86 60.00
9365 58.2840 3687.00 3594.37 61.00
9366 58.2900 3713.00 3597.31 61.00
9367 58.2960 3837.00 3611.86 62.00
9368 58.3020 3861.00 3637.13 62.00
9369 58.3080 3832.00 3674.02 62.00
9370 58.3140 3808.00 3725.32 62.00
9371 58.3200 3846.00 3795.48 62.00
9372 58.3260 3816.00 3885.86 62.00
9373 58.3320 3934.00 3993.63 63.00
9374 58.3380 4047.00 4111.35 64.00
9375 58.3440 4178.00 4225.99 65.00
9376 58.3500 4141.00 4323.61 64.00
9377 58.3560 4134.00 4391.45 64.00
9378 58.3620 4231.00 4422.65 65.00
9379 58.3680 4159.00 4414.47 64.00
9380 58.3740 4053.00 4367.89 64.00
9381 58.3800 3943.00 4286.89 63.00
9382 58.3860 3929.00 4178.75 63.00
9383 58.3920 3753.00 4053.13 61.00
9384 58.3980 3746.00 3920.17 61.00
9385 58.4040 3708.00 3788.59 61.00
9386 58.4100 3509.00 3663.27 59.00
9387 58.4160 3432.00 3546.52 59.00
9388 58.4220 3308.00 3437.65 58.00
9389 58.4280 3248.00 3336.13 57.00
9390 58.4340 3157.00 3240.11 56.00
9391 58.4400 3119.00 3149.67 56.00
9392 58.4460 2966.00 3064.09 54.00
9393 58.4520 2915.00 2984.05 54.00
9394 58.4580 2775.00 2910.31 53.00
9395 58.4640 2693.00 2843.97 52.00
9396 58.4700 2621.00 2786.48 51.00
9397 58.4760 2675.00 2738.61 52.00
9398 58.4820 2699.00 2700.87 52.00
9399 58.4880 2663.00 2672.88 52.00
9400 58.4940 2687.00 2654.01 52.00
9401 58.5000 2643.00 2643.64 51.00
9402 58.5060 2728.00 2640.30 52.00
9403 58.5120 2753.00 2642.45 52.00
9404 58.5180 2521.00 2648.31 50.00
9405 58.5240 2606.00 2655.60 51.00
9406 58.5300 2699.00 2662.77 52.00
9407 58.5360 2695.00 2668.87 52.00
9408 58.5420 2649.00 2673.65 51.00
9409 58.5480 2669.00 2677.57 52.00
9410 58.5540 2730.00 2681.35 52.00
9411 58.5600 2639.00 2685.35 51.00
9412 58.5660 2663.00 2689.57 52.00
9413 58.5720 2636.00 2693.67 51.00
9414 58.5780 2681.00 2697.17 52.00
9415 58.5840 2741.00 2699.47 52.00
9416 58.5900 2723.00 2699.98 52.00
9417 58.5960 2659.00 2698.47 52.00
9418 58.6020 2724.00 2694.88 52.00
9419 58.6080 2724.00 2689.00 52.00
9420 58.6140 2656.00 2680.48 52.00
9421 58.6200 2717.00 2669.05 52.00
9422 58.6260 2711.00 2654.71 52.00
9423 58.6320 2627.00 2639.17 51.00
9424 58.6380 2565.00 2624.07 51.00
9425 58.6440 2603.00 2611.70 51.00
9426 58.6500 2650.00 2604.23 51.00
9427 58.6560 2541.00 2603.56 50.00
9428 58.6620 2576.00 2610.85 51.00
9429 58.6680 2529.00 2628.11 50.00
9430 58.6740 2505.00 2654.29 50.00
9431 58.6800 2572.00 2690.54 51.00
9432 58.6860 2604.00 2735.05 51.00
9433 58.6920 2671.00 2786.24 52.00
9434 58.6980 2579.00 2840.32 51.00
9435 58.7040 2769.00 2892.73 53.00
9436 58.7100 2779.00 2938.21 53.00
9437 58.7160 2777.00 2971.79 53.00
9438 58.7220 2800.00 2989.87 53.00
9439 58.7280 2766.00 2991.06 53.00
9440 58.7340 2805.00 2975.91 53.00
9441 58.7400 2674.00 2945.85 52.00
9442 58.7460 2701.00 2904.96 52.00
9443 58.7520 2652.00 2856.60 51.00
9444 58.7580 2636.00 2805.19 51.00
9445 58.7640 2568.00 2755.38 51.00
9446 58.7700 2548.00 2710.87 50.00
9447 58.7760 2488.00 2674.49 50.00
9448 58.7820 2548.00 2647.87 50.00
9449 58.7880 2496.00 2632.08 50.00
9450 58.7940 2481.00 2626.99 50.00
9451 58.8000 2554.00 2632.28 51.00
9452 58.8060 2609.00 2646.30 51.00
9453 58.8120 2626.00 2668.85 51.00
9454 58.8180 2633.00 2697.46 51.00
9455 58.8240 2630.00 2730.83 51.00
9456 58.8300 2732.00 2767.38 52.00
9457 58.8360 2729.00 2804.34 52.00
9458 58.8420 2853.00 2841.66 53.00
9459 58.8480 2890.00 2876.47 54.00
9460 58.8540 2949.00 2904.85 54.00
9461 58.8600 2959.00 2922.49 54.00
9462 58.8660 2911.00 2925.21 54.00
9463 58.8720 2890.00 2912.12 54.00
9464 58.8780 2833.00 2884.89 53.00
9465 58.8840 2751.00 2846.04 52.00
9466 58.8900 2631.00 2800.75 51.00
9467 58.8960 2708.00 2751.53 52.00
9468 58.9020 2516.00 2701.30 50.00
9469 58.9080 2480.00 2653.01 50.00
9470 58.9140 2547.00 2608.19 50.00
9471 58.9200 2516.00 2568.41 50.00
9472 58.9260 2388.00 2534.18 49.00
9473 58.9320 2420.00 2504.12 49.00
9474 58.9380 2450.00 2480.99 49.00
9475 58.9440 2389.00 2462.91 49.00
9476 58.9500 2419.00 2448.99 49.00
9477 58.9560 2357.00 2438.59 49.00
9478 58.9620 2426.00 2432.45 49.00
9479 58.9680 2356.00 2428.48 49.00
9480 58.9740 2420.00 2427.92 49.00
9481 58.9800 2465.00 2429.70 50.00
9482 58.9860 2422.00 2433.60 49.00
9483 58.9920 2437.00 2438.89 49.00
9484 58.9980 2467.00 2445.68 50.00
9485 59.0040 2416.00 2452.98 49.00
9486 59.0100 2444.00 2460.43 49.00
9487 59.0160 2466.00 2467.37 50.00
9488 59.0220 2491.00 2473.08 50.00
9489 59.0280 2436.00 2476.93 49.00
9490 59.0340 2378.00 2480.04 49.00
9491 59.0400 2467.00 2482.28 50.00
9492 59.0460 2482.00 2484.67 50.00
9493 59.0520 2501.00 2487.63 50.00
9494 59.0580 2417.00 2491.24 49.00
9495 59.0640 2530.00 2495.24 50.00
9496 59.0700 2404.00 2499.49 49.00
9497 59.0760 2395.00 2503.23 49.00
9498 59.0820 2479.00 2506.20 50.00
9499 59.0880 2464.00 2507.42 50.00
9500 59.0940 2462.00 2506.73 50.00
9501 59.1000 2452.00 2503.64 50.00
9502 59.1060 2502.00 2497.82 50.00
9503 59.1120 2532.00 2489.32 50.00
9504 59.1180 2533.00 2478.54 50.00
9505 59.1240 2455.00 2466.86 50.00
9506 59.1300 2466.00 2455.40 50.00
9507 59.1360 2560.00 2444.59 51.00
9508 59.1420 2429.00 2435.13 49.00
9509 59.1480 2381.00 2427.62 49.00
9510 59.1540 2388.00 2421.81 49.00
9511 59.1600 2416.00 2418.04 49.00
9512 59.1660 2440.00 2416.09 49.00
9513 59.1720 2413.00 2415.90 49.00
9514 59.1780 2457.00 2417.90 50.00
9515 59.1840 2426.00 2422.15 49.00
9516 59.1900 2389.00 2429.17 49.00
9517 59.1960 2377.00 2439.24 49.00
9518 59.2020 2457.00 2453.28 50.00
9519 59.2080 2476.00 2472.07 50.00
9520 59.2140 2482.00 2495.80 50.00
9521 59.2200 2575.00 2524.95 51.00
9522 59.2260 2470.00 2559.33 50.00
9523 59.2320 2552.00 2598.09 51.00
9524 59.2380 2676.00 2639.88 52.00
9525 59.2440 2725.00 2682.47 52.00
9526 59.2500 2845.00 2721.85 53.00
9527 59.2560 2849.00 2754.64 53.00
9528 59.2620 2805.00 2777.40 53.00
9529 59.2680 2797.00 2787.89 53.00
9530 59.2740 2776.00 2785.17 53.00
9531 59.2800 2698.00 2769.76 52.00
9532 59.2860 2622.00 2743.70 51.00
9533 59.2920 2623.00 2710.59 51.00
9534 59.2980 2562.00 2674.51 51.00
9535 59.3040 2539.00 2639.48 50.00
9536 59.3100 2496.00 2609.18 50.00
9537 59.3160 2526.00 2585.62 50.00
9538 59.3220 2572.00 2570.97 51.00
9539 59.3280 2574.00 2566.39 51.00
9540 59.3340 2556.00 2571.56 51.00
9541 59.3400 2572.00 2587.40 51.00
9542 59.3460 2639.00 2613.18 51.00
9543 59.3520 2735.00 2648.01 52.00
9544 59.3580 2817.00 2690.35 53.00
9545 59.3640 2885.00 2737.83 54.00
9546 59.3700 2990.00 2787.59 55.00
9547 59.3760 3115.00 2836.06 56.00
9548 59.3820 3129.00 2880.03 56.00
9549 59.3880 3025.00 2916.79 55.00
9550 59.3940 3015.00 2945.30 55.00
9551 59.4000 2972.00 2965.84 55.00
9552 59.4060 2975.00 2979.14 55.00
9553 59.4120 3002.00 2985.69 55.00
9554 59.4180 2957.00 2986.11 54.00
9555 59.4240 2994.00 2980.68 55.00
9556 59.4300 2972.00 2970.15 55.00
9557 59.4360 3005.00 2955.38 55.00
9558 59.4420 3069.00 2936.23 55.00
9559 59.4480 3026.00 2912.47 55.00
9560 59.4540 2929.00 2883.56 54.00
9561 59.4600 2909.00 2852.11 54.00
9562 59.4660 2891.00 2819.68 54.00
9563 59.4720 2804.00 2788.73 53.00
9564 59.4780 2814.00 2760.92 53.00
9565 59.4840 2860.00 2737.25 53.00
9566 59.4900 2791.00 2717.38 53.00
9567 59.4960 2744.00 2700.51 52.00
9568 59.5020 2774.00 2686.16 53.00
9569 59.5080 2669.00 2673.29 52.00
9570 59.5140 2609.00 2662.03 51.00
9571 59.5200 2603.00 2652.92 51.00
9572 59.5260 2582.00 2646.09 51.00
9573 59.5320 2610.00 2641.37 51.00
9574 59.5380 2628.00 2638.21 51.00
9575 59.5440 2646.00 2635.53 51.00
9576 59.5500 2643.00 2632.31 51.00
9577 59.5560 2658.00 2629.44 52.00
9578 59.5620 2674.00 2626.46 52.00
9579 59.5680 2648.00 2624.50 51.00
9580 59.5740 2648.00 2624.23 51.00
9581 59.5800 2659.00 2626.24 52.00
9582 59.5860 2689.00 2631.18 52.00
9583 59.5920 2726.00 2639.00 52.00
9584 59.5980 2707.00 2649.95 52.00
9585 59.6040 2641.00 2663.38 51.00
9586 59.6100 2688.00 2678.43 52.00
9587 59.6160 2745.00 2692.92 52.00
9588 59.6220 2744.00 2705.38 52.00
9589 59.6280 2723.00 2714.27 52.00
9590 59.6340 2648.00 2719.72 51.00
9591 59.6400 2654.00 2721.59 52.00
9592 59.6460 2628.00 2722.03 51.00
9593 59.6520 2660.00 2722.64 52.00
9594 59.6580 2686.00 2724.28 52.00
9595 59.6640 2683.00 2727.17 52.00
9596 59.6700 2719.00 2730.74 52.00
9597 59.6760 2778.00 2735.17 53.00
9598 59.6820 2772.00 2740.35 53.00
9599 59.6880 2686.00 2747.33 52.00
9600 59.6940 2685.00 2758.01 52.00
9601 59.7000 2770.00 2772.87 53.00
9602 59.7060 2822.00 2792.32 53.00
9603 59.7120 2809.00 2814.81 53.00
9604 59.7180 2869.00 2838.20 54.00
9605 59.7240 2981.00 2859.70 55.00
9606 59.7300 3071.00 2876.57 55.00
9607 59.7360 3137.00 2886.99 56.00
9608 59.7420 3110.00 2890.17 56.00
9609 59.7480 2983.00 2886.58 55.00
9610 59.7540 2927.00 2878.36 54.00
9611 59.7600 2905.00 2866.82 54.00
9612 59.7660 2846.00 2855.44 53.00
9613 59.7720 2817.00 2845.79 53.00
9614 59.7780 2886.00 2840.19 54.00
9615 59.7840 2940.00 2836.75 54.00
9616 59.7900 2881.00 2835.48 54.00
9617 59.7960 2890.00 2835.15 54.00
9618 59.8020 2854.00 2833.37 53.00
9619 59.8080 2838.00 2829.55 53.00
9620 59.8140 2837.00 2823.63 53.00
9621 59.8200 2748.00 2815.52 52.00
9622 59.8260 2716.00 2805.28 52.00
9623 59.8320 2675.00 2792.91 52.00
9624 59.8380 2693.00 2776.75 52.00
9625 59.8440 2736.00 2757.19 52.00
9626 59.8500 2751.00 2735.51 52.00
9627 59.8560 2651.00 2715.31 51.00
9628 59.8620 2649.00 2698.01 51.00
9629 59.8680 2719.00 2685.69 52.00
9630 59.8740 2724.00 2679.33 52.00
9631 59.8800 2763.00 2679.63 53.00
9632 59.8860 2719.00 2685.27 52.00
9633 59.8920 2731.00 2694.69 52.00
9634 59.8980 2750.00 2705.84 52.00
9635 59.9040 2757.00 2716.76 53.00
9636 59.9100 2698.00 2725.23 52.00
9637 59.9160 2733.00 2729.48 52.00
9638 59.9220 2799.00 2728.22 53.00
9639 59.9280 2717.00 2721.00 52.00
9640 59.9340 2718.00 2708.60 52.00
9641 59.9400 2655.00 2692.57 52.00
9642 59.9460 2605.00 2674.56 51.00
9643 59.9520 2644.00 2655.74 51.00
9644 59.9580 2617.00 2636.96 51.00
9645 59.9640 2584.00 2618.84 51.00
9646 59.9700 2619.00 2601.80 51.00
9647 59.9760 2634.00 2586.37 51.00
9648 59.9820 2565.00 2572.66 51.00
9649 59.9880 2416.00 2561.19 49.00
9650 59.9940 2453.00 2552.75 50.00
9651 60.0000 2580.00 2547.81 51.00
9652 60.0060 2550.00 2546.49 50.00
9653 60.0120 2542.00 2548.94 50.00
9654 60.0180 2595.00 2555.83 51.00
9655 60.0240 2659.00 2566.86 52.00
9656 60.0300 2672.00 2581.89 52.00
9657 60.0360 2703.00 2601.19 52.00
9658 60.0420 2737.00 2625.14 52.00
9659 60.0480 2776.00 2654.52 53.00
9660 60.0540 2804.00 2691.09 53.00
9661 60.0600 2815.00 2735.66 53.00
9662 60.0660 2869.00 2789.47 54.00
9663 60.0720 2880.00 2853.34 54.00
9664 60.0780 2944.00 2927.61 54.00
9665 60.0840 3007.00 3011.72 55.00
9666 60.0900 3038.00 3103.30 55.00
9667 60.0960 3140.00 3198.55 56.00
9668 60.1020 3184.00 3293.36 56.00
9669 60.1080 3297.00 3383.70 57.00
9670 60.1140 3448.00 3466.93 59.00
9671 60.1200 3551.00 3540.71 60.00
9672 60.1260 3747.00 3601.60 61.00
9673 60.1320 3828.00 3644.42 62.00
9674 60.1380 3728.00 3664.49 61.00
9675 60.1440 3638.00 3658.87 60.00
9676 60.1500 3433.00 3628.13 59.00
9677 60.1560 3376.00 3576.70 58.00
9678 60.1620 3333.00 3511.38 58.00
9679 60.1680 3231.00 3440.26 57.00
9680 60.1740 3138.00 3370.35 56.00
9681 60.1800 3145.00 3307.49 56.00
9682 60.1860 3158.00 3254.23 56.00
9683 60.1920 3125.00 3212.20 56.00
9684 60.1980 3071.00 3181.49 55.00
9685 60.2040 3061.00 3161.62 55.00
9686 60.2100 3207.00 3150.80 57.00
9687 60.2160 3195.00 3147.50 57.00
9688 60.2220 3223.00 3150.04 57.00
9689 60.2280 3270.00 3155.91 57.00
9690 60.2340 3277.00 3163.51 57.00
9691 60.2400 3285.00 3171.07 57.00
9692 60.2460 3372.00 3178.50 58.00
9693 60.2520 3296.00 3186.80 57.00
9694 60.2580 3334.00 3196.81 58.00
9695 60.2640 3274.00 3208.06 57.00
9696 60.2700 3193.00 3217.97 57.00
9697 60.2760 3168.00 3223.81 56.00
9698 60.2820 3225.00 3222.37 57.00
9699 60.2880 3273.00 3213.11 57.00
9700 60.2940 3151.00 3198.06 56.00
9701 60.3000 3175.00 3181.25 56.00
9702 60.3060 3312.00 3168.94 58.00
9703 60.3120 3300.00 3167.14 57.00
9704 60.3180 3220.00 3180.86 57.00
9705 60.3240 3181.00 3213.54 56.00
9706 60.3300 3297.00 3267.24 57.00
9707 60.3360 3370.00 3340.87 58.00
9708 60.3420 3374.00 3430.56 58.00
9709 60.3480 3483.00 3530.77 59.00
9710 60.3540 3561.00 3632.86 60.00
9711 60.3600 3660.00 3728.71 60.00
9712 60.3660 3844.00 3810.34 62.00
9713 60.3720 3896.00 3871.89 62.00
9714 60.3780 3879.00 3909.18 62.00
9715 60.3840 4057.00 3921.16 64.00
9716 60.3900 4107.00 3910.40 64.00
9717 60.3960 4115.00 3882.08 64.00
9718 60.4020 4107.00 3842.90 64.00
9719 60.4080 4143.00 3800.31 64.00
9720 60.4140 4073.00 3759.61 64.00
9721 60.4200 3971.00 3723.67 63.00
9722 60.4260 3861.00 3692.39 62.00
9723 60.4320 3832.00 3663.30 62.00
9724 60.4380 3663.00 3632.27 61.00
9725 60.4440 3623.00 3596.93 60.00
9726 60.4500 3687.00 3554.11 61.00
9727 60.4560 3555.00 3502.52 60.00
9728 60.4620 3430.00 3440.99 59.00
9729 60.4680 3467.00 3370.09 59.00
9730 60.4740 3362.00 3291.89 58.00
9731 60.4800 3297.00 3209.85 57.00
9732 60.4860 3138.00 3127.82 56.00
9733 60.4920 3201.00 3048.44 57.00
9734 60.4980 3267.00 2973.56 57.00
9735 60.5040 3119.00 2904.13 56.00
9736 60.5100 2986.00 2840.55 55.00
9737 60.5160 2867.00 2783.36 54.00
9738 60.5220 2769.00 2732.55 53.00
9739 60.5280 2721.00 2689.35 52.00
9740 60.5340 2718.00 2654.30 52.00
9741 60.5400 2715.00 2627.01 52.00
9742 60.5460 2702.00 2607.37 52.00
9743 60.5520 2705.00 2594.63 52.00
9744 60.5580 2637.00 2587.67 51.00
9745 60.5640 2725.00 2585.40 52.00
9746 60.5700 2698.00 2586.29 52.00
9747 60.5760 2571.00 2589.04 51.00
9748 60.5820 2751.00 2592.77 52.00
9749 60.5880 2792.00 2596.84 53.00
9750 60.5940 2703.00 2601.00 52.00
9751 60.6000 2762.00 2604.83 53.00
9752 60.6060 2697.00 2607.77 52.00
9753 60.6120 2668.00 2609.27 52.00
9754 60.6180 2641.00 2609.04 51.00
9755 60.6240 2592.00 2607.07 51.00
9756 60.6300 2601.00 2603.52 51.00
9757 60.6360 2638.00 2598.53 51.00
9758 60.6420 2592.00 2592.60 51.00
9759 60.6480 2497.00 2586.14 50.00
9760 60.6540 2584.00 2580.00 51.00
9761 60.6600 2532.00 2575.27 50.00
9762 60.6660 2496.00 2573.06 50.00
9763 60.6720 2565.00 2574.44 51.00
9764 60.6780 2544.00 2579.77 50.00
9765 60.6840 2578.00 2588.93 51.00
9766 60.6900 2620.00 2601.30 51.00
9767 60.6960 2621.00 2615.22 51.00
9768 60.7020 2575.00 2629.22 51.00
9769 60.7080 2450.00 2641.08 49.00
9770 60.7140 2558.00 2650.98 51.00
9771 60.7200 2642.00 2658.02 51.00
9772 60.7260 2583.00 2661.71 51.00
9773 60.7320 2597.00 2662.33 51.00
9774 60.7380 2598.00 2661.00 51.00
9775 60.7440 2594.00 2658.14 51.00
9776 60.7500 2667.00 2655.55 52.00
9777 60.7560 2778.00 2654.74 53.00
9778 60.7620 2725.00 2655.30 52.00
9779 60.7680 2528.00 2658.49 50.00
9780 60.7740 2619.00 2662.38 51.00
9781 60.7800 2708.00 2666.21 52.00
9782 60.7860 2573.00 2668.56 51.00
9783 60.7920 2685.00 2667.99 52.00
9784 60.7980 2711.00 2664.42 52.00
9785 60.8040 2787.00 2657.17 53.00
9786 60.8100 2664.00 2646.48 52.00
9787 60.8160 2710.00 2632.85 52.00
9788 60.8220 2559.00 2618.15 51.00
9789 60.8280 2571.00 2604.37 51.00
9790 60.8340 2581.00 2594.18 51.00
9791 60.8400 2650.00 2588.52 51.00
9792 60.8460 2535.00 2589.49 50.00
9793 60.8520 2536.00 2598.69 50.00
9794 60.8580 2585.00 2615.56 51.00
9795 60.8640 2764.00 2639.74 53.00
9796 60.8700 2734.00 2669.80 52.00
9797 60.8760 2811.00 2703.43 53.00
9798 60.8820 2832.00 2736.85 53.00
9799 60.8880 2886.00 2766.73 54.00
9800 60.8940 2838.00 2787.66 53.00
9801 60.9000 2799.00 2796.45 53.00
9802 60.9060 2850.00 2790.48 53.00
9803 60.9120 2736.00 2770.64 52.00
9804 60.9180 2739.00 2740.10 52.00
9805 60.9240 2611.00 2702.84 51.00
9806 60.9300 2627.00 2662.67 51.00
9807 60.9360 2590.00 2622.92 51.00
9808 60.9420 2550.00 2585.92 50.00
9809 60.9480 2541.00 2553.34 50.00
9810 60.9540 2521.00 2526.30 50.00
9811 60.9600 2401.00 2504.38 49.00
9812 60.9660 2490.00 2486.92 50.00
9813 60.9720 2468.00 2474.30 50.00
9814 60.9780 2488.00 2464.72 50.00
9815 60.9840 2437.00 2457.56 49.00
9816 60.9900 2453.00 2452.31 50.00
9817 60.9960 2483.00 2449.59 50.00
9818 61.0020 2466.00 2448.98 50.00
9819 61.0080 2529.00 2450.38 50.00
9820 61.0140 2479.00 2454.97 50.00
9821 61.0200 2441.00 2462.17 49.00
9822 61.0260 2438.00 2471.81 49.00
9823 61.0320 2490.00 2483.91 50.00
9824 61.0380 2461.00 2497.70 50.00
9825 61.0440 2533.00 2511.88 50.00
9826 61.0500 2618.00 2526.31 51.00
9827 61.0560 2465.00 2539.88 50.00
9828 61.0620 2555.00 2552.06 51.00
9829 61.0680 2639.00 2562.65 51.00
9830 61.0740 2576.00 2573.63 51.00
9831 61.0800 2499.00 2586.24 50.00
9832 61.0860 2632.00 2601.22 51.00
9833 61.0920 2572.00 2619.81 51.00
9834 61.0980 2618.00 2641.97 51.00
9835 61.1040 2683.00 2667.47 52.00
9836 61.1100 2679.00 2694.69 52.00
9837 61.1160 2701.00 2721.10 52.00
9838 61.1220 2761.00 2743.83 53.00
9839 61.1280 2732.00 2759.67 52.00
9840 61.1340 2773.00 2765.54 53.00
9841 61.1400 2808.00 2760.71 53.00
9842 61.1460 2790.00 2745.98 53.00
9843 61.1520 2695.00 2723.53 52.00
9844 61.1580 2637.00 2696.45 51.00
9845 61.1640 2594.00 2667.41 51.00
9846 61.1700 2580.00 2638.91 51.00
9847 61.1760 2540.00 2612.68 50.00
9848 61.1820 2543.00 2589.19 50.00
9849 61.1880 2448.00 2568.14 49.00
9850 61.1940 2525.00 2549.27 50.00
9851 61.2000 2489.00 2531.72 50.00
9852 61.2060 2449.00 2515.05 49.00
9853 61.2120 2501.00 2499.38 50.00
9854 61.2180 2533.00 2484.98 50.00
9855 61.2240 2463.00 2472.53 50.00
9856 61.2300 2468.00 2462.41 50.00
9857 61.2360 2529.00 2454.95 50.00
9858 61.2420 2445.00 2450.43 49.00
9859 61.2480 2449.00 2449.16 49.00
9860 61.2540 2465.00 2451.22 50.00
9861 61.2600 2581.00 2456.76 51.00
9862 61.2660 2623.00 2465.89 51.00
9863 61.2720 2560.00 2478.46 51.00
9864 61.2780 2517.00 2494.21 50.00
9865 61.2840 2566.00 2512.74 51.00
9866 61.2900 2635.00 2533.34 51.00
9867 61.2960 2629.00 2555.19 51.00
9868 61.3020 2669.00 2577.62 52.00
9869 61.3080 2782.00 2599.47 53.00
9870 61.3140 2787.00 2620.89 53.00
9871 61.3200 3074.00 2641.92 55.00
9872 61.3260 3042.00 2663.43 55.00
9873 61.3320 3091.00 2685.54 56.00
9874 61.3380 2934.00 2708.94 54.00
9875 61.3440 2898.00 2734.74 54.00
9876 61.3500 2945.00 2764.84 54.00
9877 61.3560 2808.00 2800.69 53.00
9878 61.3620 2762.00 2843.79 53.00
9879 61.3680 2839.00 2893.99 53.00
9880 61.3740 2877.00 2950.39 54.00
9881 61.3800 2990.00 3010.82 55.00
9882 61.3860 3016.00 3072.51 55.00
9883 61.3920 3116.00 3132.98 56.00
9884 61.3980 3207.00 3190.30 57.00
9885 61.4040 3354.00 3243.14 58.00
9886 61.4100 3363.00 3288.90 58.00
9887 61.4160 3447.00 3324.00 59.00
9888 61.4220 3449.00 3345.31 59.00
9889 61.4280 3292.00 3351.54 57.00
9890 61.4340 3240.00 3342.65 57.00
9891 61.4400 3136.00 3320.11 56.00
9892 61.4460 3090.00 3285.74 56.00
9893 61.4520 2970.00 3241.45 54.00
9894 61.4580 2941.00 3189.02 54.00
9895 61.4640 2957.00 3130.93 54.00
9896 61.4700 2788.00 3069.98 53.00
9897 61.4760 2802.00 3009.50 53.00
9898 61.4820 2840.00 2952.56 53.00
9899 61.4880 2826.00 2901.68 53.00
9900 61.4940 2735.00 2858.63 52.00
9901 61.5000 2708.00 2823.67 52.00
9902 61.5060 2776.00 2796.02 53.00
9903 61.5120 2705.00 2773.77 52.00
9904 61.5180 2656.00 2753.96 52.00
9905 61.5240 2742.00 2735.77 52.00
9906 61.5300 2837.00 2717.95 53.00
9907 61.5360 2778.00 2701.19 53.00
9908 61.5420 2706.00 2685.34 52.00
9909 61.5480 2677.00 2671.15 52.00
9910 61.5540 2644.00 2658.53 51.00
9911 61.5600 2623.00 2646.76 51.00
9912 61.5660 2610.00 2634.85 51.00
9913 61.5720 2578.00 2622.04 51.00
9914 61.5780 2681.00 2608.24 52.00
9915 61.5840 2678.00 2594.40 52.00
9916 61.5900 2638.00 2581.12 51.00
9917 61.5960 2566.00 2569.55 51.00
9918 61.6020 2599.00 2560.36 51.00
9919 61.6080 2627.00 2553.61 51.00
9920 61.6140 2560.00 2548.98 51.00
9921 61.6200 2632.00 2545.88 51.00
9922 61.6260 2682.00 2543.70 52.00
9923 61.6320 2546.00 2542.10 50.00
9924 61.6380 2500.00 2541.37 50.00
9925 61.6440 2558.00 2541.89 51.00
9926 61.6500 2607.00 2544.46 51.00
9927 61.6560 2558.00 2549.61 51.00
9928 61.6620 2567.00 2558.06 51.00
9929 61.6680 2621.00 2570.62 51.00
9930 61.6740 2538.00 2586.21 50.00
9931 61.6800 2570.00 2605.72 51.00
9932 61.6860 2566.00 2628.32 51.00
9933 61.6920 2590.00 2652.87 51.00
9934 61.6980 2648.00 2677.75 51.00
9935 61.7040 2649.00 2701.59 51.00
9936 61.7100 2690.00 2723.31 52.00
9937 61.7160 2717.00 2741.28 52.00
9938 61.7220 2677.00 2755.60 52.00
9939 61.7280 2799.00 2766.20 53.00
9940 61.7340 2909.00 2773.65 54.00
9941 61.7400 2860.00 2779.23 53.00
9942 61.7460 2822.00 2781.49 53.00
9943 61.7520 2861.00 2781.91 53.00
9944 61.7580 2808.00 2781.25 53.00
9945 61.7640 2800.00 2779.79 53.00
9946 61.7700 2787.00 2778.31 53.00
9947 61.7760 2815.00 2775.99 53.00
9948 61.7820 2760.00 2771.96 53.00
9949 61.7880 2760.00 2765.27 53.00
9950 61.7940 2670.00 2754.20 52.00
9951 61.8000 2704.00 2737.90 52.00
9952 61.8060 2721.00 2716.38 52.00
9953 61.8120 2758.00 2690.71 53.00
9954 61.8180 2703.00 2661.76 52.00
9955 61.8240 2694.00 2631.96 52.00
9956 61.8300 2597.00 2603.02 51.00
9957 61.8360 2599.00 2576.28 51.00
9958 61.8420 2484.00 2552.95 50.00
9959 61.8480 2551.00 2533.37 51.00
9960 61.8540 2555.00 2517.80 51.00
9961 61.8600 2499.00 2507.01 50.00
9962 61.8660 2448.00 2500.87 49.00
9963 61.8720 2497.00 2499.72 50.00
9964 61.8780 2492.00 2503.68 50.00
9965 61.8840 2504.00 2512.80 50.00
9966 61.8900 2573.00 2526.97 51.00
9967 61.8960 2617.00 2545.92 51.00
9968 61.9020 2620.00 2569.02 51.00
9969 61.9080 2606.00 2595.35 51.00
9970 61.9140 2638.00 2623.50 51.00
9971 61.9200 2608.00 2651.84 51.00
9972 61.9260 2664.00 2678.70 52.00
9973 61.9320 2730.00 2703.30 52.00
9974 61.9380 2719.00 2725.36 52.00
9975 61.9440 2785.00 2745.13 53.00
9976 61.9500 2814.00 2762.89 53.00
9977 61.9560 2806.00 2778.02 53.00
9978 61.9620 2863.00 2789.88 54.00
9979 61.9680 2821.00 2796.69 53.00
9980 61.9740 2845.00 2796.91 53.00
9981 61.9800 2778.00 2789.81 53.00
9982 61.9860 2785.00 2775.59 53.00
9983 61.9920 2733.00 2755.75 52.00
9984 61.9980 2738.00 2732.35 52.00
9985 62.0040 2663.00 2707.65 52.00
9986 62.0100 2670.00 2682.98 52.00
9987 62.0160 2616.00 2660.24 51.00
9988 62.0220 2560.00 2639.36 51.00
9989 62.0280 2557.00 2619.72 51.00
9990 62.0340 2588.00 2600.52 51.00
9991 62.0400 2635.00 2581.73 51.00
9992 62.0460 2585.00 2564.09 51.00
9993 62.0520 2512.00 2548.33 50.00
9994 62.0580 2483.00 2535.72 50.00
9995 62.0640 2503.00 2527.73 50.00
9996 62.0700 2441.00 2525.36 49.00
9997 62.0760 2467.00 2529.17 50.00
9998 62.0820 2512.00 2540.89 50.00
9999 62.0880 2492.00 2560.65 50.00
10000 62.0940 2534.00 2588.44 50.00
10001 62.1000 2538.00 2624.57 50.00
10002 62.1060 2613.00 2668.14 51.00
10003 62.1120 2709.00 2717.57 52.00
10004 62.1180 2835.00 2770.80 53.00
10005 62.1240 2926.00 2824.29 54.00
10006 62.1300 2978.00 2874.48 55.00
10007 62.1360 3035.00 2917.39 55.00
10008 62.1420 3029.00 2949.73 55.00
10009 62.1480 2920.00 2970.48 54.00
10010 62.1540 2906.00 2978.75 54.00
10011 62.1600 2888.00 2974.85 54.00
10012 62.1660 2814.00 2959.90 53.00
10013 62.1720 2789.00 2936.12 53.00
10014 62.1780 2771.00 2906.92 53.00
10015 62.1840 2735.00 2876.06 52.00
10016 62.1900 2753.00 2846.85 52.00
10017 62.1960 2741.00 2821.52 52.00
10018 62.2020 2713.00 2801.86 52.00
10019 62.2080 2710.00 2788.40 52.00
10020 62.2140 2797.00 2781.74 53.00
10021 62.2200 2911.00 2782.90 54.00
10022 62.2260 2922.00 2793.23 54.00
10023 62.2320 2894.00 2814.04 54.00
10024 62.2380 2997.00 2846.17 55.00
10025 62.2440 3126.00 2889.65 56.00
10026 62.2500 3139.00 2943.50 56.00
10027 62.2560 3251.00 3005.27 57.00
10028 62.2620 3406.00 3072.28 58.00
10029 62.2680 3492.00 3140.73 59.00
10030 62.2740 3470.00 3206.64 59.00
10031 62.2800 3421.00 3267.20 58.00
10032 62.2860 3416.00 3319.72 58.00
10033 62.2920 3413.00 3362.66 58.00
10034 62.2980 3421.00 3395.46 58.00
10035 62.3040 3386.00 3418.55 58.00
10036 62.3100 3427.00 3433.21 59.00
10037 62.3160 3519.00 3441.44 59.00
10038 62.3220 3505.00 3445.44 59.00
10039 62.3280 3473.00 3447.00 59.00
10040 62.3340 3435.00 3447.52 59.00
10041 62.3400 3434.00 3446.79 59.00
10042 62.3460 3395.00 3444.14 58.00
10043 62.3520 3371.00 3438.05 58.00
10044 62.3580 3347.00 3427.12 58.00
10045 62.3640 3327.00 3409.70 58.00
10046 62.3700 3357.00 3385.08 58.00
10047 62.3760 3314.00 3354.08 58.00
10048 62.3820 3227.00 3320.29 57.00
10049 62.3880 3255.00 3287.44 57.00
10050 62.3940 3327.00 3258.80 58.00
10051 62.4000 3322.00 3236.30 58.00
10052 62.4060 3308.00 3219.96 58.00
10053 62.4120 3206.00 3208.70 57.00
10054 62.4180 3200.00 3200.48 57.00
10055 62.4240 3218.00 3192.97 57.00
10056 62.4300 3122.00 3184.36 56.00
10057 62.4360 3108.00 3174.50 56.00
10058 62.4420 3131.00 3162.27 56.00
10059 62.4480 3180.00 3147.30 56.00
10060 62.4540 3275.00 3128.99 57.00
10061 62.4600 3332.00 3106.62 58.00
10062 62.4660 3300.00 3078.60 57.00
10063 62.4720 3138.00 3043.63 56.00
10064 62.4780 3100.00 3000.62 56.00
10065 62.4840 3070.00 2949.70 55.00
10066 62.4900 2934.00 2892.16 54.00
10067 62.4960 2836.00 2830.62 53.00
10068 62.5020 2756.00 2768.02 52.00
10069 62.5080 2685.00 2707.09 52.00
10070 62.5140 2570.00 2650.42 51.00
10071 62.5200 2473.00 2599.13 50.00
10072 62.5260 2480.00 2554.33 50.00
10073 62.5320 2389.00 2516.38 49.00
10074 62.5380 2284.00 2485.31 48.00
10075 62.5440 2370.00 2460.31 49.00
10076 62.5500 2401.00 2441.30 49.00
10077 62.5560 2396.00 2426.82 49.00
10078 62.5620 2359.00 2417.03 49.00
10079 62.5680 2385.00 2411.02 49.00
10080 62.5740 2443.00 2408.25 49.00
10081 62.5800 2416.00 2408.22 49.00
10082 62.5860 2410.00 2410.61 49.00
10083 62.5920 2421.00 2414.98 49.00
10084 62.5980 2383.00 2420.83 49.00
10085 62.6040 2335.00 2427.85 48.00
10086 62.6100 2337.00 2435.75 48.00
10087 62.6160 2361.00 2444.02 49.00
10088 62.6220 2353.00 2452.01 49.00
10089 62.6280 2334.00 2459.50 48.00
10090 62.6340 2337.00 2466.11 48.00
10091 62.6400 2360.00 2471.26 49.00
10092 62.6460 2335.00 2474.42 48.00
10093 62.6520 2335.00 2474.40 48.00
10094 62.6580 2389.00 2470.82 49.00
10095 62.6640 2403.00 2463.69 49.00
10096 62.6700 2432.00 2454.20 49.00
10097 62.6760 2483.00 2443.26 50.00
10098 62.6820 2432.00 2432.08 49.00
10099 62.6880 2377.00 2421.65 49.00
10100 62.6940 2353.00 2412.74 49.00
10101 62.7000 2368.00 2405.85 49.00
10102 62.7060 2378.00 2401.23 49.00
10103 62.7120 2407.00 2398.95 49.00
10104 62.7180 2388.00 2398.73 49.00
10105 62.7240 2354.00 2400.22 49.00
10106 62.7300 2384.00 2402.83 49.00
10107 62.7360 2419.00 2405.79 49.00
10108 62.7420 2367.00 2408.42 49.00
10109 62.7480 2358.00 2409.47 49.00
10110 62.7540 2386.00 2408.66 49.00
10111 62.7600 2357.00 2405.41 49.00
10112 62.7660 2379.00 2400.37 49.00
10113 62.7720 2414.00 2393.73 49.00
10114 62.7780 2400.00 2386.66 49.00
10115 62.7840 2433.00 2379.56 49.00
10116 62.7900 2397.00 2372.96 49.00
10117 62.7960 2373.00 2366.82 49.00
10118 62.8020 2382.00 2362.25 49.00
10119 62.8080 2357.00 2359.19 49.00
10120 62.8140 2358.00 2358.05 49.00
10121 62.8200 2328.00 2358.53 48.00
10122 62.8260 2316.00 2361.07 48.00
10123 62.8320 2345.00 2365.94 48.00
10124 62.8380 2384.00 2373.38 49.00
10125 62.8440 2363.00 2383.43 49.00
10126 62.8500 2373.00 2396.72 49.00
10127 62.8560 2371.00 2413.12 49.00
10128 62.8620 2416.00 2432.80 49.00
10129 62.8680 2487.00 2454.97 50.00
10130 62.8740 2518.00 2479.33 50.00
10131 62.8800 2566.00 2504.63 51.00
10132 62.8860 2594.00 2529.57 51.00
10133 62.8920 2583.00 2552.51 51.00
10134 62.8980 2500.00 2570.98 50.00
10135 62.9040 2537.00 2583.90 50.00
10136 62.9100 2612.00 2589.00 51.00
10137 62.9160 2603.00 2586.02 51.00
10138 62.9220 2604.00 2575.43 51.00
10139 62.9280 2537.00 2557.70 50.00
10140 62.9340 2505.00 2535.73 50.00
10141 62.9400 2467.00 2511.10 50.00
10142 62.9460 2418.00 2485.61 49.00
10143 62.9520 2424.00 2461.21 49.00
10144 62.9580 2391.00 2438.70 49.00
10145 62.9640 2336.00 2419.10 48.00
10146 62.9700 2251.00 2402.94 47.00
10147 62.9760 2288.00 2389.48 48.00
10148 62.9820 2352.00 2379.68 48.00
10149 62.9880 2357.00 2372.94 49.00
10150 62.9940 2374.00 2369.15 49.00
10151 63.0000 2388.00 2367.84 49.00
10152 63.0060 2353.00 2369.06 49.00
10153 63.0120 2323.00 2373.32 48.00
10154 63.0180 2388.00 2380.17 49.00
10155 63.0240 2356.00 2389.58 49.00
10156 63.0300 2339.00 2401.54 48.00
10157 63.0360 2433.00 2415.87 49.00
10158 63.0420 2443.00 2432.71 49.00
10159 63.0480 2468.00 2451.21 50.00
10160 63.0540 2421.00 2470.61 49.00
10161 63.0600 2348.00 2490.65 48.00
10162 63.0660 2429.00 2510.31 49.00
10163 63.0720 2456.00 2528.46 50.00
10164 63.0780 2517.00 2543.93 50.00
10165 63.0840 2539.00 2556.86 50.00
10166 63.0900 2517.00 2566.91 50.00
10167 63.0960 2486.00 2574.43 50.00
10168 63.1020 2462.00 2580.04 50.00
10169 63.1080 2498.00 2584.43 50.00
10170 63.1140 2579.00 2589.18 51.00
10171 63.1200 2595.00 2595.72 51.00
10172 63.1260 2591.00 2604.65 51.00
10173 63.1320 2713.00 2616.71 52.00
10174 63.1380 2661.00 2631.76 52.00
10175 63.1440 2682.00 2648.58 52.00
10176 63.1500 2661.00 2666.20 52.00
10177 63.1560 2669.00 2683.30 52.00
10178 63.1620 2606.00 2698.61 51.00
10179 63.1680 2628.00 2711.01 51.00
10180 63.1740 2620.00 2719.43 51.00
10181 63.1800 2557.00 2722.79 51.00
10182 63.1860 2556.00 2720.59 51.00
10183 63.1920 2597.00 2713.08 51.00
10184 63.1980 2571.00 2701.83 51.00
10185 63.2040 2516.00 2688.47 50.00
10186 63.2100 2565.00 2675.73 51.00
10187 63.2160 2592.00 2665.90 51.00
10188 63.2220 2581.00 2660.57 51.00
10189 63.2280 2610.00 2660.48 51.00
10190 63.2340 2603.00 2665.54 51.00
10191 63.2400 2723.00 2674.54 52.00
10192 63.2460 2675.00 2685.82 52.00
10193 63.2520 2670.00 2696.97 52.00
10194 63.2580 2699.00 2706.04 52.00
10195 63.2640 2669.00 2711.46 52.00
10196 63.2700 2664.00 2712.97 52.00
10197 63.2760 2684.00 2710.22 52.00
10198 63.2820 2667.00 2702.84 52.00
10199 63.2880 2625.00 2690.77 51.00
10200 63.2940 2569.00 2673.98 51.00
10201 63.3000 2618.00 2653.66 51.00
10202 63.3060 2606.00 2631.55 51.00
10203 63.3120 2568.00 2609.92 51.00
10204 63.3180 2557.00 2591.04 51.00
10205 63.3240 2492.00 2576.84 50.00
10206 63.3300 2445.00 2568.47 49.00
10207 63.3360 2528.00 2566.66 50.00
10208 63.3420 2517.00 2571.46 50.00
10209 63.3480 2548.00 2582.74 50.00
10210 63.3540 2482.00 2600.00 50.00
10211 63.3600 2518.00 2621.90 50.00
10212 63.3660 2630.00 2647.32 51.00
10213 63.3720 2733.00 2674.55 52.00
10214 63.3780 2686.00 2701.62 52.00
10215 63.3840 2674.00 2726.52 52.00
10216 63.3900 2717.00 2747.38 52.00
10217 63.3960 2647.00 2763.04 51.00
10218 63.4020 2635.00 2772.83 51.00
10219 63.4080 2744.00 2776.61 52.00
10220 63.4140 2673.00 2774.87 52.00
10221 63.4200 2676.00 2768.69 52.00
10222 63.4260 2599.00 2759.68 51.00
10223 63.4320 2528.00 2749.61 50.00
10224 63.4380 2624.00 2739.90 51.00
10225 63.4440 2615.00 2731.41 51.00
10226 63.4500 2685.00 2723.97 52.00
10227 63.4560 2636.00 2717.51 51.00
10228 63.4620 2781.00 2712.15 53.00
10229 63.4680 2698.00 2708.49 52.00
10230 63.4740 2705.00 2707.52 52.00
10231 63.4800 2724.00 2710.12 52.00
10232 63.4860 2604.00 2716.61 51.00
10233 63.4920 2690.00 2726.55 52.00
10234 63.4980 2811.00 2738.86 53.00
10235 63.5040 2855.00 2751.99 53.00
10236 63.5100 2717.00 2764.49 52.00
10237 63.5160 2801.00 2775.27 53.00
10238 63.5220 2717.00 2783.63 52.00
10239 63.5280 2696.00 2789.12 52.00
10240 63.5340 2702.00 2791.65 52.00
10241 63.5400 2770.00 2790.77 53.00
10242 63.5460 2778.00 2786.68 53.00
10243 63.5520 2800.00 2780.46 53.00
10244 63.5580 2823.00 2773.07 53.00
10245 63.5640 2784.00 2766.18 53.00
10246 63.5700 2835.00 2761.64 53.00
10247 63.5760 2885.00 2759.43 54.00
10248 63.5820 2776.00 2759.62 53.00
10249 63.5880 2855.00 2761.56 53.00
10250 63.5940 2903.00 2764.36 54.00
10251 63.6000 2762.00 2766.36 53.00
10252 63.6060 2661.00 2766.50 52.00
10253 63.6120 2692.00 2763.61 52.00
10254 63.6180 2667.00 2756.21 52.00
10255 63.6240 2678.00 2743.81 52.00
10256 63.6300 2642.00 2726.61 51.00
10257 63.6360 2664.00 2705.66 52.00
10258 63.6420 2530.00 2682.48 50.00
10259 63.6480 2528.00 2658.67 50.00
10260 63.6540 2535.00 2635.68 50.00
10261 63.6600 2469.00 2614.50 50.00
10262 63.6660 2472.00 2595.65 50.00
10263 63.6720 2458.00 2579.09 50.00
10264 63.6780 2448.00 2564.40 49.00
10265 63.6840 2481.00 2550.65 50.00
10266 63.6900 2513.00 2536.38 50.00
10267 63.6960 2451.00 2521.52 50.00
10268 63.7020 2482.00 2506.31 50.00
10269 63.7080 2431.00 2491.50 49.00
10270 63.7140 2355.00 2478.20 49.00
10271 63.7200 2432.00 2466.90 49.00
10272 63.7260 2362.00 2458.82 49.00
10273 63.7320 2342.00 2454.35 48.00
10274 63.7380 2429.00 2453.82 49.00
10275 63.7440 2355.00 2457.19 49.00
10276 63.7500 2485.00 2464.69 50.00
10277 63.7560 2426.00 2475.86 49.00
10278 63.7620 2448.00 2490.21 49.00
10279 63.7680 2489.00 2506.90 50.00
10280 63.7740 2471.00 2524.57 50.00
10281 63.7800 2509.00 2541.98 50.00
10282 63.7860 2558.00 2557.83 51.00
10283 63.7920 2570.00 2571.65 51.00
10284 63.7980 2442.00 2583.70 49.00
10285 63.8040 2476.00 2594.38 50.00
10286 63.8100 2433.00 2604.46 49.00
10287 63.8160 2629.00 2614.78 51.00
10288 63.8220 2618.00 2625.67 51.00
10289 63.8280 2772.00 2637.02 53.00
10290 63.8340 2650.00 2648.89 51.00
10291 63.8400 2655.00 2660.67 52.00
10292 63.8460 2728.00 2672.94 52.00
10293 63.8520 2673.00 2686.32 52.00
10294 63.8580 2668.00 2700.58 52.00
10295 63.8640 2715.00 2717.35 52.00
10296 63.8700 2627.00 2737.27 51.00
10297 63.8760 2848.00 2760.18 53.00
10298 63.8820 2839.00 2785.25 53.00
10299 63.8880 2781.00 2810.83 53.00
10300 63.8940 2805.00 2835.08 53.00
10301 63.9000 2873.00 2855.33 54.00
10302 63.9060 2735.00 2870.60 52.00
10303 63.9120 2774.00 2879.62 53.00
10304 63.9180 2823.00 2882.25 53.00
10305 63.9240 2770.00 2879.27 53.00
10306 63.9300 2780.00 2871.78 53.00
10307 63.9360 2780.00 2861.41 53.00
10308 63.9420 2805.00 2850.48 53.00
10309 63.9480 2809.00 2840.51 53.00
10310 63.9540 2873.00 2832.28 54.00
10311 63.9600 2889.00 2825.81 54.00
10312 63.9660 2858.00 2820.22 53.00
10313 63.9720 2908.00 2813.91 54.00
10314 63.9780 2842.00 2805.06 53.00
10315 63.9840 2737.00 2791.97 52.00
10316 63.9900 2795.00 2773.84 53.00
10317 63.9960 2598.00 2750.63 51.00
10318 64.0020 2659.00 2723.05 52.00
10319 64.0080 2702.00 2692.56 52.00
10320 64.0140 2617.00 2660.56 51.00
10321 64.0200 2603.00 2628.37 51.00
10322 64.0260 2561.00 2597.52 51.00
10323 64.0320 2528.00 2568.99 50.00
10324 64.0380 2475.00 2543.85 50.00
10325 64.0440 2429.00 2522.25 49.00
10326 64.0500 2445.00 2504.65 49.00
10327 64.0560 2479.00 2490.99 50.00
10328 64.0620 2398.00 2480.81 49.00
10329 64.0680 2428.00 2474.24 49.00
10330 64.0740 2431.00 2470.35 49.00
10331 64.0800 2370.00 2468.23 49.00
10332 64.0860 2384.00 2466.85 49.00
10333 64.0920 2344.00 2465.21 48.00
10334 64.0980 2481.00 2462.60 50.00
10335 64.1040 2434.00 2458.69 49.00
10336 64.1100 2456.00 2454.13 50.00
10337 64.1160 2370.00 2449.60 49.00
10338 64.1220 2489.00 2446.08 50.00
10339 64.1280 2434.00 2444.52 49.00
10340 64.1340 2469.00 2445.76 50.00
10341 64.1400 2469.00 2450.50 50.00
10342 64.1460 2407.00 2459.32 49.00
10343 64.1520 2371.00 2472.61 49.00
10344 64.1580 2452.00 2490.39 50.00
10345 64.1640 2513.00 2513.05 50.00
10346 64.1700 2458.00 2539.95 50.00
10347 64.1760 2519.00 2570.74 50.00
10348 64.1820 2494.00 2604.32 50.00
10349 64.1880 2643.00 2640.33 51.00
10350 64.1940 2606.00 2677.50 51.00
10351 64.2000 2653.00 2715.03 52.00
10352 64.2060 2701.00 2751.97 52.00
10353 64.2120 2746.00 2786.37 52.00
10354 64.2180 2845.00 2816.28 53.00
10355 64.2240 2872.00 2838.98 54.00
10356 64.2300 2725.00 2853.07 52.00
10357 64.2360 2791.00 2857.98 53.00
10358 64.2420 2829.00 2853.99 53.00
10359 64.2480 2834.00 2842.50 53.00
10360 64.2540 2799.00 2824.89 53.00
10361 64.2600 2730.00 2803.05 52.00
10362 64.2660 2686.00 2779.11 52.00
10363 64.2720 2699.00 2756.17 52.00
10364 64.2780 2734.00 2736.54 52.00
10365 64.2840 2687.00 2722.86 52.00
10366 64.2900 2643.00 2716.66 51.00
10367 64.2960 2646.00 2718.77 51.00
10368 64.3020 2666.00 2729.20 52.00
10369 64.3080 2629.00 2746.99 51.00
10370 64.3140 2641.00 2770.31 51.00
10371 64.3200 2632.00 2796.43 51.00
10372 64.3260 2734.00 2822.13 52.00
10373 64.3320 2607.00 2844.18 51.00
10374 64.3380 2648.00 2860.18 51.00
10375 64.3440 2767.00 2869.44 53.00
10376 64.3500 2816.00 2873.93 53.00
10377 64.3560 2885.00 2876.38 54.00
10378 64.3620 2877.00 2880.28 54.00
10379 64.3680 2971.00 2888.78 55.00
10380 64.3740 2890.00 2904.58 54.00
10381 64.3800 2971.00 2929.26 55.00
10382 64.3860 2921.00 2964.60 54.00
10383 64.3920 3007.00 3009.60 55.00
10384 64.3980 3109.00 3063.51 56.00
10385 64.4040 3173.00 3123.36 56.00
10386 64.4100 3219.00 3184.98 57.00
10387 64.4160 3367.00 3242.92 58.00
10388 64.4220 3468.00 3292.15 59.00
10389 64.4280 3369.00 3327.30 58.00
10390 64.4340 3325.00 3345.94 58.00
10391 64.4400 3296.00 3347.56 57.00
10392 64.4460 3348.00 3334.30 58.00
10393 64.4520 3243.00 3309.00 57.00
10394 64.4580 3205.00 3275.68 57.00
10395 64.4640 3116.00 3237.50 56.00
10396 64.4700 3153.00 3198.65 56.00
10397 64.4760 3071.00 3162.62 55.00
10398 64.4820 3051.00 3131.57 55.00
10399 64.4880 3083.00 3106.40 56.00
10400 64.4940 3117.00 3085.86 56.00
10401 64.5000 3126.00 3067.07 56.00
10402 64.5060 3073.00 3046.90 55.00
10403 64.5120 3063.00 3021.92 55.00
10404 64.5180 2951.00 2990.18 54.00
10405 64.5240 2873.00 2951.56 54.00
10406 64.5300 2941.00 2908.41 54.00
10407 64.5360 2957.00 2862.59 54.00
10408 64.5420 2856.00 2816.73 53.00
10409 64.5480 2808.00 2772.22 53.00
10410 64.5540 2810.00 2730.06 53.00
10411 64.5600 2769.00 2690.68 53.00
10412 64.5660 2685.00 2654.57 52.00
10413 64.5720 2682.00 2622.50 52.00
10414 64.5780 2689.00 2593.32 52.00
10415 64.5840 2674.00 2567.63 52.00
10416 64.5900 2631.00 2545.13 51.00
10417 64.5960 2527.00 2525.84 50.00
10418 64.6020 2555.00 2510.03 51.00
10419 64.6080 2528.00 2497.85 50.00
10420 64.6140 2501.00 2489.58 50.00
10421 64.6200 2514.00 2485.11 50.00
10422 64.6260 2511.00 2484.18 50.00
10423 64.6320 2501.00 2486.26 50.00
10424 64.6380 2472.00 2490.56 50.00
10425 64.6440 2471.00 2496.26 50.00
10426 64.6500 2497.00 2502.47 50.00
10427 64.6560 2473.00 2507.85 50.00
10428 64.6620 2350.00 2511.05 48.00
10429 64.6680 2398.00 2511.26 49.00
10430 64.6740 2406.00 2507.73 49.00
10431 64.6800 2378.00 2500.26 49.00
10432 64.6860 2459.00 2489.64 50.00
10433 64.6920 2430.00 2477.04 49.00
10434 64.6980 2362.00 2463.99 49.00
10435 64.7040 2374.00 2451.56 49.00
10436 64.7100 2378.00 2440.78 49.00
10437 64.7160 2362.00 2432.34 49.00
10438 64.7220 2407.00 2426.62 49.00
10439 64.7280 2390.00 2423.67 49.00
10440 64.7340 2314.00 2423.26 48.00
10441 64.7400 2280.00 2424.94 48.00
10442 64.7460 2351.00 2428.00 48.00
10443 64.7520 2418.00 2431.43 49.00
10444 64.7580 2387.00 2434.67 49.00
10445 64.7640 2384.00 2436.89 49.00
10446 64.7700 2401.00 2437.86 49.00
10447 64.7760 2395.00 2438.03 49.00
10448 64.7820 2387.00 2438.01 49.00
10449 64.7880 2395.00 2438.91 49.00
10450 64.7940 2347.00 2441.90 48.00
10451 64.8000 2335.00 2447.49 48.00
10452 64.8060 2384.00 2456.41 49.00
10453 64.8120 2446.00 2469.13 49.00
10454 64.8180 2418.00 2485.61 49.00
10455 64.8240 2406.00 2505.10 49.00
10456 64.8300 2455.00 2527.24 50.00
10457 64.8360 2539.00 2550.91 50.00
10458 64.8420 2624.00 2574.77 51.00
10459 64.8480 2624.00 2596.89 51.00
10460 64.8540 2638.00 2615.78 51.00
10461 64.8600 2614.00 2629.68 51.00
10462 64.8660 2563.00 2637.35 51.00
10463 64.8720 2570.00 2638.09 51.00
10464 64.8780 2550.00 2631.65 50.00
10465 64.8840 2505.00 2617.95 50.00
10466 64.8900 2468.00 2598.71 50.00
10467 64.8960 2484.00 2574.91 50.00
10468 64.9020 2512.00 2548.66 50.00
10469 64.9080 2467.00 2521.37 50.00
10470 64.9140 2394.00 2494.99 49.00
10471 64.9200 2361.00 2470.52 49.00
10472 64.9260 2396.00 2448.33 49.00
10473 64.9320 2362.00 2429.54 49.00
10474 64.9380 2351.00 2414.35 48.00
10475 64.9440 2393.00 2403.19 49.00
10476 64.9500 2345.00 2395.93 48.00
10477 64.9560 2324.00 2392.87 48.00
10478 64.9620 2311.00 2394.30 48.00
10479 64.9680 2334.00 2400.23 48.00
10480 64.9740 2370.00 2411.01 49.00
10481 64.9800 2398.00 2427.10 49.00
10482 64.9860 2453.00 2448.39 50.00
10483 64.9920 2494.00 2475.29 50.00
10484 64.9980 2451.00 2507.07 50.00
10485 65.0040 2445.00 2544.66 49.00
10486 65.0100 2522.00 2586.91 50.00
10487 65.0160 2608.00 2632.66 51.00
10488 65.0220 2618.00 2680.56 51.00
10489 65.0280 2621.00 2728.52 51.00
10490 65.0340 2539.00 2774.15 50.00
10491 65.0400 2574.00 2815.22 51.00
10492 65.0460 2723.00 2849.42 52.00
10493 65.0520 2749.00 2875.18 52.00
10494 65.0580 2770.00 2892.45 53.00
10495 65.0640 2820.00 2902.21 53.00
10496 65.0700 2778.00 2905.93 53.00
10497 65.0760 2817.00 2904.77 53.00
10498 65.0820 2916.00 2899.53 54.00
10499 65.0880 2864.00 2890.13 54.00
10500 65.0940 2790.00 2877.68 53.00
10501 65.1000 2720.00 2862.81 52.00
10502 65.1060 2646.00 2846.94 51.00
10503 65.1120 2738.00 2830.89 52.00
10504 65.1180 2750.00 2814.73 52.00
10505 65.1240 2669.00 2799.24 52.00
10506 65.1300 2632.00 2784.26 51.00
10507 65.1360 2664.00 2770.89 52.00
10508 65.1420 2627.00 2760.52 51.00
10509 65.1480 2615.00 2754.57 51.00
10510 65.1540 2634.00 2754.42 51.00
10511 65.1600 2635.00 2760.29 51.00
10512 65.1660 2645.00 2772.09 51.00
10513 65.1720 2602.00 2788.11 51.00
10514 65.1780 2576.00 2806.28 51.00
10515 65.1840 2613.00 2825.27 51.00
10516 65.1900 2679.00 2842.48 52.00
10517 65.1960 2666.00 2856.75 52.00
10518 65.2020 2677.00 2867.64 52.00
10519 65.2080 2693.00 2875.15 52.00
10520 65.2140 2753.00 2879.16 52.00
10521 65.2200 2846.00 2879.46 53.00
10522 65.2260 2873.00 2875.05 54.00
10523 65.2320 2871.00 2864.44 54.00
10524 65.2380 2793.00 2846.73 53.00
10525 65.2440 2653.00 2821.65 52.00
10526 65.2500 2653.00 2789.98 52.00
10527 65.2560 2592.00 2753.69 51.00
10528 65.2620 2522.00 2715.01 50.00
10529 65.2680 2524.00 2676.61 50.00
10530 65.2740 2508.00 2640.27 50.00
10531 65.2800 2508.00 2607.79 50.00
10532 65.2860 2432.00 2580.02 49.00
10533 65.2920 2426.00 2557.33 49.00
10534 65.2980 2458.00 2539.52 50.00
10535 65.3040 2492.00 2526.18 50.00
10536 65.3100 2501.00 2516.80 50.00
10537 65.3160 2456.00 2511.01 50.00
10538 65.3220 2436.00 2508.41 49.00
10539 65.3280 2402.00 2508.44 49.00
10540 65.3340 2363.00 2510.25 49.00
10541 65.3400 2398.00 2512.96 49.00
10542 65.3460 2411.00 2515.66 49.00
10543 65.3520 2369.00 2517.19 49.00
10544 65.3580 2396.00 2516.93 49.00
10545 65.3640 2395.00 2513.95 49.00
10546 65.3700 2356.00 2508.04 49.00
10547 65.3760 2302.00 2499.62 48.00
10548 65.3820 2296.00 2490.02 48.00
10549 65.3880 2299.00 2480.63 48.00
10550 65.3940 2328.00 2472.18 48.00
10551 65.4000 2354.00 2466.61 49.00
10552 65.4060 2371.00 2465.23 49.00
10553 65.4120 2327.00 2468.49 48.00
10554 65.4180 2359.00 2476.95 49.00
10555 65.4240 2487.00 2490.58 50.00
10556 65.4300 2514.00 2508.76 50.00
10557 65.4360 2496.00 2530.88 50.00
10558 65.4420 2488.00 2555.33 50.00
10559 65.4480 2550.00 2580.35 50.00
10560 65.4540 2612.00 2604.08 51.00
10561 65.4600 2644.00 2624.78 51.00
10562 65.4660 2699.00 2640.04 52.00
10563 65.4720 2718.00 2648.46 52.00
10564 65.4780 2615.00 2648.79 51.00
10565 65.4840 2609.00 2640.34 51.00
10566 65.4900 2663.00 2623.30 52.00
10567 65.4960 2617.00 2598.88 51.00
10568 65.5020 2514.00 2569.42 50.00
10569 65.5080 2442.00 2536.91 49.00
10570 65.5140 2431.00 2503.69 49.00
10571 65.5200 2433.00 2471.69 49.00
10572 65.5260 2434.00 2442.51 49.00
10573 65.5320 2351.00 2416.97 48.00
10574 65.5380 2334.00 2396.11 48.00
10575 65.5440 2292.00 2379.81 48.00
10576 65.5500 2289.00 2368.46 48.00
10577 65.5560 2316.00 2361.79 48.00
10578 65.5620 2320.00 2359.85 48.00
10579 65.5680 2337.00 2362.72 48.00
10580 65.5740 2356.00 2369.65 49.00
10581 65.5800 2382.00 2380.20 49.00
10582 65.5860 2384.00 2394.12 49.00
10583 65.5920 2401.00 2411.23 49.00
10584 65.5980 2422.00 2430.05 49.00
10585 65.6040 2423.00 2449.99 49.00
10586 65.6100 2532.00 2470.01 50.00
10587 65.6160 2496.00 2488.76 50.00
10588 65.6220 2529.00 2505.27 50.00
10589 65.6280 2570.00 2518.72 51.00
10590 65.6340 2641.00 2528.71 51.00
10591 65.6400 2628.00 2534.94 51.00
10592 65.6460 2614.00 2537.40 51.00
10593 65.6520 2578.00 2536.18 51.00
10594 65.6580 2539.00 2531.83 50.00
10595 65.6640 2551.00 2524.50 51.00
10596 65.6700 2585.00 2515.54 51.00
10597 65.6760 2541.00 2506.24 50.00
10598 65.6820 2479.00 2498.11 50.00
10599 65.6880 2431.00 2492.75 49.00
10600 65.6940 2421.00 2490.42 49.00
10601 65.7000 2417.00 2491.94 49.00
10602 65.7060 2456.00 2497.19 50.00
10603 65.7120 2389.00 2506.04 49.00
10604 65.7180 2412.00 2517.64 49.00
10605 65.7240 2512.00 2530.57 50.00
10606 65.7300 2476.00 2544.95 50.00
10607 65.7360 2444.00 2559.48 49.00
10608 65.7420 2487.00 2573.44 50.00
10609 65.7480 2564.00 2586.10 51.00
10610 65.7540 2527.00 2596.72 50.00
10611 65.7600 2533.00 2604.63 50.00
10612 65.7660 2516.00 2610.56 50.00
10613 65.7720 2506.00 2615.14 50.00
10614 65.7780 2501.00 2619.81 50.00
10615 65.7840 2437.00 2626.40 49.00
10616 65.7900 2509.00 2636.65 50.00
10617 65.7960 2491.00 2651.81 50.00
10618 65.8020 2554.00 2672.11 51.00
10619 65.8080 2519.00 2697.89 50.00
10620 65.8140 2630.00 2727.73 51.00
10621 65.8200 2638.00 2759.48 51.00
10622 65.8260 2769.00 2790.60 53.00
10623 65.8320 2871.00 2818.07 54.00
10624 65.8380 2918.00 2838.82 54.00
10625 65.8440 2947.00 2850.33 54.00
10626 65.8500 2873.00 2850.99 54.00
10627 65.8560 2777.00 2840.43 53.00
10628 65.8620 2703.00 2819.80 52.00
10629 65.8680 2699.00 2791.29 52.00
10630 65.8740 2697.00 2757.88 52.00
10631 65.8800 2683.00 2722.29 52.00
10632 65.8860 2589.00 2686.83 51.00
10633 65.8920 2622.00 2653.13 51.00
10634 65.8980 2550.00 2621.93 50.00
10635 65.9040 2441.00 2594.02 49.00
10636 65.9100 2511.00 2569.36 50.00
10637 65.9160 2448.00 2547.73 49.00
10638 65.9220 2420.00 2529.85 49.00
10639 65.9280 2417.00 2515.02 49.00
10640 65.9340 2528.00 2503.28 50.00
10641 65.9400 2424.00 2493.64 49.00
10642 65.9460 2366.00 2485.77 49.00
10643 65.9520 2396.00 2479.51 49.00
10644 65.9580 2473.00 2475.21 50.00
10645 65.9640 2534.00 2473.63 50.00
10646 65.9700 2324.00 2475.93 48.00
10647 65.9760 2430.00 2483.47 49.00
10648 65.9820 2450.00 2497.14 49.00
10649 65.9880 2445.00 2518.48 49.00
10650 65.9940 2370.00 2548.38 49.00
10651 66.0000 2431.00 2587.36 49.00
10652 66.0060 2522.00 2635.53 50.00
10653 66.0120 2559.00 2692.57 51.00
10654 66.0180 2683.00 2756.66 52.00
10655 66.0240 2736.00 2825.78 52.00
10656 66.0300 2846.00 2896.77 53.00
10657 66.0360 3005.00 2965.82 55.00
10658 66.0420 3107.00 3028.41 56.00
10659 66.0480 3157.00 3080.86 56.00
10660 66.0540 3220.00 3119.70 57.00
10661 66.0600 3139.00 3142.19 56.00
10662 66.0660 3125.00 3147.01 56.00
10663 66.0720 3019.00 3134.43 55.00
10664 66.0780 2979.00 3106.28 55.00
10665 66.0840 2845.00 3066.40 53.00
10666 66.0900 2747.00 3019.33 52.00
10667 66.0960 2713.00 2969.82 52.00
10668 66.1020 2664.00 2922.21 52.00
10669 66.1080 2588.00 2879.92 51.00
10670 66.1140 2597.00 2844.70 51.00
10671 66.1200 2630.00 2817.75 51.00
10672 66.1260 2596.00 2799.14 51.00
10673 66.1320 2668.00 2788.29 52.00
10674 66.1380 2556.00 2783.94 51.00
10675 66.1440 2598.00 2784.66 51.00
10676 66.1500 2590.00 2789.86 51.00
10677 66.1560 2647.00 2799.05 51.00
10678 66.1620 2632.00 2812.13 51.00
10679 66.1680 2769.00 2829.09 53.00
10680 66.1740 2904.00 2849.97 54.00
10681 66.1800 2768.00 2873.89 53.00
10682 66.1860 2795.00 2900.33 53.00
10683 66.1920 2908.00 2929.07 54.00
10684 66.1980 2908.00 2960.07 54.00
10685 66.2040 3019.00 2993.39 55.00
10686 66.2100 2996.00 3028.45 55.00
10687 66.2160 3116.00 3064.05 56.00
10688 66.2220 3219.00 3098.08 57.00
10689 66.2280 3113.00 3128.21 56.00
10690 66.2340 3136.00 3151.64 56.00
10691 66.2400 3141.00 3166.13 56.00
10692 66.2460 3110.00 3169.92 56.00
10693 66.2520 3064.00 3162.00 55.00
10694 66.2580 2991.00 3141.92 55.00
10695 66.2640 2916.00 3110.66 54.00
10696 66.2700 2945.00 3069.87 54.00
10697 66.2760 2797.00 3021.91 53.00
10698 66.2820 2824.00 2969.44 53.00
10699 66.2880 2755.00 2915.58 52.00
10700 66.2940 2819.00 2863.63 53.00
10701 66.3000 2780.00 2816.11 53.00
10702 66.3060 2752.00 2775.62 52.00
10703 66.3120 2740.00 2742.93 52.00
10704 66.3180 2574.00 2718.33 51.00
10705 66.3240 2615.00 2701.47 51.00
10706 66.3300 2641.00 2691.01 51.00
10707 66.3360 2652.00 2684.63 51.00
10708 66.3420 2668.00 2680.52 52.00
10709 66.3480 2684.00 2676.20 52.00
10710 66.3540 2708.00 2669.80 52.00
10711 66.3600 2662.00 2659.71 52.00
10712 66.3660 2586.00 2644.43 51.00
10713 66.3720 2621.00 2623.34 51.00
10714 66.3780 2557.00 2596.65 51.00
10715 66.3840 2488.00 2565.41 50.00
10716 66.3900 2500.00 2531.46 50.00
10717 66.3960 2523.00 2496.68 50.00
10718 66.4020 2389.00 2462.81 49.00
10719 66.4080 2405.00 2431.13 49.00
10720 66.4140 2338.00 2402.84 48.00
10721 66.4200 2304.00 2377.89 48.00
10722 66.4260 2358.00 2356.57 49.00
10723 66.4320 2282.00 2338.80 48.00
10724 66.4380 2311.00 2324.09 48.00
10725 66.4440 2250.00 2312.24 47.00
10726 66.4500 2287.00 2302.56 48.00
10727 66.4560 2324.00 2295.06 48.00
10728 66.4620 2323.00 2289.58 48.00
10729 66.4680 2283.00 2285.38 48.00
10730 66.4740 2238.00 2282.53 47.00
10731 66.4800 2298.00 2280.80 48.00
10732 66.4860 2312.00 2279.97 48.00
10733 66.4920 2270.00 2279.81 48.00
10734 66.4980 2230.00 2280.21 47.00
10735 66.5040 2299.00 2280.81 48.00
10736 66.5100 2327.00 2281.75 48.00
10737 66.5160 2228.00 2283.50 47.00
10738 66.5220 2215.00 2285.72 47.00
10739 66.5280 2213.00 2288.10 47.00
10740 66.5340 2229.00 2291.31 47.00
10741 66.5400 2300.00 2294.72 48.00
10742 66.5460 2323.00 2298.57 48.00
10743 66.5520 2281.00 2302.83 48.00
10744 66.5580 2285.00 2307.34 48.00
10745 66.5640 2332.00 2312.17 48.00
10746 66.5700 2295.00 2317.56 48.00
10747 66.5760 2291.00 2323.63 48.00
10748 66.5820 2357.00 2330.48 49.00
10749 66.5880 2369.00 2338.58 49.00
10750 66.5940 2363.00 2348.41 49.00
10751 66.6000 2427.00 2359.59 49.00
10752 66.6060 2426.00 2372.18 49.00
10753 66.6120 2444.00 2385.75 49.00
10754 66.6180 2460.00 2399.69 50.00
10755 66.6240 2415.00 2413.36 49.00
10756 66.6300 2451.00 2426.02 50.00
10757 66.6360 2382.00 2437.65 49.00
10758 66.6420 2318.00 2448.14 48.00
10759 66.6480 2478.00 2456.62 50.00
10760 66.6540 2426.00 2462.98 49.00
10761 66.6600 2421.00 2466.71 49.00
10762 66.6660 2479.00 2467.85 50.00
10763 66.6720 2444.00 2465.76 49.00
10764 66.6780 2533.00 2461.21 50.00
10765 66.6840 2529.00 2454.79 50.00
10766 66.6900 2493.00 2446.96 50.00
10767 66.6960 2479.00 2438.06 50.00
10768 66.7020 2511.00 2428.38 50.00
10769 66.7080 2527.00 2418.62 50.00
10770 66.7140 2513.00 2409.16 50.00
10771 66.7200 2453.00 2400.78 50.00
10772 66.7260 2414.00 2394.34 49.00
10773 66.7320 2340.00 2390.48 48.00
10774 66.7380 2408.00 2389.58 49.00
10775 66.7440 2441.00 2391.21 49.00
10776 66.7500 2431.00 2395.48 49.00
10777 66.7560 2442.00 2400.84 49.00
10778 66.7620 2375.00 2407.56 49.00
10779 66.7680 2402.00 2414.21 49.00
10780 66.7740 2446.00 2419.82 49.00
10781 66.7800 2478.00 2423.91 50.00
10782 66.7860 2457.00 2425.48 50.00
10783 66.7920 2453.00 2423.91 50.00
10784 66.7980 2438.00 2418.35 49.00
10785 66.8040 2383.00 2408.75 49.00
10786 66.8100 2405.00 2395.86 49.00
10787 66.8160 2430.00 2380.28 49.00
10788 66.8220 2382.00 2363.46 49.00
10789 66.8280 2377.00 2346.45 49.00
10790 66.8340 2334.00 2330.47 48.00
10791 66.8400 2305.00 2316.32 48.00
10792 66.8460 2323.00 2304.54 48.00
10793 66.8520 2260.00 2295.60 48.00
10794 66.8580 2318.00 2289.72 48.00
10795 66.8640 2335.00 2287.11 48.00
10796 66.8700 2375.00 2287.55 49.00
10797 66.8760 2378.00 2291.53 49.00
10798 66.8820 2317.00 2298.53 48.00
10799 66.8880 2325.00 2308.59 48.00
10800 66.8940 2293.00 2321.27 48.00
10801 66.9000 2282.00 2336.25 48.00
10802 66.9060 2336.00 2352.64 48.00
10803 66.9120 2341.00 2369.98 48.00
10804 66.9180 2409.00 2387.51 49.00
10805 66.9240 2433.00 2403.99 49.00
10806 66.9300 2450.00 2419.58 49.00
10807 66.9360 2466.00 2433.37 50.00
10808 66.9420 2382.00 2444.82 49.00
10809 66.9480 2462.00 2454.23 50.00
10810 66.9540 2461.00 2461.88 50.00
10811 66.9600 2383.00 2467.29 49.00
10812 66.9660 2357.00 2470.51 49.00
10813 66.9720 2488.00 2472.55 50.00
10814 66.9780 2393.00 2473.43 49.00
10815 66.9840 2412.00 2473.47 49.00
10816 66.9900 2416.00 2473.03 49.00
10817 66.9960 2380.00 2472.31 49.00
10818 67.0020 2420.00 2470.95 49.00
10819 67.0080 2464.00 2468.99 50.00
10820 67.0140 2475.00 2466.52 50.00
10821 67.0200 2448.00 2463.50 49.00
10822 67.0260 2429.00 2460.06 49.00
10823 67.0320 2468.00 2456.27 50.00
10824 67.0380 2453.00 2452.94 50.00
10825 67.0440 2439.00 2450.21 49.00
10826 67.0500 2480.00 2448.39 50.00
10827 67.0560 2461.00 2447.74 50.00
10828 67.0620 2423.00 2448.21 49.00
10829 67.0680 2426.00 2451.09 49.00
10830 67.0740 2454.00 2456.19 50.00
10831 67.0800 2424.00 2463.91 49.00
10832 67.0860 2451.00 2474.20 50.00
10833 67.0920 2442.00 2486.60 49.00
10834 67.0980 2427.00 2500.29 49.00
10835 67.1040 2460.00 2514.13 50.00
10836 67.1100 2499.00 2527.09 50.00
10837 67.1160 2512.00 2538.29 50.00
10838 67.1220 2535.00 2547.37 50.00
10839 67.1280 2480.00 2554.22 50.00
10840 67.1340 2428.00 2558.83 49.00
10841 67.1400 2476.00 2561.22 50.00
10842 67.1460 2524.00 2561.17 50.00
10843 67.1520 2534.00 2558.47 50.00
10844 67.1580 2486.00 2552.61 50.00
10845 67.1640 2476.00 2543.64 50.00
10846 67.1700 2504.00 2532.06 50.00
10847 67.1760 2486.00 2518.51 50.00
10848 67.1820 2525.00 2504.21 50.00
10849 67.1880 2528.00 2490.29 50.00
10850 67.1940 2446.00 2477.84 49.00
10851 67.2000 2418.00 2468.06 49.00
10852 67.2060 2437.00 2462.03 49.00
10853 67.2120 2436.00 2460.81 49.00
10854 67.2180 2409.00 2465.16 49.00
10855 67.2240 2457.00 2475.65 50.00
10856 67.2300 2502.00 2492.28 50.00
10857 67.2360 2554.00 2514.68 51.00
10858 67.2420 2624.00 2542.13 51.00
10859 67.2480 2693.00 2573.33 52.00
10860 67.2540 2713.00 2606.72 52.00
10861 67.2600 2757.00 2639.72 53.00
10862 67.2660 2822.00 2670.31 53.00
10863 67.2720 2868.00 2696.69 54.00
10864 67.2780 2854.00 2717.40 53.00
10865 67.2840 2799.00 2732.14 53.00
10866 67.2900 2747.00 2740.66 52.00
10867 67.2960 2688.00 2744.29 52.00
10868 67.3020 2683.00 2744.76 52.00
10869 67.3080 2709.00 2744.07 52.00
10870 67.3140 2705.00 2744.01 52.00
10871 67.3200 2710.00 2745.56 52.00
10872 67.3260 2679.00 2749.38 52.00
10873 67.3320 2729.00 2754.95 52.00
10874 67.3380 2787.00 2761.54 53.00
10875 67.3440 2764.00 2768.12 53.00
10876 67.3500 2775.00 2774.16 53.00
10877 67.3560 2782.00 2778.48 53.00
10878 67.3620 2754.00 2781.09 52.00
10879 67.3680 2770.00 2781.32 53.00
10880 67.3740 2885.00 2779.06 54.00
10881 67.3800 2959.00 2774.57 54.00
10882 67.3860 2878.00 2768.22 54.00
10883 67.3920 2824.00 2760.43 53.00
10884 67.3980 2785.00 2750.06 53.00
10885 67.4040 2782.00 2737.05 53.00
10886 67.4100 2813.00 2720.56 53.00
10887 67.4160 2748.00 2700.52 52.00
10888 67.4220 2681.00 2676.88 52.00
10889 67.4280 2644.00 2650.77 51.00
10890 67.4340 2591.00 2623.89 51.00
10891 67.4400 2550.00 2597.91 50.00
10892 67.4460 2589.00 2574.52 51.00
10893 67.4520 2621.00 2555.11 51.00
10894 67.4580 2601.00 2540.20 51.00
10895 67.4640 2626.00 2530.63 51.00
10896 67.4700 2636.00 2525.44 51.00
10897 67.4760 2595.00 2524.25 51.00
10898 67.4820 2555.00 2525.89 51.00
10899 67.4880 2571.00 2529.32 51.00
10900 67.4940 2601.00 2532.49 51.00
10901 67.5000 2624.00 2534.76 51.00
10902 67.5060 2660.00 2535.16 52.00
10903 67.5120 2584.00 2532.89 51.00
10904 67.5180 2543.00 2527.67 50.00
10905 67.5240 2589.00 2519.04 51.00
10906 67.5300 2572.00 2507.75 51.00
10907 67.5360 2538.00 2494.68 50.00
10908 67.5420 2533.00 2480.83 50.00
10909 67.5480 2473.00 2467.50 50.00
10910 67.5540 2461.00 2456.02 50.00
10911 67.5600 2468.00 2447.05 50.00
10912 67.5660 2434.00 2441.29 49.00
10913 67.5720 2479.00 2439.30 50.00
10914 67.5780 2526.00 2441.04 50.00
10915 67.5840 2549.00 2445.73 50.00
10916 67.5900 2611.00 2452.99 51.00
10917 67.5960 2641.00 2462.05 51.00
10918 67.6020 2638.00 2471.55 51.00
10919 67.6080 2732.00 2480.64 52.00
10920 67.6140 2677.00 2488.60 52.00
10921 67.6200 2558.00 2494.89 51.00
10922 67.6260 2539.00 2499.50 50.00
10923 67.6320 2534.00 2502.41 50.00
10924 67.6380 2482.00 2503.56 50.00
10925 67.6440 2486.00 2502.47 50.00
10926 67.6500 2499.00 2500.03 50.00
10927 67.6560 2484.00 2495.44 50.00
10928 67.6620 2483.00 2489.18 50.00
10929 67.6680 2454.00 2481.50 50.00
10930 67.6740 2472.00 2473.10 50.00
10931 67.6800 2460.00 2464.11 50.00
10932 67.6860 2376.00 2454.80 49.00
10933 67.6920 2403.00 2445.15 49.00
10934 67.6980 2407.00 2434.94 49.00
10935 67.7040 2370.00 2424.34 49.00
10936 67.7100 2413.00 2413.48 49.00
10937 67.7160 2392.00 2402.82 49.00
10938 67.7220 2332.00 2392.88 48.00
10939 67.7280 2338.00 2384.49 48.00
10940 67.7340 2331.00 2378.01 48.00
10941 67.7400 2314.00 2373.56 48.00
10942 67.7460 2295.00 2371.17 48.00
10943 67.7520 2255.00 2370.67 47.00
10944 67.7580 2259.00 2371.32 48.00
10945 67.7640 2312.00 2372.83 48.00
10946 67.7700 2382.00 2374.45 49.00
10947 67.7760 2407.00 2375.72 49.00
10948 67.7820 2352.00 2376.20 48.00
10949 67.7880 2296.00 2375.83 48.00
10950 67.7940 2341.00 2374.66 48.00
10951 67.8000 2284.00 2372.93 48.00
10952 67.8060 2335.00 2370.97 48.00
10953 67.8120 2358.00 2368.99 49.00
10954 67.8180 2324.00 2367.92 48.00
10955 67.8240 2331.00 2368.00 48.00
10956 67.8300 2396.00 2369.26 49.00
10957 67.8360 2428.00 2371.69 49.00
10958 67.8420 2373.00 2375.24 49.00
10959 67.8480 2380.00 2379.50 49.00
10960 67.8540 2380.00 2383.86 49.00
10961 67.8600 2352.00 2387.55 48.00
10962 67.8660 2384.00 2390.89 49.00
10963 67.8720 2388.00 2393.61 49.00
10964 67.8780 2431.00 2395.94 49.00
10965 67.8840 2442.00 2398.34 49.00
10966 67.8900 2374.00 2401.43 49.00
10967 67.8960 2276.00 2405.78 48.00
10968 67.9020 2286.00 2412.21 48.00
10969 67.9080 2294.00 2420.95 48.00
10970 67.9140 2303.00 2432.25 48.00
10971 67.9200 2330.00 2446.07 48.00
10972 67.9260 2332.00 2462.10 48.00
10973 67.9320 2369.00 2479.91 49.00
10974 67.9380 2437.00 2498.94 49.00
10975 67.9440 2551.00 2518.34 51.00
10976 67.9500 2580.00 2537.14 51.00
10977 67.9560 2593.00 2554.29 51.00
10978 67.9620 2570.00 2568.71 51.00
10979 67.9680 2573.00 2579.74 51.00
10980 67.9740 2584.00 2587.21 51.00
10981 67.9800 2576.00 2591.59 51.00
10982 67.9860 2549.00 2592.68 50.00
10983 67.9920 2517.00 2590.78 50.00
10984 67.9980 2582.00 2586.51 51.00
10985 68.0040 2520.00 2581.16 50.00
10986 68.0100 2527.00 2575.62 50.00
10987 68.0160 2521.00 2571.40 50.00
10988 68.0220 2523.00 2569.70 50.00
10989 68.0280 2577.00 2571.38 51.00
10990 68.0340 2502.00 2576.84 50.00
10991 68.0400 2496.00 2585.96 50.00
10992 68.0460 2589.00 2598.60 51.00
10993 68.0520 2559.00 2614.54 51.00
10994 68.0580 2579.00 2633.34 51.00
10995 68.0640 2603.00 2654.95 51.00
10996 68.0700 2598.00 2679.04 51.00
10997 68.0760 2663.00 2706.39 52.00
10998 68.0820 2738.00 2736.39 52.00
10999 68.0880 2737.00 2768.19 52.00
11000 68.0940 2732.00 2800.62 52.00
11001 68.1000 2713.00 2832.10 52.00
11002 68.1060 2735.00 2861.18 52.00
11003 68.1120 2761.00 2886.41 53.00
11004 68.1180 2808.00 2907.43 53.00
11005 68.1240 2780.00 2924.24 53.00
11006 68.1300 2776.00 2937.17 53.00
11007 68.1360 2823.00 2947.93 53.00
11008 68.1420 2768.00 2958.27 53.00
11009 68.1480 2817.00 2970.11 53.00
11010 68.1540 3015.00 2984.82 55.00
11011 68.1600 2996.00 3003.16 55.00
11012 68.1660 2978.00 3024.35 55.00
11013 68.1720 2949.00 3047.91 54.00
11014 68.1780 3000.00 3072.77 55.00
11015 68.1840 3091.00 3097.94 56.00
11016 68.1900 3064.00 3122.62 55.00
11017 68.1960 3173.00 3145.65 56.00
11018 68.2020 3120.00 3166.37 56.00
11019 68.2080 3160.00 3183.66 56.00
11020 68.2140 3246.00 3196.79 57.00
11021 68.2200 3158.00 3205.18 56.00
11022 68.2260 3171.00 3209.32 56.00
11023 68.2320 3175.00 3208.93 56.00
11024 68.2380 3242.00 3205.04 57.00
11025 68.2440 3179.00 3199.27 56.00
11026 68.2500 3177.00 3192.43 56.00
11027 68.2560 3223.00 3185.37 57.00
11028 68.2620 3338.00 3178.22 58.00
11029 68.2680 3304.00 3170.30 57.00
11030 68.2740 3257.00 3160.90 57.00
11031 68.2800 3288.00 3149.26 57.00
11032 68.2860 3284.00 3134.87 57.00
11033 68.2920 3193.00 3117.75 57.00
11034 68.2980 3164.00 3098.40 56.00
11035 68.3040 3051.00 3077.82 55.00
11036 68.3100 3103.00 3057.37 56.00
11037 68.3160 3073.00 3038.03 55.00
11038 68.3220 2964.00 3020.79 54.00
11039 68.3280 2936.00 3005.54 54.00
11040 68.3340 2868.00 2991.74 54.00
11041 68.3400 2914.00 2977.23 54.00
11042 68.3460 3006.00 2960.14 55.00
11043 68.3520 2925.00 2938.31 54.00
11044 68.3580 2832.00 2910.21 53.00
11045 68.3640 2751.00 2875.48 52.00
11046 68.3700 2741.00 2834.86 52.00
11047 68.3760 2680.00 2789.77 52.00
11048 68.3820 2599.00 2742.23 51.00
11049 68.3880 2589.00 2694.30 51.00
11050 68.3940 2546.00 2647.65 50.00
11051 68.4000 2516.00 2603.69 50.00
11052 68.4060 2530.00 2563.70 50.00
11053 68.4120 2470.00 2528.28 50.00
11054 68.4180 2428.00 2498.32 49.00
11055 68.4240 2435.00 2473.67 49.00
11056 68.4300 2389.00 2454.19 49.00
11057 68.4360 2449.00 2439.39 49.00
11058 68.4420 2455.00 2428.07 50.00
11059 68.4480 2414.00 2419.59 49.00
11060 68.4540 2394.00 2413.08 49.00
11061 68.4600 2458.00 2407.83 50.00
11062 68.4660 2441.00 2403.32 49.00
11063 68.4720 2454.00 2399.50 50.00
11064 68.4780 2362.00 2395.76 49.00
11065 68.4840 2328.00 2392.38 48.00
11066 68.4900 2324.00 2389.83 48.00
11067 68.4960 2372.00 2387.96 49.00
11068 68.5020 2427.00 2387.16 49.00
11069 68.5080 2348.00 2387.70 48.00
11070 68.5140 2296.00 2389.62 48.00
11071 68.5200 2399.00 2392.96 49.00
11072 68.5260 2459.00 2397.40 50.00
11073 68.5320 2473.00 2402.44 50.00
11074 68.5380 2501.00 2407.46 50.00
11075 68.5440 2478.00 2411.72 50.00
11076 68.5500 2454.00 2414.55 50.00
11077 68.5560 2507.00 2415.35 50.00
11078 68.5620 2502.00 2413.74 50.00
11079 68.5680 2464.00 2409.52 50.00
11080 68.5740 2415.00 2403.13 49.00
11081 68.5800 2352.00 2395.03 48.00
11082 68.5860 2346.00 2385.96 48.00
11083 68.5920 2332.00 2376.61 48.00
11084 68.5980 2331.00 2367.72 48.00
11085 68.6040 2367.00 2359.61 49.00
11086 68.6100 2364.00 2352.67 49.00
11087 68.6160 2312.00 2346.80 48.00
11088 68.6220 2360.00 2341.72 49.00
11089 68.6280 2379.00 2337.60 49.00
11090 68.6340 2392.00 2334.59 49.00
11091 68.6400 2348.00 2332.48 48.00
11092 68.6460 2324.00 2331.40 48.00
11093 68.6520 2321.00 2331.57 48.00
11094 68.6580 2325.00 2333.20 48.00
11095 68.6640 2283.00 2335.82 48.00
11096 68.6700 2291.00 2339.53 48.00
11097 68.6760 2291.00 2343.86 48.00
11098 68.6820 2327.00 2348.93 48.00
11099 68.6880 2398.00 2354.00 49.00
11100 68.6940 2376.00 2358.47 49.00
11101 68.7000 2286.00 2361.84 48.00
11102 68.7060 2317.00 2363.38 48.00
11103 68.7120 2259.00 2363.57 48.00
11104 68.7180 2265.00 2361.89 48.00
11105 68.7240 2237.00 2358.58 47.00
11106 68.7300 2341.00 2353.88 48.00
11107 68.7360 2378.00 2348.21 49.00
11108 68.7420 2276.00 2341.67 48.00
11109 68.7480 2217.00 2334.71 47.00
11110 68.7540 2291.00 2327.67 48.00
11111 68.7600 2283.00 2320.53 48.00
11112 68.7660 2183.00 2313.61 47.00
11113 68.7720 2280.00 2306.98 48.00
11114 68.7780 2227.00 2301.31 47.00
11115 68.7840 2251.00 2296.51 47.00
11116 68.7900 2197.00 2293.00 47.00
11117 68.7960 2199.00 2291.18 47.00
11118 68.8020 2207.00 2291.33 47.00
11119 68.8080 2174.00 2293.66 47.00
11120 68.8140 2254.00 2298.49 47.00
11121 68.8200 2321.00 2305.70 48.00
11122 68.8260 2319.00 2315.89 48.00
11123 68.8320 2423.00 2328.85 49.00
11124 68.8380 2364.00 2344.26 49.00
11125 68.8440 2349.00 2361.66 48.00
11126 68.8500 2403.00 2381.25 49.00
11127 68.8560 2454.00 2402.09 50.00
11128 68.8620 2416.00 2423.21 49.00
11129 68.8680 2446.00 2443.65 49.00
11130 68.8740 2340.00 2462.46 48.00
11131 68.8800 2393.00 2478.44 49.00
11132 68.8860 2498.00 2491.53 50.00
11133 68.8920 2464.00 2501.54 50.00
11134 68.8980 2438.00 2509.70 49.00
11135 68.9040 2570.00 2516.86 51.00
11136 68.9100 2512.00 2524.06 50.00
11137 68.9160 2494.00 2531.75 50.00
11138 68.9220 2485.00 2540.96 50.00
11139 68.9280 2532.00 2550.89 50.00
11140 68.9340 2487.00 2560.77 50.00
11141 68.9400 2541.00 2569.82 50.00
11142 68.9460 2457.00 2577.29 50.00
11143 68.9520 2515.00 2581.81 50.00
11144 68.9580 2521.00 2583.75 50.00
11145 68.9640 2476.00 2582.51 50.00
11146 68.9700 2494.00 2578.60 50.00
11147 68.9760 2410.00 2572.37 49.00
11148 68.9820 2433.00 2564.40 49.00
11149 68.9880 2397.00 2555.60 49.00
11150 68.9940 2467.00 2547.28 50.00
11151 69.0000 2624.00 2540.23 51.00
11152 69.0060 2517.00 2535.64 50.00
11153 69.0120 2484.00 2533.62 50.00
11154 69.0180 2518.00 2534.92 50.00
11155 69.0240 2459.00 2538.70 50.00
11156 69.0300 2463.00 2544.70 50.00
11157 69.0360 2497.00 2551.66 50.00
11158 69.0420 2534.00 2558.80 50.00
11159 69.0480 2592.00 2565.33 51.00
11160 69.0540 2546.00 2570.68 50.00
11161 69.0600 2524.00 2574.32 50.00
11162 69.0660 2550.00 2576.13 50.00
11163 69.0720 2606.00 2576.01 51.00
11164 69.0780 2504.00 2573.46 50.00
11165 69.0840 2560.00 2569.17 51.00
11166 69.0900 2573.00 2562.76 51.00
11167 69.0960 2512.00 2554.93 50.00
11168 69.1020 2506.00 2546.73 50.00
11169 69.1080 2541.00 2539.36 50.00
11170 69.1140 2473.00 2534.29 50.00
11171 69.1200 2494.00 2532.40 50.00
11172 69.1260 2460.00 2534.25 50.00
11173 69.1320 2524.00 2539.93 50.00
11174 69.1380 2554.00 2549.07 51.00
11175 69.1440 2489.00 2560.61 50.00
11176 69.1500 2389.00 2573.44 49.00
11177 69.1560 2493.00 2586.35 50.00
11178 69.1620 2538.00 2598.24 50.00
11179 69.1680 2489.00 2608.00 50.00
11180 69.1740 2503.00 2615.46 50.00
11181 69.1800 2427.00 2620.07 49.00
11182 69.1860 2520.00 2621.18 50.00
11183 69.1920 2583.00 2618.19 51.00
11184 69.1980 2499.00 2610.35 50.00
11185 69.2040 2460.00 2597.41 50.00
11186 69.2100 2494.00 2579.36 50.00
11187 69.2160 2443.00 2556.95 49.00
11188 69.2220 2439.00 2531.54 49.00
11189 69.2280 2409.00 2504.53 49.00
11190 69.2340 2463.00 2477.44 50.00
11191 69.2400 2484.00 2451.78 50.00
11192 69.2460 2363.00 2428.72 49.00
11193 69.2520 2339.00 2409.28 48.00
11194 69.2580 2326.00 2394.20 48.00
11195 69.2640 2378.00 2384.06 49.00
11196 69.2700 2335.00 2379.29 48.00
11197 69.2760 2457.00 2380.10 50.00
11198 69.2820 2382.00 2386.73 49.00
11199 69.2880 2423.00 2398.62 49.00
11200 69.2940 2349.00 2416.10 48.00
11201 69.3000 2412.00 2438.46 49.00
11202 69.3060 2475.00 2464.95 50.00
11203 69.3120 2535.00 2494.89 50.00
11204 69.3180 2488.00 2526.55 50.00
11205 69.3240 2597.00 2558.42 51.00
11206 69.3300 2627.00 2588.66 51.00
11207 69.3360 2552.00 2615.34 51.00
11208 69.3420 2572.00 2636.79 51.00
11209 69.3480 2587.00 2652.23 51.00
11210 69.3540 2602.00 2661.49 51.00
11211 69.3600 2503.00 2664.94 50.00
11212 69.3660 2579.00 2663.54 51.00
11213 69.3720 2574.00 2657.49 51.00
11214 69.3780 2498.00 2647.70 50.00
11215 69.3840 2508.00 2635.03 50.00
11216 69.3900 2550.00 2619.88 50.00
11217 69.3960 2541.00 2603.46 50.00
11218 69.4020 2445.00 2586.79 49.00
11219 69.4080 2434.00 2571.01 49.00
11220 69.4140 2597.00 2557.21 51.00
11221 69.4200 2450.00 2545.33 49.00
11222 69.4260 2553.00 2535.47 51.00
11223 69.4320 2502.00 2527.90 50.00
11224 69.4380 2505.00 2521.35 50.00
11225 69.4440 2484.00 2515.83 50.00
11226 69.4500 2515.00 2510.58 50.00
11227 69.4560 2483.00 2505.62 50.00
11228 69.4620 2482.00 2500.73 50.00
11229 69.4680 2589.00 2495.81 51.00
11230 69.4740 2505.00 2490.94 50.00
11231 69.4800 2453.00 2486.25 50.00
11232 69.4860 2387.00 2481.82 49.00
11233 69.4920 2420.00 2477.65 49.00
11234 69.4980 2403.00 2473.69 49.00
11235 69.5040 2517.00 2469.56 50.00
11236 69.5100 2390.00 2464.98 49.00
11237 69.5160 2462.00 2459.62 50.00
11238 69.5220 2465.00 2453.32 50.00
11239 69.5280 2368.00 2446.12 49.00
11240 69.5340 2482.00 2438.28 50.00
11241 69.5400 2436.00 2430.33 49.00
11242 69.5460 2475.00 2422.77 50.00
11243 69.5520 2305.00 2416.27 48.00
11244 69.5580 2429.00 2411.48 49.00
11245 69.5640 2346.00 2408.90 48.00
11246 69.5700 2363.00 2408.99 49.00
11247 69.5760 2322.00 2411.93 48.00
11248 69.5820 2409.00 2417.84 49.00
11249 69.5880 2408.00 2426.64 49.00
11250 69.5940 2330.00 2438.08 48.00
11251 69.6000 2311.00 2451.81 48.00
11252 69.6060 2490.00 2467.40 50.00
11253 69.6120 2474.00 2484.09 50.00
11254 69.6180 2573.00 2501.80 51.00
11255 69.6240 2610.00 2519.80 51.00
11256 69.6300 2548.00 2537.38 50.00
11257 69.6360 2603.00 2553.93 51.00
11258 69.6420 2615.00 2568.39 51.00
11259 69.6480 2597.00 2579.92 51.00
11260 69.6540 2577.00 2587.60 51.00
11261 69.6600 2622.00 2590.87 51.00
11262 69.6660 2557.00 2589.52 51.00
11263 69.6720 2603.00 2583.61 51.00
11264 69.6780 2636.00 2573.88 51.00
11265 69.6840 2451.00 2560.96 50.00
11266 69.6900 2516.00 2545.47 50.00
11267 69.6960 2609.00 2528.42 51.00
11268 69.7020 2433.00 2511.09 49.00
11269 69.7080 2442.00 2494.22 49.00
11270 69.7140 2464.00 2478.99 50.00
11271 69.7200 2417.00 2465.87 49.00
11272 69.7260 2385.00 2455.23 49.00
11273 69.7320 2450.00 2447.11 49.00
11274 69.7380 2414.00 2441.04 49.00
11275 69.7440 2454.00 2436.65 50.00
11276 69.7500 2414.00 2433.44 49.00
11277 69.7560 2438.00 2430.65 49.00
11278 69.7620 2400.00 2427.50 49.00
11279 69.7680 2420.00 2424.07 49.00
11280 69.7740 2492.00 2420.12 50.00
11281 69.7800 2440.00 2415.92 49.00
11282 69.7860 2395.00 2411.65 49.00
11283 69.7920 2403.00 2408.01 49.00
11284 69.7980 2382.00 2405.14 49.00
11285 69.8040 2409.00 2403.24 49.00
11286 69.8100 2420.00 2402.39 49.00
11287 69.8160 2424.00 2402.55 49.00
11288 69.8220 2389.00 2403.97 49.00
11289 69.8280 2447.00 2407.00 49.00
11290 69.8340 2451.00 2411.82 50.00
11291 69.8400 2413.00 2418.34 49.00
11292 69.8460 2400.00 2426.72 49.00
11293 69.8520 2466.00 2436.97 50.00
11294 69.8580 2363.00 2448.31 49.00
11295 69.8640 2417.00 2460.16 49.00
11296 69.8700 2464.00 2471.63 50.00
11297 69.8760 2492.00 2481.78 50.00
11298 69.8820 2405.00 2489.46 49.00
11299 69.8880 2441.00 2493.79 49.00
11300 69.8940 2470.00 2494.60 50.00
11301 69.9000 2450.00 2491.57 49.00
11302 69.9060 2503.00 2485.09 50.00
11303 69.9120 2431.00 2476.01 49.00
11304 69.9180 2447.00 2465.37 49.00
11305 69.9240 2473.00 2454.13 50.00
11306 69.9300 2431.00 2443.05 49.00
11307 69.9360 2313.00 2433.20 48.00
11308 69.9420 2395.00 2424.92 49.00
11309 69.9480 2455.00 2418.78 50.00
11310 69.9540 2426.00 2415.67 49.00
11311 69.9600 2489.00 2416.18 50.00
11312 69.9660 2445.00 2420.59 49.00
11313 69.9720 2469.00 2429.29 50.00
11314 69.9780 2491.00 2442.40 50.00
11315 69.9840 2492.00 2459.65 50.00
11316 69.9900 2527.00 2480.50 50.00
11317 69.9960 2509.00 2504.29 50.00
11318 70.0020 2514.00 2529.94 50.00
11319 70.0080 2470.00 2556.36 50.00
11320 70.0140 2573.00 2582.28 51.00
11321 70.0200 2558.00 2606.53 51.00
11322 70.0260 2640.00 2628.14 51.00
11323 70.0320 2658.00 2646.49 52.00
11324 70.0380 2609.00 2661.38 51.00
11325 70.0440 2652.00 2673.05 51.00
11326 70.0500 2660.00 2681.85 52.00
11327 70.0560 2614.00 2688.69 51.00
11328 70.0620 2623.00 2694.57 51.00
11329 70.0680 2679.00 2700.76 52.00
11330 70.0740 2668.00 2707.96 52.00
11331 70.0800 2558.00 2717.83 51.00
11332 70.0860 2661.00 2730.30 52.00
11333 70.0920 2723.00 2745.24 52.00
11334 70.0980 2668.00 2761.91 52.00
11335 70.1040 2659.00 2779.60 52.00
11336 70.1100 2685.00 2797.22 52.00
11337 70.1160 2726.00 2813.77 52.00
11338 70.1220 2778.00 2828.14 53.00
11339 70.1280 2817.00 2840.05 53.00
11340 70.1340 2805.00 2848.67 53.00
11341 70.1400 2896.00 2853.39 54.00
11342 70.1460 2901.00 2853.59 54.00
11343 70.1520 2853.00 2848.59 53.00
11344 70.1580 2807.00 2837.49 53.00
11345 70.1640 2790.00 2819.65 53.00
11346 70.1700 2736.00 2794.91 52.00
11347 70.1760 2710.00 2763.30 52.00
11348 70.1820 2601.00 2726.06 51.00
11349 70.1880 2640.00 2684.41 51.00
11350 70.1940 2584.00 2640.25 51.00
11351 70.2000 2444.00 2595.31 49.00
11352 70.2060 2432.00 2551.65 49.00
11353 70.2120 2384.00 2510.51 49.00
11354 70.2180 2367.00 2472.90 49.00
11355 70.2240 2314.00 2439.60 48.00
11356 70.2300 2294.00 2410.78 48.00
11357 70.2360 2308.00 2386.56 48.00
11358 70.2420 2350.00 2366.54 48.00
11359 70.2480 2328.00 2350.33 48.00
11360 70.2540 2265.00 2337.85 48.00
11361 70.2600 2284.00 2328.54 48.00
11362 70.2660 2285.00 2321.79 48.00
11363 70.2720 2275.00 2317.30 48.00
11364 70.2780 2258.00 2314.63 48.00
11365 70.2840 2258.00 2313.15 48.00
11366 70.2900 2273.00 2312.65 48.00
11367 70.2960 2292.00 2313.00 48.00
11368 70.3020 2317.00 2314.17 48.00
11369 70.3080 2323.00 2315.89 48.00
11370 70.3140 2293.00 2318.33 48.00
11371 70.3200 2259.00 2321.23 48.00
11372 70.3260 2281.00 2324.72 48.00
11373 70.3320 2317.00 2328.74 48.00
11374 70.3380 2357.00 2333.40 49.00
11375 70.3440 2338.00 2338.80 48.00
11376 70.3500 2279.00 2345.25 48.00
11377 70.3560 2278.00 2352.85 48.00
11378 70.3620 2265.00 2361.60 48.00
11379 70.3680 2312.00 2371.69 48.00
11380 70.3740 2322.00 2382.95 48.00
11381 70.3800 2258.00 2395.24 48.00
11382 70.3860 2312.00 2408.61 48.00
11383 70.3920 2415.00 2422.45 49.00
11384 70.3980 2402.00 2437.14 49.00
11385 70.4040 2393.00 2452.13 49.00
11386 70.4100 2483.00 2466.77 50.00
11387 70.4160 2503.00 2480.26 50.00
11388 70.4220 2466.00 2492.12 50.00
11389 70.4280 2414.00 2501.89 49.00
11390 70.4340 2385.00 2508.88 49.00
11391 70.4400 2403.00 2513.32 49.00
11392 70.4460 2457.00 2515.11 50.00
11393 70.4520 2460.00 2514.75 50.00
11394 70.4580 2462.00 2512.44 50.00
11395 70.4640 2470.00 2508.16 50.00
11396 70.4700 2407.00 2502.46 49.00
11397 70.4760 2359.00 2495.63 49.00
11398 70.4820 2393.00 2487.69 49.00
11399 70.4880 2363.00 2478.81 49.00
11400 70.4940 2358.00 2469.35 49.00
11401 70.5000 2375.00 2459.67 49.00
11402 70.5060 2350.00 2450.67 48.00
11403 70.5120 2327.00 2443.12 48.00
11404 70.5180 2344.00 2437.93 48.00
11405 70.5240 2399.00 2435.79 49.00
11406 70.5300 2417.00 2437.18 49.00
11407 70.5360 2395.00 2442.25 49.00
11408 70.5420 2412.00 2450.79 49.00
11409 70.5480 2412.00 2462.17 49.00
11410 70.5540 2397.00 2475.57 49.00
11411 70.5600 2544.00 2489.65 50.00
11412 70.5660 2637.00 2503.21 51.00
11413 70.5720 2620.00 2514.60 51.00
11414 70.5780 2628.00 2522.41 51.00
11415 70.5840 2606.00 2525.44 51.00
11416 70.5900 2545.00 2523.10 50.00
11417 70.5960 2497.00 2515.18 50.00
11418 70.6020 2482.00 2502.18 50.00
11419 70.6080 2408.00 2484.98 49.00
11420 70.6140 2361.00 2464.52 49.00
11421 70.6200 2363.00 2442.22 49.00
11422 70.6260 2355.00 2419.24 49.00
11423 70.6320 2383.00 2396.57 49.00
11424 70.6380 2323.00 2375.29 48.00
11425 70.6440 2301.00 2356.57 48.00
11426 70.6500 2306.00 2340.64 48.00
11427 70.6560 2308.00 2327.98 48.00
11428 70.6620 2260.00 2318.81 48.00
11429 70.6680 2282.00 2312.96 48.00
11430 70.6740 2332.00 2310.22 48.00
11431 70.6800 2284.00 2310.08 48.00
11432 70.6860 2267.00 2312.15 48.00
11433 70.6920 2268.00 2315.65 48.00
11434 70.6980 2253.00 2319.81 47.00
11435 70.7040 2282.00 2323.90 48.00
11436 70.7100 2271.00 2327.42 48.00
11437 70.7160 2216.00 2329.72 47.00
11438 70.7220 2314.00 2330.78 48.00
11439 70.7280 2287.00 2330.67 48.00
11440 70.7340 2326.00 2329.64 48.00
11441 70.7400 2334.00 2328.01 48.00
11442 70.7460 2266.00 2326.13 48.00
11443 70.7520 2312.00 2324.41 48.00
11444 70.7580 2305.00 2322.87 48.00
11445 70.7640 2252.00 2321.53 47.00
11446 70.7700 2296.00 2320.51 48.00
11447 70.7760 2316.00 2319.37 48.00
11448 70.7820 2305.00 2317.92 48.00
11449 70.7880 2310.00 2315.91 48.00
11450 70.7940 2344.00 2312.85 48.00
11451 70.8000 2339.00 2309.21 48.00
11452 70.8060 2263.00 2304.90 48.00
11453 70.8120 2254.00 2300.20 47.00
11454 70.8180 2235.00 2295.41 47.00
11455 70.8240 2212.00 2290.86 47.00
11456 70.8300 2162.00 2286.71 46.00
11457 70.8360 2164.00 2283.07 47.00
11458 70.8420 2239.00 2279.94 47.00
11459 70.8480 2224.00 2276.99 47.00
11460 70.8540 2229.00 2274.65 47.00
11461 70.8600 2234.00 2272.71 47.00
11462 70.8660 2202.00 2270.94 47.00
11463 70.8720 2238.00 2269.95 47.00
11464 70.8780 2310.00 2269.46 48.00
11465 70.8840 2297.00 2269.62 48.00
11466 70.8900 2172.00 2270.46 47.00
11467 70.8960 2187.00 2271.97 47.00
11468 70.9020 2220.00 2273.84 47.00
11469 70.9080 2218.00 2276.59 47.00
11470 70.9140 2200.00 2279.88 47.00
11471 70.9200 2206.00 2283.55 47.00
11472 70.9260 2224.00 2288.42 47.00
11473 70.9320 2240.00 2294.16 47.00
11474 70.9380 2217.00 2301.29 47.00
11475 70.9440 2243.00 2309.26 47.00
11476 70.9500 2302.00 2318.22 48.00
11477 70.9560 2387.00 2327.87 49.00
11478 70.9620 2421.00 2338.14 49.00
11479 70.9680 2419.00 2348.95 49.00
11480 70.9740 2356.00 2360.21 49.00
11481 70.9800 2411.00 2371.84 49.00
11482 70.9860 2456.00 2383.65 50.00
11483 70.9920 2550.00 2395.72 50.00
11484 70.9980 2529.00 2407.40 50.00
11485 71.0040 2546.00 2418.66 50.00
11486 71.0100 2493.00 2429.11 50.00
11487 71.0160 2496.00 2438.25 50.00
11488 71.0220 2474.00 2445.83 50.00
11489 71.0280 2435.00 2451.51 49.00
11490 71.0340 2418.00 2455.37 49.00
11491 71.0400 2414.00 2457.06 49.00
11492 71.0460 2445.00 2456.66 49.00
11493 71.0520 2397.00 2454.15 49.00
11494 71.0580 2453.00 2449.50 50.00
11495 71.0640 2463.00 2442.74 50.00
11496 71.0700 2375.00 2434.35 49.00
11497 71.0760 2381.00 2424.32 49.00
11498 71.0820 2326.00 2413.45 48.00
11499 71.0880 2354.00 2402.71 49.00
11500 71.0940 2375.00 2393.12 49.00
11501 71.1000 2328.00 2385.21 48.00
11502 71.1060 2293.00 2380.07 48.00
11503 71.1120 2317.00 2378.05 48.00
11504 71.1180 2282.00 2379.61 48.00
11505 71.1240 2288.00 2384.79 48.00
11506 71.1300 2351.00 2393.82 48.00
11507 71.1360 2337.00 2406.06 48.00
11508 71.1420 2344.00 2421.29 48.00
11509 71.1480 2389.00 2439.13 49.00
11510 71.1540 2374.00 2459.14 49.00
11511 71.1600 2428.00 2480.90 49.00
11512 71.1660 2426.00 2503.68 49.00
11513 71.1720 2593.00 2527.39 51.00
11514 71.1780 2614.00 2550.29 51.00
11515 71.1840 2627.00 2570.99 51.00
11516 71.1900 2737.00 2588.28 52.00
11517 71.1960 2659.00 2600.75 52.00
11518 71.2020 2719.00 2606.89 52.00
11519 71.2080 2640.00 2605.33 51.00
11520 71.2140 2641.00 2595.70 51.00
11521 71.2200 2559.00 2578.34 51.00
11522 71.2260 2399.00 2554.40 49.00
11523 71.2320 2489.00 2525.86 50.00
11524 71.2380 2442.00 2494.89 49.00
11525 71.2440 2269.00 2463.20 48.00
11526 71.2500 2347.00 2432.09 48.00
11527 71.2560 2287.00 2403.07 48.00
11528 71.2620 2313.00 2376.97 48.00
11529 71.2680 2239.00 2354.43 47.00
11530 71.2740 2199.00 2335.64 47.00
11531 71.2800 2285.00 2320.61 48.00
11532 71.2860 2256.00 2309.08 47.00
11533 71.2920 2277.00 2300.69 48.00
11534 71.2980 2190.00 2294.97 47.00
11535 71.3040 2316.00 2291.54 48.00
11536 71.3100 2244.00 2290.18 47.00
11537 71.3160 2323.00 2290.38 48.00
11538 71.3220 2278.00 2292.07 48.00
11539 71.3280 2230.00 2295.23 47.00
11540 71.3340 2271.00 2299.07 48.00
11541 71.3400 2229.00 2303.72 47.00
11542 71.3460 2174.00 2308.87 47.00
11543 71.3520 2311.00 2314.05 48.00
11544 71.3580 2209.00 2319.47 47.00
11545 71.3640 2269.00 2324.69 48.00
11546 71.3700 2313.00 2329.63 48.00
11547 71.3760 2294.00 2334.14 48.00
11548 71.3820 2284.00 2338.24 48.00
11549 71.3880 2242.00 2341.70 47.00
11550 71.3940 2304.00 2344.24 48.00
11551 71.4000 2362.00 2345.62 49.00
11552 71.4060 2361.00 2345.67 49.00
11553 71.4120 2318.00 2344.37 48.00
11554 71.4180 2238.00 2341.96 47.00
11555 71.4240 2258.00 2338.93 48.00
11556 71.4300 2268.00 2335.69 48.00
11557 71.4360 2274.00 2332.84 48.00
11558 71.4420 2288.00 2330.76 48.00
11559 71.4480 2354.00 2329.68 49.00
11560 71.4540 2243.00 2329.62 47.00
11561 71.4600 2252.00 2330.27 47.00
11562 71.4660 2253.00 2331.50 47.00
11563 71.4720 2321.00 2332.81 48.00
11564 71.4780 2214.00 2333.85 47.00
11565 71.4840 2256.00 2334.47 47.00
11566 71.4900 2224.00 2334.50 47.00
11567 71.4960 2322.00 2333.84 48.00
11568 71.5020 2311.00 2332.12 48.00
11569 71.5080 2282.00 2329.22 48.00
11570 71.5140 2322.00 2324.94 48.00
11571 71.5200 2283.00 2319.28 48.00
11572 71.5260 2214.00 2312.49 47.00
11573 71.5320 2163.00 2304.81 47.00
11574 71.5380 2236.00 2296.89 47.00
11575 71.5440 2220.00 2289.07 47.00
11576 71.5500 2229.00 2282.17 47.00
11577 71.5560 2151.00 2276.37 46.00
11578 71.5620 2185.00 2271.99 47.00
11579 71.5680 2170.00 2269.23 47.00
11580 71.5740 2210.00 2268.10 47.00
11581 71.5800 2170.00 2268.61 47.00
11582 71.5860 2222.00 2270.70 47.00
11583 71.5920 2281.00 2274.28 48.00
11584 71.5980 2296.00 2279.26 48.00
11585 71.6040 2229.00 2285.47 47.00
11586 71.6100 2295.00 2292.87 48.00
11587 71.6160 2280.00 2301.16 48.00
11588 71.6220 2276.00 2310.17 48.00
11589 71.6280 2301.00 2319.75 48.00
11590 71.6340 2455.00 2329.82 50.00
11591 71.6400 2262.00 2340.30 48.00
11592 71.6460 2300.00 2351.30 48.00
11593 71.6520 2236.00 2362.90 47.00
11594 71.6580 2335.00 2375.20 48.00
11595 71.6640 2375.00 2388.21 49.00
11596 71.6700 2382.00 2401.82 49.00
11597 71.6760 2353.00 2415.92 49.00
11598 71.6820 2398.00 2430.24 49.00
11599 71.6880 2463.00 2444.51 50.00
11600 71.6940 2360.00 2458.29 49.00
11601 71.7000 2460.00 2471.18 50.00
11602 71.7060 2431.00 2482.88 49.00
11603 71.7120 2535.00 2493.21 50.00
11604 71.7180 2442.00 2502.61 49.00
11605 71.7240 2409.00 2511.35 49.00
11606 71.7300 2443.00 2519.89 49.00
11607 71.7360 2530.00 2528.54 50.00
11608 71.7420 2467.00 2537.33 50.00
11609 71.7480 2520.00 2546.01 50.00
11610 71.7540 2507.00 2554.24 50.00
11611 71.7600 2497.00 2561.65 50.00
11612 71.7660 2490.00 2568.07 50.00
11613 71.7720 2599.00 2573.58 51.00
11614 71.7780 2595.00 2578.78 51.00
11615 71.7840 2474.00 2584.18 50.00
11616 71.7900 2539.00 2590.29 50.00
11617 71.7960 2592.00 2597.82 51.00
11618 71.8020 2537.00 2607.05 50.00
11619 71.8080 2541.00 2618.29 50.00
11620 71.8140 2617.00 2631.30 51.00
11621 71.8200 2634.00 2646.10 51.00
11622 71.8260 2616.00 2662.01 51.00
11623 71.8320 2715.00 2678.43 52.00
11624 71.8380 2583.00 2694.30 51.00
11625 71.8440 2563.00 2709.04 51.00
11626 71.8500 2609.00 2722.02 51.00
11627 71.8560 2631.00 2733.22 51.00
11628 71.8620 2718.00 2742.75 52.00
11629 71.8680 2760.00 2751.46 53.00
11630 71.8740 2750.00 2760.46 52.00
11631 71.8800 2770.00 2770.76 53.00
11632 71.8860 2685.00 2783.57 52.00
11633 71.8920 2783.00 2799.78 53.00
11634 71.8980 2750.00 2820.02 52.00
11635 71.9040 2837.00 2844.39 53.00
11636 71.9100 2805.00 2872.98 53.00
11637 71.9160 2806.00 2904.82 53.00
11638 71.9220 2834.00 2938.75 53.00
11639 71.9280 2856.00 2972.26 53.00
11640 71.9340 2762.00 3002.84 53.00
11641 71.9400 2805.00 3027.94 53.00
11642 71.9460 2862.00 3045.40 53.00
11643 71.9520 2808.00 3054.52 53.00
11644 71.9580 2823.00 3055.29 53.00
11645 71.9640 2906.00 3048.91 54.00
11646 71.9700 2913.00 3036.13 54.00
11647 71.9760 2789.00 3018.75 53.00
11648 71.9820 2860.00 2998.33 53.00
11649 71.9880 2873.00 2975.49 54.00
11650 71.9940 2800.00 2950.60 53.00
11651 72.0000 2794.00 2923.22 53.00
11652 72.0060 2842.00 2892.95 53.00
11653 72.0120 2746.00 2859.33 52.00
11654 72.0180 2630.00 2822.59 51.00
11655 72.0240 2604.00 2783.56 51.00
11656 72.0300 2672.00 2743.92 52.00
11657 72.0360 2544.00 2705.21 50.00
11658 72.0420 2553.00 2669.28 51.00
11659 72.0480 2475.00 2637.37 50.00
11660 72.0540 2531.00 2610.16 50.00
11661 72.0600 2484.00 2588.01 50.00
11662 72.0660 2438.00 2570.28 49.00
11663 72.0720 2451.00 2556.29 50.00
11664 72.0780 2447.00 2544.87 49.00
11665 72.0840 2434.00 2534.72 49.00
11666 72.0900 2466.00 2524.52 50.00
11667 72.0960 2504.00 2513.15 50.00
11668 72.1020 2430.00 2499.96 49.00
11669 72.1080 2422.00 2484.59 49.00
11670 72.1140 2459.00 2467.15 50.00
11671 72.1200 2407.00 2448.20 49.00
11672 72.1260 2405.00 2428.03 49.00
11673 72.1320 2434.00 2407.25 49.00
11674 72.1380 2359.00 2386.64 49.00
11675 72.1440 2353.00 2366.72 49.00
11676 72.1500 2256.00 2347.98 47.00
11677 72.1560 2252.00 2330.91 47.00
11678 72.1620 2199.00 2315.77 47.00
11679 72.1680 2233.00 2302.64 47.00
11680 72.1740 2292.00 2291.75 48.00
11681 72.1800 2268.00 2283.06 48.00
11682 72.1860 2285.00 2276.10 48.00
11683 72.1920 2308.00 2270.82 48.00
11684 72.1980 2282.00 2266.73 48.00
11685 72.2040 2255.00 2263.71 47.00
11686 72.2100 2326.00 2261.68 48.00
11687 72.2160 2298.00 2260.61 48.00
11688 72.2220 2292.00 2260.55 48.00
11689 72.2280 2294.00 2261.64 48.00
11690 72.2340 2221.00 2263.75 47.00
11691 72.2400 2244.00 2266.83 47.00
11692 72.2460 2230.00 2271.19 47.00
11693 72.2520 2234.00 2276.24 47.00
11694 72.2580 2280.00 2281.90 48.00
11695 72.2640 2309.00 2287.83 48.00
11696 72.2700 2281.00 2293.78 48.00
11697 72.2760 2361.00 2299.20 49.00
11698 72.2820 2330.00 2304.17 48.00
11699 72.2880 2345.00 2307.95 48.00
11700 72.2940 2340.00 2310.14 48.00
11701 72.3000 2343.00 2310.46 48.00
11702 72.3060 2367.00 2308.60 49.00
11703 72.3120 2310.00 2304.23 48.00
11704 72.3180 2237.00 2297.53 47.00
11705 72.3240 2284.00 2288.93 48.00
11706 72.3300 2250.00 2278.72 47.00
11707 72.3360 2230.00 2267.61 47.00
11708 72.3420 2222.00 2256.13 47.00
11709 72.3480 2225.00 2244.94 47.00
11710 72.3540 2164.00 2234.46 47.00
11711 72.3600 2092.00 2224.96 46.00
11712 72.3660 2095.00 2216.64 46.00
11713 72.3720 2179.00 2209.56 47.00
11714 72.3780 2262.00 2203.66 48.00
11715 72.3840 2207.00 2198.82 47.00
11716 72.3900 2183.00 2195.05 47.00
11717 72.3960 2121.00 2191.89 46.00
11718 72.4020 2101.00 2189.33 46.00
11719 72.4080 2173.00 2187.27 47.00
11720 72.4140 2170.00 2185.52 47.00
11721 72.4200 2156.00 2184.00 46.00
11722 72.4260 2133.00 2182.57 46.00
11723 72.4320 2147.00 2181.24 46.00
11724 72.4380 2157.00 2179.68 46.00
11725 72.4440 2160.00 2178.12 46.00
11726 72.4500 2129.00 2176.59 46.00
11727 72.4560 2095.00 2175.20 46.00
11728 72.4620 2099.00 2174.26 46.00
11729 72.4680 2101.00 2173.71 46.00
11730 72.4740 2115.00 2173.39 46.00
11731 72.4800 2162.00 2173.73 46.00
11732 72.4860 2252.00 2174.46 47.00
11733 72.4920 2236.00 2175.63 47.00
11734 72.4980 2172.00 2177.13 47.00
11735 72.5040 2200.00 2178.90 47.00
11736 72.5100 2170.00 2180.90 47.00
11737 72.5160 2114.00 2183.09 46.00
11738 72.5220 2155.00 2185.43 46.00
11739 72.5280 2172.00 2187.75 47.00
11740 72.5340 2181.00 2190.49 47.00
11741 72.5400 2206.00 2193.51 47.00
11742 72.5460 2221.00 2197.01 47.00
11743 72.5520 2191.00 2201.22 47.00
11744 72.5580 2097.00 2206.14 46.00
11745 72.5640 2103.00 2211.83 46.00
11746 72.5700 2231.00 2217.73 47.00
11747 72.5760 2237.00 2223.99 47.00
11748 72.5820 2236.00 2230.36 47.00
11749 72.5880 2287.00 2236.70 48.00
11750 72.5940 2268.00 2242.99 48.00
11751 72.6000 2280.00 2249.48 48.00
11752 72.6060 2325.00 2255.60 48.00
11753 72.6120 2306.00 2262.02 48.00
11754 72.6180 2257.00 2268.58 48.00
11755 72.6240 2215.00 2274.99 47.00
11756 72.6300 2249.00 2281.10 47.00
11757 72.6360 2285.00 2287.19 48.00
11758 72.6420 2326.00 2292.78 48.00
11759 72.6480 2322.00 2298.06 48.00
11760 72.6540 2282.00 2303.10 48.00
11761 72.6600 2248.00 2308.13 47.00
11762 72.6660 2237.00 2312.99 47.00
11763 72.6720 2290.00 2318.28 48.00
11764 72.6780 2262.00 2323.92 48.00
11765 72.6840 2317.00 2329.91 48.00
11766 72.6900 2334.00 2335.92 48.00
11767 72.6960 2308.00 2341.77 48.00
11768 72.7020 2274.00 2347.24 48.00
11769 72.7080 2323.00 2352.26 48.00
11770 72.7140 2347.00 2356.26 48.00
11771 72.7200 2348.00 2360.56 48.00
11772 72.7260 2410.00 2365.04 49.00
11773 72.7320 2411.00 2369.22 49.00
11774 72.7380 2352.00 2372.92 48.00
11775 72.7440 2290.00 2376.02 48.00
11776 72.7500 2351.00 2378.46 48.00
11777 72.7560 2412.00 2379.95 49.00
11778 72.7620 2376.00 2380.45 49.00
11779 72.7680 2335.00 2379.95 48.00
11780 72.7740 2320.00 2378.65 48.00
11781 72.7800 2329.00 2376.16 48.00
11782 72.7860 2289.00 2372.86 48.00
11783 72.7920 2331.00 2369.39 48.00
11784 72.7980 2342.00 2365.64 48.00
11785 72.8040 2237.00 2361.77 47.00
11786 72.8100 2211.00 2357.78 47.00
11787 72.8160 2220.00 2353.75 47.00
11788 72.8220 2216.00 2349.37 47.00
11789 72.8280 2243.00 2344.36 47.00
11790 72.8340 2221.00 2338.74 47.00
11791 72.8400 2244.00 2332.46 47.00
11792 72.8460 2295.00 2325.68 48.00
11793 72.8520 2256.00 2318.49 47.00
11794 72.8580 2222.00 2311.60 47.00
11795 72.8640 2279.00 2305.41 48.00
11796 72.8700 2338.00 2300.24 48.00
11797 72.8760 2378.00 2296.74 49.00
11798 72.8820 2283.00 2294.67 48.00
11799 72.8880 2214.00 2294.19 47.00
11800 72.8940 2221.00 2295.12 47.00
11801 72.9000 2268.00 2297.24 48.00
11802 72.9060 2326.00 2300.56 48.00
11803 72.9120 2389.00 2305.17 49.00
11804 72.9180 2353.00 2311.03 49.00
11805 72.9240 2312.00 2318.25 48.00
11806 72.9300 2360.00 2326.57 49.00
11807 72.9360 2342.00 2336.05 48.00
11808 72.9420 2395.00 2346.36 49.00
11809 72.9480 2403.00 2356.92 49.00
11810 72.9540 2458.00 2366.97 50.00
11811 72.9600 2456.00 2375.92 50.00
11812 72.9660 2398.00 2383.30 49.00
11813 72.9720 2420.00 2388.91 49.00
11814 72.9780 2381.00 2392.81 49.00
11815 72.9840 2432.00 2395.36 49.00
11816 72.9900 2358.00 2397.18 49.00
11817 72.9960 2348.00 2398.75 48.00
11818 73.0020 2423.00 2400.50 49.00
11819 73.0080 2524.00 2402.45 50.00
11820 73.0140 2439.00 2404.59 49.00
11821 73.0200 2336.00 2406.81 48.00
11822 73.0260 2383.00 2408.91 49.00
11823 73.0320 2390.00 2410.84 49.00
11824 73.0380 2410.00 2412.21 49.00
11825 73.0440 2356.00 2412.96 49.00
11826 73.0500 2388.00 2413.23 49.00
11827 73.0560 2398.00 2412.52 49.00
11828 73.0620 2416.00 2410.78 49.00
11829 73.0680 2395.00 2407.82 49.00
11830 73.0740 2376.00 2403.60 49.00
11831 73.0800 2320.00 2398.01 48.00
11832 73.0860 2308.00 2391.31 48.00
11833 73.0920 2324.00 2383.73 48.00
11834 73.0980 2342.00 2375.46 48.00
11835 73.1040 2273.00 2366.88 48.00
11836 73.1100 2314.00 2358.25 48.00
11837 73.1160 2297.00 2350.09 48.00
11838 73.1220 2330.00 2342.87 48.00
11839 73.1280 2348.00 2336.91 48.00
11840 73.1340 2334.00 2332.60 48.00
11841 73.1400 2268.00 2330.11 48.00
11842 73.1460 2333.00 2329.47 48.00
11843 73.1520 2315.00 2330.36 48.00
11844 73.1580 2291.00 2332.37 48.00
11845 73.1640 2388.00 2334.97 49.00
11846 73.1700 2380.00 2337.45 49.00
11847 73.1760 2298.00 2339.21 48.00
11848 73.1820 2346.00 2339.83 48.00
11849 73.1880 2289.00 2339.11 48.00
11850 73.1940 2333.00 2337.26 48.00
11851 73.2000 2328.00 2334.30 48.00
11852 73.2060 2291.00 2330.49 48.00
11853 73.2120 2248.00 2325.94 47.00
11854 73.2180 2281.00 2320.70 48.00
11855 73.2240 2272.00 2314.85 48.00
11856 73.2300 2302.00 2308.44 48.00
11857 73.2360 2311.00 2301.69 48.00
11858 73.2420 2279.00 2294.88 48.00
11859 73.2480 2299.00 2288.37 48.00
11860 73.2540 2302.00 2282.57 48.00
11861 73.2600 2334.00 2277.88 48.00
11862 73.2660 2336.00 2274.74 48.00
11863 73.2720 2269.00 2273.51 48.00
11864 73.2780 2268.00 2274.64 48.00
11865 73.2840 2284.00 2278.43 48.00
11866 73.2900 2212.00 2285.21 47.00
11867 73.2960 2298.00 2295.19 48.00
11868 73.3020 2332.00 2308.48 48.00
11869 73.3080 2307.00 2324.94 48.00
11870 73.3140 2324.00 2344.45 48.00
11871 73.3200 2286.00 2366.44 48.00
11872 73.3260 2349.00 2390.21 48.00
11873 73.3320 2517.00 2414.95 50.00
11874 73.3380 2408.00 2439.32 49.00
11875 73.3440 2418.00 2462.35 49.00
11876 73.3500 2476.00 2483.02 50.00
11877 73.3560 2517.00 2500.80 50.00
11878 73.3620 2551.00 2515.19 51.00
11879 73.3680 2466.00 2526.44 50.00
11880 73.3740 2406.00 2534.65 49.00
11881 73.3800 2450.00 2539.93 49.00
11882 73.3860 2360.00 2542.52 49.00
11883 73.3920 2477.00 2542.62 50.00
11884 73.3980 2456.00 2540.62 50.00
11885 73.4040 2475.00 2536.80 50.00
11886 73.4100 2421.00 2531.61 49.00
11887 73.4160 2486.00 2525.21 50.00
11888 73.4220 2417.00 2517.88 49.00
11889 73.4280 2466.00 2509.49 50.00
11890 73.4340 2537.00 2499.94 50.00
11891 73.4400 2493.00 2489.34 50.00
11892 73.4460 2332.00 2477.75 48.00
11893 73.4520 2395.00 2465.45 49.00
11894 73.4580 2316.00 2452.88 48.00
11895 73.4640 2356.00 2440.67 49.00
11896 73.4700 2328.00 2429.34 48.00
11897 73.4760 2329.00 2419.52 48.00
11898 73.4820 2285.00 2411.63 48.00
11899 73.4880 2251.00 2406.14 47.00
11900 73.4940 2353.00 2403.44 49.00
11901 73.5000 2297.00 2403.55 48.00
11902 73.5060 2256.00 2406.47 47.00
11903 73.5120 2301.00 2411.93 48.00
11904 73.5180 2299.00 2419.77 48.00
11905 73.5240 2323.00 2429.85 48.00
11906 73.5300 2276.00 2441.94 48.00
11907 73.5360 2465.00 2456.30 50.00
11908 73.5420 2449.00 2472.56 49.00
11909 73.5480 2446.00 2490.36 49.00
11910 73.5540 2547.00 2509.07 50.00
11911 73.5600 2514.00 2527.58 50.00
11912 73.5660 2519.00 2545.22 50.00
11913 73.5720 2552.00 2560.85 51.00
11914 73.5780 2565.00 2573.74 51.00
11915 73.5840 2447.00 2583.31 49.00
11916 73.5900 2467.00 2589.45 50.00
11917 73.5960 2433.00 2592.04 49.00
11918 73.6020 2418.00 2591.37 49.00
11919 73.6080 2429.00 2587.50 49.00
11920 73.6140 2455.00 2580.79 50.00
11921 73.6200 2387.00 2571.88 49.00
11922 73.6260 2471.00 2561.45 50.00
11923 73.6320 2450.00 2550.79 49.00
11924 73.6380 2410.00 2540.65 49.00
11925 73.6440 2420.00 2531.84 49.00
11926 73.6500 2419.00 2524.73 49.00
11927 73.6560 2380.00 2519.70 49.00
11928 73.6620 2510.00 2516.84 50.00
11929 73.6680 2399.00 2516.17 49.00
11930 73.6740 2456.00 2517.61 50.00
11931 73.6800 2513.00 2521.01 50.00
11932 73.6860 2537.00 2526.05 50.00
11933 73.6920 2525.00 2532.57 50.00
11934 73.6980 2587.00 2539.81 51.00
11935 73.7040 2489.00 2546.85 50.00
11936 73.7100 2513.00 2552.88 50.00
11937 73.7160 2602.00 2557.12 51.00
11938 73.7220 2514.00 2559.09 50.00
11939 73.7280 2467.00 2558.58 50.00
11940 73.7340 2487.00 2555.72 50.00
11941 73.7400 2411.00 2550.83 49.00
11942 73.7460 2461.00 2544.35 50.00
11943 73.7520 2487.00 2536.56 50.00
11944 73.7580 2426.00 2528.18 49.00
11945 73.7640 2435.00 2519.24 49.00
11946 73.7700 2419.00 2510.15 49.00
11947 73.7760 2458.00 2500.97 50.00
11948 73.7820 2499.00 2491.85 50.00
11949 73.7880 2480.00 2482.91 50.00
11950 73.7940 2440.00 2474.27 49.00
11951 73.8000 2424.00 2465.85 49.00
11952 73.8060 2484.00 2457.58 50.00
11953 73.8120 2421.00 2449.40 49.00
11954 73.8180 2434.00 2441.01 49.00
11955 73.8240 2591.00 2432.55 51.00
11956 73.8300 2486.00 2423.84 50.00
11957 73.8360 2474.00 2414.60 50.00
11958 73.8420 2464.00 2404.91 50.00
11959 73.8480 2353.00 2395.09 49.00
11960 73.8540 2300.00 2385.35 48.00
11961 73.8600 2391.00 2375.92 49.00
11962 73.8660 2379.00 2367.37 49.00
11963 73.8720 2293.00 2359.77 48.00
11964 73.8780 2289.00 2353.05 48.00
11965 73.8840 2365.00 2347.20 49.00
11966 73.8900 2309.00 2341.75 48.00
11967 73.8960 2270.00 2336.26 48.00
11968 73.9020 2263.00 2330.02 48.00
11969 73.9080 2301.00 2322.93 48.00
11970 73.9140 2276.00 2314.75 48.00
11971 73.9200 2036.00 2305.64 45.00
11972 73.9260 2198.00 2295.65 47.00
11973 73.9320 2280.00 2285.19 48.00
11974 73.9380 2331.00 2274.58 48.00
11975 73.9440 2241.00 2264.16 47.00
11976 73.9500 2245.00 2254.13 47.00
11977 73.9560 2308.00 2244.68 48.00
11978 73.9620 2242.00 2235.98 47.00
11979 73.9680 2237.00 2227.87 47.00
11980 73.9740 2156.00 2220.72 46.00
11981 73.9800 2199.00 2214.18 47.00
11982 73.9860 2256.00 2208.16 47.00
11983 73.9920 2211.00 2202.42 47.00
11984 73.9980 2208.00 2196.79 47.00
11985 74.0040 2151.00 2191.16 46.00
11986 74.0100 2164.00 2185.37 47.00
11987 74.0160 2148.00 2179.64 46.00
11988 74.0220 2176.00 2173.95 47.00
11989 74.0280 2107.00 2168.31 46.00
11990 74.0340 2150.00 2162.95 46.00
11991 74.0400 2187.00 2158.06 47.00
11992 74.0460 2209.00 2153.83 47.00
11993 74.0520 2075.00 2150.49 46.00
11994 74.0580 2128.00 2148.18 46.00
11995 74.0640 2134.00 2147.01 46.00
11996 74.0700 2069.00 2147.02 45.00
11997 74.0760 2087.00 2148.45 46.00
11998 74.0820 2160.00 2150.97 46.00
11999 74.0880 2163.00 2154.49 47.00
12000 74.0940 2100.00 2159.02 46.00
12001 74.1000 2146.00 2164.38 46.00
12002 74.1060 2177.00 2170.29 47.00
12003 74.1120 2226.00 2176.53 47.00
12004 74.1180 2195.00 2182.54 47.00
12005 74.1240 2193.00 2188.03 47.00
12006 74.1300 2163.00 2192.60 47.00
12007 74.1360 2308.00 2195.91 48.00
12008 74.1420 2195.00 2197.72 47.00
12009 74.1480 2106.00 2198.29 46.00
12010 74.1540 2233.00 2197.42 47.00
12011 74.1600 2167.00 2195.43 47.00
12012 74.1660 2034.00 2192.45 45.00
12013 74.1720 2045.00 2188.77 45.00
12014 74.1780 2136.00 2184.37 46.00
12015 74.1840 2167.00 2179.89 47.00
12016 74.1900 2130.00 2175.23 46.00
12017 74.1960 2093.00 2170.50 46.00
12018 74.2020 2035.00 2165.57 45.00
12019 74.2080 2060.00 2160.70 45.00
12020 74.2140 2067.00 2155.93 45.00
12021 74.2200 2108.00 2151.33 46.00
12022 74.2260 2140.00 2147.11 46.00
12023 74.2320 2034.00 2143.51 45.00
12024 74.2380 2089.00 2140.51 46.00
12025 74.2440 2085.00 2138.17 46.00
12026 74.2500 2158.00 2136.72 46.00
12027 74.2560 2145.00 2136.03 46.00
12028 74.2620 2197.00 2136.08 47.00
12029 74.2680 2178.00 2136.73 47.00
12030 74.2740 2059.00 2138.05 45.00
12031 74.2800 2262.00 2139.86 48.00
12032 74.2860 2096.00 2142.12 46.00
12033 74.2920 2130.00 2144.69 46.00
12034 74.2980 2103.00 2147.32 46.00
12035 74.3040 2156.00 2149.99 46.00
12036 74.3100 2176.00 2152.70 47.00
12037 74.3160 2116.00 2155.16 46.00
12038 74.3220 2103.00 2157.72 46.00
12039 74.3280 2086.00 2160.35 46.00
12040 74.3340 2127.00 2163.12 46.00
12041 74.3400 2163.00 2166.13 47.00
12042 74.3460 2256.00 2169.34 47.00
12043 74.3520 2250.00 2172.74 47.00
12044 74.3580 2237.00 2176.22 47.00
12045 74.3640 2177.00 2179.42 47.00
12046 74.3700 2128.00 2182.44 46.00
12047 74.3760 2226.00 2184.80 47.00
12048 74.3820 2184.00 2186.66 47.00
12049 74.3880 2186.00 2187.81 47.00
12050 74.3940 2094.00 2188.38 46.00
12051 74.4000 2095.00 2188.60 46.00
12052 74.4060 2101.00 2188.48 46.00
12053 74.4120 2209.00 2188.41 47.00
12054 74.4180 2153.00 2188.63 46.00
12055 74.4240 2122.00 2189.23 46.00
12056 74.4300 2188.00 2190.06 47.00
12057 74.4360 2137.00 2191.09 46.00
12058 74.4420 2079.00 2192.35 46.00
12059 74.4480 2223.00 2193.65 47.00
12060 74.4540 2096.00 2195.05 46.00
12061 74.4600 2110.00 2196.19 46.00
12062 74.4660 2164.00 2197.32 47.00
12063 74.4720 2167.00 2198.52 47.00
12064 74.4780 2142.00 2199.40 46.00
12065 74.4840 2189.00 2200.03 47.00
12066 74.4900 2189.00 2200.14 47.00
12067 74.4960 2073.00 2199.69 46.00
12068 74.5020 2075.00 2198.34 46.00
12069 74.5080 2141.00 2196.06 46.00
12070 74.5140 2196.00 2193.27 47.00
12071 74.5200 2153.00 2190.04 46.00
12072 74.5260 2053.00 2187.04 45.00
12073 74.5320 2119.00 2184.52 46.00
12074 74.5380 2043.00 2182.99 45.00
12075 74.5440 2133.00 2182.63 46.00
12076 74.5500 2263.00 2183.91 48.00
12077 74.5560 2199.00 2186.71 47.00
12078 74.5620 2216.00 2191.26 47.00
12079 74.5680 2205.00 2197.14 47.00
12080 74.5740 2159.00 2204.22 46.00
12081 74.5800 2194.00 2212.22 47.00
12082 74.5860 2202.00 2220.61 47.00
12083 74.5920 2133.00 2228.84 46.00
12084 74.5980 2280.00 2236.37 48.00
12085 74.6040 2260.00 2242.49 48.00
12086 74.6100 2306.00 2247.00 48.00
12087 74.6160 2272.00 2249.64 48.00
12088 74.6220 2236.00 2250.37 47.00
12089 74.6280 2232.00 2249.19 47.00
12090 74.6340 2118.00 2246.54 46.00
12091 74.6400 2168.00 2242.60 47.00
12092 74.6460 2143.00 2237.70 46.00
12093 74.6520 2176.00 2232.53 47.00
12094 74.6580 2099.00 2227.30 46.00
12095 74.6640 2085.00 2222.53 46.00
12096 74.6700 2162.00 2218.56 46.00
12097 74.6760 2211.00 2215.55 47.00
12098 74.6820 2211.00 2213.62 47.00
12099 74.6880 2168.00 2212.41 47.00
12100 74.6940 2237.00 2211.78 47.00
12101 74.7000 2313.00 2211.28 48.00
12102 74.7060 2137.00 2210.68 46.00
12103 74.7120 2247.00 2209.72 47.00
12104 74.7180 2191.00 2207.84 47.00
12105 74.7240 2278.00 2205.16 48.00
12106 74.7300 2164.00 2201.56 47.00
12107 74.7360 2168.00 2197.17 47.00
12108 74.7420 2112.00 2192.22 46.00
12109 74.7480 2144.00 2186.98 46.00
12110 74.7540 2122.00 2181.94 46.00
12111 74.7600 2064.00 2177.44 45.00
12112 74.7660 2107.00 2173.83 46.00
12113 74.7720 2100.00 2171.62 46.00
12114 74.7780 2138.00 2170.79 46.00
12115 74.7840 2154.00 2171.67 46.00
12116 74.7900 2070.00 2174.50 45.00
12117 74.7960 2136.00 2179.23 46.00
12118 74.8020 2109.00 2186.13 46.00
12119 74.8080 2089.00 2194.93 46.00
12120 74.8140 2149.00 2205.58 46.00
12121 74.8200 2175.00 2217.86 47.00
12122 74.8260 2189.00 2231.42 47.00
12123 74.8320 2227.00 2246.01 47.00
12124 74.8380 2216.00 2261.17 47.00
12125 74.8440 2297.00 2276.70 48.00
12126 74.8500 2285.00 2292.30 48.00
12127 74.8560 2306.00 2307.72 48.00
12128 74.8620 2262.00 2322.60 48.00
12129 74.8680 2359.00 2336.71 49.00
12130 74.8740 2328.00 2348.69 48.00
12131 74.8800 2348.00 2358.18 48.00
12132 74.8860 2392.00 2364.16 49.00
12133 74.8920 2392.00 2366.14 49.00
12134 74.8980 2325.00 2363.89 48.00
12135 74.9040 2239.00 2357.46 47.00
12136 74.9100 2323.00 2347.42 48.00
12137 74.9160 2300.00 2334.31 48.00
12138 74.9220 2255.00 2319.07 47.00
12139 74.9280 2301.00 2302.29 48.00
12140 74.9340 2198.00 2284.76 47.00
12141 74.9400 2192.00 2267.09 47.00
12142 74.9460 2167.00 2250.08 47.00
12143 74.9520 2165.00 2234.23 47.00
12144 74.9580 2139.00 2219.56 46.00
12145 74.9640 2176.00 2206.54 47.00
12146 74.9700 2202.00 2195.25 47.00
12147 74.9760 2122.00 2185.77 46.00
12148 74.9820 2101.00 2177.99 46.00
12149 74.9880 2151.00 2171.84 46.00
12150 74.9940 2014.00 2167.15 45.00
12151 75.0000 2113.00 2163.72 46.00
12152 75.0060 2099.00 2161.31 46.00
12153 75.0120 2108.00 2159.86 46.00
12154 75.0180 2143.00 2159.24 46.00
12155 75.0240 2090.00 2159.46 46.00
12156 75.0300 2156.00 2160.67 46.00
12157 75.0360 2097.00 2162.99 46.00
12158 75.0420 2101.00 2166.56 46.00
12159 75.0480 2064.00 2171.45 45.00
12160 75.0540 2087.00 2177.72 46.00
12161 75.0600 2065.00 2185.32 45.00
12162 75.0660 2153.00 2194.10 46.00
12163 75.0720 2139.00 2203.84 46.00
12164 75.0780 2192.00 2214.27 47.00
12165 75.0840 2186.00 2224.80 47.00
12166 75.0900 2168.00 2234.95 47.00
12167 75.0960 2234.00 2244.13 47.00
12168 75.1020 2268.00 2251.78 48.00
12169 75.1080 2294.00 2257.46 48.00
12170 75.1140 2202.00 2260.92 47.00
12171 75.1200 2270.00 2262.18 48.00
12172 75.1260 2277.00 2261.59 48.00
12173 75.1320 2287.00 2259.60 48.00
12174 75.1380 2257.00 2256.83 48.00
12175 75.1440 2255.00 2253.91 47.00
12176 75.1500 2232.00 2251.49 47.00
12177 75.1560 2196.00 2250.13 47.00
12178 75.1620 2245.00 2250.30 47.00
12179 75.1680 2168.00 2252.39 47.00
12180 75.1740 2187.00 2256.79 47.00
12181 75.1800 2198.00 2263.53 47.00
12182 75.1860 2276.00 2272.73 48.00
12183 75.1920 2303.00 2284.30 48.00
12184 75.1980 2234.00 2298.08 47.00
12185 75.2040 2211.00 2313.63 47.00
12186 75.2100 2242.00 2330.42 47.00
12187 75.2160 2270.00 2347.93 48.00
12188 75.2220 2284.00 2365.63 48.00
12189 75.2280 2303.00 2383.14 48.00
12190 75.2340 2323.00 2400.14 48.00
12191 75.2400 2444.00 2416.46 49.00
12192 75.2460 2417.00 2432.03 49.00
12193 75.2520 2371.00 2446.74 49.00
12194 75.2580 2429.00 2460.37 49.00
12195 75.2640 2375.00 2472.78 49.00
12196 75.2700 2427.00 2483.45 49.00
12197 75.2760 2501.00 2492.07 50.00
12198 75.2820 2459.00 2497.78 50.00
12199 75.2880 2443.00 2500.39 49.00
12200 75.2940 2435.00 2499.78 49.00
12201 75.3000 2429.00 2496.09 49.00
12202 75.3060 2397.00 2489.86 49.00
12203 75.3120 2396.00 2481.73 49.00
12204 75.3180 2462.00 2472.51 50.00
12205 75.3240 2368.00 2463.20 49.00
12206 75.3300 2340.00 2454.51 48.00
12207 75.3360 2414.00 2447.13 49.00
12208 75.3420 2411.00 2441.53 49.00
12209 75.3480 2334.00 2437.85 48.00
12210 75.3540 2353.00 2436.08 49.00
12211 75.3600 2413.00 2435.77 49.00
12212 75.3660 2438.00 2436.50 49.00
12213 75.3720 2437.00 2437.38 49.00
12214 75.3780 2373.00 2437.62 49.00
12215 75.3840 2378.00 2436.72 49.00
12216 75.3900 2367.00 2434.34 49.00
12217 75.3960 2377.00 2430.36 49.00
12218 75.4020 2362.00 2424.94 49.00
12219 75.4080 2440.00 2418.36 49.00
12220 75.4140 2368.00 2410.87 49.00
12221 75.4200 2251.00 2402.70 47.00
12222 75.4260 2310.00 2394.40 48.00
12223 75.4320 2348.00 2386.28 48.00
12224 75.4380 2344.00 2378.73 48.00
12225 75.4440 2304.00 2372.11 48.00
12226 75.4500 2288.00 2366.24 48.00
12227 75.4560 2262.00 2361.48 48.00
12228 75.4620 2317.00 2357.55 48.00
12229 75.4680 2278.00 2354.18 48.00
12230 75.4740 2233.00 2351.09 47.00
12231 75.4800 2273.00 2348.26 48.00
12232 75.4860 2282.00 2345.16 48.00
12233 75.4920 2245.00 2341.91 47.00
12234 75.4980 2282.00 2338.47 48.00
12235 75.5040 2351.00 2334.86 48.00
12236 75.5100 2318.00 2331.15 48.00
12237 75.5160 2237.00 2327.44 47.00
12238 75.5220 2218.00 2323.81 47.00
12239 75.5280 2293.00 2320.66 48.00
12240 75.5340 2287.00 2318.12 48.00
12241 75.5400 2207.00 2316.46 47.00
12242 75.5460 2249.00 2315.87 47.00
12243 75.5520 2263.00 2316.82 48.00
12244 75.5580 2218.00 2319.44 47.00
12245 75.5640 2255.00 2323.86 47.00
12246 75.5700 2287.00 2330.10 48.00
12247 75.5760 2277.00 2337.85 48.00
12248 75.5820 2357.00 2346.84 49.00
12249 75.5880 2322.00 2356.68 48.00
12250 75.5940 2279.00 2367.02 48.00
12251 75.6000 2255.00 2377.55 47.00
12252 75.6060 2304.00 2388.21 48.00
12253 75.6120 2383.00 2399.00 49.00
12254 75.6180 2395.00 2410.04 49.00
12255 75.6240 2368.00 2421.47 49.00
12256 75.6300 2415.00 2433.37 49.00
12257 75.6360 2440.00 2445.85 49.00
12258 75.6420 2477.00 2458.90 50.00
12259 75.6480 2499.00 2472.52 50.00
12260 75.6540 2503.00 2486.47 50.00
12261 75.6600 2559.00 2500.90 51.00
12262 75.6660 2612.00 2515.01 51.00
12263 75.6720 2627.00 2528.35 51.00
12264 75.6780 2654.00 2540.11 52.00
12265 75.6840 2721.00 2549.38 52.00
12266 75.6900 2669.00 2555.22 52.00
12267 75.6960 2621.00 2557.10 51.00
12268 75.7020 2680.00 2554.87 52.00
12269 75.7080 2691.00 2548.72 52.00
12270 75.7140 2584.00 2539.23 51.00
12271 75.7200 2464.00 2527.17 50.00
12272 75.7260 2455.00 2513.03 50.00
12273 75.7320 2489.00 2497.19 50.00
12274 75.7380 2490.00 2479.98 50.00
12275 75.7440 2460.00 2461.36 50.00
12276 75.7500 2398.00 2441.82 49.00
12277 75.7560 2382.00 2421.46 49.00
12278 75.7620 2337.00 2400.45 48.00
12279 75.7680 2313.00 2379.12 48.00
12280 75.7740 2315.00 2357.28 48.00
12281 75.7800 2264.00 2335.40 48.00
12282 75.7860 2246.00 2313.21 47.00
12283 75.7920 2278.00 2291.14 48.00
12284 75.7980 2231.00 2269.47 47.00
12285 75.8040 2215.00 2248.57 47.00
12286 75.8100 2242.00 2228.86 47.00
12287 75.8160 2150.00 2210.64 46.00
12288 75.8220 2097.00 2194.19 46.00
12289 75.8280 2145.00 2179.57 46.00
12290 75.8340 2160.00 2166.97 46.00
12291 75.8400 2127.00 2156.40 46.00
12292 75.8460 2094.00 2147.78 46.00
12293 75.8520 2120.00 2141.02 46.00
12294 75.8580 2170.00 2136.01 47.00
12295 75.8640 2157.00 2132.35 46.00
12296 75.8700 2100.00 2129.86 46.00
12297 75.8760 2083.00 2128.48 46.00
12298 75.8820 2107.00 2127.44 46.00
12299 75.8880 2104.00 2126.68 46.00
12300 75.8940 2111.00 2125.91 46.00
12301 75.9000 2159.00 2124.92 46.00
12302 75.9060 2124.00 2123.57 46.00
12303 75.9120 2051.00 2121.80 45.00
12304 75.9180 2014.00 2119.66 45.00
12305 75.9240 2077.00 2117.23 46.00
12306 75.9300 2096.00 2114.72 46.00
12307 75.9360 2044.00 2112.45 45.00
12308 75.9420 2063.00 2110.41 45.00
12309 75.9480 2097.00 2108.94 46.00
12310 75.9540 2132.00 2108.05 46.00
12311 75.9600 2158.00 2107.95 46.00
12312 75.9660 2117.00 2108.50 46.00
12313 75.9720 2078.00 2109.75 46.00
12314 75.9780 2048.00 2111.50 45.00
12315 75.9840 2060.00 2113.80 45.00
12316 75.9900 2075.00 2116.48 46.00
12317 75.9960 2116.00 2119.50 46.00
12318 76.0020 2120.00 2122.68 46.00
12319 76.0080 2098.00 2126.02 46.00
12320 76.0140 2104.00 2129.57 46.00
12321 76.0200 2104.00 2133.39 46.00
12322 76.0260 2111.00 2137.70 46.00
12323 76.0320 2106.00 2142.57 46.00
12324 76.0380 2126.00 2148.12 46.00
12325 76.0440 2135.00 2154.29 46.00
12326 76.0500 2185.00 2161.24 47.00
12327 76.0560 2209.00 2168.80 47.00
12328 76.0620 2152.00 2176.96 46.00
12329 76.0680 2157.00 2185.35 46.00
12330 76.0740 2226.00 2193.98 47.00
12331 76.0800 2270.00 2202.56 48.00
12332 76.0860 2297.00 2210.80 48.00
12333 76.0920 2270.00 2218.38 48.00
12334 76.0980 2298.00 2224.90 48.00
12335 76.1040 2333.00 2230.42 48.00
12336 76.1100 2284.00 2234.88 48.00
12337 76.1160 2219.00 2238.09 47.00
12338 76.1220 2221.00 2241.04 47.00
12339 76.1280 2260.00 2244.09 48.00
12340 76.1340 2321.00 2247.60 48.00
12341 76.1400 2315.00 2252.01 48.00
12342 76.1460 2243.00 2257.85 47.00
12343 76.1520 2270.00 2265.31 48.00
12344 76.1580 2298.00 2274.06 48.00
12345 76.1640 2279.00 2284.09 48.00
12346 76.1700 2337.00 2294.96 48.00
12347 76.1760 2333.00 2306.35 48.00
12348 76.1820 2273.00 2317.29 48.00
12349 76.1880 2248.00 2327.37 47.00
12350 76.1940 2316.00 2336.02 48.00
12351 76.2000 2295.00 2342.97 48.00
12352 76.2060 2272.00 2348.01 48.00
12353 76.2120 2352.00 2351.65 48.00
12354 76.2180 2385.00 2354.07 49.00
12355 76.2240 2315.00 2356.05 48.00
12356 76.2300 2332.00 2357.93 48.00
12357 76.2360 2353.00 2360.04 49.00
12358 76.2420 2335.00 2362.52 48.00
12359 76.2480 2304.00 2365.16 48.00
12360 76.2540 2316.00 2368.04 48.00
12361 76.2600 2269.00 2370.72 48.00
12362 76.2660 2317.00 2372.75 48.00
12363 76.2720 2348.00 2373.74 48.00
12364 76.2780 2324.00 2373.29 48.00
12365 76.2840 2300.00 2371.12 48.00
12366 76.2900 2313.00 2366.98 48.00
12367 76.2960 2299.00 2360.92 48.00
12368 76.3020 2331.00 2352.73 48.00
12369 76.3080 2329.00 2342.67 48.00
12370 76.3140 2294.00 2330.58 48.00
12371 76.3200 2312.00 2316.71 48.00
12372 76.3260 2232.00 2301.39 47.00
12373 76.3320 2191.00 2284.92 47.00
12374 76.3380 2222.00 2268.25 47.00
12375 76.3440 2213.00 2251.88 47.00
12376 76.3500 2225.00 2236.37 47.00
12377 76.3560 2199.00 2222.16 47.00
12378 76.3620 2141.00 2209.47 46.00
12379 76.3680 2256.00 2198.64 47.00
12380 76.3740 2223.00 2189.63 47.00
12381 76.3800 2236.00 2182.43 47.00
12382 76.3860 2176.00 2176.93 47.00
12383 76.3920 2134.00 2172.91 46.00
12384 76.3980 2110.00 2170.22 46.00
12385 76.4040 2111.00 2168.48 46.00
12386 76.4100 2133.00 2167.53 46.00
12387 76.4160 2169.00 2167.26 47.00
12388 76.4220 2173.00 2167.45 47.00
12389 76.4280 2192.00 2168.48 47.00
12390 76.4340 2209.00 2170.37 47.00
12391 76.4400 2228.00 2173.24 47.00
12392 76.4460 2252.00 2177.24 47.00
12393 76.4520 2144.00 2182.74 46.00
12394 76.4580 2208.00 2189.39 47.00
12395 76.4640 2211.00 2197.63 47.00
12396 76.4700 2213.00 2207.32 47.00
12397 76.4760 2207.00 2218.02 47.00
12398 76.4820 2185.00 2229.73 47.00
12399 76.4880 2251.00 2242.06 47.00
12400 76.4940 2237.00 2254.76 47.00
12401 76.5000 2339.00 2267.49 48.00
12402 76.5060 2292.00 2280.09 48.00
12403 76.5120 2281.00 2292.54 48.00
12404 76.5180 2278.00 2304.84 48.00
12405 76.5240 2357.00 2316.75 49.00
12406 76.5300 2390.00 2328.78 49.00
12407 76.5360 2370.00 2340.78 49.00
12408 76.5420 2433.00 2352.68 49.00
12409 76.5480 2438.00 2364.59 49.00
12410 76.5540 2424.00 2376.42 49.00
12411 76.5600 2472.00 2388.03 50.00
12412 76.5660 2351.00 2399.18 48.00
12413 76.5720 2450.00 2409.62 49.00
12414 76.5780 2428.00 2419.06 49.00
12415 76.5840 2392.00 2427.67 49.00
12416 76.5900 2398.00 2434.92 49.00
12417 76.5960 2436.00 2440.89 49.00
12418 76.6020 2359.00 2445.43 49.00
12419 76.6080 2407.00 2448.46 49.00
12420 76.6140 2392.00 2449.67 49.00
12421 76.6200 2409.00 2449.45 49.00
12422 76.6260 2347.00 2447.96 48.00
12423 76.6320 2385.00 2445.41 49.00
12424 76.6380 2438.00 2442.01 49.00
12425 76.6440 2397.00 2438.20 49.00
12426 76.6500 2412.00 2434.11 49.00
12427 76.6560 2391.00 2429.78 49.00
12428 76.6620 2387.00 2425.19 49.00
12429 76.6680 2304.00 2420.43 48.00
12430 76.6740 2370.00 2415.29 49.00
12431 76.6800 2397.00 2409.77 49.00
12432 76.6860 2320.00 2403.80 48.00
12433 76.6920 2339.00 2397.27 48.00
12434 76.6980 2408.00 2389.89 49.00
12435 76.7040 2342.00 2381.42 48.00
12436 76.7100 2380.00 2371.62 49.00
12437 76.7160 2391.00 2360.29 49.00
12438 76.7220 2256.00 2347.48 47.00
12439 76.7280 2340.00 2333.48 48.00
12440 76.7340 2289.00 2318.77 48.00
12441 76.7400 2291.00 2303.88 48.00
12442 76.7460 2314.00 2289.60 48.00
12443 76.7520 2232.00 2276.50 47.00
12444 76.7580 2250.00 2265.03 47.00
12445 76.7640 2153.00 2255.58 46.00
12446 76.7700 2205.00 2248.35 47.00
12447 76.7760 2211.00 2243.42 47.00
12448 76.7820 2289.00 2240.71 48.00
12449 76.7880 2257.00 2239.97 48.00
12450 76.7940 2198.00 2241.05 47.00
12451 76.8000 2268.00 2243.69 48.00
12452 76.8060 2225.00 2247.50 47.00
12453 76.8120 2258.00 2252.15 48.00
12454 76.8180 2290.00 2257.45 48.00
12455 76.8240 2296.00 2263.26 48.00
12456 76.8300 2323.00 2269.56 48.00
12457 76.8360 2345.00 2276.16 48.00
12458 76.8420 2299.00 2282.87 48.00
12459 76.8480 2317.00 2289.67 48.00
12460 76.8540 2402.00 2296.32 49.00
12461 76.8600 2360.00 2302.56 49.00
12462 76.8660 2318.00 2308.14 48.00
12463 76.8720 2381.00 2312.83 49.00
12464 76.8780 2491.00 2316.52 50.00
12465 76.8840 2374.00 2319.06 49.00
12466 76.8900 2375.00 2320.56 49.00
12467 76.8960 2343.00 2321.29 48.00
12468 76.9020 2235.00 2321.43 47.00
12469 76.9080 2349.00 2321.49 48.00
12470 76.9140 2270.00 2321.82 48.00
12471 76.9200 2334.00 2323.00 48.00
12472 76.9260 2270.00 2325.30 48.00
12473 76.9320 2248.00 2329.16 47.00
12474 76.9380 2295.00 2334.49 48.00
12475 76.9440 2280.00 2341.14 48.00
12476 76.9500 2398.00 2349.05 49.00
12477 76.9560 2367.00 2357.78 49.00
12478 76.9620 2451.00 2366.74 50.00
12479 76.9680 2417.00 2375.37 49.00
12480 76.9740 2508.00 2383.07 50.00
12481 76.9800 2487.00 2389.35 50.00
12482 76.9860 2544.00 2393.58 50.00
12483 76.9920 2504.00 2395.41 50.00
12484 76.9980 2450.00 2394.49 49.00
12485 77.0040 2538.00 2390.62 50.00
12486 77.0100 2519.00 2383.67 50.00
12487 77.0160 2319.00 2373.65 48.00
12488 77.0220 2375.00 2360.94 49.00
12489 77.0280 2336.00 2345.59 48.00
12490 77.0340 2397.00 2328.25 49.00
12491 77.0400 2301.00 2309.43 48.00
12492 77.0460 2244.00 2290.15 47.00
12493 77.0520 2201.00 2270.92 47.00
12494 77.0580 2165.00 2252.47 47.00
12495 77.0640 2135.00 2235.32 46.00
12496 77.0700 2279.00 2219.99 48.00
12497 77.0760 2178.00 2206.83 47.00
12498 77.0820 2176.00 2195.95 47.00
12499 77.0880 2188.00 2187.49 47.00
12500 77.0940 2207.00 2181.54 47.00
12501 77.1000 2134.00 2177.95 46.00
12502 77.1060 2180.00 2176.54 47.00
12503 77.1120 2148.00 2177.05 46.00
12504 77.1180 2182.00 2179.32 47.00
12505 77.1240 2169.00 2182.83 47.00
12506 77.1300 2242.00 2187.48 47.00
12507 77.1360 2154.00 2192.77 46.00
12508 77.1420 2230.00 2198.35 47.00
12509 77.1480 2164.00 2203.59 47.00
12510 77.1540 2202.00 2208.19 47.00
12511 77.1600 2217.00 2211.68 47.00
12512 77.1660 2119.00 2214.27 46.00
12513 77.1720 2189.00 2215.84 47.00
12514 77.1780 2198.00 2216.46 47.00
12515 77.1840 2226.00 2216.53 47.00
12516 77.1900 2191.00 2216.66 47.00
12517 77.1960 2255.00 2217.19 47.00
12518 77.2020 2288.00 2218.76 48.00
12519 77.2080 2278.00 2221.93 48.00
12520 77.2140 2295.00 2227.05 48.00
12521 77.2200 2300.00 2234.46 48.00
12522 77.2260 2301.00 2244.33 48.00
12523 77.2320 2331.00 2256.83 48.00
12524 77.2380 2328.00 2271.79 48.00
12525 77.2440 2342.00 2289.20 48.00
12526 77.2500 2375.00 2308.80 49.00
12527 77.2560 2387.00 2330.57 49.00
12528 77.2620 2395.00 2354.24 49.00
12529 77.2680 2328.00 2379.49 48.00
12530 77.2740 2402.00 2405.86 49.00
12531 77.2800 2472.00 2432.87 50.00
12532 77.2860 2498.00 2460.01 50.00
12533 77.2920 2536.00 2486.47 50.00
12534 77.2980 2603.00 2511.72 51.00
12535 77.3040 2468.00 2535.36 50.00
12536 77.3100 2453.00 2556.92 50.00
12537 77.3160 2521.00 2576.49 50.00
12538 77.3220 2509.00 2593.98 50.00
12539 77.3280 2488.00 2609.79 50.00
12540 77.3340 2456.00 2624.24 50.00
12541 77.3400 2585.00 2637.52 51.00
12542 77.3460 2632.00 2649.90 51.00
12543 77.3520 2625.00 2661.04 51.00
12544 77.3580 2636.00 2670.49 51.00
12545 77.3640 2696.00 2677.32 52.00
12546 77.3700 2603.00 2680.74 51.00
12547 77.3760 2605.00 2680.12 51.00
12548 77.3820 2566.00 2675.05 51.00
12549 77.3880 2491.00 2665.60 50.00
12550 77.3940 2510.00 2652.46 50.00
12551 77.4000 2477.00 2636.48 50.00
12552 77.4060 2543.00 2618.68 50.00
12553 77.4120 2564.00 2599.96 51.00
12554 77.4180 2541.00 2581.18 50.00
12555 77.4240 2499.00 2562.88 50.00
12556 77.4300 2493.00 2545.59 50.00
12557 77.4360 2444.00 2529.49 49.00
12558 77.4420 2512.00 2514.78 50.00
12559 77.4480 2558.00 2501.73 51.00
12560 77.4540 2503.00 2490.36 50.00
12561 77.4600 2475.00 2481.18 50.00
12562 77.4660 2489.00 2473.56 50.00
12563 77.4720 2526.00 2467.77 50.00
12564 77.4780 2496.00 2463.26 50.00
12565 77.4840 2511.00 2459.62 50.00
12566 77.4900 2488.00 2456.46 50.00
12567 77.4960 2484.00 2453.34 50.00
12568 77.5020 2478.00 2449.92 50.00
12569 77.5080 2514.00 2445.84 50.00
12570 77.5140 2584.00 2440.54 51.00
12571 77.5200 2513.00 2433.40 50.00
12572 77.5260 2461.00 2423.96 50.00
12573 77.5320 2382.00 2411.82 49.00
12574 77.5380 2381.00 2396.86 49.00
12575 77.5440 2415.00 2379.29 49.00
12576 77.5500 2382.00 2359.75 49.00
12577 77.5560 2389.00 2338.92 49.00
12578 77.5620 2316.00 2317.55 48.00
12579 77.5680 2266.00 2296.23 48.00
12580 77.5740 2288.00 2276.00 48.00
12581 77.5800 2241.00 2257.13 47.00
12582 77.5860 2249.00 2240.04 47.00
12583 77.5920 2260.00 2225.09 48.00
12584 77.5980 2273.00 2212.30 48.00
12585 77.6040 2235.00 2202.03 47.00
12586 77.6100 2189.00 2194.08 47.00
12587 77.6160 2239.00 2188.56 47.00
12588 77.6220 2240.00 2185.35 47.00
12589 77.6280 2183.00 2184.24 47.00
12590 77.6340 2190.00 2184.96 47.00
12591 77.6400 2201.00 2187.14 47.00
12592 77.6460 2162.00 2190.49 46.00
12593 77.6520 2178.00 2194.55 47.00
12594 77.6580 2223.00 2199.00 47.00
12595 77.6640 2212.00 2203.55 47.00
12596 77.6700 2195.00 2208.17 47.00
12597 77.6760 2201.00 2212.73 47.00
12598 77.6820 2202.00 2217.19 47.00
12599 77.6880 2179.00 2221.56 47.00
12600 77.6940 2215.00 2226.01 47.00
12601 77.7000 2282.00 2230.66 48.00
12602 77.7060 2321.00 2235.59 48.00
12603 77.7120 2292.00 2241.05 48.00
12604 77.7180 2244.00 2247.07 47.00
12605 77.7240 2264.00 2253.47 48.00
12606 77.7300 2266.00 2260.25 48.00
12607 77.7360 2345.00 2267.19 48.00
12608 77.7420 2380.00 2273.84 49.00
12609 77.7480 2366.00 2279.77 49.00
12610 77.7540 2372.00 2284.35 49.00
12611 77.7600 2381.00 2287.43 49.00
12612 77.7660 2375.00 2288.62 49.00
12613 77.7720 2337.00 2287.57 48.00
12614 77.7780 2322.00 2284.27 48.00
12615 77.7840 2301.00 2278.79 48.00
12616 77.7900 2264.00 2271.38 48.00
12617 77.7960 2217.00 2262.42 47.00
12618 77.8020 2213.00 2252.38 47.00
12619 77.8080 2209.00 2241.73 47.00
12620 77.8140 2157.00 2231.13 46.00
12621 77.8200 2187.00 2220.98 47.00
12622 77.8260 2193.00 2211.43 47.00
12623 77.8320 2181.00 2202.94 47.00
12624 77.8380 2202.00 2195.53 47.00
12625 77.8440 2157.00 2189.17 46.00
12626 77.8500 2153.00 2183.72 46.00
12627 77.8560 2224.00 2179.34 47.00
12628 77.8620 2191.00 2175.73 47.00
12629 77.8680 2107.00 2172.64 46.00
12630 77.8740 2177.00 2169.60 47.00
12631 77.8800 2238.00 2166.66 47.00
12632 77.8860 2250.00 2163.42 47.00
12633 77.8920 2222.00 2159.65 47.00
12634 77.8980 2182.00 2155.46 47.00
12635 77.9040 2196.00 2150.97 47.00
12636 77.9100 2142.00 2146.36 46.00
12637 77.9160 2140.00 2141.91 46.00
12638 77.9220 2127.00 2137.84 46.00
12639 77.9280 2119.00 2134.36 46.00
12640 77.9340 2161.00 2131.66 46.00
12641 77.9400 2152.00 2129.80 46.00
12642 77.9460 2137.00 2128.95 46.00
12643 77.9520 2163.00 2129.23 47.00
12644 77.9580 2102.00 2130.73 46.00
12645 77.9640 2128.00 2133.61 46.00
12646 77.9700 2177.00 2137.74 47.00
12647 77.9760 2210.00 2143.05 47.00
12648 77.9820 2199.00 2149.39 47.00
12649 77.9880 2197.00 2156.44 47.00
12650 77.9940 2228.00 2163.86 47.00
12651 78.0000 2223.00 2171.28 47.00
12652 78.0060 2262.00 2178.27 48.00
12653 78.0120 2244.00 2184.49 47.00
12654 78.0180 2191.00 2189.83 47.00
12655 78.0240 2140.00 2194.15 46.00
12656 78.0300 2179.00 2197.28 47.00
12657 78.0360 2218.00 2199.38 47.00
12658 78.0420 2200.00 2200.25 47.00
12659 78.0480 2241.00 2199.93 47.00
12660 78.0540 2134.00 2198.57 46.00
12661 78.0600 2173.00 2196.35 47.00
12662 78.0660 2189.00 2193.52 47.00
12663 78.0720 2183.00 2190.37 47.00
12664 78.0780 2153.00 2187.19 46.00
12665 78.0840 2170.00 2184.25 47.00
12666 78.0900 2176.00 2181.85 47.00
12667 78.0960 2167.00 2179.98 47.00
12668 78.1020 2157.00 2179.02 46.00
12669 78.1080 2154.00 2178.75 46.00
12670 78.1140 2168.00 2179.46 47.00
12671 78.1200 2203.00 2181.10 47.00
12672 78.1260 2138.00 2183.60 46.00
12673 78.1320 2128.00 2186.80 46.00
12674 78.1380 2196.00 2190.48 47.00
12675 78.1440 2182.00 2194.56 47.00
12676 78.1500 2227.00 2198.71 47.00
12677 78.1560 2192.00 2202.94 47.00
12678 78.1620 2265.00 2206.71 48.00
12679 78.1680 2216.00 2210.30 47.00
12680 78.1740 2233.00 2213.16 47.00
12681 78.1800 2197.00 2215.28 47.00
12682 78.1860 2177.00 2216.85 47.00
12683 78.1920 2222.00 2217.68 47.00
12684 78.1980 2258.00 2217.89 48.00
12685 78.2040 2312.00 2217.47 48.00
12686 78.2100 2239.00 2216.44 47.00
12687 78.2160 2222.00 2276.39 47.00
loop_
_jana_atom_site_adp_c_label
_jana_atom_site_adp_c_type_symbol
_jana_atom_site_adp_c_111
_jana_atom_site_adp_c_112
_jana_atom_site_adp_c_113
_jana_atom_site_adp_c_122
_jana_atom_site_adp_c_123
_jana_atom_site_adp_c_133
_jana_atom_site_adp_c_222
_jana_atom_site_adp_c_223
_jana_atom_site_adp_c_233
_jana_atom_site_adp_c_333
In1 In 0 0 0 0 0 0 0 0 0 0
loop_
_jana_atom_site_adp_d_label
_jana_atom_site_adp_d_type_symbol
_jana_atom_site_adp_d_1111
_jana_atom_site_adp_d_1112
_jana_atom_site_adp_d_1113
_jana_atom_site_adp_d_1122
_jana_atom_site_adp_d_1123
_jana_atom_site_adp_d_1133
_jana_atom_site_adp_d_1222
_jana_atom_site_adp_d_1223
_jana_atom_site_adp_d_1233
_jana_atom_site_adp_d_1333
_jana_atom_site_adp_d_2222
_jana_atom_site_adp_d_2223
_jana_atom_site_adp_d_2233
_jana_atom_site_adp_d_2333
_jana_atom_site_adp_d_3333
In1 In 0 0 0 0 0 0 0 0 0 0 -2.70(6) 0 0 0 0
