#------------------------------------------------------------------------------
#$Date: 2019-11-08 01:25:52 +0200 (Fri, 08 Nov 2019) $
#$Revision: 224500 $
#$URL: file:///home/coder/svn-repositories/cod/cif/7/70/07/7700721.cif $
#------------------------------------------------------------------------------
#
# This file is available in the Crystallography Open Database (COD),
# http://www.crystallography.net/
#
# All data on this site have been placed in the public domain by the
# contributors.
#
data_7700721
loop_
_publ_author_name
'Lecourt, Constance'
'Madanamoothoo, Warren'
'Ferreol, Vivian'
'B\'elanger-Desmarais, Nicolas'
'Khrouz, Lhoussain'
'Tommasino, Jean-Bernard'
'Reber, Christian'
'Desroches, C\'edric'
'Luneau, Dominique'
_publ_section_title
;
 Mononuclear manganese(iii) complexes with reduced imino nitroxide
 radicals by single-electron transfer and intermolecular hydrogen bonds as
 an intramolecular structural driving force.
;
_journal_issue                   35
_journal_name_full
'Dalton transactions (Cambridge, England : 2003)'
_journal_page_first              13378
_journal_page_last               13387
_journal_paper_doi               10.1039/c9dt02158b
_journal_volume                  48
_journal_year                    2019
_chemical_formula_sum            'C22 H38 F6 Mn N8 O4 P'
_chemical_formula_weight         678.51
_space_group_crystal_system      triclinic
_space_group_IT_number           2
_space_group_name_Hall           '-P 1'
_space_group_name_H-M_alt        'P -1'
_symmetry_space_group_name_Hall  '-P 1'
_symmetry_space_group_name_H-M   'P -1'
_atom_sites_solution_hydrogens   mixed
_audit_creation_date             2019-06-17T17:03:39-00:00
_audit_creation_method           'WinGX routine CIF_UPDATE'
_audit_update_record
;
2019-06-19 deposited with the CCDC.    2019-07-12 downloaded from the CCDC.
;
_cell_angle_alpha                74.747(6)
_cell_angle_beta                 78.582(5)
_cell_angle_gamma                80.791(5)
_cell_formula_units_Z            1
_cell_length_a                   7.3061(4)
_cell_length_b                   8.0232(5)
_cell_length_c                   13.6520(11)
_cell_measurement_reflns_used    3338
_cell_measurement_temperature    293(2)
_cell_measurement_theta_max      28.813
_cell_measurement_theta_min      3.351
_cell_volume                     751.84(9)
_computing_cell_refinement
;
        CrysAlisPro, Agilent Technologies,
        Version 1.171.37.35 (release 13-08-2014 CrysAlis171 .NET)
        (compiled Aug 13 2014,18:06:01)
;
_computing_data_collection
;
        CrysAlisPro, Agilent Technologies,
        Version 1.171.37.35 (release 13-08-2014 CrysAlis171 .NET)
        (compiled Aug 13 2014,18:06:01)
;
_computing_data_reduction
;
        CrysAlisPro, Agilent Technologies,
        Version 1.171.37.35 (release 13-08-2014 CrysAlis171 .NET)
        (compiled Aug 13 2014,18:06:01)
;
_computing_structure_refinement  'SHELXL-2018/3 (Sheldrick, 2018)'
_computing_structure_solution    ' SIR2014 (Burla et al., 2015)'
_diffrn_ambient_temperature      293(2)
_diffrn_detector_area_resol_mean 8.2634
_diffrn_measured_fraction_theta_full 0.999
_diffrn_measured_fraction_theta_max 0.852
_diffrn_measurement_device_type  'Xcalibur, Onyx'
_diffrn_measurement_method       '\w scans'
_diffrn_radiation_monochromator  graphite
_diffrn_radiation_type           MoK\a
_diffrn_radiation_wavelength     0.71073
_diffrn_reflns_av_R_equivalents  0.0258
_diffrn_reflns_av_unetI/netI     0.0383
_diffrn_reflns_Laue_measured_fraction_full 0.999
_diffrn_reflns_Laue_measured_fraction_max 0.852
_diffrn_reflns_limit_h_max       9
_diffrn_reflns_limit_h_min       -9
_diffrn_reflns_limit_k_max       11
_diffrn_reflns_limit_k_min       -11
_diffrn_reflns_limit_l_max       13
_diffrn_reflns_limit_l_min       -17
_diffrn_reflns_number            6674
_diffrn_reflns_point_group_measured_fraction_full 0.999
_diffrn_reflns_point_group_measured_fraction_max 0.852
_diffrn_reflns_theta_full        25
_diffrn_reflns_theta_max         29.376
_diffrn_reflns_theta_min         2.863
_diffrn_source                   'Enhance (Mo) X-ray Source'
_exptl_absorpt_coefficient_mu    0.572
_exptl_absorpt_correction_T_max  1
_exptl_absorpt_correction_T_min  0.88031
_exptl_absorpt_correction_type   multi-scan
_exptl_absorpt_process_details
;
        CrysAlisPro, Agilent Technologies,
        Version 1.171.37.35 (release 13-08-2014 CrysAlis171 .NET)
        (compiled Aug 13 2014,18:06:01)
        Empirical absorption correction using spherical harmonics,
 implemented in SCALE3 ABSPACK scaling algorithm.
;
_exptl_crystal_colour            brown
_exptl_crystal_density_diffrn    1.499
_exptl_crystal_description       needle
_exptl_crystal_F_000             352
_exptl_crystal_size_max          0.1
_exptl_crystal_size_mid          0.05
_exptl_crystal_size_min          0.02
_refine_diff_density_max         0.353
_refine_diff_density_min         -0.329
_refine_diff_density_rms         0.056
_refine_ls_extinction_method     none
_refine_ls_goodness_of_fit_ref   1.048
_refine_ls_hydrogen_treatment    mixed
_refine_ls_matrix_type           full
_refine_ls_number_parameters     201
_refine_ls_number_reflns         3519
_refine_ls_number_restraints     0
_refine_ls_restrained_S_all      1.048
_refine_ls_R_factor_all          0.0543
_refine_ls_R_factor_gt           0.0425
_refine_ls_shift/su_max          0
_refine_ls_shift/su_mean         0
_refine_ls_structure_factor_coef Fsqd
_refine_ls_weighting_details
'w=1/[\s^2^(Fo^2^)+(0.0499P)^2^+0.2854P] where P=(Fo^2^+2Fc^2^)/3'
_refine_ls_weighting_scheme      calc
_refine_ls_wR_factor_ref         0.1113
_reflns_number_gt                2965
_reflns_number_total             3519
_reflns_threshold_expression     'I > 2\s(I)'
_iucr_refine_instructions_details
;
TITL vf16_2 in P -1
    vf16_2.res
    created by SHELXL-2018/3 at 10:40:04 on 16-Jun-2019
CELL  0.71073   7.3061   8.0232  13.6520   74.747   78.582   80.791
ZERR     1.00   0.0004   0.0005   0.0011    0.006    0.005    0.005
LATT   1
SFAC  C    H    F    MN   N    O    P
UNIT  22   38   6    1    8    4    1
MERG   2
FMAP   2
PLAN    3
ACTA    50.00
L.S.  20
WGHT    0.049900    0.285400
FVAR       2.81706
MN    4    0.000000    0.000000    0.000000    10.50000    0.02688    0.02735 =
         0.02267   -0.00055   -0.01120   -0.00565
N1    5    0.146432   -0.214772    0.174107    11.00000    0.03247    0.02975 =
         0.02184    0.00001   -0.01275   -0.00600
N2    5    0.335266   -0.171110    0.267567    11.00000    0.03734    0.04160 =
         0.02657    0.00112   -0.01512   -0.01236
N3    5    0.207736    0.109045    0.024849    11.00000    0.02798    0.02805 =
         0.02478   -0.00316   -0.00810   -0.00414
N4    5    0.451529    0.129450    0.098211    11.00000    0.02831    0.03448 =
         0.03040   -0.00761   -0.00783   -0.00667
O1    6    0.082227   -0.214905    0.087164    11.00000    0.04278    0.02961 =
         0.02545   -0.00203   -0.01838   -0.00670
O2    6   -0.188014    0.074180    0.137942    11.00000    0.03062    0.04809 =
         0.03395   -0.01415   -0.00782   -0.00451
C1    1    0.138941   -0.372912    0.261276    11.00000    0.04089    0.03258 =
         0.02382    0.00360   -0.01089   -0.00989
C2    1    0.218935   -0.303860    0.339328    11.00000    0.04015    0.04116 =
         0.02523    0.00177   -0.01257   -0.01038
C3    1   -0.061006   -0.419450    0.295367    11.00000    0.05578    0.05992 =
         0.03614    0.00034   -0.01062   -0.02896
AFIX  33
H3A   2   -0.063931   -0.521168    0.351354    11.00000   -1.50000
H3B   2   -0.140738   -0.324342    0.317436    11.00000   -1.50000
H3C   2   -0.104805   -0.442274    0.238871    11.00000   -1.50000
AFIX   0
C4    1    0.267914   -0.519530    0.223055    11.00000    0.07455    0.03768 =
         0.03962   -0.00201   -0.01415    0.00189
AFIX  33
H4A   2    0.266531   -0.623676    0.277352    11.00000   -1.50000
H4B   2    0.224898   -0.539340    0.165471    11.00000   -1.50000
H4C   2    0.393645   -0.488036    0.202240    11.00000   -1.50000
AFIX   0
C5    1    0.339157   -0.439108    0.407127    11.00000    0.06697    0.05285 =
         0.04126    0.01101   -0.03085   -0.01304
AFIX  33
H5A   2    0.262496   -0.523473    0.452793    11.00000   -1.50000
H5B   2    0.436908   -0.495967    0.364898    11.00000   -1.50000
H5C   2    0.394267   -0.383606    0.446662    11.00000   -1.50000
AFIX   0
C6    1    0.064622   -0.208706    0.405195    11.00000    0.05443    0.06906 =
         0.03696   -0.01878   -0.00181   -0.01757
AFIX  33
H6A   2   -0.012776   -0.291033    0.452292    11.00000   -1.50000
H6B   2    0.121106   -0.151333    0.443148    11.00000   -1.50000
H6C   2   -0.011165   -0.124122    0.361422    11.00000   -1.50000
AFIX   0
C7    1    0.265878   -0.113629    0.179592    11.00000    0.02447    0.03289 =
         0.02473   -0.00401   -0.00872   -0.00126
C8    1    0.311125    0.039822    0.101140    11.00000    0.02415    0.02949 =
         0.02378   -0.00539   -0.00683   -0.00317
C9    1    0.289753    0.253167   -0.030740    11.00000    0.03656    0.02799 =
         0.02937   -0.00060   -0.00753   -0.00733
AFIX  43
H9    2    0.251451    0.330797   -0.088699    11.00000   -1.20000
AFIX   0
C10   1    0.437968    0.263743    0.013482    11.00000    0.03339    0.03406 =
         0.03449   -0.00478   -0.00442   -0.01254
AFIX  43
H10   2    0.518247    0.350000   -0.010601    11.00000   -1.20000
AFIX   0
C11   1   -0.173774    0.218178    0.177398    11.00000    0.05010    0.07722 =
         0.07152   -0.04429   -0.01056   -0.00666
AFIX  33
H11A  2   -0.269669    0.221771    0.236333    11.00000   -1.50000
H11B  2   -0.052386    0.206037    0.197119    11.00000   -1.50000
H11C  2   -0.189658    0.323898    0.125368    11.00000   -1.50000
AFIX   0
P1    7   -0.500000    0.000000   -0.500000    10.50000    0.04775    0.04875 =
         0.04347   -0.01524   -0.01518   -0.00474
F1    3   -0.421710   -0.116043   -0.579602    11.00000    0.09086    0.11865 =
         0.11277   -0.08232    0.00959   -0.02317
F2    3   -0.363208    0.139337   -0.561339    11.00000    0.09631    0.09511 =
         0.06753   -0.01376   -0.00741   -0.05138
F3    3   -0.344957   -0.093778   -0.432229    11.00000    0.10170    0.09010 =
         0.12973    0.00196   -0.07963   -0.00847
H1N   2    0.377935   -0.097466    0.290649    11.00000    0.04112
H1M   2   -0.302324    0.074182    0.137145    11.00000    0.05708
HKLF    4




REM  vf16_2 in P -1
REM wR2 = 0.1113, GooF = S = 1.048, Restrained GooF = 1.048 for all data
REM R1 = 0.0425 for 2965 Fo > 4sig(Fo) and 0.0543 for all 3519 data
REM 201 parameters refined using 0 restraints

END

WGHT      0.0494      0.2799

REM Highest difference peak  0.353,  deepest hole -0.329,  1-sigma level  0.056
Q1    1  -0.4093 -0.1528 -0.5176  11.00000  0.05    0.35
Q2    1   0.1735 -0.3509  0.3055  11.00000  0.05    0.32
Q3    1  -0.4199 -0.1618 -0.5989  11.00000  0.05    0.30
;
_cod_data_source_file            c9dt02158b2.cif
_cod_data_source_block           vf16_2
_cod_depositor_comments
'Adding full bibliography for 7700721--7700722.cif.'
_cod_database_code               7700721
_iucr_refine_reflections_details
;
   0   0   2 20794.7 286.877   2
   0   0  -2 20793.5 287.650   2
   0   0  -2 21011.1 291.198   1
   0   0   2 21077.8 290.687   1
   0   0   3 64.9461 12.7417   2
   0   0   3 83.2574 15.0903   1
   0   0  -3 80.4722 14.5986   2
   0   0  -3 104.277 17.4124   1
   0   0  -4 2288.96 74.2554   1
   0   0   4 2370.15 70.5538   2
   0   0   4 2407.91 75.4937   1
   0   0  -4 2279.58 70.4574   2
   0   0  -5 8121.27 167.254   1
   0   0   5 7821.38 169.638   1
   0   0  -5 7651.31 162.626   2
   0   0   5 7934.34 161.737   2
   0   0  -6 2.97048 12.2705   2
   0   0   6 9.02397 13.1746   2
   0   0  -6 33.9294 18.4583   1
   0   0   6 4.47732 11.8282   1
   0   0   7 14800.1 292.144   1
   0   0   7 14731.8 276.386   2
   0   0  -7 14597.6 280.062   2
   0   0  -8 1118.98 66.8225   2
   0   0   8 1140.62 65.6755   2
   0   0   8 1117.37 72.4686   1
   0   0  -9 998.324 67.8824   2
   0   0   9 1139.14 77.6656   1
   0   0   9 970.737 64.6070   2
   0   0  10 4076.13 141.457   3
   0   0  10 3948.59 156.388   1
   0   0 -10 3897.03 146.954   2
   0   0  10 3905.85 141.422   2
   0   0  11 2103.45 106.133   2
   0   0  11 1902.50 113.957   1
   0   0 -11 2086.32 111.231   2
   0   0  11 2064.54 102.694   3
   0   0 -12 4265.96 171.551   2
   0   0 -13 74.8161 30.7708   2
   0   0 -14 29.6845 21.0314   2
   0   0 -15 24.2229 32.1240   2
   0   0 -16 9.37275 21.0370   2
   0   0 -17 8.14768 18.8291   2
   0   1 -17 80.9796 43.0272   2
   0   1 -16 196.760 48.2089   2
   0   1 -15 43.9366 27.1069   2
   0   1 -14 907.742 89.3339   2
   0   1 -13 360.409 53.3794   2
   0   1 -12 1017.62 83.0708   2
   0  -1  12 1013.49 78.0382   2
   0  -1  11 2561.01 120.439   2
   0   1 -11 2689.69 129.661   2
   0   1 -10 6314.76 196.324   2
   0   1 -10 6689.99 199.021   1
   0  -1  10 6298.24 211.849   1
   0  -1  10 6210.02 186.583   2
   0  -1   9 2638.52 124.450   1
   0   1  -9 2608.67 113.936   2
   0  -1   9 2655.33 110.684   2
   0   1  -9 2756.40 117.145   1
   0   1  -8 527.554 48.7837   2
   0   1  -8 511.394 47.1733   1
   0  -1   8 531.103 51.8020   1
   0  -1   8 489.709 44.2576   2
   0  -1   7 6053.37 174.525   1
   0  -1   7 6084.14 157.233   2
   0   1  -7 5887.99 160.887   2
   0   1  -7 5873.44 162.440   1
   0  -1   6 939.581 59.4989   1
   0   1  -6 818.038 52.2859   2
   0  -1   6 960.104 54.2981   2
   0   1  -6 864.573 55.1195   1
   0   1  -5 392.441 33.3715   2
   0   1  -5 406.573 34.2460   1
   0  -1   5 393.782 36.0567   1
   0  -1   5 397.947 32.4086   2
   0  -1   4 1812.45 70.0458   1
   0   1  -4 1867.93 68.5224   1
   0   1  -4 1868.96 66.0366   2
   0  -1   4 1869.72 63.4903   2
   0   1  -3 702.228 36.3898   2
   0  -1   3 648.151 34.4506   2
   0   1  -3 703.925 36.6258   1
   0  -1   3 630.644 36.5213   1
   0  -1   2 81337.4 1049.58   1
   0  -1   2 82853.5 1043.78   2
   0   1  -2 81635.5 1044.21   2
   0   1  -2 81555.2 1047.22   1
   0   1  -1 845.839 30.6261   1
   0  -1   1 869.300 30.5020   1
   0  -1   1 831.233 29.5552   2
   0   1  -1 792.488 29.6743   2
   0   1   2 23968.7 327.838   3
   0  -1  -2 24072.4 328.367   3
   0  -1  -3 9187.20 155.129   3
   0   1   3 8863.64 153.025   3
   0  -1  -4 1680.98 60.8441   2
   0   1   4 1681.17 57.1112   3
   0   1   4 1678.89 60.3281   1
   0   1   5 1402.50 60.0885   1
   0  -1  -5 1375.88 60.3724   2
   0   1   5 1480.74 57.6618   3
   0  -1  -6 4053.74 119.425   2
   0   1   6 4254.17 113.418   3
   0   1   6 4288.36 122.310   1
   0   1   7 3983.02 117.356   3
   0  -1  -7 3871.54 123.758   2
   0   1   7 3972.68 126.664   1
   0  -1  -8 3899.02 131.806   2
   0   1   8 3817.88 132.416   1
   0   1   8 4259.31 127.487   3
   0  -1  -9 30.7519 16.0224   2
   0   1   9 39.1067 16.8892   1
   0   1   9 35.4025 17.2583   3
   0   1  10 53.8061 21.7757   1
   0  -1 -10 43.0328 22.5675   2
   0   1  10 83.5044 20.6774   3
   0   1  11 202.153 36.2325   1
   0   1  11 202.553 35.0371   3
   0  -1 -11 244.046 39.6231   2
   0  -1 -12 1720.34 104.817   2
   0  -1 -13 463.573 58.2432   2
   0  -1 -14-16.2702 19.2607   2
   0  -1 -15 66.2326 28.1617   2
   0  -1 -16 216.795 46.2240   2
   0  -1 -17 5.75644 21.4604   2
   0   2 -16 516.197 70.4659   2
   0   2 -15 181.780 43.7492   2
   0   2 -14 1164.05 99.7606   2
   0   2 -13 356.346 53.8866   2
   0  -2  12 172.129 32.6659   2
   0   2 -12 171.143 35.4385   2
   0  -2  11 55.9455 22.5860   2
   0   2 -11 37.9688 21.2814   2
   0   2 -11 84.5322 33.3726   1
   0   2 -10 5701.27 191.351   2
   0  -2  10 5342.89 197.549   1
   0  -2  10 5275.26 173.726   2
   0   2 -10 5677.54 185.582   1
   0  -2   9 2062.84 99.4852   2
   0   2  -9 2110.38 107.543   2
   0  -2   9 2178.86 114.852   1
   0   2  -9 2019.73 100.902   1
   0   2  -8 3659.46 134.352   2
   0  -2   8 3447.30 125.239   2
   0   2  -8 3592.92 131.511   1
   0  -2   8 3736.60 144.354   1
   0  -2   7 491.767 48.2506   1
   0  -2   7 562.681 44.9730   2
   0   2  -7 552.176 48.5944   2
   0   2  -7 518.896 47.1404   1
   0   2  -6 193.514 28.7675   2
   0  -2   6 184.742 29.0845   1
   0  -2   6 139.785 22.6043   2
   0   2  -6 128.611 21.6196   1
   0  -2   5 1549.00 75.5527   1
   0  -2   5 1656.53 69.5902   2
   0   2  -5 1622.64 72.4888   2
   0   2  -5 1645.28 71.7904   1
   0  -2   4 5341.05 128.091   2
   0   2  -4 5246.02 134.532   1
   0  -2   4 5003.48 133.095   1
   0   2  -4 5428.93 132.398   2
   0  -2   3 5004.69 119.054   2
   0   2  -3 5029.23 119.591   2
   0  -2   3 4892.41 123.394   1
   0   2  -3 4999.30 119.816   1
   0  -2   2 1884.20 62.3807   2
   0  -2   2 1929.77 66.1558   1
   0   2  -2 2027.63 64.7206   1
   0  -2   1 373.994 23.8109   3
   0  -2   1 386.072 26.7094   2
   0  -2   1 419.862 26.5106   1
   0   2  -1 395.867 26.0022   1
   0   2   0 688.364 32.5118   1
   0   2   0 599.243 28.7913   3
   0  -2   0 639.794 29.7478   3
   0  -2  -1 8349.95 142.234   3
   0   2   1 8520.87 143.385   3
   0   2   2 2539.23 65.0254   3
   0  -2  -2 2481.59 65.7792   3
   0   2   3 8219.23 148.866   3
   0  -2  -3 7891.92 152.913   3
   0   2   4 450.376 30.3912   3
   0  -2  -4 400.515 31.8966   3
   0  -2  -5 486.227 35.6884   3
   0   2   5 496.479 37.2040   3
   0  -2  -6 7488.70 173.450   2
   0   2   6 7271.71 165.506   3
   0   2   7 474.908 40.9958   3
   0  -2  -7 490.429 44.6132   2
   0   2   7 529.015 44.9085   1
   0   2   8 7920.91 195.324   3
   0  -2  -8 7929.16 202.408   2
   0   2   8 8495.07 206.705   1
   0   2   9 83.0085 21.8782   3
   0   2   9 72.0989 22.0363   1
   0  -2  -9 22.3759 14.1190   2
   0   2  10 58.3794 22.0487   1
   0   2  10 102.227 26.4060   3
   0  -2 -10 61.8314 24.3296   2
   0   2  11 591.003 60.8015   1
   0   2  11 723.820 59.9710   3
   0  -2 -11 679.674 63.9693   2
   0  -2 -12 34.3419 23.5972   2
   0  -2 -13 572.142 66.7123   2
   0  -2 -14 867.580 83.1311   2
   0  -2 -15-20.1669 23.1077   2
   0  -2 -16 284.737 56.8740   2
   0  -2 -17 5.66916 24.6814   2
   0   3 -15 541.923 69.9540   2
   0   3 -14 894.864 88.7045   2
   0   3 -13 250.418 47.6892   2
   0   3 -12 876.450 83.1512   2
   0   3 -12 893.108 83.6631   1
   0   3 -11 16.8397 22.1231   1
   0   3 -11 29.3263 22.9353   2
   0  -3  11 10.3123 13.0479   2
   0   3 -10 1652.06 99.3923   1
   0   3 -10 1666.89 102.742   2
   0  -3  10 1589.34 92.8081   2
   0   3  -9 1215.11 82.5313   1
   0   3  -9 1235.76 83.2497   2
   0  -3   9 1222.87 90.0189   1
   0  -3   9 1161.67 77.0781   2
   0  -3   8 1990.71 94.7085   2
   0   3  -8 1870.99 100.012   2
   0   3  -8 2098.26 100.909   1
   0  -3   8 1866.72 106.976   1
   0   3  -7 115.656 26.1026   1
   0  -3   7 143.839 31.0037   1
   0  -3   7 123.066 25.2527   2
   0   3  -7 101.245 24.5328   2
   0  -3   6 5412.78 154.685   2
   0  -3   6 5794.23 176.398   1
   0   3  -6 5928.83 165.454   1
   0   3  -6 5807.99 165.805   2
   0   3  -5 79.8070 21.5130   2
   0   3  -5 43.9305 14.9299   1
   0  -3   5 68.3402 15.8149   2
   0  -3   5 73.8441 21.1010   1
   0   3  -4 5820.71 150.533   1
   0   3  -4 5651.37 150.441   2
   0  -3   4 6566.90 156.602   2
   0  -3   4 5525.76 153.358   1
   0  -3   3 27315.0 449.054   1
   0  -3   3 28888.3 441.789   2
   0   3  -3 28274.5 441.662   1
   0  -3   3 29438.8 432.114   3
   0  -3   2 17288.3 298.224   1
   0  -3   2 17234.3 296.392   2
   0   3  -2 19267.7 301.055   1
   0  -3   2 16944.7 281.750   3
   0   3  -1 6264.87 137.383   1
   0   3  -1 6216.14 132.168   3
   0  -3   1 6179.45 129.871   3
   0  -3   0 4068.99 99.3688   3
   0   3   0 3927.13 97.2249   3
   0   3   0 4251.61 104.217   1
   0   3   1 118.820 17.5734   3
   0  -3  -1 134.995 17.9143   3
   0   3   2 101.112 15.9356   3
   0  -3  -2 111.347 17.0585   3
   0   3   3 969.405 45.5937   3
   0  -3  -3 855.246 44.6246   3
   0  -3  -4 1977.25 71.5467   3
   0   3   4 1825.81 68.7802   3
   0   3   5 1756.69 69.6712   3
   0  -3  -5 1981.94 76.7576   3
   0   3   6 17918.7 307.597   3
   0  -3  -6 17019.2 311.227   3
   0  -3  -7 22.4721 15.3507   3
   0   3   7 28.4236 13.7964   3
   0  -3  -7 34.9144 17.3161   2
   0  -3  -8 13461.8 296.917   2
   0   3   8 14571.2 282.214   3
   0  -3  -9 1.61089 16.2150   2
   0   3   9 20.8993 16.4537   3
   0   3   9 24.9864 20.3225   1
   0  -3 -10-0.73069 18.0578   2
   0   3  10 25.3777 19.0358   1
   0   3  10 35.7066 17.1302   3
   0  -3 -11 32.1325 22.7931   2
   0   3  11 17.0777 13.8490   3
   0   3  11 40.4696 17.6767   1
   0  -3 -12 165.479 38.4449   2
   0  -3 -13 9.04480 18.5754   2
   0  -3 -14 223.965 44.0639   2
   0  -3 -15 74.2867 27.3627   2
   0  -3 -16 258.375 50.3533   2
   0  -3 -17 196.815 49.4379   2
   0   4 -14 398.639 62.9368   2
   0   4 -13 941.288 88.8783   2
   0   4 -13 972.298 92.2498   1
   0   4 -12 810.981 80.6864   2
   0   4 -12 767.849 76.8463   1
   0   4 -11 180.791 38.7086   2
   0   4 -11 147.851 34.8424   1
   0   4 -10 742.446 69.4656   1
   0   4 -10 850.583 77.1180   2
   0  -4  10 695.773 63.6892   2
   0   4  -9 109.013 26.2717   1
   0   4  -9 149.388 33.1788   2
   0  -4   9 79.6887 22.5823   2
   0  -4   8 4162.75 169.064   1
   0   4  -8 4439.30 163.190   2
   0  -4   8 4229.91 151.754   2
   0   4  -8 4289.35 158.645   1
   0   4  -7 1407.38 86.0908   2
   0  -4   7 1403.19 91.7806   1
   0   4  -7 1438.25 85.7877   1
   0  -4   7 1393.25 80.4112   2
   0  -4   6 1765.62 88.9480   2
   0   4  -6 1833.88 92.5599   1
   0  -4   6 1898.26 88.9603   3
   0  -4   6 1761.82 97.3608   1
   0  -4   5 2172.72 104.386   1
   0  -4   5 2066.15 94.5566   2
   0   4  -5 2202.14 97.1278   1
   0  -4   5 2250.36 91.8697   3
   0  -4   4 2281.41 100.762   1
   0  -4   4 2263.18 87.6532   3
   0  -4   4 2257.20 94.9210   2
   0   4  -4 2137.30 91.6833   1
   0   4  -3 4556.26 132.053   1
   0  -4   3 4456.74 123.503   3
   0  -4   3 4337.16 136.258   1
   0  -4   3 4639.80 135.055   2
   0  -4   2 6107.62 145.156   3
   0   4  -2 6184.04 153.511   1
   0  -4   2 5935.40 156.552   1
   0  -4   2 6066.61 157.178   2
   0   4  -1 16576.9 282.548   1
   0  -4   1 15201.4 270.890   3
   0   4  -1 14922.0 271.010   3
   0  -4   0 398.866 31.7243   3
   0   4   0 434.332 34.5997   3
   0   4   0 426.123 35.1727   1
   0   4   1 747.882 44.1703   3
   0  -4  -1 710.026 43.5340   3
   0  -4  -2 361.130 31.4952   3
   0   4   2 421.947 33.3836   3
   0   4   3 446.277 36.0828   3
   0  -4  -3 382.456 34.9238   3
   0   4   4 2351.00 84.7687   3
   0  -4  -4 2148.44 84.2681   3
   0   4   5 321.671 32.2661   3
   0  -4  -5 331.647 33.4838   3
   0   4   6 17497.7 320.876   3
   0  -4  -6 17892.6 326.487   3
   0   4   7 31.6344 14.7590   3
   0  -4  -7 16.0615 15.2978   3
   0   4   8 588.952 52.5213   3
   0  -4  -8 656.585 54.9658   3
   0  -4  -9 129.410 30.6162   2
   0  -4  -9 145.270 30.4868   3
   0   4   9 173.072 32.7356   3
   0   4  10 3096.22 125.454   3
   0  -4 -10 3002.77 138.708   2
   0   4  10 2875.67 127.417   1
   0  -4 -11 48.2428 27.0750   2
   0  -4 -12 1021.05 85.8704   2
   0  -4 -13 278.895 51.7116   2
   0  -4 -14 336.920 55.4033   2
   0  -4 -15-11.5754 28.8143   2
   0  -4 -16-3.56314 21.9792   2
   0  -4 -17 77.8680 27.9120   2
   0  -5  13 106.382 32.7402   3
   0   5 -13 161.917 43.2129   1
   0   5 -12 769.996 79.9011   1
   0  -5  12 913.430 81.7113   3
   0  -5  11 324.296 46.9365   3
   0   5 -11 308.611 50.7206   1
   0   5 -10 591.277 63.2790   1
   0  -5  10 659.903 64.5661   3
   0  -5   9-9.30509 16.8584   2
   0  -5   9-2.25058 16.2267   3
   0   5  -9 16.2515 17.2506   1
   0  -5   8 472.461 50.3175   3
   0   5  -8 369.646 46.9712   1
   0  -5   8 454.495 52.5431   2
   0  -5   7 47.3149 19.1433   2
   0  -5   7 38.4728 20.9041   1
   0   5  -7 20.9451 16.4939   1
   0  -5   7 22.4233 21.3451   3
   0  -5   6-20.3418 18.7368   3
   0  -5   6 16.2851 15.9614   1
   0   5  -6-4.41020 18.1318   1
   0  -5   6 19.4057 14.8874   2
   0   5  -5 124.487 27.5601   1
   0  -5   5 115.409 28.1859   1
   0  -5   5 152.736 29.1938   2
   0  -5   5 175.880 27.3772   3
   0   5  -4 1300.59 75.9314   1
   0  -5   4 1314.80 81.7123   1
   0  -5   4 1271.04 76.6863   2
   0  -5   4 1215.09 67.9739   3
   0   5  -3 363.785 38.7681   1
   0  -5   3 409.757 38.8226   3
   0  -5   3 372.200 40.9469   2
   0  -5   2 820.404 59.0743   2
   0   5  -2 790.075 54.4335   1
   0  -5   2 813.126 53.3461   3
   0   5  -1 1353.96 70.2259   1
   0  -5   1 1276.91 65.2689   3
   0  -5   0 487.859 39.6490   3
   0   5   0 506.178 40.8870   3
   0   5   0 473.037 41.9592   1
   0   5   1 15.1564 15.3051   1
   0   5   1 20.1546 12.3016   3
   0  -5  -1 4.17909 11.0288   3
   0  -5  -2 4.06489 11.6467   3
   0   5   2 11.6839 11.4589   3
   0  -5  -3 1850.08 79.9722   3
   0   5   3 1908.40 84.1146   3
   0  -5  -4 4229.46 128.584   3
   0   5   4 4353.82 130.772   3
   0   5   5 5.46878 12.1598   3
   0  -5  -5 24.6566 13.1638   3
   0   5   6 1627.73 80.6618   3
   0  -5  -6 1572.49 80.9441   3
   0  -5  -7 154.440 28.5895   3
   0   5   7 118.497 25.5412   3
   0   5   8 1008.16 71.0253   3
   0  -5  -8 1094.89 74.9296   3
   0   5   9 1913.78 97.3861   3
   0  -5  -9 1705.82 98.7376   3
   0  -5 -10 2070.71 118.578   2
   0  -5 -10 2264.82 119.242   3
   0  -5 -11 1318.84 96.6664   2
   0  -5 -12 1287.09 100.008   2
   0  -5 -13 218.955 44.4626   2
   0  -5 -14 520.021 71.5266   2
   0  -5 -15 51.6426 29.0930   2
   0  -5 -16 136.928 44.3755   2
   0   6 -12 109.591 38.1413   1
   0  -6  11 163.514 37.0081   3
   0   6 -11 209.093 43.3878   1
   0   6 -10 205.639 41.0522   1
   0  -6  10 226.050 40.1745   3
   0   6  -9 145.278 33.7586   1
   0  -6   9 153.433 36.8491   3
   0   6  -8 563.631 61.5032   1
   0  -6   8 540.076 55.7785   3
   0   6  -7 21.3706 19.4197   1
   0  -6   7-5.04573 14.9741   2
   0  -6   7 11.6957 17.2244   3
   0  -6   6 189.788 32.8663   3
   0  -6   6 198.046 35.8933   2
   0   6  -6 179.756 33.1385   1
   0  -6   6 231.387 43.3506   1
   0  -6   5 555.300 56.2215   2
   0  -6   5 550.052 59.2739   1
   0   6  -5 580.104 55.9320   1
   0  -6   5 629.188 54.1319   3
   0  -6   4 1117.01 79.5250   2
   0  -6   4 1164.10 71.7437   3
   0   6  -4 1102.46 74.8604   1
   0  -6   3-1.32891 12.5270   3
   0  -6   3-3.96582 15.2257   2
   0   6  -3 21.0972 12.8225   1
   0  -6   2 4.82380 13.6413   3
   0  -6   2 1.17287 13.1245   2
   0   6  -2 7.18975 12.6057   1
   0  -6   1 312.602 36.8096   3
   0   6  -1 390.711 41.2704   1
   0  -6   1 264.572 38.6848   2
   0  -6   0 76.6644 20.2110   3
   0   6   0 83.4990 22.0696   1
   0   6   0 76.9786 18.0415   3
   0  -6  -1 4.41057 12.2674   3
   0   6   1 9.66067 16.7383   1
   0   6   1-12.5246 12.5789   3
   0  -6  -2 698.935 55.2297   3
   0   6   2 884.530 60.4222   3
   0   6   2 899.381 64.1434   1
   0  -6  -3 343.035 38.3962   3
   0   6   3 377.900 40.2197   3
   0   6   4 3813.33 134.430   3
   0  -6  -4 3805.56 130.481   3
   0   6   5 770.564 58.5984   3
   0  -6  -5 672.752 55.3321   3
   0  -6  -6 326.564 41.4472   3
   0   6   6 391.710 43.3181   3
   0   6   7 653.468 56.8873   3
   0  -6  -7 583.240 54.4940   3
   0  -6  -8 1070.86 80.2041   3
   0  -6  -9 564.742 61.6693   3
   0  -6 -10 377.805 49.6512   3
   0  -6 -11 509.461 61.4658   3
   0  -6 -11 495.170 65.7004   2
   0  -6 -12 792.389 81.2601   2
   0  -6 -13 177.780 43.8114   2
   0  -6 -14 1083.84 103.970   2
   0  -6 -15 219.947 55.1270   2
   0   7 -10 165.367 39.7150   1
   0   7  -9 112.251 31.0819   1
   0  -7   9 167.450 34.6727   3
   0   7  -8 103.813 26.7874   1
   0  -7   8 190.112 37.5076   3
   0  -7   7 247.521 38.7517   3
   0   7  -7 192.575 38.9247   1
   0   7  -6 813.322 73.1757   1
   0  -7   6 772.006 65.8625   3
   0   7  -5 128.131 29.3834   1
   0  -7   5 102.253 29.7707   2
   0  -7   5 113.088 27.1713   3
   0   7  -4 673.338 62.5579   1
   0  -7   4 696.584 60.3339   3
   0  -7   4 669.283 65.0555   2
   0  -7   3 574.206 61.5148   2
   0   7  -3 716.435 62.7277   1
   0  -7   3 652.877 56.5950   3
   0  -7   2 2605.68 129.601   2
   0  -7   2 2745.60 114.623   3
   0   7  -2 2809.17 122.038   1
   0  -7   1-16.1525 18.4883   3
   0  -7   1 21.6700 17.6417   2
   0   7  -1-19.6471 16.8144   1
   0  -7   0 354.570 40.3733   3
   0   7   0 440.302 45.8062   1
   0   7   0 408.044 45.3943   3
   0   7   1 16.3083 14.8256   3
   0   7   1 33.3378 15.6262   1
   0  -7  -1 46.0960 16.3053   3
   0  -7  -2 1152.54 72.9069   3
   0   7   2 1136.70 75.1322   3
   0   7   2 1069.03 74.6544   1
   0   7   3 2002.81 103.257   1
   0   7   3 1888.37 97.5189   3
   0  -7  -3 1734.77 92.4710   3
   0   7   4 2853.37 123.838   3
   0  -7  -4 2988.21 123.060   3
   0  -7  -5 140.643 29.7981   3
   0   7   5 61.5030 23.0490   3
   0  -7  -6 711.596 62.0542   3
   0  -7  -7 354.971 45.5134   3
   0  -7  -8 800.314 71.5227   3
   0  -7  -9 1245.82 92.7901   3
   0  -7 -10 795.775 77.3213   3
   0  -7 -11 78.4773 31.4107   2
   0  -7 -11 53.2304 26.2066   3
   0  -7 -12 209.582 48.2038   2
   0  -7 -13-0.92255 27.0332   2
   0  -7 -14 321.562 62.4382   2
   0   8  -8 76.1433 30.1941   1
   0  -8   7 65.4133 25.3033   3
   0   8  -7 24.9509 21.5691   1
   0  -8   6 315.976 44.1211   3
   0   8  -6 250.223 44.3456   1
   0  -8   5 176.088 34.3311   3
   0   8  -5 139.420 33.4460   1
   0  -8   4 1205.84 83.0415   3
   0   8  -4 1194.04 87.9287   1
   0  -8   3 787.200 65.6155   3
   0   8  -3 744.904 67.8919   1
   0  -8   2 1986.33 103.477   3
   0   8  -2 1818.68 104.169   1
   0   8  -1 645.614 61.1389   1
   0  -8   1 786.732 66.4457   3
   0   8   0 1197.31 82.7193   1
   0  -8   0 1265.33 81.3562   3
   0   8   1 573.930 57.0107   1
   0  -8  -1 574.968 57.4183   3
   0   8   2 562.595 57.8597   1
   0  -8  -2 543.648 57.1529   3
   0  -8  -3 9.60350 17.0901   3
   0   8   3-15.4001 15.5866   1
   0  -8  -4 1977.46 106.600   3
   0   8   4 1995.86 111.164   1
   0  -8  -5 614.971 61.6006   3
   0  -8  -6 612.306 63.5085   3
   0  -8  -7 358.294 51.4533   3
   0  -8  -8 812.105 76.7978   3
   0  -8  -9 871.505 83.0995   3
   0  -8 -10 901.906 84.8644   3
   0  -8 -11 260.340 50.9273   3
   0  -8 -12 201.438 49.1625   3
   0  -8 -12 110.942 39.3848   2
   0  -9   5 151.089 33.8101   3
   0  -9   4 32.1375 19.7608   3
   0  -9   3 105.798 28.7653   3
   0   9  -3 51.9475 20.4887   1
   0  -9   2 534.411 57.4191   3
   0   9  -2 471.943 55.3448   1
   0   9  -1 341.412 47.1867   1
   0  -9   1 444.171 54.1349   3
   0   9   0 713.848 67.1808   1
   0  -9   0 882.474 73.7961   3
   0  -9  -1 15.8241 16.9662   3
   0   9   1 13.4580 16.3485   1
   0   9   2 531.713 59.7150   1
   0  -9  -2 494.418 55.7275   3
   0  -9  -3-2.25308 21.9129   3
   0   9   3 7.06367 16.3372   1
   0  -9  -4-1.86683 18.4571   3
   0   9   4-9.77203 21.3661   1
   0  -9  -5 328.205 49.4104   3
   0   9   5 344.159 53.7120   1
   0  -9  -6 540.890 65.4805   3
   0  -9  -7 174.872 39.2073   3
   0  -9  -8 264.173 49.8394   3
   0  -9  -9 151.638 38.5759   3
   0  -9 -10 561.780 70.7179   3
   0  -9 -11 87.0224 34.7625   3
   0 -10   2 79.5543 27.4540   3
   0 -10   1 11.5002 14.8910   3
   0 -10   0 239.087 42.7426   3
   0 -10  -1 81.5295 31.9950   3
   0 -10  -2 175.292 37.4424   3
   0 -10  -3 5.64601 17.6868   3
   0 -10  -4 54.0896 24.5659   3
   0 -10  -5-29.3125 26.1725   3
   0  10   5-17.5646 17.5358   1
   0  10   6 492.689 64.3604   1
   0 -10  -6 473.439 61.5802   3
   0  10   7 132.211 38.5143   1
   0 -10  -7 36.1499 21.1954   3
   0 -10  -8 135.215 37.2673   3
   1 -10  -6 1.11241 21.5536   3
   1 -10  -5 7.31770 17.1087   3
   1 -10  -4 58.8141 30.5825   3
   1 -10  -3 688.365 75.5023   3
   1 -10  -2 329.995 51.4759   3
   1 -10  -1 673.513 73.9758   3
   1 -10   0 184.515 39.9336   3
   1 -10   1 167.177 40.1855   3
   1 -10   2 49.4504 27.4927   3
   1  -9  -9 655.979 76.3142   3
   1  -9  -8 55.0776 27.2239   3
   1  -9  -7 397.057 57.3352   3
   1  -9  -6 157.178 38.5256   3
  -1   9   5 175.638 35.8799   1
   1  -9  -5 283.758 52.0866   3
  -1   9   4-21.1656 15.5653   1
   1  -9  -4-33.3051 21.0991   3
  -1   9   3 706.424 62.8854   1
   1  -9  -3 739.475 73.4608   3
  -1   9   2 433.940 48.3501   1
   1  -9  -2 514.799 62.3502   3
   1  -9  -1 1394.41 99.3796   3
   1  -9   0 1101.59 89.4313   3
   1  -9   1 988.410 83.4281   3
   1  -9   2 32.9753 22.6707   3
   1  -9   3 62.2229 24.2431   3
   1  -9   4 89.4803 28.7441   3
   1  -9   5 198.702 39.3701   3
   1  -9   6 38.2075 19.4480   3
   1  -8 -12 99.1979 35.4816   3
   1  -8 -11 1179.95 101.421   3
   1  -8 -10 120.708 37.5531   3
   1  -8  -9 220.353 45.6523   3
   1  -8  -8 151.913 39.5486   3
   1  -8  -7 485.223 63.0834   3
   1  -8  -6 111.327 26.6163   3
   1  -8  -5 159.007 34.4213   3
   1  -8  -4 0.59942 16.9969   3
  -1   8   4 45.3544 23.4242   1
   1  -8  -3 21.7779 23.8038   3
  -1   8   3 32.5815 15.3573   1
  -1   8   2 103.502 23.3140   1
   1  -8  -2 157.198 34.3437   3
   1  -8  -1 882.541 73.6334   3
  -1   8   1 770.368 60.2598   1
   1  -8   0 101.154 29.3778   3
  -1   8   0 59.6746 18.6829   1
  -1   8  -1 611.716 52.0179   1
   1  -8   1 633.752 66.1253   3
   1  -8   2 13.6943 19.2830   3
  -1   8  -2 1.40284 14.4265   1
  -1   8  -3 368.690 43.9413   1
   1  -8   3 408.662 50.2849   3
   1  -8   4 9.05592 16.8143   3
  -1   8  -4 47.3490 18.3007   1
   1  -8   5 280.269 43.8576   3
  -1   8  -5 214.376 37.5309   1
   1  -8   6 125.365 33.3443   3
   1  -8   7 147.514 36.0639   3
   1  -8   8 43.0022 29.8017   3
   1  -7 -13 397.492 66.2082   2
   1  -7 -12 84.2579 33.5177   2
   1  -7 -12 75.1651 29.7097   3
   1  -7 -11 275.651 51.2941   3
   1  -7 -10 274.010 50.4927   3
   1  -7  -9 710.622 74.1602   3
   1  -7  -8 113.889 30.9765   3
   1  -7  -7 296.932 46.0701   3
   1  -7  -6 358.801 48.2071   3
   1  -7  -5 24.9763 15.6368   3
   1  -7  -4 24.0687 19.9286   3
   1  -7  -3 327.107 43.4366   3
  -1   7   3 368.232 40.2852   1
   1  -7  -2 166.488 31.8547   3
  -1   7   2 131.939 25.9958   1
   1  -7  -1 50.6756 19.0378   3
  -1   7   1 102.997 24.0224   1
  -1   7   0 590.692 48.2590   1
   1  -7   0 567.451 55.3816   3
  -1   7  -1 577.003 47.5827   1
   1  -7   1 635.767 58.3583   3
   1  -7   2 95.9684 28.5833   3
  -1   7  -2 74.4866 19.1183   1
  -1   7  -3-19.2558 17.5848   1
   1  -7   3-11.3040 14.6942   3
  -1   7  -4 101.122 24.0127   1
   1  -7   4 94.5681 30.9325   3
  -1   7  -5 1152.79 76.6056   1
   1  -7   5 1183.63 86.0250   3
  -1   7  -6 107.173 27.6761   1
   1  -7   6 114.512 30.6607   3
  -1   7  -7 37.7180 16.1366   1
   1  -7   7-10.4611 20.8746   3
   1  -7   8 35.3431 24.2012   3
  -1   7  -8 64.6145 20.8698   1
  -1   7  -9 152.376 34.1936   1
   1  -7   9 225.539 42.0659   3
   1  -7  10 29.5170 19.9834   3
   1  -6 -15 438.781 76.2160   2
   1  -6 -14 54.9128 24.4164   2
   1  -6 -13 231.203 50.6098   2
   1  -6 -12 20.8742 20.3981   3
   1  -6 -12 10.6507 21.3522   2
   1  -6 -11 227.822 41.2920   3
   1  -6 -10 235.824 42.3680   3
   1  -6  -9 1739.97 106.129   3
   1  -6  -8 486.584 55.5296   3
   1  -6  -7 53.3546 18.1547   3
  -1   6   6 311.610 41.8429   3
   1  -6  -6 211.927 34.3982   3
   1  -6  -5 1770.96 92.8504   3
  -1   6   5 1756.41 94.2545   3
  -1   6   4 70.6257 22.0608   3
   1  -6  -4 44.3632 20.0241   3
  -1   6   3 1780.95 95.1201   3
   1  -6  -3 1938.48 94.8052   3
   1  -6  -2 1445.45 81.0111   3
  -1   6   2 1436.08 81.6634   3
  -1   6   2 1515.05 73.1379   1
  -1   6   1 1873.57 94.6182   3
   1  -6  -1 1732.33 89.8904   3
  -1   6   1 1709.55 77.4838   1
  -1   6   0 239.901 28.5567   1
   1  -6   0 171.347 28.7380   3
  -1   6   0 190.935 32.4170   3
   1  -6   1 62.1405 24.2539   2
  -1   6  -1 45.1944 15.6591   1
   1  -6   1 45.3080 18.6144   3
  -1   6  -2 260.186 31.0424   1
   1  -6   2 239.463 39.8670   2
   1  -6   2 248.997 34.6673   3
  -1   6  -3 2792.13 108.132   1
   1  -6   3 3031.77 125.028   3
   1  -6   3 2738.99 130.786   2
   1  -6   4 138.320 32.8126   2
   1  -6   4 107.031 26.9026   3
  -1   6  -4 104.169 23.1850   1
   1  -6   5 1155.66 86.7662   2
  -1   6  -5 1273.32 77.2390   1
   1  -6   5 1328.17 84.9106   3
   1  -6   6 425.060 51.4486   3
   1  -6   6 329.551 46.8089   1
  -1   6  -6 359.644 42.8756   1
  -1   6  -7 815.696 66.5477   1
   1  -6   7 812.719 69.7329   3
   1  -6   7 663.750 68.1762   1
  -1   6  -8-1.23791 13.2159   1
   1  -6   8-34.4371 25.5415   3
   1  -6   9 603.873 66.1673   3
  -1   6  -9 523.965 56.3752   1
  -1   6 -10 396.842 52.6371   1
   1  -6  10 475.492 59.3202   3
  -1   6 -11 204.741 42.0451   1
   1  -6  11 219.364 42.8030   3
   1  -6  12 242.288 49.3884   3
   1  -5 -16 18.1128 21.7252   2
   1  -5 -15 80.6893 35.0718   2
   1  -5 -14 19.4905 26.3978   2
   1  -5 -13 217.610 48.2526   2
   1  -5 -12 204.436 43.9191   2
   1  -5 -11 1683.34 113.965   2
   1  -5 -11 1677.77 106.429   3
  -1   5  10 261.814 39.7393   1
   1  -5 -10 286.040 43.6532   3
   1  -5  -9 785.464 68.8388   3
  -1   5   9 732.730 62.5277   1
   1  -5  -8 181.253 33.5091   3
  -1   5   8 186.228 31.7669   3
   1  -5  -7 228.950 35.7694   3
  -1   5   7 234.270 34.8677   3
   1  -5  -6 1925.90 94.4384   3
  -1   5   6 2103.70 96.9278   3
  -1   5   5 3101.38 117.221   3
   1  -5  -5 3056.29 116.337   3
  -1   5   4 1790.13 86.0998   3
   1  -5  -4 1606.77 83.5301   3
  -1   5   3 3696.24 124.851   3
   1  -5  -3 3293.54 120.250   3
   1  -5  -2 742.262 54.5203   3
  -1   5   2 839.728 57.2824   3
  -1   5   1 2660.32 103.586   3
   1  -5  -1 2585.79 100.163   3
  -1   5   1 2706.03 90.4747   1
  -1   5   0 7329.54 186.480   3
   1  -5   0 6964.77 179.129   3
  -1   5   0 7220.26 160.476   1
  -1   5  -1 2360.86 84.5600   1
   1  -5   1 2496.59 111.649   2
   1  -5   1 2349.75 97.5493   3
   1  -5   2 53.0100 17.8289   3
  -1   5  -2 53.8368 15.1995   1
   1  -5   2 15.4449 16.5579   2
   1  -5   3 2263.24 109.418   2
  -1   5  -3 2160.14 87.3921   1
   1  -5   3 2330.43 101.027   3
  -1   5  -4 803.333 54.4039   1
   1  -5   4 733.900 63.5554   2
   1  -5   4 771.391 57.5442   1
   1  -5   4 754.443 58.2451   3
   1  -5   5 1041.42 77.3198   2
   1  -5   5 1167.35 75.2218   3
   1  -5   5 1030.78 70.5430   1
  -1   5  -5 1212.27 69.5243   1
   1  -5   6 178.931 35.1730   2
  -1   5  -6 169.137 29.9979   1
   1  -5   6 151.328 30.9414   1
   1  -5   6 170.542 33.7079   3
   1  -5   7 2658.67 130.845   2
   1  -5   7 2703.43 125.303   3
  -1   5  -7 2734.94 115.704   1
   1  -5   7 2525.81 125.526   1
   1  -5   8-24.5105 26.0720   3
   1  -5   8-0.53691 19.9005   1
  -1   5  -8 7.32728 14.0305   1
   1  -5   9 1093.10 84.3571   3
  -1   5  -9 971.975 75.2387   1
   1  -5  10 1599.95 105.301   3
  -1   5 -10 1351.75 93.2288   1
   1  -5  11 1797.96 117.804   3
  -1   5 -11 1612.11 108.722   1
   1  -5  12 311.981 50.8763   3
   1  -5  13 82.9818 34.4377   3
   1  -4 -16 81.8510 34.8355   2
   1  -4 -15 45.9151 33.4466   2
   1  -4 -14 106.553 37.5301   2
   1  -4 -13 28.2813 26.3158   2
   1  -4 -12 700.761 73.8780   2
   1  -4 -11 2299.21 126.758   2
  -1   4  10 2301.51 114.294   1
   1  -4 -10 2525.58 127.810   2
   1  -4 -10 2446.65 119.112   3
  -1   4   9 542.961 51.8819   1
   1  -4  -9 503.767 52.7627   3
  -1   4   9 574.358 52.0307   3
  -1   4   8 3345.48 127.890   1
   1  -4  -8 3462.04 131.557   3
  -1   4   8 3421.70 127.816   3
  -1   4   7 1315.06 72.8173   3
   1  -4  -7 1273.83 74.5353   3
  -1   4   6 4829.48 142.764   3
   1  -4  -6 4627.08 142.212   3
  -1   4   5 3352.74 112.561   3
   1  -4  -5 3196.42 111.395   3
  -1   4   4 1591.03 73.5820   3
   1  -4  -4 1576.84 73.8951   3
  -1   4   3 424.597 39.2798   3
   1  -4  -3 421.287 37.4944   3
  -1   4   2 1528.82 72.0566   3
   1  -4  -2 1506.16 69.2904   3
   1  -4  -1 217.027 28.9475   3
  -1   4   1 248.155 28.3382   3
   1  -4   0 10070.0 212.585   3
  -1   4   0 10157.1 215.017   3
  -1   4   0 10368.7 188.392   1
   1  -4   1 2452.86 92.3022   3
  -1   4  -1 2388.70 76.4637   1
  -1   4  -1 2559.33 94.5424   3
   1  -4   2 6979.67 184.711   2
  -1   4  -2 6865.77 148.274   1
   1  -4   2 6756.06 167.890   3
  -1   4  -3 406.166 33.2402   1
   1  -4   3 333.616 33.3747   1
   1  -4   3 352.059 39.7143   2
   1  -4   3 365.052 37.1815   3
  -1   4  -4 112.690 19.7340   1
   1  -4   4 100.296 25.6963   2
   1  -4   4 150.508 26.4181   3
   1  -4   4 133.364 24.3658   1
   1  -4   5 4155.52 147.464   2
   1  -4   5 4003.64 136.303   3
   1  -4   5 4082.52 136.335   1
  -1   4  -5 4017.23 125.456   1
   1  -4   6 924.318 67.6815   3
  -1   4  -6 887.969 58.6963   1
   1  -4   6 950.413 69.7049   2
   1  -4   6 872.206 64.1519   1
   1  -4   7 3416.75 138.124   1
  -1   4  -7 3533.10 149.361   2
  -1   4  -7 3640.18 129.670   1
   1  -4   7 3710.61 145.805   2
   1  -4   8 323.134 44.1778   1
  -1   4  -8 361.418 42.2955   1
  -1   4  -8 296.763 46.6245   2
   1  -4   8 374.049 47.3643   2
   1  -4   9 830.917 74.3224   1
  -1   4  -9 806.863 76.2113   2
  -1   4  -9 930.710 70.3941   1
   1  -4   9 789.533 71.1606   2
  -1   4 -10 727.832 65.0143   1
  -1   4 -10 676.366 72.0476   2
  -1   4 -11 2751.09 137.840   1
  -1   4 -11 2747.19 152.141   2
  -1   4 -12 1784.50 124.570   2
  -1   4 -13 547.252 73.2413   2
  -1   4 -14-7.10641 19.5411   2
  -1   4 -15-18.6250 18.2302   2
   1  -3 -17 7.23086 19.4457   2
   1  -3 -16 23.5317 20.2871   2
   1  -3 -15 1.43632 20.2425   2
   1  -3 -14 11.9840 20.8627   2
   1  -3 -13 2.10962 18.9152   2
   1  -3 -12 890.344 81.0774   2
   1  -3 -11 1718.78 105.476   2
  -1   3  10 293.114 41.6048   1
  -1   3  10 319.576 39.1173   3
   1  -3 -10 312.672 45.0354   2
   1  -3  -9 4305.94 149.641   3
  -1   3   9 4343.17 151.352   1
  -1   3   9 4354.12 144.011   3
   1  -3  -9 4130.39 152.644   2
  -1   3   8 1700.08 82.9542   3
  -1   3   8 1613.57 84.7190   1
   1  -3  -8 1669.15 85.7742   3
  -1   3   7 2709.55 103.214   1
   1  -3  -7 2668.88 104.239   3
  -1   3   7 2650.83 102.461   3
   1  -3  -6 5090.22 141.851   3
  -1   3   6 4919.01 135.994   3
  -1   3   6 4593.17 132.947   1
   1  -3  -5 2068.02 84.5343   3
  -1   3   5 2202.29 82.4145   3
  -1   3   4 2545.94 87.3087   3
   1  -3  -4 2610.70 88.4742   3
  -1   3   3 1649.70 68.8730   3
   1  -3  -3 1748.01 69.1331   3
  -1   3   2 814.025 45.7250   3
   1  -3  -2 796.838 45.4363   3
   1  -3  -1 90.1266 16.9918   3
  -1   3   1 90.3906 17.4875   3
   1  -3   0 6757.07 154.306   3
  -1   3   0 8001.13 161.126   3
  -1   3   0 6752.20 125.949   1
   1  -3   1 2861.66 91.8199   3
  -1   3  -1 2908.23 71.6893   1
  -1   3  -1 2612.80 86.9726   3
   1  -3   2 4321.00 120.550   3
   1  -3   2 4400.21 127.735   2
  -1   3  -2 4203.72 99.4473   1
   1  -3   2 4282.25 103.741   1
   1  -3   3 6682.52 149.765   1
   1  -3   3 6965.27 171.701   2
  -1   3  -3 7012.63 145.055   1
   1  -3   3 6416.50 160.304   3
   1  -3   4 8.75695 13.3774   3
   1  -3   4 28.7848 13.5112   1
   1  -3   4 12.7717 13.1524   2
  -1   3  -4 23.9088 10.8918   1
  -1   3  -5 1091.02 69.5045   2
   1  -3   5 1036.37 68.0479   2
  -1   3  -5 1134.63 58.0881   1
   1  -3   5 1108.38 62.5550   1
   1  -3   6 801.945 58.9895   2
   1  -3   6 772.353 55.5695   1
  -1   3  -6 809.694 52.4293   1
  -1   3  -6 799.201 63.2581   2
   1  -3   7 1661.14 88.4424   1
   1  -3   7 1787.07 92.2549   2
  -1   3  -7 1753.56 96.8647   2
  -1   3  -7 1758.79 84.4282   1
   1  -3   8 866.057 67.1776   1
   1  -3   8 821.954 65.9980   2
  -1   3  -8 874.193 71.0297   2
  -1   3  -8 870.674 63.2876   1
  -1   3  -9 2564.85 114.720   1
   1  -3   9 2349.75 114.970   2
   1  -3   9 2354.58 120.824   1
  -1   3  -9 2308.47 122.952   2
  -1   3 -10 102.800 30.0004   2
   1  -3  10 90.7320 27.1770   1
   1  -3  10 47.9013 20.8948   2
  -1   3 -10 143.075 32.4195   1
  -1   3 -11 2126.74 128.101   2
  -1   3 -12 68.7293 24.1642   2
  -1   3 -13 963.761 92.2324   2
  -1   3 -14 180.841 43.4583   2
  -1   3 -15 410.749 66.1923   2
  -1   3 -16 88.8427 37.1828   2
   1  -2 -17-0.74301 20.6640   2
   1  -2 -16 60.6540 28.2605   2
   1  -2 -15 296.525 53.0844   2
   1  -2 -14 803.058 80.0187   2
   1  -2 -13 853.115 80.6232   2
   1  -2 -12 86.8915 29.0148   2
   1  -2 -11 1482.16 94.8111   2
  -1   2  11 1517.40 86.7861   3
  -1   2  10 397.783 41.9148   3
   1  -2 -10 450.352 51.7684   2
  -1   2  10 418.158 49.6601   1
  -1   2   9 2646.58 105.344   3
  -1   2   9 2625.44 117.117   1
   1  -2  -9 2537.87 112.023   2
  -1   2   8 94.9333 19.6127   3
   1  -2  -8 87.8475 23.3482   2
  -1   2   8 80.8807 21.7099   1
   1  -2  -7 3613.06 119.279   3
  -1   2   7 3786.57 115.901   3
   1  -2  -7 3625.38 121.113   2
  -1   2   7 3400.81 122.306   1
  -1   2   6 3388.87 109.190   1
  -1   2   6 3502.32 105.077   3
   1  -2  -6 3150.46 105.972   3
  -1   2   5 12595.1 226.654   3
  -1   2   5 12199.8 228.047   1
   1  -2  -5 11658.6 226.332   3
  -1   2   4 2577.16 81.6716   3
   1  -2  -4 2547.47 82.5259   3
  -1   2   4 2735.17 80.5205   1
  -1   2   3 92592.9 1193.04   3
   1  -2  -3 91411.3 1194.71   3
   1  -2  -2 18755.8 288.078   3
  -1   2   2 18333.8 288.079   3
  -1   2   1 3698.78 90.3439   3
   1  -2  -1 3686.22 93.0120   3
  -1   2   0 1671.33 57.7615   3
   1  -2   0 1593.68 59.7811   3
  -1   2   0 1746.47 39.9704   1
   1  -2   1 7496.11 124.296   1
   1  -2   1 7939.20 154.536   3
   1  -2   1 7973.41 162.449   2
  -1   2  -1 7981.28 154.337   3
  -1   2  -1 7667.39 122.091   1
   1  -2   2 6570.17 118.194   1
   1  -2   2 5758.39 138.491   2
  -1   2  -2 6052.95 114.063   1
   1  -2   2 6096.31 135.376   3
   1  -2   3 6647.52 156.847   2
   1  -2   3 6745.26 136.143   1
  -1   2  -3 6864.69 162.083   2
  -1   2  -3 6878.13 133.095   1
  -1   2  -4 21039.7 360.865   2
   1  -2   4 21420.5 333.820   1
  -1   2  -4 21722.8 325.648   1
   1  -2   5 765.998 51.7687   2
   1  -2   5 735.068 46.8104   1
  -1   2  -5 810.601 47.0619   1
  -1   2  -5 754.961 54.1110   2
  -1   2  -6 54.1343 18.1795   1
  -1   2  -6 39.8242 18.5324   2
   1  -2   6 27.2193 13.7826   1
   1  -2   6 22.1565 14.2324   2
   1  -2   7 6322.50 176.666   2
   1  -2   7 6338.26 176.787   1
  -1   2  -7 6056.33 181.734   2
  -1   2  -7 6309.34 165.806   1
  -1   2  -8 7504.84 213.925   2
   1  -2   8 7562.44 209.094   1
   1  -2   8 7350.66 200.056   2
  -1   2  -8 7407.73 192.220   1
   1  -2   9 9768.70 260.849   1
  -1   2  -9 9712.20 261.286   2
   1  -2   9 9416.61 246.666   2
  -1   2  -9 9953.73 240.372   1
   1  -2  10 220.585 36.1253   2
  -1   2 -10 214.947 39.0453   2
   1  -2  10 248.584 40.4238   1
   1  -2  11 17.7874 13.6940   2
  -1   2 -11 22.0635 20.3160   2
  -1   2 -12 33.3959 20.8643   2
  -1   2 -13 87.6000 34.4482   2
  -1   2 -14 62.1709 30.7306   2
  -1   2 -15 473.218 72.2867   2
  -1   2 -16 303.707 54.1120   2
   1  -1 -17 32.1890 21.0251   2
   1  -1 -16-53.2614 29.5866   2
   1  -1 -15 213.016 48.2954   2
   1  -1 -14 1166.56 94.5189   2
   1  -1 -13 5311.46 197.786   2
   1  -1 -12 438.522 54.0879   2
  -1   1  11 342.435 42.1687   3
   1  -1 -11 370.471 47.4155   2
  -1   1  10 5.20111 14.9813   1
   1  -1 -10 20.8541 19.5364   2
  -1   1  10 36.4800 18.5846   3
   1  -1  -9 428.997 43.8878   2
  -1   1   9 495.751 53.4981   1
  -1   1   9 507.073 43.4838   3
   1  -1  -8 784.348 55.9665   2
  -1   1   8 763.339 51.6435   3
  -1   1   8 690.633 57.6727   1
  -1   1   7 1425.47 65.6197   3
   1  -1  -7 1433.41 71.2984   2
  -1   1   7 1504.13 77.8953   1
  -1   1   6 3010.94 106.262   1
  -1   1   6 2991.81 93.7836   3
   1  -1  -6 3027.01 98.1264   2
  -1   1   5 20270.3 323.127   3
   1  -1  -5 20460.9 329.326   3
  -1   1   5 21368.0 344.315   1
   1  -1  -5 20860.3 343.437   1
  -1   1   4 22637.2 343.358   3
   1  -1  -4 23809.6 348.784   3
  -1   1   4 22854.6 357.346   1
   1  -1  -4 22890.3 354.994   1
   1  -1  -3 59116.2 796.635   3
  -1   1   3 59609.0 802.820   1
   1  -1  -3 61500.0 802.463   1
  -1   1   3 62807.6 797.103   3
  -1   1   2 42826.2 549.228   1
   1  -1  -2 40795.6 545.406   1
  -1   1   2 41355.6 550.742   3
   1  -1  -2 40866.1 552.846   3
   1  -1  -1 44614.0 580.811   3
  -1   1   1 45301.6 581.958   3
  -1   1   1 43442.2 562.586   1
   1  -1   0 23933.1 332.064   3
  -1   1   0 23666.3 332.890   3
   1  -1   1 21245.2 316.863   2
   1  -1   1 21475.7 308.843   3
  -1   1  -2 11980.6 173.921   1
   1  -1   2 11728.4 177.627   1
   1  -1   2 11654.8 202.854   2
  -1   1  -2 11642.0 204.379   2
   1  -1   3 6456.65 141.190   2
  -1   1  -3 6625.27 144.991   2
  -1   1  -3 6499.18 120.764   1
   1  -1   3 6686.04 124.772   1
   1  -1   4 29.7821 10.9760   1
  -1   1  -4 17.1242 14.0533   2
   1  -1   4 21.3309 11.4268   2
  -1   1  -4 48.2816 14.4125   1
   1  -1   5 7655.98 166.635   1
  -1   1  -5 7750.87 162.442   1
  -1   1  -5 7632.71 180.716   2
   1  -1   5 8390.63 182.156   2
   1  -1   6 6244.67 156.943   1
  -1   1  -6 6259.15 169.034   2
   1  -1   6 6227.44 158.975   2
  -1   1  -7 972.928 65.9785   2
   1  -1   7 1008.74 62.9006   1
   1  -1   7 1055.43 63.3030   2
  -1   1  -8 4682.02 156.939   2
   1  -1   8 4818.36 156.591   1
   1  -1   8 4827.62 152.391   2
  -1   1  -9 11035.8 274.890   2
   1  -1   9 11547.5 274.681   1
   1  -1   9 11468.6 268.683   2
   1  -1  10 2827.76 125.032   2
  -1   1 -10 2943.76 134.854   2
   1  -1  10 3048.95 136.306   1
   1  -1  11 120.005 25.5700   1
   1  -1  11 135.366 28.0353   2
  -1   1 -11 145.177 35.9302   2
  -1   1 -12 2506.55 137.341   2
  -1   1 -13 93.5328 31.1608   2
  -1   1 -14 66.1767 24.7488   2
  -1   1 -15 117.286 35.4672   2
  -1   1 -16 120.425 37.8690   2
  -1   1 -17 188.961 48.9011   2
   1   0 -17 125.560 43.4923   2
   1   0 -16 75.5748 37.8522   2
   1   0 -15 666.527 74.8141   2
   1   0 -14 95.4668 32.9355   2
   1   0 -13 5260.23 198.474   2
  -1   0  12 1567.00 94.2646   3
   1   0 -12 1672.51 103.268   2
  -1   0  11 780.680 62.5375   3
   1   0 -11 974.874 73.5096   2
  -1   0  10 127.045 30.6877   1
   1   0 -10 190.805 37.1757   1
  -1   0  10 96.7173 22.5779   3
   1   0 -10 81.9181 23.1277   2
   1   0  -9 38.0570 20.0674   1
   1   0  -9 21.5984 14.3956   2
  -1   0   9 31.8307 15.2017   1
  -1   0   9 46.8622 18.9820   3
   1   0  -8 1.83803 12.9208   2
   1   0  -8 12.4025 20.0378   1
  -1   0   8 6.14692 14.0945   1
  -1   0   8 10.7041 10.5671   3
   1   0  -7 101.814 22.7629   1
   1   0  -7 111.827 22.7342   2
  -1   0   7 111.173 20.1531   3
  -1   0   7 124.484 24.6154   1
  -1   0   6 9938.03 225.183   1
   1   0  -6 9493.13 197.918   2
  -1   0   6 11164.9 201.784   3
   1   0  -6 9291.00 209.045   1
   1   0  -5 5031.92 119.476   2
  -1   0   5 5048.35 116.432   3
   1   0  -5 5151.05 133.006   1
  -1   0   5 5428.38 141.459   1
  -1   0   4 891.783 39.4387   3
   1   0  -4 904.283 40.4643   2
  -1   0   4 935.114 50.5680   1
   1   0  -4 870.735 46.6325   1
   1   0  -3 4138.18 100.473   1
  -1   0   3 4087.32 100.966   1
   1   0  -3 3968.28 83.8718   2
   1   0  -3 3862.81 84.4460   3
  -1   0   3 3959.26 82.4076   3
   1   0  -2 9503.30 146.908   3
  -1   0   2 9620.41 145.528   3
  -1   0   2 9679.22 165.248   1
   1   0  -2 9820.03 165.121   1
  -1   0   1 80252.9 1005.02   3
  -1   0   1 78238.4 1022.07   1
   1   0  -1 82482.2 1005.87   3
   1   0  -1 81590.2 1021.43   1
  -1   0   0 58.7635 9.47400   1
  -1   0   0 54.1447 7.03985   3
  -1   0  -1 254.259 18.4277   2
   1   0   2 7403.70 132.228   2
  -1   0  -2 7292.45 134.796   2
   1   0   3 8807.53 164.417   2
  -1   0  -3 8857.59 165.805   2
   1   0   4 36.7304 14.3435   2
   1   0   4 54.0422 14.9295   1
  -1   0  -4 25.5654 14.0061   2
  -1   0  -5 235.708 28.3312   2
   1   0   5 261.452 26.4130   1
   1   0   5 262.651 26.9433   2
   1   0   6 1485.14 66.9157   1
   1   0   6 1485.09 69.8755   2
  -1   0  -6 1555.31 73.7484   2
  -1   0  -7 2448.11 100.532   2
   1   0   7 2615.22 99.9990   2
   1   0   7 2623.92 99.0489   1
  -1   0  -8 857.656 61.6351   2
   1   0   8 882.210 61.2299   2
   1   0   8 831.931 57.7800   1
  -1   0  -9 1097.15 75.0186   2
   1   0   9 1234.67 76.5575   1
   1   0   9 1126.74 74.7275   2
  -1   0 -10 1155.10 80.4663   2
   1   0  10 1173.91 81.3267   1
   1   0  10 1142.05 76.9581   2
  -1   0 -11 1908.40 108.947   2
   1   0  11 1845.41 104.973   2
   1   0  11 1885.11 107.916   1
  -1   0 -12 225.420 42.7685   2
  -1   0 -13-5.33049 22.1266   2
  -1   0 -14 199.017 45.0437   2
  -1   0 -15 410.725 63.1128   2
  -1   0 -16 64.5842 28.6152   2
  -1   0 -17 939.732 100.283   2
   1   1 -16 118.884 39.3220   2
   1   1 -15 749.149 82.0608   2
   1   1 -14 76.8028 33.0052   2
   1   1 -13 655.904 67.6644   2
   1   1 -12 2563.11 128.287   2
  -1  -1  12 2281.07 113.756   3
   1   1 -12 2656.59 135.920   1
   1   1 -11 3186.81 135.545   2
  -1  -1  11 2894.88 122.991   3
   1   1 -11 3070.93 143.475   1
   1   1 -10 208.168 36.0875   1
   1   1 -10 203.212 33.2918   2
  -1  -1  10 182.278 34.9800   1
  -1  -1  10 170.946 29.2897   3
  -1  -1   9 569.395 59.1783   1
  -1  -1   9 559.094 47.8866   2
  -1  -1   9 642.605 50.0374   3
   1   1  -9 627.517 52.3601   2
   1   1  -9 628.411 57.0819   1
   1   1  -8 1059.36 64.6916   2
  -1  -1   8 1080.94 78.0091   1
  -1  -1   8 1140.07 62.7319   3
   1   1  -8 1145.05 72.6353   1
  -1  -1   8 1187.43 64.3180   2
   1   1  -7 4305.21 126.188   2
   1   1  -7 4190.82 138.066   1
  -1  -1   7 4330.00 150.516   1
  -1  -1   7 4347.27 121.981   2
  -1  -1   6 8060.26 167.797   2
   1   1  -6 7920.05 191.299   1
  -1  -1   6 7850.85 201.698   1
   1   1  -6 7960.12 171.893   2
  -1  -1   5 7496.54 182.966   1
   1   1  -5 7704.04 181.009   1
   1   1  -5 7582.99 155.489   2
  -1  -1   5 7699.29 151.931   2
  -1  -1   4 109.804 21.8672   1
  -1  -1   4 122.888 15.6913   2
   1   1  -4 129.540 22.7852   1
   1   1  -4 109.459 15.1739   2
  -1  -1   3 3456.38 74.1846   2
  -1  -1   3 3350.90 100.179   1
   1   1  -3 3533.65 75.9507   2
   1   1  -3 3655.63 100.278   1
  -1  -1   2 3583.52 63.0712   2
  -1  -1   2 3453.90 94.2485   1
   1   1  -2 3565.54 64.9550   2
   1   1  -2 3568.02 93.8567   1
   1   1  -1 504.057 32.3764   1
  -1  -1   1 442.703 28.7299   1
   1   1   0 2714.18 68.1120   1
  -1  -1  -1 44619.1 551.717   2
   1   1   1 41546.7 549.292   2
  -1  -1  -2 16231.6 241.290   2
   1   1   2 16444.6 239.155   2
  -1  -1  -3 3280.21 82.6249   2
   1   1   3 3089.43 79.3217   2
  -1  -1  -4 7060.04 146.369   2
   1   1   4 6699.60 140.616   2
  -1  -1  -5 14621.9 261.318   2
   1   1   5 14576.4 256.445   2
   1   1   6 4150.98 118.729   2
  -1  -1  -6 4155.38 122.522   2
   1   1   7 39.6408 18.5380   1
   1   1   7 19.9346 12.7483   2
  -1  -1  -7 13.2471 14.2033   2
   1   1   8 89.3153 22.4265   1
  -1  -1  -8 69.9109 22.3090   2
   1   1   8 61.0843 19.8242   2
   1   1   9 34.7515 16.3253   1
   1   1   9 9.04176 14.1696   2
  -1  -1  -9 1.99032 13.8907   2
   1   1  10 99.5268 23.9556   2
   1   1  10 80.0777 25.7959   1
  -1  -1 -10 100.960 25.4587   2
  -1  -1 -11 996.149 77.9097   2
   1   1  11 926.279 74.0752   1
   1   1  11 1046.50 74.9334   3
   1   1  11 981.610 76.9073   2
  -1  -1 -12 451.412 57.8186   2
  -1  -1 -13 820.629 79.8835   2
  -1  -1 -14 178.134 39.2140   2
  -1  -1 -15 3250.43 175.415   2
  -1  -1 -16 491.599 70.1011   2
  -1  -1 -17 577.052 80.9390   2
   1   2 -15 248.054 46.7939   2
   1   2 -14 620.078 71.4508   2
   1   2 -13 523.125 63.6098   2
   1   2 -13 512.114 68.4119   1
   1   2 -12 119.915 34.2816   1
  -1  -2  12 32.3293 15.8255   2
   1   2 -12 52.4300 28.1546   2
   1   2 -11 2894.92 131.681   2
  -1  -2  11 2662.45 120.331   3
   1   2 -11 2863.03 138.229   1
  -1  -2  11 2571.16 116.969   2
   1   2 -10 244.072 40.1089   1
   1   2 -10 204.407 34.9263   2
  -1  -2  10 213.121 32.7517   2
   1   2  -9 2242.78 112.118   1
  -1  -2   9 2114.07 94.6103   2
  -1  -2   9 2055.92 116.086   1
   1   2  -9 2289.15 104.154   2
   1   2  -8 2255.30 109.033   1
   1   2  -8 2484.33 101.657   2
  -1  -2   8 2398.30 121.185   1
  -1  -2   8 2273.41 93.1432   2
  -1  -2   7 9489.33 246.539   1
   1   2  -7 8987.02 230.957   1
   1   2  -7 9260.05 209.159   2
  -1  -2   7 9300.47 199.868   2
   1   2  -6 8197.87 204.076   1
   1   2  -6 8364.13 182.632   2
  -1  -2   6 8004.15 214.835   1
  -1  -2   6 8233.88 174.438   2
  -1  -2   5 8184.47 202.516   1
   1   2  -5 8308.95 195.689   1
   1   2  -5 8060.82 167.357   2
  -1  -2   5 7769.21 160.883   2
   1   2  -4 5761.60 124.091   2
   1   2  -4 5699.99 149.858   1
  -1  -2   4 5594.80 118.018   2
  -1  -2   4 5482.57 154.027   1
  -1  -2   3 748.670 33.7528   2
   1   2  -3 738.848 47.6779   1
   1   2  -3 752.070 34.2143   2
  -1  -2   3 816.026 50.3418   1
  -1  -2   2 3283.07 100.363   1
  -1  -2   2 3284.99 71.8860   2
   1   2  -2 3301.54 96.9434   1
  -1  -2   1 20684.9 276.768   3
  -1  -2   1 20696.3 284.367   2
  -1  -2   1 21096.3 329.462   1
   1   2  -1 20004.8 324.881   1
   1   2   0 44.7356 7.48352   3
  -1  -2   0 44.7449 7.22809   3
   1   2   0 35.3631 14.8037   1
   1   2   1 14127.5 203.066   3
  -1  -2  -1 14544.8 203.838   3
  -1  -2  -2 2006.78 53.9053   3
   1   2   2 1984.30 52.0406   3
   1   2   3 20619.9 303.434   3
  -1  -2  -3 20973.0 314.539   2
  -1  -2  -3 20271.5 306.687   3
   1   2   4 11147.4 197.876   3
  -1  -2  -4 11538.3 208.807   2
  -1  -2  -5 28.1007 14.0504   2
   1   2   5 10.7383 10.0742   3
   1   2   6 3831.98 108.524   3
  -1  -2  -6 3715.56 117.347   2
  -1  -2  -7 7702.32 192.716   2
   1   2   7 7808.23 181.098   3
   1   2   8 82.8489 18.8751   3
  -1  -2  -8 102.300 25.2714   2
   1   2   9 222.554 35.3310   1
   1   2   9 241.276 31.6243   3
  -1  -2  -9 201.970 35.0291   2
   1   2  10 1013.95 73.3742   1
  -1  -2 -10 986.413 72.5153   2
   1   2  10 946.544 68.1798   3
  -1  -2 -11 594.968 61.3499   2
   1   2  11 667.565 59.8350   3
   1   2  11 590.887 61.3430   1
  -1  -2 -12 135.552 34.9695   2
  -1  -2 -13 2195.40 126.724   2
  -1  -2 -14 833.860 84.3265   2
  -1  -2 -15 980.213 93.2108   2
  -1  -2 -16 1100.51 104.690   2
  -1  -2 -17 293.057 58.2473   2
   1   3 -14 103.198 32.0932   2
   1   3 -14 168.131 42.3045   1
   1   3 -13 213.436 41.4096   2
   1   3 -13 257.357 47.0185   1
   1   3 -12 7.35725 16.3665   2
   1   3 -12 7.17214 24.5924   1
  -1  -3  11 67.0717 21.4337   2
   1   3 -11 83.5203 21.4755   2
   1   3 -11 40.1607 24.8317   1
  -1  -3  10-18.3452 14.5098   2
   1   3 -10-17.4320 18.0851   2
   1   3 -10 45.5755 24.6245   1
   1   3  -9 987.973 77.5461   1
   1   3  -9 1021.33 70.1251   2
  -1  -3   9 996.479 65.2407   2
  -1  -3   8 639.040 49.2592   2
   1   3  -8 567.959 57.0769   1
   1   3  -8 658.809 52.8665   2
  -1  -3   8 715.555 68.6902   1
   1   3  -7 6254.75 168.059   2
   1   3  -7 6343.42 191.157   1
  -1  -3   7 6625.37 209.012   1
  -1  -3   7 6234.88 160.818   2
   1   3  -6 257.487 35.8947   1
  -1  -3   6 170.286 22.8849   2
   1   3  -6 252.654 29.4140   2
  -1  -3   6 231.952 36.0550   1
  -1  -3   5 970.249 66.7075   1
   1   3  -5 887.336 52.2401   2
   1   3  -5 957.010 64.3706   1
  -1  -3   5 952.917 50.1338   2
  -1  -3   4 1115.81 69.7198   1
  -1  -3   4 1135.75 51.7812   2
   1   3  -4 1102.99 65.6421   1
  -1  -3   3 10149.7 187.131   2
   1   3  -3 10172.5 222.371   1
  -1  -3   3 10437.2 181.556   3
  -1  -3   3 10407.6 232.095   1
  -1  -3   2 428.316 39.5736   1
  -1  -3   2 398.569 24.1934   3
   1   3  -2 445.564 37.6899   1
  -1  -3   2 377.793 27.2555   2
  -1  -3   1 66.1149 18.1305   1
   1   3  -1 36.2271 15.4412   1
  -1  -3   1 39.4968 9.48050   3
   1   3   0 212.619 27.1789   1
  -1  -3   0 194.690 16.8626   3
   1   3   0 210.844 18.0396   3
  -1  -3  -1 4592.55 94.8981   3
   1   3   1 4577.40 95.5432   3
  -1  -3  -2 3316.80 80.8997   3
   1   3   2 3285.60 80.0642   3
   1   3   3 33.7768 10.8987   3
  -1  -3  -3 19.6502 11.3296   3
  -1  -3  -4 3302.68 93.7318   3
   1   3   4 3241.97 89.1729   3
   1   3   5 5361.86 127.728   3
  -1  -3  -5 5234.76 131.396   3
  -1  -3  -5 5228.03 137.893   2
   1   3   6 27.9931 13.6027   3
  -1  -3  -6 4.01369 12.8409   2
  -1  -3  -7 10827.4 242.508   2
   1   3   7 11255.5 228.472   3
   1   3   8 1961.37 85.7923   3
  -1  -3  -8 1684.10 89.3155   2
   1   3   9 2974.25 113.300   3
  -1  -3  -9 2650.31 118.894   2
   1   3  10 1778.70 90.8130   3
  -1  -3 -10 1485.26 93.1837   2
   1   3  11 1218.28 86.0347   1
  -1  -3 -11 1204.82 87.4873   2
   1   3  11 1398.80 84.4064   3
  -1  -3 -12 25.1617 20.7513   2
  -1  -3 -13 62.0294 24.3207   2
  -1  -3 -14 671.783 73.8842   2
  -1  -3 -15 966.515 94.6717   2
  -1  -3 -16 198.563 48.5308   2
  -1  -3 -17 26.0278 25.2416   2
   1   4 -13 159.131 43.8036   1
   1   4 -13 136.616 33.4713   2
   1   4 -12 89.9704 26.9371   1
   1   4 -12 45.5550 24.0594   2
   1   4 -11 132.659 35.9924   1
   1   4 -11 154.707 32.3071   2
  -1  -4  10-25.2618 15.7842   2
   1   4 -10 27.1643 15.2739   2
   1   4 -10 19.1148 20.1329   1
  -1  -4   9 306.230 39.4015   2
   1   4  -9 289.329 45.7327   1
   1   4  -9 343.940 44.3930   2
  -1  -4   8 383.236 41.6523   2
   1   4  -8 437.907 46.8783   2
   1   4  -8 340.843 45.3335   1
  -1  -4   7 150.386 34.2397   1
  -1  -4   7 101.433 20.0729   2
   1   4  -7 129.386 31.3270   1
   1   4  -6 39.7224 19.9605   1
  -1  -4   6 34.6232 14.7455   2
  -1  -4   6 5.77770 16.5633   1
  -1  -4   5 21.9433 15.2072   2
  -1  -4   5 32.6014 21.2308   1
   1   4  -5-3.46066 15.9598   1
  -1  -4   5 25.8615 12.4545   3
  -1  -4   4 1327.34 64.3009   2
   1   4  -4 1265.41 75.5004   1
  -1  -4   4 1354.44 60.4202   3
  -1  -4   4 1379.62 83.4484   1
   1   4  -3 2513.55 103.381   1
  -1  -4   3 2501.00 86.0869   2
  -1  -4   3 2408.20 77.4286   3
  -1  -4   3 2512.93 108.068   1
   1   4  -2 612.282 50.1886   1
  -1  -4   2 569.424 49.9784   1
  -1  -4   2 555.696 33.9593   3
  -1  -4   2 534.446 37.6609   2
  -1  -4   1 2401.32 72.2675   3
   1   4  -1 2339.60 95.6046   1
   1   4   0 491.578 42.0763   1
   1   4   0 517.101 32.2454   3
  -1  -4   0 514.507 30.4456   3
   1   4   1 529.305 43.7127   1
   1   4   1 479.028 31.1547   3
  -1  -4  -1 497.443 32.0592   3
   1   4   2 6.31189 8.37080   3
  -1  -4  -2 11.5338 9.47533   3
   1   4   3 1031.91 49.8227   3
  -1  -4  -3 952.885 49.5513   3
   1   4   4 389.556 32.4937   3
  -1  -4  -4 481.741 37.1328   3
   1   4   5 3032.66 98.7630   3
  -1  -4  -5 3176.91 103.493   3
  -1  -4  -6 1977.98 84.2423   3
   1   4   6 1968.41 81.1637   3
  -1  -4  -7 5763.09 165.529   3
   1   4   7 5849.86 155.589   3
  -1  -4  -7 5496.95 165.226   2
   1   4   8 582.828 47.0353   3
  -1  -4  -8 531.822 51.8852   2
   1   4   9 11243.8 252.510   3
  -1  -4  -9 11088.5 275.240   2
  -1  -4 -10 68.5476 22.1807   2
   1   4  10 141.474 27.6289   3
  -1  -4 -11 762.971 72.1004   2
  -1  -4 -12 1721.62 111.637   2
  -1  -4 -13 2150.11 130.135   2
  -1  -4 -14 116.971 35.8985   2
  -1  -4 -15 128.785 39.7150   2
  -1  -4 -16 125.450 39.2265   2
  -1  -4 -17 512.594 72.6500   2
  -1  -5  12 186.340 37.7621   3
   1   5 -12 202.363 45.4242   1
   1   5 -11 56.2117 25.8653   1
  -1  -5  11 98.7466 25.9973   3
  -1  -5  10 245.694 38.0623   3
   1   5 -10 200.938 41.4049   1
  -1  -5   9 232.685 35.9802   2
   1   5  -9 292.390 47.9825   1
  -1  -5   9 300.547 38.1359   3
  -1  -5   8 47.5498 17.5297   2
   1   5  -8 65.6630 16.7587   1
  -1  -5   8 64.1615 20.1049   3
  -1  -5   7-0.54819 15.8262   2
   1   5  -7 1.17040 15.5248   1
  -1  -5   7 30.4848 18.6886   3
  -1  -5   6 138.521 36.8576   1
  -1  -5   6 127.144 23.3363   3
  -1  -5   6 149.435 27.6603   2
   1   5  -6 113.568 28.4708   1
   1   5  -5 1283.31 84.5375   1
  -1  -5   5 1413.36 68.4636   3
  -1  -5   5 1372.48 93.1147   1
  -1  -5   5 1230.47 71.1081   2
  -1  -5   4 816.636 69.9736   1
  -1  -5   4 836.481 55.7857   2
   1   5  -4 857.484 65.3505   1
  -1  -5   4 864.578 50.8756   3
   1   5  -3 1459.56 83.4346   1
  -1  -5   3 1403.52 71.6390   2
  -1  -5   3 1524.60 90.4070   1
  -1  -5   3 1472.55 64.6295   3
  -1  -5   2 1307.69 59.2634   3
   1   5  -2 1235.31 76.0738   1
  -1  -5   2 1196.42 65.4653   2
   1   5  -1 2641.14 109.728   1
  -1  -5   1 2602.69 84.3568   3
   1   5   0 2480.25 83.7607   3
  -1  -5   0 2369.04 80.0056   3
   1   5   0 2273.50 100.998   1
   1   5   1 2657.15 109.237   1
   1   5   1 2732.16 89.3036   3
  -1  -5  -1 2790.64 87.7541   3
   1   5   2 355.911 32.4763   3
  -1  -5  -2 316.399 29.4146   3
   1   5   3 9.84409 13.3457   3
  -1  -5  -3 3.67877 11.8146   3
   1   5   4 909.739 52.9939   3
  -1  -5  -4 792.855 51.9741   3
   1   5   5 4420.43 131.450   3
  -1  -5  -5 4641.11 134.847   3
   1   5   6 1633.88 79.3324   3
  -1  -5  -6 1549.60 78.2565   3
   1   5   7 10176.5 228.178   3
  -1  -5  -7 9604.08 230.980   3
   1   5   8 262.385 34.7959   3
  -1  -5  -8 197.933 37.8618   2
  -1  -5  -8 266.847 37.9215   3
   1   5   9 490.605 48.7968   3
  -1  -5  -9 524.172 56.6025   2
  -1  -5 -10 2211.89 120.319   2
  -1  -5 -11 1994.55 120.060   2
  -1  -5 -12 1855.13 122.021   2
  -1  -5 -13 2125.72 134.165   2
  -1  -5 -14 517.214 71.0681   2
  -1  -5 -15 628.511 81.0038   2
  -1  -5 -16 5.90445 27.7195   2
   1   6 -11 252.836 47.2104   1
   1   6 -10 263.207 47.9347   1
  -1  -6  10 334.302 44.8031   3
   1   6  -9 1006.34 88.7550   1
  -1  -6   9 1099.10 76.1686   3
   1   6  -8 229.871 42.0516   1
  -1  -6   8 249.625 38.6869   3
   1   6  -7 954.189 82.3803   1
  -1  -6   7 935.745 68.6931   2
  -1  -6   7 1090.11 70.0202   3
   1   6  -6 54.3685 28.0645   1
  -1  -6   6 18.0430 12.9524   3
  -1  -6   6 29.7764 15.7452   2
  -1  -6   5 2068.89 123.448   1
  -1  -6   5 2260.42 94.7758   3
  -1  -6   5 2072.19 99.0471   2
   1   6  -5 2076.03 114.548   1
  -1  -6   4 2039.55 88.3909   3
   1   6  -4 2007.53 109.115   1
  -1  -6   4 1930.73 94.6830   2
  -1  -6   3 415.086 38.8505   3
  -1  -6   3 357.474 39.6863   2
   1   6  -3 363.196 45.5631   1
   1   6  -2 1300.19 84.2818   1
  -1  -6   2 1152.04 72.3198   2
  -1  -6   2 1305.56 65.1314   3
  -1  -6   1 3670.61 113.290   3
  -1  -6   1 3765.62 132.582   2
   1   6  -1 3740.78 141.603   1
  -1  -6   0 1007.63 56.7826   3
   1   6   0 1045.92 73.1494   1
   1   6   0 977.551 57.3055   3
  -1  -6  -1 2947.83 101.093   3
   1   6   1 3104.82 106.204   3
   1   6   1 3020.75 124.678   1
   1   6   2 379.337 45.6639   1
  -1  -6  -2 333.765 34.8201   3
   1   6   2 358.503 34.9558   3
   1   6   3 5768.28 156.333   3
  -1  -6  -3 5397.92 148.888   3
   1   6   4 253.796 32.5650   3
  -1  -6  -4 277.074 33.4995   3
  -1  -6  -5 7660.55 193.257   3
   1   6   5 7194.38 188.181   3
   1   6   6 562.884 49.6996   3
  -1  -6  -6 541.223 52.4975   3
   1   6   7 1773.64 92.1482   3
  -1  -6  -7 2037.94 99.2245   3
   1   6   8 702.309 59.1451   3
  -1  -6  -8 614.577 57.8490   3
  -1  -6  -9-19.2548 21.7424   3
  -1  -6  -9 1.49734 16.4400   2
  -1  -6 -10-8.57106 17.1485   2
  -1  -6 -11 226.381 43.6874   2
  -1  -6 -12 384.598 60.6397   2
  -1  -6 -13 2004.93 136.521   2
  -1  -6 -14 3.31120 24.0980   2
  -1  -6 -15 277.951 55.4036   2
   1   7 -10 20.9085 18.2419   1
   1   7  -9 384.748 56.8215   1
  -1  -7   8 242.731 36.7671   3
   1   7  -8 291.924 49.5441   1
   1   7  -7 487.507 61.0574   1
  -1  -7   7 492.738 48.3856   3
  -1  -7   6 553.805 51.1774   3
   1   7  -6 383.989 54.3520   1
  -1  -7   5 446.468 49.3306   2
   1   7  -5 488.868 59.7551   1
  -1  -7   5 503.129 48.3562   3
   1   7  -4 1244.67 90.1642   1
  -1  -7   4 1123.23 78.1870   2
  -1  -7   4 1325.44 74.6219   3
  -1  -7   3 3225.87 135.541   2
  -1  -7   3 3659.85 123.248   3
   1   7  -3 3250.19 145.647   1
  -1  -7   2 422.528 40.6189   3
   1   7  -2 426.553 52.0946   1
  -1  -7   2 362.820 43.8044   2
  -1  -7   1 399.891 40.2494   3
   1   7  -1 384.279 48.5595   1
  -1  -7   1 365.155 46.3713   2
   1   7   0 47.7381 17.6567   1
  -1  -7   0 89.0867 22.0181   3
   1   7   1 264.680 40.5851   1
   1   7   1 302.549 35.8015   3
  -1  -7  -1 326.725 37.5560   3
   1   7   2 497.196 56.2705   1
   1   7   2 464.316 44.3961   3
  -1  -7  -2 438.612 43.7711   3
   1   7   3 6482.79 181.761   3
  -1  -7  -3 6627.76 179.913   3
   1   7   3 6598.14 207.465   1
  -1  -7  -4 665.852 56.0268   3
   1   7   4 775.167 59.5645   3
   1   7   5 3018.86 123.593   3
  -1  -7  -5 3162.36 124.369   3
  -1  -7  -6 1315.78 80.8282   3
   1   7   6 1142.41 75.8372   3
  -1  -7  -7 1666.63 96.3605   3
  -1  -7  -8 138.182 32.0541   3
  -1  -7  -9 150.699 34.8530   3
  -1  -7 -10 4.02442 18.2764   2
  -1  -7 -10 35.0070 26.8303   3
  -1  -7 -11 20.7669 24.7681   2
  -1  -7 -12 164.590 43.2458   2
  -1  -7 -13 205.628 46.8584   2
  -1  -7 -14 253.413 56.3406   2
   1   8  -8 179.805 43.2509   1
   1   8  -7 179.881 41.1715   1
   1   8  -6-18.8830 22.8061   1
  -1  -8   5 573.545 53.2104   3
   1   8  -5 551.262 64.9291   1
   1   8  -4 328.306 50.7422   1
  -1  -8   4 403.564 43.2392   3
   1   8  -3 584.571 65.5485   1
  -1  -8   3 699.407 57.4061   3
  -1  -8   2 304.280 38.2963   3
   1   8  -2 322.160 48.6924   1
  -1  -8   2 268.906 40.5478   2
   1   8  -1 141.087 33.7824   1
  -1  -8   1 106.373 26.9426   2
  -1  -8   1 120.574 23.7183   3
  -1  -8   0 33.5131 17.4739   3
  -1  -8   0 17.8270 13.7144   2
  -1  -8  -1-13.4510 18.6700   3
   1   8   1-9.04465 14.4184   3
   1   8   1-10.3760 22.5272   1
   1   8   2 106.745 25.8486   3
   1   8   2 142.322 34.0237   1
  -1  -8  -2 157.197 30.6062   3
   1   8   3 2401.57 128.409   1
  -1  -8  -3 2435.21 110.356   3
   1   8   3 2319.59 111.737   3
  -1  -8  -4 1662.78 92.4741   3
   1   8   4 1759.05 109.878   1
  -1  -8  -5 1062.61 78.4427   3
  -1  -8  -6-0.79316 17.4128   3
  -1  -8  -7 686.820 66.5758   3
  -1  -8  -8 363.729 50.5050   3
  -1  -8  -9 505.201 63.5949   3
  -1  -8 -10-12.9380 19.2948   2
  -1  -8 -10 43.4961 19.0858   3
  -1  -8 -11 61.8168 27.8869   2
  -1  -8 -12-4.07442 23.4695   2
  -1  -8 -13 131.274 44.0994   2
   1   9  -6 248.446 49.5075   1
   1   9  -5 48.0345 21.9944   1
   1   9  -4 47.2738 23.0223   1
   1   9  -3 546.710 66.9446   1
  -1  -9   3 663.105 60.0794   3
   1   9  -2 95.7129 30.0786   1
  -1  -9   2 124.700 27.7102   3
   1   9  -1 271.282 45.8934   1
  -1  -9   1 345.653 44.4172   3
   1   9   0 23.7148 22.4458   1
  -1  -9   0 24.7535 19.6493   3
   1   9   1 226.922 42.9928   1
  -1  -9  -1 328.082 43.4603   3
   1   9   2 31.6961 18.7957   1
  -1  -9  -2 29.3705 19.7039   3
   1   9   3 174.709 33.6323   1
  -1  -9  -3 178.745 33.6092   3
   1   9   4 474.573 61.8215   1
  -1  -9  -4 457.687 53.5514   3
  -1  -9  -5 763.577 70.4736   3
   1   9   5 774.047 77.8143   1
  -1  -9  -6-9.09896 17.6325   3
  -1  -9  -7 33.0623 19.9591   3
  -1  -9  -8 53.9177 25.7905   3
  -1  -9  -9 219.149 42.9277   3
  -1  -9 -10 103.686 36.7544   3
  -1  -9 -11 646.136 76.0494   3
  -1  -9 -11 590.688 80.3726   2
   1  10  -1 232.283 47.3146   1
  -1 -10   0 415.378 51.7841   3
   1  10   0 317.291 52.7106   1
  -1 -10  -1 427.962 54.5062   3
   1  10   1 365.083 57.4662   1
  -1 -10  -2 289.601 46.6042   3
   1  10   2 310.902 52.1171   1
  -1 -10  -3 259.150 43.9605   3
   1  10   3 183.927 41.0901   1
   1  10   4 44.1114 23.7362   1
  -1 -10  -4-1.00242 15.2429   3
  -1 -10  -5 447.091 58.1430   3
   1  10   5 465.023 65.3702   1
   1  10   6 50.4426 29.4170   1
  -1 -10  -6-13.6166 17.6670   3
   1  10   7 92.8684 33.9135   1
  -1 -10  -7 100.351 31.8671   3
  -1 -10  -8 157.873 38.2385   3
  -1 -10  -9 8.16618 16.5550   3
  -1 -10 -10-50.0340 30.0173   3
  -1 -11  -5 21.1968 21.8320   3
  -1 -11  -6 48.2846 25.5352   3
   2  -9  -7 29.7402 20.5150   3
   2  -9  -6 49.9222 25.5550   3
   2  -9  -5 32.7367 25.4849   3
   2  -9  -4-4.51792 22.2434   3
   2  -9  -3-17.6634 20.1604   3
   2  -9  -2 319.531 53.4558   3
   2  -9  -1 17.4123 20.6604   3
   2  -9   0 102.253 32.5226   3
   2  -9   1 36.3913 23.4333   3
   2  -9   2 80.3724 26.0933   3
   2  -9   3 57.0438 26.5983   3
   2  -9   4 80.6665 34.4491   3
   2  -8 -10 106.384 34.8680   3
   2  -8  -9 30.9221 27.5278   3
   2  -8  -8 575.433 73.3163   3
   2  -8  -7 56.2730 28.9588   3
   2  -8  -6 30.1539 27.2741   3
   2  -8  -5 0.86879 17.7638   3
  -2   8   4-11.5528 14.4283   1
   2  -8  -4 6.94295 20.0636   3
  -2   8   3 36.6331 13.1205   1
   2  -8  -3 19.2019 17.1098   3
   2  -8  -2 86.8051 29.1013   3
  -2   8   2 83.8149 19.0354   1
  -2   8   1 7.19350 11.6797   1
   2  -8  -1 32.8782 22.6047   3
   2  -8   0 1033.39 84.1014   3
   2  -8   1 18.3426 22.4604   3
   2  -8   2 277.322 46.0891   3
   2  -8   3 8.80323 16.9959   3
   2  -8   4 20.4889 20.8978   3
   2  -8   5-15.9588 23.4206   3
   2  -8   6 284.611 50.1318   3
   2  -8   7 150.073 37.5471   3
   2  -7 -12 178.632 44.9980   3
   2  -7 -11 111.644 38.3158   3
   2  -7 -10 499.554 69.4376   3
   2  -7  -9 79.2227 30.7477   3
  -2   7   8 329.810 41.0607   1
   2  -7  -8 330.327 53.0081   3
   2  -7  -7 927.250 81.0855   3
  -2   7   7 831.337 62.2297   1
   2  -7  -6 504.192 62.3461   3
   2  -7  -5 24.3397 24.4745   3
   2  -7  -4 416.535 56.2566   3
  -2   7   3 7.35676 12.4398   1
   2  -7  -3-14.1647 16.4871   3
   2  -7  -2 1084.18 80.7167   3
  -2   7   2 1089.87 58.1804   1
  -2   7   1 130.856 19.3769   1
   2  -7  -1 113.313 30.3164   3
   2  -7   0 1879.19 108.258   3
  -2   7   0 1774.40 70.6386   1
   2  -7   1 388.763 50.6358   3
  -2   7  -1 433.299 34.1904   1
   2  -7   2 109.894 32.0032   3
  -2   7  -2 95.8609 19.9447   1
   2  -7   3 51.9279 23.5988   3
  -2   7  -3 15.9243 8.87131   1
   2  -7   4 2022.13 118.355   3
  -2   7  -4 1755.28 81.5700   1
  -2   7  -5 247.172 31.9343   1
   2  -7   5 256.429 46.2936   3
  -2   7  -6 114.748 24.7404   1
   2  -7   6 151.272 35.1503   3
   2  -7   7 297.665 50.2716   3
   2  -7   8 1222.19 99.6268   3
   2  -7   9 31.9413 25.5344   3
   2  -7  10 5.35561 17.9043   3
   2  -6 -14 234.509 57.7455   2
   2  -6 -13 62.0071 30.9240   2
   2  -6 -12 87.0618 33.4214   3
   2  -6 -11 54.1784 30.4625   3
   2  -6 -10 92.3725 32.5005   3
   2  -6  -9 8.56352 17.3800   3
  -2   6   9 16.1117 12.9429   1
  -2   6   8 366.400 42.7462   1
   2  -6  -8 329.175 51.0289   3
  -2   6   7 116.459 25.4093   1
   2  -6  -7 103.593 27.0727   3
   2  -6  -6 557.717 58.9135   3
  -2   6   6 569.052 47.7138   1
   2  -6  -5 59.6200 23.9151   3
   2  -6  -4 719.191 62.7839   3
   2  -6  -3 1681.15 96.1232   3
  -2   6   3 1750.36 96.5566   3
  -2   6   2 3662.49 105.720   1
  -2   6   2 3868.51 147.266   3
   2  -6  -2 3941.95 145.965   3
  -2   6   1 714.100 61.2837   3
   2  -6  -1 636.312 59.6020   3
  -2   6   1 671.564 38.7479   1
  -2   6   0 70.1886 23.3767   3
   2  -6   0 93.8712 26.5840   3
  -2   6   0 110.535 18.3174   1
   2  -6   1-12.5185 21.3299   3
  -2   6  -1-6.82698 8.42148   1
   2  -6   1 1.74391 15.0027   2
   2  -6   2 2323.06 116.010   3
  -2   6  -2 2284.16 79.9209   1
  -2   6  -3 97.3277 18.0819   1
   2  -6   3 79.2568 26.0530   3
  -2   6  -4 1229.56 62.9001   1
   2  -6   4 1028.25 79.4637   3
  -2   6  -5 1440.69 72.8580   1
   2  -6   5 1482.62 98.2316   3
  -2   6  -6 2610.54 105.925   1
   2  -6   6 2818.27 136.585   3
  -2   6  -7 374.332 41.5565   1
   2  -6   7 294.512 42.9168   1
   2  -6   7 382.481 53.5064   3
   2  -6   8 970.636 84.1745   3
  -2   6  -8 957.305 69.2571   1
   2  -6   9 1169.46 96.1500   3
   2  -6  10 85.9085 32.1375   3
   2  -6  11 64.9377 27.3998   3
   2  -5 -15 43.6117 37.3346   2
   2  -5 -14 431.512 67.5242   2
   2  -5 -13 126.432 41.1342   2
   2  -5 -12 105.785 36.3439   2
   2  -5 -12 141.805 37.7417   3
   2  -5 -11 114.982 27.1767   3
   2  -5 -10-2.12595 21.1330   3
  -2   5  10 17.4194 11.7664   1
  -2   5   9-9.49118 16.2294   1
   2  -5  -9-3.45599 20.1644   3
   2  -5  -8 31.5000 24.0403   3
  -2   5   8 34.6421 17.8045   1
  -2   5   7 487.896 44.7432   1
   2  -5  -7 580.217 58.0860   3
  -2   5   6 170.352 26.2881   1
  -2   5   6 179.234 32.6423   3
   2  -5  -6 142.774 31.5428   3
  -2   5   5-0.33628 14.7300   3
   2  -5  -5 1.22554 15.5094   3
  -2   5   5 29.1175 17.2525   1
   2  -5  -4 1339.65 78.4200   3
  -2   5   4 1218.50 74.8564   3
  -2   5   3 1073.79 69.4132   3
   2  -5  -3 1037.65 70.4967   3
   2  -5  -2 5885.92 170.543   3
  -2   5   2 5646.77 171.010   3
   2  -5  -1 1553.69 84.0084   3
  -2   5   1 1689.26 87.7374   3
  -2   5   1 1673.68 57.5244   1
   2  -5   0 1852.01 95.0847   3
  -2   5   0 1900.79 59.4372   1
  -2   5   0 1987.15 96.0884   3
   2  -5   1 1610.44 94.8261   2
  -2   5  -1 1518.79 53.3420   1
   2  -5   1 1586.15 88.3104   3
   2  -5   2 75.1033 25.1881   3
  -2   5  -2 95.3593 15.0235   1
   2  -5   2 96.4205 29.0698   2
   2  -5   3 162.927 33.7157   2
   2  -5   3 161.642 33.2251   3
  -2   5  -3 149.694 20.0764   1
  -2   5  -4 2430.77 84.5413   1
   2  -5   4 2180.07 117.402   2
   2  -5   4 2203.51 109.795   3
   2  -5   5 871.072 58.4923   1
  -2   5  -5 984.369 56.0676   1
   2  -5   5 881.479 77.1668   2
   2  -5   5 853.935 68.3723   3
  -2   5  -6 3027.95 107.999   1
   2  -5   6 2945.42 135.677   3
   2  -5   6 2618.35 112.148   1
  -2   5  -7 960.111 63.7406   1
   2  -5   7 828.356 65.4486   1
   2  -5   7 931.269 76.3866   3
   2  -5   8 1581.70 97.9813   1
   2  -5   8 1721.64 106.442   3
  -2   5  -8 1826.71 93.5446   1
   2  -5   9 1041.03 85.6741   3
   2  -5   9 752.567 71.6759   1
   2  -5  10 1518.78 107.165   3
   2  -5  11 12.9708 20.1893   3
   2  -5  12 286.364 52.0176   3
   2  -5  13 52.0354 33.4134   3
   2  -4 -16 427.656 71.3392   2
   2  -4 -15 90.3256 36.6275   2
   2  -4 -14 112.765 39.2842   2
   2  -4 -13 148.856 39.6872   2
   2  -4 -12 695.369 76.0551   2
   2  -4 -11 872.080 77.0979   3
   2  -4 -11 813.091 77.1133   2
   2  -4 -10 438.365 52.6768   3
  -2   4  10 339.913 44.6258   1
  -2   4   9 26.4532 15.2320   1
   2  -4  -9-13.7726 19.7900   3
  -2   4   8 615.406 53.5762   1
  -2   4   8 499.554 49.2042   3
   2  -4  -8 607.162 56.4322   3
   2  -4  -7 92.5394 23.0673   3
  -2   4   7 120.082 23.8430   1
  -2   4   7 112.826 24.1697   3
  -2   4   6 2692.78 99.1889   1
  -2   4   6 2705.61 110.977   3
   2  -4  -6 2753.31 114.023   3
   2  -4  -5 330.347 37.6749   3
  -2   4   5 296.316 35.5917   3
  -2   4   5 282.411 29.7367   1
  -2   4   4 4644.73 115.823   1
  -2   4   4 4839.88 145.703   3
   2  -4  -4 4471.24 142.783   3
   2  -4  -3 900.964 58.2451   3
  -2   4   3 950.892 59.7165   3
  -2   4   2 9885.30 222.903   3
   2  -4  -2 10272.5 224.005   3
  -2   4   1 1928.05 54.2974   1
   2  -4  -1 1893.77 85.6600   3
  -2   4   1 2080.12 89.0905   3
   2  -4   0 852.932 57.8494   3
  -2   4   0 861.956 31.4674   1
  -2   4   0 969.750 60.2815   3
  -2   4  -1 1944.21 52.4172   1
  -2   4  -1 2279.42 95.5271   3
   2  -4   1 2254.43 95.0765   3
   2  -4   1 2308.83 105.073   2
   2  -4   2 672.537 53.7045   3
  -2   4  -2 689.253 32.2525   1
   2  -4   2 662.180 58.8814   2
  -2   4  -3 150.141 17.4173   1
   2  -4   3 104.739 22.1422   3
   2  -4   3 122.226 27.6434   2
  -2   4  -4 3640.74 97.2291   1
   2  -4   4 3104.35 97.6009   1
   2  -4   4 3248.22 126.225   3
   2  -4   4 3326.10 136.579   2
  -2   4  -5 2356.94 84.0546   1
   2  -4   5 2225.97 112.404   2
   2  -4   5 2218.14 106.028   3
   2  -4   5 2234.39 88.8819   1
  -2   4  -6 6814.88 167.332   1
   2  -4   6 6710.75 213.928   2
   2  -4   6 6854.11 202.647   3
   2  -4   6 6841.22 178.775   1
   2  -4   7 252.617 35.2093   1
   2  -4   7 244.048 40.0526   3
   2  -4   7 280.662 43.0479   2
  -2   4  -7 278.562 34.6907   1
   2  -4   8 118.496 29.5254   3
   2  -4   8 151.918 29.0566   1
  -2   4  -8 131.612 35.1593   2
  -2   4  -9 28.9336 24.2736   2
   2  -4   9 56.3583 21.8694   1
   2  -4  10 1120.17 88.1538   1
  -2   4 -10 1361.10 108.988   2
  -2   4 -11 883.583 88.4340   2
  -2   4 -12 1062.36 102.428   2
  -2   4 -13 308.830 59.7641   2
  -2   4 -14 128.681 45.2382   2
   2  -3 -17 129.525 41.6716   2
   2  -3 -16 554.399 78.4901   2
   2  -3 -15 58.0051 29.8495   2
   2  -3 -14 70.1335 30.6982   2
   2  -3 -13 25.0177 21.6076   2
   2  -3 -12 870.954 79.2504   2
   2  -3 -11 830.253 74.3815   2
  -2   3  10 2902.36 135.609   1
   2  -3 -10 3123.91 136.253   3
  -2   3  10 2760.82 124.475   3
   2  -3 -10 3094.70 137.382   2
  -2   3   9 1086.82 76.2633   1
  -2   3   9 964.287 67.4432   3
   2  -3  -9 1095.13 74.8473   3
  -2   3   8 1578.22 87.0305   1
  -2   3   8 1576.43 82.3255   3
   2  -3  -8 1498.40 84.3674   3
   2  -3  -7 645.072 53.7951   3
  -2   3   7 673.792 52.5555   3
  -2   3   7 667.438 53.8147   1
  -2   3   6 10666.9 226.853   1
  -2   3   6 10528.1 231.676   3
   2  -3  -6 10371.3 232.218   3
  -2   3   5 8248.44 180.744   1
  -2   3   5 8773.78 196.635   3
   2  -3  -5 8564.91 196.758   3
   2  -3  -4 24740.4 415.048   3
  -2   3   4 24959.8 386.464   1
  -2   3   4 26774.0 419.460   3
  -2   3   3 369.423 25.8431   1
  -2   3   3 399.035 35.9950   3
   2  -3  -3 390.093 34.7535   3
  -2   3   2 1413.98 44.2463   1
   2  -3  -2 1415.35 67.1059   3
  -2   3   2 1548.20 68.6786   3
   2  -3  -1 8158.76 178.946   3
  -2   3   1 7734.52 173.824   3
  -2   3   1 7376.67 116.979   1
   2  -3   0 7074.20 173.018   3
  -2   3   0 7110.00 166.968   3
   2  -3   1 514.600 41.6877   3
   2  -3   1 618.699 48.0486   2
  -2   3  -1 579.577 44.3827   3
   2  -3   2 4993.88 139.795   3
   2  -3   2 5396.36 154.213   2
  -2   3  -2 4651.69 87.2862   1
   2  -3   3 5991.51 170.046   2
   2  -3   3 5887.00 120.403   1
  -2   3  -3 5877.20 113.348   1
   2  -3   3 5534.65 159.147   3
  -2   3  -4 6260.56 131.215   1
   2  -3   4 6386.77 181.141   2
   2  -3   4 6364.45 139.656   1
   2  -3   4 5938.44 169.459   3
   2  -3   5 4771.63 128.316   1
   2  -3   5 5019.35 163.774   2
   2  -3   5 4916.65 156.452   3
  -2   3  -5 4917.35 168.650   2
  -2   3  -5 5158.13 124.311   1
   2  -3   6 8602.67 228.303   2
   2  -3   6 7973.84 190.672   1
  -2   3  -6 8181.31 232.452   2
   2  -3   7 330.430 37.0504   1
   2  -3   7 279.660 41.2299   2
  -2   3  -7 284.431 43.6890   2
   2  -3   8 41.1638 17.4011   1
   2  -3   8-21.4218 26.3400   2
  -2   3  -8-3.94018 18.1782   2
  -2   3  -9 2356.22 132.399   2
   2  -3   9 2201.55 111.730   1
   2  -3   9 2374.13 122.891   2
   2  -3  10 340.890 47.3436   1
  -2   3 -10 399.997 58.5162   2
  -2   3 -11 95.3835 34.3337   2
  -2   3 -12 384.437 59.7476   2
  -2   3 -13 611.788 77.8807   2
  -2   3 -14 580.190 76.4858   2
  -2   3 -15-10.4343 29.1418   2
   2  -2 -17 44.9467 27.4560   2
   2  -2 -16 1065.96 100.155   2
   2  -2 -15 278.141 50.2752   2
   2  -2 -14 55.1810 23.1809   2
   2  -2 -13 184.502 41.5034   2
   2  -2 -12 303.212 46.9738   2
  -2   2  11 518.063 52.0730   3
   2  -2 -11 541.525 60.0256   2
  -2   2  10 436.192 45.0520   3
  -2   2  10 374.745 50.4945   1
   2  -2 -10 417.523 48.9615   2
  -2   2   9 821.640 59.9917   3
  -2   2   9 804.480 68.3041   1
   2  -2  -9 803.544 62.9900   2
  -2   2   8 4257.28 149.769   1
  -2   2   8 4158.34 133.709   3
   2  -2  -8 4043.12 137.160   3
  -2   2   7 427.261 43.1683   1
  -2   2   7 459.540 40.6624   3
   2  -2  -7 463.313 42.0477   3
  -2   2   6 11674.2 232.270   3
  -2   2   6 11667.4 242.875   1
   2  -2  -6 11157.6 237.171   3
  -2   2   5 617.004 44.5188   1
  -2   2   5 583.580 41.1961   3
   2  -2  -5 606.971 43.8490   3
  -2   2   4 23253.5 365.182   1
   2  -2  -4 23250.3 371.651   3
  -2   2   4 23142.6 369.901   3
  -2   2   3 9324.10 171.151   1
  -2   2   3 8930.36 185.280   3
   2  -2  -3 9501.92 186.733   3
  -2   2   2 1173.25 41.4442   1
  -2   2   2 1317.57 57.5268   3
   2  -2  -2 1062.47 53.8559   3
  -2   2   1 1740.70 41.5475   1
  -2   2   1 2001.38 69.7272   3
   2  -2  -1 1925.07 69.8585   3
   2  -2   0 233.020 25.6411   3
  -2   2   0 283.963 28.5489   3
   2  -2   1 4375.75 122.965   2
   2  -2   1 4006.07 113.876   3
   2  -2   2 2156.65 46.8839   1
   2  -2   2 2222.07 86.9294   2
   2  -2   2 2269.58 82.4187   3
   2  -2   3 10487.1 228.600   2
  -2   2  -3 10764.7 237.805   2
   2  -2   3 11123.2 226.039   3
   2  -2   3 11308.4 179.868   1
   2  -2   4 21008.5 381.422   2
   2  -2   4 21446.2 328.790   1
  -2   2  -4 22048.6 390.337   2
   2  -2   5 28.9571 17.5474   2
   2  -2   5 17.9108 10.1094   1
  -2   2  -5 27.3130 18.5917   2
   2  -2   6 8642.88 192.614   1
  -2   2  -6 8222.46 220.474   2
   2  -2   6 8751.97 219.023   2
   2  -2   7 22.1217 13.0085   2
  -2   2  -7 26.6158 18.9275   2
   2  -2   7 35.9381 14.8900   1
   2  -2   8 1703.36 95.0880   2
  -2   2  -8 1444.24 93.0303   2
   2  -2   8 1644.52 87.3565   1
   2  -2   9 1985.95 107.498   2
  -2   2  -9 1989.86 114.222   2
   2  -2   9 1983.20 103.501   1
  -2   2 -10 1090.13 87.5111   2
   2  -2  10 1165.22 86.9434   2
   2  -2  10 1138.08 83.3648   1
   2  -2  11 654.172 66.4891   1
  -2   2 -11 671.931 74.2290   2
  -2   2 -12 469.796 64.7392   2
  -2   2 -13 19.5500 27.3448   2
  -2   2 -14 501.375 69.9272   2
  -2   2 -15 290.335 55.8540   2
  -2   2 -16 31.5793 29.5384   2
   2  -1 -17 96.5789 34.7750   2
   2  -1 -16 96.2272 33.2840   2
   2  -1 -15 414.563 58.1605   2
   2  -1 -14 1609.61 109.566   2
   2  -1 -13-0.92375 16.6687   2
   2  -1 -12 49.2624 20.5515   2
   2  -1 -11 11.9813 18.6222   2
  -2   1  11-5.15304 16.6744   3
   2  -1 -10 1900.65 98.9250   2
  -2   1  10 1918.32 92.7875   3
  -2   1  10 1875.86 111.089   1
   2  -1  -9 5.34750 13.5828   2
  -2   1   9 18.1182 14.3999   3
  -2   1   9 20.8536 17.9227   1
   2  -1  -9 36.6729 22.3630   1
   2  -1  -8 4543.95 149.964   1
  -2   1   8 4229.43 157.233   1
  -2   1   8 4289.18 130.043   3
   2  -1  -8 4110.97 135.582   2
   2  -1  -7 19.6261 19.1450   1
   2  -1  -7 21.0077 16.5693   2
  -2   1   7 3.41415 9.21194   3
  -2   1   7 11.1431 16.2861   1
   2  -1  -7 17.9267 14.5849   3
   2  -1  -6 808.824 53.6599   1
  -2   1   6 851.818 48.7011   3
  -2   1   6 802.797 56.1338   1
   2  -1  -6 763.045 48.8857   3
   2  -1  -5 2535.32 90.2030   1
  -2   1   5 2372.76 94.6759   1
   2  -1  -5 2578.54 85.5003   3
  -2   1   5 2401.56 79.9917   3
   2  -1  -4 2605.14 85.3965   1
  -2   1   4 2578.52 77.7872   3
   2  -1  -4 2521.54 79.9245   3
  -2   1   4 2509.69 86.0982   1
   2  -1  -3 15807.8 260.085   1
  -2   1   3 16152.9 257.320   3
  -2   1   3 16092.2 265.956   1
   2  -1  -3 15930.8 258.716   3
  -2   1   2 745.606 35.9048   1
  -2   1   2 975.926 41.9328   3
   2  -1  -2 801.054 39.0093   3
   2  -1  -2 797.054 36.6621   1
   2  -1  -1 7819.14 129.507   1
   2  -1  -1 7461.59 149.523   3
  -2   1   1 7689.11 130.445   1
  -2   1   1 8080.45 147.771   3
   2  -1   0 4712.40 111.320   3
   2  -1   0 4833.15 80.3648   1
  -2   1   0 5182.43 110.700   3
   2  -1   1 4115.56 104.317   3
   2  -1   1 4334.42 111.150   2
   2  -1   2 15785.3 270.242   2
  -2   1  -2 15191.0 273.619   2
   2  -1   3 167.669 15.9631   1
   2  -1   3 199.517 27.3072   2
  -2   1  -3 197.440 27.1394   2
   2  -1   4 30975.5 436.520   1
   2  -1   4 30907.4 481.695   2
  -2   1  -4 29896.4 488.398   2
   2  -1   5 196.724 23.9257   1
   2  -1   5 226.819 31.0766   2
  -2   1  -5 208.622 28.9718   2
   2  -1   6 68.9037 19.9112   2
  -2   1  -6 45.6684 21.5234   2
   2  -1   6 77.8557 18.6117   1
   2  -1   7 76.6278 21.6812   2
  -2   1  -7 104.597 26.2467   2
   2  -1   7 77.0151 17.8364   1
   2  -1   8 2167.26 102.305   2
   2  -1   8 2227.50 97.2676   1
  -2   1  -8 2173.64 109.018   2
   2  -1   9 3291.85 136.145   2
   2  -1   9 3458.90 133.511   1
  -2   1  -9 3403.67 144.330   2
   2  -1  10 613.715 60.1506   2
   2  -1  10 530.844 55.2654   1
  -2   1 -10 490.678 58.6699   2
  -2   1 -11 421.830 57.6101   2
   2  -1  11 436.221 53.8696   1
  -2   1 -12 1989.95 125.675   2
  -2   1 -13 717.776 78.4897   2
  -2   1 -14 526.266 71.5106   2
  -2   1 -15 67.4100 33.5689   2
  -2   1 -16 474.791 71.0833   2
   2   0 -16 357.278 58.2621   2
   2   0 -15 17.2299 16.8672   2
   2   0 -14 928.186 83.3799   2
   2   0 -13 1531.32 102.128   2
   2   0 -12 1194.61 84.7748   2
  -2   0  12 1066.23 75.4885   3
   2   0 -11-4.13833 17.8787   2
  -2   0  11-0.84445 11.6420   3
   2   0 -10 3997.52 144.151   2
  -2   0  10 4008.98 135.703   3
   2   0 -10 3658.04 149.711   1
  -2   0   9 142.957 35.8789   1
   2   0  -9 199.668 35.0516   1
   2   0  -9 114.503 23.8758   2
  -2   0   9 111.944 22.3452   3
   2   0  -8 2276.04 94.5951   2
   2   0  -8 2212.79 104.402   1
  -2   0   8 2302.09 89.4143   3
  -2   0   8 2227.40 113.088   1
   2   0  -7 1141.87 61.2730   2
   2   0  -7 1104.50 69.6517   1
  -2   0   7 1058.49 72.9334   1
  -2   0   7 1204.75 58.5436   3
   2   0  -6 1462.66 76.8772   1
  -2   0   6 1311.45 58.2943   3
  -2   0   6 1604.42 82.2786   1
   2   0  -6 1563.91 65.3042   2
   2   0  -5 857.664 55.6107   1
  -2   0   5 794.555 54.7946   1
  -2   0   5 857.666 42.2296   3
   2   0  -5 886.097 44.1113   2
   2   0  -4 689.752 45.9704   1
  -2   0   4 695.139 46.4618   1
   2   0  -4 649.866 35.5207   3
  -2   0   4 628.277 34.0799   3
  -2   0   3 12461.2 196.675   3
  -2   0   3 12568.4 229.415   1
   2   0  -3 12326.9 198.365   3
   2   0  -3 11874.7 223.922   1
   2   0  -2 9092.00 172.984   1
  -2   0   2 9180.56 149.910   3
  -2   0   2 8966.30 174.093   1
   2   0  -2 9109.96 150.324   3
   2   0  -1 3627.52 74.6857   3
   2   0  -1 3534.48 85.2970   1
  -2   0   1 3290.26 73.1027   3
  -2   0   1 3396.96 85.6091   1
   2   0   0 653.952 30.4423   1
  -2   0   0 657.891 29.1580   3
   2   0   0 640.452 30.2672   2
   2   0   0 640.456 30.4099   3
  -2   0   0 719.230 32.6956   1
   2   0   1 221.689 21.0111   2
  -2   0  -1 203.729 21.2801   2
  -2   0  -2 28050.1 414.714   2
   2   0   2 28295.5 415.004   2
  -2   0  -3 1541.75 66.1802   2
   2   0   3 1553.56 62.8639   2
   2   0   4 4815.54 126.306   2
  -2   0  -4 4913.01 134.745   2
   2   0   5 2407.79 89.2037   2
  -2   0  -5 2283.85 92.9494   2
  -2   0  -6 559.059 47.5376   2
   2   0   6 624.897 47.1814   2
   2   0   6 708.965 45.9677   1
   2   0   7 467.246 41.9378   1
   2   0   7 531.322 48.0655   2
  -2   0  -7 503.856 48.4477   2
   2   0   8 4114.96 142.551   2
   2   0   8 4120.88 135.522   1
  -2   0  -8 4123.18 148.026   2
   2   0   9 510.152 49.9287   2
   2   0   9 543.449 49.7810   1
  -2   0  -9 508.067 55.2134   2
   2   0  10 7996.73 226.605   2
   2   0  10 7885.36 217.341   1
  -2   0 -10 7649.69 231.485   2
   2   0  11 2082.32 113.947   2
   2   0  11 2129.47 112.656   1
  -2   0 -11 2126.05 120.421   2
  -2   0 -12 849.743 80.0242   2
  -2   0 -13 354.543 55.7034   2
  -2   0 -14 1072.63 98.2046   2
  -2   0 -15 191.271 50.0264   2
  -2   0 -16 647.268 83.0445   2
  -2   0 -17 159.870 44.6298   2
   2   1 -15 157.331 38.3746   2
   2   1 -14 226.903 42.5365   2
   2   1 -13 661.964 76.0029   1
   2   1 -13 597.621 63.2468   2
  -2  -1  12 3000.27 129.262   3
   2   1 -12 3688.30 150.674   2
   2   1 -12 3725.29 167.135   1
   2   1 -11 199.995 35.5758   2
  -2  -1  11 215.640 32.7061   3
   2   1 -11 208.791 41.2022   1
   2   1 -10 2719.30 131.132   1
   2   1 -10 2830.64 119.429   2
  -2  -1  10 2627.36 107.845   3
   2   1  -9 380.365 49.5748   1
   2   1  -9 406.393 41.0940   2
  -2  -1   9 313.847 48.2031   1
  -2  -1   9 410.691 39.3714   3
   2   1  -8 2552.23 114.771   1
  -2  -1   8 2582.79 124.535   1
  -2  -1   8 2470.52 92.7220   3
   2   1  -8 2431.17 96.5738   2
   2   1  -7 370.990 32.6393   2
  -2  -1   7 348.421 43.3315   1
   2   1  -7 395.282 44.8515   1
  -2  -1   7 457.910 35.5565   3
   2   1  -6 3739.17 102.660   2
   2   1  -6 3874.95 133.853   1
  -2  -1   6 3863.73 139.134   1
  -2  -1   6 4131.86 106.162   3
   2   1  -5 3075.67 84.1624   2
  -2  -1   5 3181.74 84.0285   3
   2   1  -5 3124.71 115.252   1
  -2  -1   5 3116.17 116.175   1
   2   1  -4 327.695 21.5863   2
   2   1  -4 307.577 35.0115   1
  -2  -1   4 308.431 21.3142   3
  -2  -1   4 352.023 36.5705   1
   2   1  -3 19.9405 13.9004   1
   2   1  -3 20.6460 7.17842   2
  -2  -1   3 21.3593 12.9499   1
  -2  -1   3 15.0239 6.25029   3
   2   1  -2 1791.39 37.4943   2
  -2  -1   2 1835.01 40.2726   3
   2   1  -2 1864.85 42.0106   3
  -2  -1   2 1757.79 70.3424   1
   2   1  -2 1810.60 71.8507   1
   2   1  -1 1293.14 28.0241   3
  -2  -1   1 1348.26 57.4621   1
   2   1  -1 1380.62 58.1174   1
  -2  -1   1 1247.50 29.2485   3
   2   1   0 31105.9 406.918   2
   2   1   0 30449.3 401.302   3
  -2  -1   0 29827.1 406.135   2
   2   1   0 31726.0 452.033   1
   2   1   1 3183.39 70.1425   2
  -2  -1  -1 3157.45 71.6465   2
   2   1   2 29037.0 401.281   2
  -2  -1  -2 27911.9 403.543   2
   2   1   3 5.99521 9.84512   2
  -2  -1  -3 1.10967 11.8141   2
  -2  -1  -4 17.9962 15.3349   2
   2   1   4-8.06821 12.6230   2
   2   1   5 3307.66 102.294   2
  -2  -1  -5 2987.64 100.432   2
   2   1   6 1537.06 73.1168   2
  -2  -1  -6 1588.65 76.1949   2
   2   1   7 6628.43 173.635   2
  -2  -1  -7 6332.46 174.585   2
  -2  -1  -8 1592.96 86.4639   2
   2   1   8 1794.60 88.3888   2
  -2  -1  -9 1169.22 80.3903   2
   2   1   9 1330.05 81.6446   2
   2   1   9 1447.80 81.5455   1
   2   1  10 4020.92 147.107   1
  -2  -1 -10 3831.70 155.185   2
   2   1  10 3948.23 151.894   2
   2   1  11 179.492 33.5491   1
  -2  -1 -11 202.286 40.7558   2
   2   1  11 159.555 33.5605   2
  -2  -1 -12 4630.07 186.686   2
  -2  -1 -13 99.0814 37.4161   2
  -2  -1 -14 336.419 54.2307   2
  -2  -1 -15 131.184 43.8235   2
  -2  -1 -16 174.596 45.7842   2
  -2  -1 -17 177.074 47.9432   2
   2   2 -14 191.796 38.2262   2
   2   2 -14 259.034 50.0239   1
   2   2 -13 35.8634 28.8081   1
   2   2 -13 9.43469 21.0262   2
   2   2 -12 671.440 63.1895   2
   2   2 -12 660.818 72.7355   1
  -2  -2  12 492.251 51.7444   3
   2   2 -11 88.3186 27.6487   2
   2   2 -11 42.5660 23.6968   1
  -2  -2  11 77.1993 21.7404   3
   2   2 -10 234.801 42.4155   1
   2   2 -10 279.709 37.0320   2
  -2  -2  10 250.537 33.5217   3
   2   2  -9 34.5889 20.5726   1
  -2  -2   9-2.53134 10.2958   3
   2   2  -9 3.07695 15.6645   2
   2   2  -8 191.387 36.8964   1
  -2  -2   8 156.363 36.5142   1
   2   2  -8 151.452 23.7257   2
  -2  -2   8 148.906 22.5780   3
   2   2  -7 409.615 35.1058   2
   2   2  -7 354.668 44.9589   1
  -2  -2   7 372.712 31.9359   3
  -2  -2   7 383.374 48.7801   1
   2   2  -6 4509.94 115.129   2
  -2  -2   6 4152.92 107.773   3
   2   2  -6 4194.74 147.054   1
  -2  -2   6 4294.24 159.181   1
   2   2  -5 220.557 21.1881   2
  -2  -2   5 214.433 20.3372   3
  -2  -2   5 218.073 35.9122   1
   2   2  -5 195.307 30.9496   1
   2   2  -4 273.641 34.4369   1
   2   2  -4 244.432 18.5028   2
  -2  -2   4 235.780 18.5083   3
  -2  -2   4 253.810 33.0494   1
   2   2  -3 11542.6 233.706   1
  -2  -2   3 10791.0 160.676   3
  -2  -2   3 10877.9 238.993   1
   2   2  -3 10432.1 156.703   2
   2   2  -2 7937.68 180.652   1
  -2  -2   2 7563.76 182.450   1
  -2  -2   1 4023.03 119.243   1
   2   2  -1 4247.65 120.029   1
  -2  -2   0 8829.11 129.285   2
   2   2   0 10072.9 194.948   1
   2   2   1 4193.69 72.9311   3
  -2  -2  -1 4346.09 82.6027   2
   2   2   2 2538.96 62.7642   3
  -2  -2  -2 2625.08 70.4165   2
   2   2   2 2726.54 67.9463   2
  -2  -2  -3 32463.7 467.291   2
   2   2   3 32835.4 463.510   2
  -2  -2  -4 1294.65 58.1444   2
   2   2   4 1253.83 55.1170   2
  -2  -2  -5 1083.89 59.0775   2
   2   2   5 1048.20 55.1962   2
  -2  -2  -6 7550.08 186.331   2
   2   2   6 7796.18 179.992   2
  -2  -2  -7 43.0660 19.3753   2
   2   2   7 45.5652 18.7239   2
  -2  -2  -8 307.384 39.7564   2
   2   2   8 385.891 43.0370   2
   2   2   9 64.7960 21.4461   2
  -2  -2  -9 67.9464 24.5406   2
  -2  -2 -10 10059.5 261.369   2
   2   2  10 10147.4 260.768   2
   2   2  11 14.8589 16.4554   2
   2   2  11 44.4148 24.5155   1
   2   2  11 33.9592 19.7105   3
  -2  -2 -11 56.5663 24.7885   2
  -2  -2 -12 962.902 86.1244   2
  -2  -2 -13 475.741 61.6098   2
  -2  -2 -14 597.729 71.7671   2
  -2  -2 -15 319.683 57.7424   2
  -2  -2 -16 579.072 76.6715   2
  -2  -2 -17 213.337 51.9779   2
   2   3 -13 97.2464 34.4632   1
   2   3 -13 117.772 27.8843   2
   2   3 -12 43.6530 22.5940   1
   2   3 -12 93.5054 26.7791   2
   2   3 -11 69.2830 21.9733   2
  -2  -3  11 71.9693 22.5291   3
   2   3 -11 58.3767 32.2532   1
   2   3 -10 411.388 54.8905   1
   2   3 -10 397.691 43.2067   2
  -2  -3  10 413.424 41.8842   3
   2   3  -9-4.60537 13.4033   2
   2   3  -9-0.17450 17.1161   1
  -2  -3   9 2.26573 11.4288   3
  -2  -3   9 3.20714 10.9462   2
   2   3  -8 1071.75 83.0629   1
   2   3  -8 1301.22 68.8219   2
  -2  -3   8 1280.38 63.5394   2
   2   3  -7 65.0075 20.6443   1
  -2  -3   7 93.8774 17.2706   2
   2   3  -7 93.8625 18.5415   2
  -2  -3   7 103.180 30.2505   1
  -2  -3   6 1640.56 99.1216   1
   2   3  -6 1510.15 63.1194   2
   2   3  -6 1423.75 88.5904   1
  -2  -3   6 1526.51 59.4213   2
  -2  -3   5 292.037 22.8623   2
   2   3  -5 275.082 37.8497   1
  -2  -3   5 236.496 34.6046   1
   2   3  -5 264.678 23.7304   2
  -2  -3   4 8234.50 143.482   2
   2   3  -4 7606.12 204.680   1
  -2  -3   4 8254.55 221.923   1
  -2  -3   3 7860.10 129.770   2
  -2  -3   3 7647.46 129.734   3
   2   3  -3 7955.77 198.664   1
  -2  -3   3 7836.36 206.200   1
  -2  -3   2 998.143 65.0138   1
  -2  -3   2 1034.58 32.2427   2
  -2  -3   2 999.355 29.0347   3
   2   3  -2 976.511 63.9363   1
  -2  -3   1 241.153 15.4450   2
   2   3  -1 226.721 31.1366   1
  -2  -3   1 271.282 36.4491   1
  -2  -3   1 213.908 11.2429   3
   2   3   0 168.041 27.5610   1
  -2  -3   0 146.390 11.0258   3
   2   3   0 134.698 10.5263   3
   2   3   1 66.8687 22.3293   1
   2   3   1 50.3625 8.04226   3
  -2  -3  -1 38.7381 7.77116   3
   2   3   2 1025.49 36.9237   3
  -2  -3  -2 1046.10 43.8997   2
   2   3   3 6659.56 129.478   3
  -2  -3  -3 6697.75 145.655   2
   2   3   4 10250.6 189.640   3
  -2  -3  -4 10595.7 205.944   2
   2   3   5 4206.13 114.445   3
  -2  -3  -5 4608.57 128.982   2
   2   3   6 680.310 44.7695   3
  -2  -3  -6 708.773 50.0802   2
  -2  -3  -7 10206.7 237.127   2
   2   3   7 10674.6 222.576   3
  -2  -3  -8 11229.8 260.022   2
   2   3   8 11001.2 245.919   3
  -2  -3  -9 1216.81 81.4614   2
   2   3   9 1387.10 78.4209   3
  -2  -3 -10 5349.36 183.101   2
   2   3  10 4695.91 161.258   3
  -2  -3 -11 213.366 42.1755   2
   2   3  11 148.304 29.5847   3
  -2  -3 -12 360.445 51.1246   2
  -2  -3 -13-14.0637 23.4550   2
  -2  -3 -14 3771.92 180.119   2
  -2  -3 -15 1123.84 102.588   2
  -2  -3 -16 1321.24 115.833   2
  -2  -3 -17 35.8147 30.9958   2
   2   4 -12 178.111 42.5455   1
   2   4 -11 124.857 36.1610   1
   2   4 -11 102.537 26.8239   2
   2   4 -10 118.045 33.7387   1
   2   4 -10 76.3281 23.1035   2
  -2  -4   9 121.569 23.4349   2
   2   4  -9 108.202 29.6731   1
   2   4  -9 121.751 26.8139   2
   2   4  -8 792.195 74.1044   1
  -2  -4   8 805.194 51.8305   2
  -2  -4   7 3358.78 104.541   2
   2   4  -7 3205.17 143.794   1
  -2  -4   6 2119.25 76.0653   2
  -2  -4   6 2026.04 117.891   1
   2   4  -6 1913.90 108.168   1
   2   4  -5 5.73767 17.2408   1
  -2  -4   5-1.26072 15.2609   1
  -2  -4   5 14.0381 8.35148   3
  -2  -4   5 8.93329 8.46148   2
   2   4  -4 6291.74 191.263   1
  -2  -4   4 6816.20 138.409   2
  -2  -4   4 6596.86 132.554   3
  -2  -4   4 6645.23 206.360   1
  -2  -4   3 906.606 69.8962   1
  -2  -4   3 1020.09 42.9127   2
  -2  -4   3 981.668 38.6716   3
   2   4  -3 937.536 67.4901   1
  -2  -4   2 4822.22 161.716   1
  -2  -4   2 4743.57 103.204   2
  -2  -4   2 4436.67 91.0957   3
   2   4  -2 4788.60 153.681   1
   2   4  -1 26.3756 16.6401   1
  -2  -4   1 13.5061 6.06957   3
  -2  -4   1 23.5411 9.96343   2
   2   4   0 8607.06 147.942   3
  -2  -4   0 8675.01 145.289   3
   2   4   0 8708.32 213.403   1
   2   4   1 425.582 43.7747   1
   2   4   1 398.393 24.9238   3
  -2  -4  -1 389.930 24.0149   3
   2   4   2 3197.03 81.1477   3
  -2  -4  -2 3220.13 84.1073   3
   2   4   3 3581.41 92.0091   3
  -2  -4  -3 3550.57 96.2411   3
   2   4   4 1186.93 53.2619   3
  -2  -4  -4 1080.86 53.9456   3
  -2  -4  -4 1136.67 59.9139   2
   2   4   5 3476.35 101.631   3
  -2  -4  -5 3376.15 113.061   2
   2   4   6 1110.89 57.8791   3
  -2  -4  -6 1008.94 64.2267   2
   2   4   7 4246.90 128.172   3
  -2  -4  -7 4371.44 146.909   2
  -2  -4  -8 10563.7 259.959   2
   2   4   8 10697.2 235.397   3
  -2  -4  -9 2106.39 111.346   2
   2   4   9 2311.89 101.208   3
  -2  -4 -10 2620.01 126.234   2
   2   4  10 2655.06 116.630   3
  -2  -4 -11 17.7044 22.0487   2
  -2  -4 -12 1428.46 102.377   2
  -2  -4 -13 48.2913 25.5532   2
  -2  -4 -14 1014.41 95.4955   2
  -2  -4 -15 648.018 77.9180   2
  -2  -4 -16 1236.07 111.810   2
  -2  -4 -17 80.2548 39.3454   2
   2   5 -11 81.7198 34.7698   1
   2   5 -10 348.195 56.0028   1
  -2  -5  10 373.339 42.1118   3
   2   5  -9 632.171 72.2264   1
  -2  -5   9 638.732 51.1417   3
  -2  -5   8 802.981 53.9103   2
   2   5  -8 781.591 77.0594   1
  -2  -5   8 881.515 56.7522   3
  -2  -5   7 641.780 46.3968   2
  -2  -5   7 777.216 50.1531   3
   2   5  -7 691.298 69.0251   1
  -2  -5   6 4099.54 120.280   2
  -2  -5   6 4628.56 122.687   3
   2   5  -6 4273.53 172.900   1
  -2  -5   5 840.331 76.6206   1
  -2  -5   5 896.084 50.6069   2
  -2  -5   5 949.166 49.2408   3
   2   5  -5 907.518 74.6454   1
  -2  -5   4 780.614 41.1087   3
  -2  -5   4 793.666 73.1797   1
  -2  -5   4 709.112 44.0828   2
   2   5  -4 742.768 67.1940   1
  -2  -5   3 916.378 76.6100   1
  -2  -5   3 924.096 50.2168   2
  -2  -5   3 940.901 43.4545   3
   2   5  -3 921.088 71.5485   1
  -2  -5   2 4003.80 95.0539   3
   2   5  -2 3855.24 148.383   1
  -2  -5   2 3970.56 108.363   2
  -2  -5   1 1078.44 53.6998   2
  -2  -5   1 1064.47 43.8983   3
   2   5  -1 920.443 68.5874   1
  -2  -5   0 15089.7 245.777   3
   2   5   0 15182.5 249.430   3
   2   5   0 15368.1 325.008   1
   2   5   1 4436.13 151.718   1
   2   5   1 4366.78 105.820   3
  -2  -5  -1 4351.65 105.431   3
  -2  -5  -2 4361.73 109.403   3
   2   5   2 4194.51 149.381   1
   2   5   2 4265.77 110.024   3
   2   5   3 23.7268 10.5767   3
  -2  -5  -3 46.4150 14.5823   3
   2   5   4 3219.58 99.9351   3
  -2  -5  -4 3282.47 102.857   3
  -2  -5  -5 490.413 42.5993   3
   2   5   5 497.394 39.0452   3
  -2  -5  -6 2802.28 114.038   2
   2   5   6 2868.51 101.755   3
  -2  -5  -7 99.5979 23.7532   2
   2   5   7 91.3981 20.4275   3
   2   5   8 434.120 44.9744   3
  -2  -5  -8 428.766 49.4545   2
  -2  -5  -9 212.765 37.2156   2
   2   5   9 182.937 30.6351   3
   2   5  10 652.415 56.9703   3
  -2  -5 -10 594.544 64.5734   2
  -2  -5 -11 163.956 37.7103   2
  -2  -5 -12 913.687 83.5580   2
  -2  -5 -13 18.9744 25.7450   2
  -2  -5 -14 365.895 57.2260   2
  -2  -5 -15 39.0014 31.9046   2
  -2  -5 -16 31.6973 27.5490   2
   2   6 -10 519.441 69.8861   1
   2   6  -9 63.3707 29.4755   1
   2   6  -8 671.693 75.4868   1
  -2  -6   8 790.210 55.0558   3
  -2  -6   7 869.162 55.0389   3
   2   6  -7 848.703 81.9795   1
  -2  -6   6 313.162 33.9027   2
  -2  -6   6 326.188 32.6602   3
   2   6  -6 356.458 53.9872   1
  -2  -6   5 911.487 56.9943   2
  -2  -6   5 1026.18 55.6116   3
   2   6  -5 929.799 80.1053   1
  -2  -6   4-11.4370 9.33048   2
  -2  -6   4 7.34964 9.79271   3
  -2  -6   3 223.329 23.7733   3
   2   6  -3 192.332 36.7615   1
  -2  -6   3 198.232 28.3714   2
  -2  -6   2 479.225 40.6553   2
  -2  -6   2 491.045 34.2775   3
   2   6  -2 480.284 55.4951   1
   2   6  -1 556.501 56.8398   1
  -2  -6   1 554.942 44.7459   2
  -2  -6   1 591.604 37.3286   3
  -2  -6   0 7191.44 155.990   3
   2   6   0 7068.86 216.834   1
   2   6   1 2825.45 91.9729   3
  -2  -6  -1 2837.97 90.4990   3
   2   6   1 2802.85 127.629   1
   2   6   2 6925.96 211.232   1
   2   6   2 6996.83 162.616   3
  -2  -6  -2 6957.11 159.353   3
   2   6   3 39.7288 12.9885   3
  -2  -6  -3 22.2020 11.4661   3
   2   6   4 2744.41 99.4049   3
  -2  -6  -4 2859.45 103.082   3
  -2  -6  -5 235.651 30.9660   3
   2   6   5 185.600 26.4831   3
   2   6   6 3051.67 112.438   3
  -2  -6  -6 3134.00 118.524   3
  -2  -6  -7 3.70255 17.0191   2
   2   6   7 20.6066 18.7799   3
  -2  -6  -7 1.01278 14.2444   3
   2   6   8 83.7843 21.0525   3
  -2  -6  -8 50.7973 21.1192   2
   2   6   9 654.449 58.0101   3
  -2  -6  -9 627.813 68.5038   2
  -2  -6 -10 6.78023 23.1313   2
  -2  -6 -11 440.169 62.3876   2
  -2  -6 -12 2235.99 135.869   2
  -2  -6 -13 717.188 81.3108   2
  -2  -6 -14 39.5447 31.8011   2
  -2  -6 -15 47.7535 35.2592   2
   2   7  -9 679.333 81.0610   1
   2   7  -8 154.917 41.1283   1
   2   7  -7 249.914 48.3720   1
   2   7  -6 575.109 68.8359   1
  -2  -7   6 588.399 45.8930   3
   2   7  -5-69.5874 30.0444   1
  -2  -7   5-3.45166 10.3448   3
   2   7  -4 221.343 40.7939   1
  -2  -7   4 235.562 28.2403   3
  -2  -7   4 228.253 31.8327   2
  -2  -7   3 0.53148 9.22007   3
  -2  -7   3 10.3260 10.9618   2
   2   7  -3 10.5698 22.1447   1
   2   7  -2 41.9207 25.2137   1
  -2  -7   2 25.8818 11.8000   3
  -2  -7   2 5.43610 11.1787   2
  -2  -7   1 23.1422 15.5254   2
  -2  -7   1 61.9133 16.2757   3
   2   7  -1 39.2765 26.5991   1
  -2  -7   0 794.338 50.3951   3
   2   7   0 672.126 67.0499   1
  -2  -7  -1 1998.32 82.9139   3
   2   7   1 1880.44 82.9508   3
   2   7   1 1958.60 114.354   1
   2   7   2 3240.10 111.885   3
  -2  -7  -2 3433.09 113.522   3
   2   7   2 3325.69 150.990   1
   2   7   3 6.87275 20.1664   1
   2   7   3 12.4290 11.4966   3
  -2  -7  -3 22.1392 16.6997   3
  -2  -7  -4 1691.78 84.7352   3
   2   7   4 1555.07 80.9533   3
  -2  -7  -5 35.5069 19.4176   3
   2   7   5 52.3478 18.3689   3
   2   7   6 3267.26 124.586   3
  -2  -7  -6 3586.57 133.100   3
   2   7   7 73.1705 21.4031   3
  -2  -7  -7 69.9495 22.4842   3
  -2  -7  -8 604.664 60.5965   3
  -2  -7  -8 591.736 65.0950   2
  -2  -7  -9 11.2988 18.1235   2
  -2  -7 -10 120.144 40.1746   2
  -2  -7 -11 297.753 51.5911   2
  -2  -7 -12 248.809 49.5521   2
  -2  -7 -13 1552.72 125.202   2
  -2  -7 -14 838.127 95.2818   2
  -2  -7 -15 30.3349 30.6541   2
   2   8  -7 54.5478 31.1277   1
   2   8  -6 302.391 53.4871   1
   2   8  -5 301.713 53.3618   1
   2   8  -4 264.169 48.0986   1
   2   8  -3 378.107 55.7813   1
  -2  -8   3 393.862 37.9946   3
  -2  -8   2 666.304 50.1646   3
   2   8  -2 669.253 74.0148   1
  -2  -8   1 734.394 53.5303   3
   2   8  -1 676.472 73.6987   1
  -2  -8   1 609.883 58.4699   2
  -2  -8   0 49.3666 13.1525   3
   2   8   0 114.395 32.1631   1
  -2  -8   0 65.6731 22.6744   2
   2   8   1-49.9790 28.5379   1
  -2  -8  -1 13.6657 15.8419   3
   2   8   1 20.8640 15.0206   3
  -2  -8  -2 1773.54 86.4578   3
   2   8   2 1530.91 83.6674   3
   2   8   2 1660.73 111.685   1
   2   8   3 278.425 48.0306   1
   2   8   3 270.222 35.3266   3
  -2  -8  -3 258.119 36.6768   3
   2   8   4 285.668 49.6079   1
   2   8   4 190.389 32.5016   3
  -2  -8  -4 286.719 37.4078   3
   2   8   5 516.358 53.5761   3
  -2  -8  -5 598.314 55.6474   3
  -2  -8  -6 791.475 66.6100   3
  -2  -8  -7 93.2180 26.6712   3
  -2  -8  -8 642.236 63.5196   3
  -2  -8  -9 234.753 48.5653   2
  -2  -8 -10 86.7202 32.3770   2
  -2  -8 -11-20.1110 23.6754   2
  -2  -8 -12 219.234 52.3479   2
  -2  -8 -13 23.2514 29.6416   2
   2   9  -6 36.8242 25.8368   1
   2   9  -5 16.3581 22.5114   1
   2   9  -4 574.435 74.2813   1
   2   9  -3 480.293 66.7925   1
   2   9  -2 618.489 75.0079   1
   2   9  -1 338.669 55.1809   1
  -2  -9   0 562.751 50.7518   3
   2   9   0 571.923 70.3985   1
   2   9   1 29.2267 23.1782   1
  -2  -9  -1 11.4402 12.9177   3
   2   9   2-28.7410 27.6584   1
  -2  -9  -2 9.92214 11.5330   3
   2   9   3 66.9229 32.5218   1
  -2  -9  -3 7.78216 13.6230   3
   2   9   4 163.427 42.0751   1
  -2  -9  -4 171.667 36.1974   3
   2   9   5 274.450 52.5353   1
  -2  -9  -5 226.429 39.7961   3
  -2  -9  -6-10.4752 19.9518   3
  -2  -9  -7 16.8568 17.6662   3
  -2  -9  -8 248.858 43.7090   3
  -2  -9  -9 105.512 35.9476   3
  -2  -9  -9 115.652 42.3831   2
  -2  -9 -10 472.122 67.9433   2
  -2  -9 -11 19.5517 26.2295   2
  -2  -9 -12 72.0198 31.7636   2
   2  10  -3-15.9375 22.8076   1
   2  10  -2 421.923 64.6511   1
   2  10  -1 242.242 51.4879   1
   2  10   0 151.324 41.7550   1
   2  10   1 5.62327 18.3552   1
   2  10   2 41.5384 21.3327   1
   2  10   3-2.68833 19.1225   1
  -2 -10  -3 34.3423 18.3207   3
  -2 -10  -4 66.7546 21.3458   3
   2  10   4 108.530 36.1279   1
   2  10   5 54.7888 27.8121   1
  -2 -10  -5 41.5623 22.7595   3
   2  10   6-36.4004 29.4336   1
  -2 -10  -6-44.0853 25.2260   3
   2  10   7 67.6375 37.6393   1
  -2 -10  -7 8.28993 17.2551   3
  -2 -10  -8 178.493 40.1754   3
  -2 -10  -9 38.7626 32.0423   2
  -2 -10  -9 51.5701 29.9782   3
  -2 -10 -10 346.761 63.2019   2
   2  11   4 5.87002 18.4990   1
   2  11   5 118.563 39.6807   1
   2  11   6 155.554 46.6570   1
   2  11   7-22.1611 27.0690   1
   3  -9  -3 458.513 65.3277   3
   3  -9  -2 167.934 42.0108   3
   3  -9  -1 73.6433 31.7558   3
   3  -9   0 65.5021 28.5864   3
   3  -8  -8-19.2860 27.8946   3
   3  -8  -7 130.408 36.4566   3
   3  -8  -6 129.611 34.6896   3
   3  -8  -5 777.285 79.3904   3
   3  -8  -4 199.553 42.2113   3
   3  -8  -3 181.059 41.2741   3
   3  -8  -2-4.58588 17.6555   3
   3  -8  -1 703.517 77.3062   3
   3  -8   0 171.819 39.4428   3
   3  -8   1 429.493 57.8327   3
   3  -8   2 278.369 50.1127   3
   3  -8   3 547.469 67.5796   3
   3  -8   4-10.6476 26.3519   3
   3  -8   5 232.514 51.0368   3
   3  -7 -11 67.9985 34.2446   3
   3  -7 -10 180.112 44.2329   3
   3  -7  -9 31.9357 24.9307   3
   3  -7  -8 32.1921 23.7032   3
   3  -7  -7 424.121 58.6003   3
   3  -7  -6 270.711 46.8074   3
   3  -7  -5 863.311 80.4466   3
   3  -7  -4 50.9459 27.5673   3
  -3   7   4 60.4872 14.9451   1
  -3   7   3 45.7535 9.75019   1
   3  -7  -3 45.2691 25.3816   3
  -3   7   2 28.1194 6.08887   1
   3  -7  -2 37.5402 20.7886   3
   3  -7  -1 113.447 32.1494   3
   3  -7   0 218.712 42.0401   3
   3  -7   1 1194.32 93.0512   3
   3  -7   2 464.623 60.9815   3
   3  -7   3 1673.91 114.135   3
   3  -7   4 497.539 63.6563   3
   3  -7   5 349.015 55.1040   3
   3  -7   6 339.363 54.0914   3
   3  -7   7 1554.14 114.258   3
   3  -7   8 71.6509 32.6653   3
   3  -6 -13 108.315 37.7539   3
   3  -6 -13 61.2156 29.8232   2
   3  -6 -12 232.050 48.6607   3
   3  -6 -11-8.54131 18.9237   3
   3  -6 -10 116.233 35.9028   3
  -3   6   9 90.1399 25.2879   1
   3  -6  -9 144.651 38.9185   3
  -3   6   8 419.243 46.4740   1
   3  -6  -8 658.734 70.7035   3
  -3   6   7 1190.04 72.0683   1
   3  -6  -7 1298.95 93.1650   3
  -3   6   6 353.028 36.7977   1
   3  -6  -6 353.616 49.7992   3
  -3   6   5 607.106 42.6698   1
   3  -6  -5 686.211 64.7500   3
  -3   6   4 369.024 29.6143   1
   3  -6  -4 359.113 48.2054   3
  -3   6   3 208.844 18.9491   1
  -3   6   3 226.051 21.7316   1
   3  -6  -3 249.977 43.9713   3
  -3   6   2 150.838 13.4269   1
  -3   6   2 198.562 15.4172   1
   3  -6  -2 232.004 39.6899   3
   3  -6  -1 421.633 50.5214   3
   3  -6   0 76.3106 26.6542   3
   3  -6   1 2226.81 117.878   3
   3  -6   2 498.294 58.0211   3
   3  -6   3 1343.89 95.9780   3
   3  -6   4 1211.96 91.8172   3
   3  -6   5 1671.45 109.347   3
   3  -6   6 753.155 77.5019   3
   3  -6   7 707.319 74.4604   3
   3  -6   8 827.944 83.8918   3
   3  -6   9 439.506 61.0222   3
   3  -6  10-6.14634 20.2610   3
   3  -5 -14 68.7341 32.9732   2
   3  -5 -13 437.306 67.0854   2
   3  -5 -12 19.2943 20.6090   3
   3  -5 -12-18.7047 22.8123   2
   3  -5 -11 6.52143 20.5163   3
   3  -5 -10 186.779 39.3487   3
  -3   5   9 695.692 64.5147   1
   3  -5  -9 827.927 75.9341   3
  -3   5   8 2200.79 107.028   1
   3  -5  -8 2425.45 123.396   3
  -3   5   7 3350.54 125.136   1
   3  -5  -7 3671.17 148.516   3
  -3   5   6 997.800 60.7675   1
   3  -5  -6 1095.35 77.4741   3
  -3   5   5 711.807 46.8694   1
   3  -5  -5 740.791 63.4495   3
  -3   5   4 5.89189 8.81505   1
  -3   5   4-22.7212 21.7297   3
   3  -5  -4 5.37880 18.7585   3
  -3   5   3 5700.64 119.943   1
  -3   5   3 5862.88 182.423   3
   3  -5  -3 5861.50 180.766   3
  -3   5   2 104.529 11.4956   1
  -3   5   2 101.681 11.3145   1
  -3   5   2 98.2773 25.5103   3
   3  -5  -2 158.153 31.0427   3
   3  -5  -1 3539.46 136.691   3
  -3   5   1 3509.88 139.721   3
  -3   5   0 34.9218 18.9010   3
   3  -5   0 35.7045 23.5817   3
   3  -5   0 55.3356 25.7403   2
   3  -5   1 373.290 50.5129   2
   3  -5   1 359.514 44.8004   3
   3  -5   2 822.389 73.3934   2
   3  -5   2 846.236 70.6693   3
   3  -5   3 3106.35 135.423   3
   3  -5   4 1216.48 85.8075   3
   3  -5   5 277.841 42.0940   3
   3  -5   6-11.1343 11.3554   1
   3  -5   6 51.7407 24.0231   3
   3  -5   7 1246.88 93.9076   3
   3  -5   7 1046.86 66.2477   1
   3  -5   8 511.308 63.1370   3
   3  -5   8 455.618 48.1274   1
   3  -5   9 696.926 74.4777   3
   3  -5  10 12.6513 20.3436   3
   3  -5  11 373.916 60.4313   3
   3  -5  12 19.4129 20.3774   3
   3  -4 -15 402.964 65.9138   2
   3  -4 -14 131.225 38.0788   2
   3  -4 -13 228.061 48.6200   2
   3  -4 -12 176.205 44.4915   2
   3  -4 -11 157.477 33.1392   3
   3  -4 -10 551.550 60.2029   3
  -3   4   9 1747.42 101.143   1
   3  -4  -9 2025.83 111.067   3
  -3   4   8 2969.05 126.152   1
   3  -4  -8 3183.66 137.193   3
  -3   4   7 3944.13 137.256   1
   3  -4  -7 3819.64 144.070   3
  -3   4   7 3688.40 144.274   3
  -3   4   6 154.952 25.5929   1
  -3   4   6 184.670 30.7665   3
   3  -4  -6 157.745 30.9118   3
  -3   4   5 1108.93 59.6043   1
  -3   4   5 1053.88 71.7446   3
   3  -4  -5 1160.78 73.3253   3
  -3   4   4 359.733 29.8274   1
  -3   4   4 423.196 45.0045   3
   3  -4  -4 284.088 39.5342   3
  -3   4   3 5081.25 110.912   1
   3  -4  -3 4751.22 156.218   3
  -3   4   3 4840.63 157.913   3
  -3   4   2 2184.34 98.5929   3
  -3   4   2 2005.80 51.1872   1
   3  -4  -2 2075.67 96.0766   3
  -3   4   1 4585.22 147.904   3
   3  -4  -1 4289.15 142.902   3
  -3   4   0 2973.87 116.721   3
   3  -4   0 2824.61 115.227   3
   3  -4   1 6332.96 183.212   3
   3  -4   1 6255.71 194.030   2
   3  -4   2-12.0714 18.7344   3
   3  -4   2 16.7960 16.9618   2
   3  -4   3 1323.94 86.8104   2
   3  -4   3 1277.52 82.5863   3
   3  -4   4 204.251 38.4114   3
   3  -4   4 213.051 39.4343   2
   3  -4   5 2090.53 117.404   2
   3  -4   5 2233.10 113.530   3
   3  -4   5 2162.19 74.9727   1
   3  -4   6 408.461 50.5190   3
   3  -4   6 326.053 32.3376   1
   3  -4   7 477.111 42.9782   1
   3  -4   7 522.511 59.6949   3
   3  -4   8 56.2173 25.1909   3
   3  -4   8 35.5557 17.9517   1
   3  -4   9 692.942 60.3986   1
   3  -4   9 685.451 70.2555   3
   3  -4  10 238.533 40.1903   1
  -3   4 -10 291.949 53.2356   2
   3  -4  10 215.773 42.6591   3
  -3   4 -11 138.447 40.9082   2
  -3   4 -12 180.828 49.7027   2
  -3   4 -13 143.732 47.1706   2
   3  -3 -16 13.7946 18.3613   2
   3  -3 -15-43.7175 28.4878   2
   3  -3 -14 46.5229 25.3379   2
   3  -3 -13 147.461 39.1481   2
   3  -3 -12 74.0096 26.2842   2
   3  -3 -11 678.452 70.2877   2
   3  -3 -10 1868.04 108.171   3
   3  -3  -9 957.379 73.5902   3
  -3   3   9 921.475 70.0220   3
  -3   3   9 986.144 76.5659   1
  -3   3   8 73.5068 21.0573   3
  -3   3   8 126.285 28.4521   1
   3  -3  -8 116.050 26.8757   3
  -3   3   7 2182.91 99.7761   3
  -3   3   7 2168.69 102.261   1
   3  -3  -7 2152.71 100.735   3
  -3   3   6 191.045 29.4093   3
  -3   3   6 192.272 28.2577   1
   3  -3  -6 185.085 30.5063   3
  -3   3   5 486.611 44.7818   3
   3  -3  -5 399.886 42.7074   3
  -3   3   5 458.473 39.3953   1
  -3   3   4 4099.04 113.338   1
  -3   3   4 4339.61 136.035   3
   3  -3  -4 4045.22 130.559   3
  -3   3   3 155.748 25.4633   3
   3  -3  -3 159.536 24.4702   3
  -3   3   3 165.355 18.5075   1
  -3   3   2 1856.55 82.2667   3
   3  -3  -2 1742.59 80.1842   3
  -3   3   2 1684.37 49.3668   1
   3  -3  -1 9724.03 217.685   3
  -3   3   1 9992.39 221.925   3
   3  -3   0 1204.04 67.5004   3
  -3   3   0 1335.72 70.0797   3
   3  -3   1 6804.66 178.463   3
   3  -3   1 7023.06 194.562   2
   3  -3   2 438.799 47.3107   2
   3  -3   2 416.435 42.9750   3
   3  -3   3 977.643 27.6532   1
   3  -3   3 1183.38 72.3334   3
   3  -3   3 1249.45 80.5887   2
   3  -3   4 179.731 31.1758   3
   3  -3   4 181.958 17.0837   1
   3  -3   4 168.268 32.4736   2
   3  -3   5 3075.21 132.392   2
   3  -3   5 2758.06 121.277   3
   3  -3   5 2872.61 85.4130   1
   3  -3   6 84.3699 17.6595   1
   3  -3   6 74.7183 24.8200   2
   3  -3   6 76.9706 23.2842   3
  -3   3  -6 41.0936 18.8445   2
   3  -3   7 28.1254 10.1949   1
   3  -3   7 21.3846 18.6305   2
  -3   3  -7 41.3528 22.9571   2
   3  -3   8 1009.09 65.7074   1
  -3   3  -8 1128.93 91.1478   2
   3  -3   9 89.2727 23.6167   1
  -3   3  -9 107.616 31.9819   2
   3  -3  10 1059.58 77.8554   1
  -3   3 -10 1221.62 102.178   2
  -3   3 -11 892.370 90.4198   2
   3  -3  11 697.555 68.0046   1
  -3   3 -12 558.651 76.0480   2
  -3   3 -13 1217.63 114.655   2
  -3   3 -14-44.6077 32.7685   2
   3  -2 -16 332.703 57.4595   2
   3  -2 -15 34.6593 28.5949   2
   3  -2 -14 294.800 51.7556   2
   3  -2 -13 10.6716 20.6805   2
   3  -2 -12 550.183 65.7025   2
   3  -2 -11 776.964 70.0297   2
   3  -2 -10 328.315 44.7440   2
  -3   2  10 366.268 43.5538   3
  -3   2   9 3672.05 158.486   1
  -3   2   9 3671.51 135.454   3
   3  -2  -9 4035.58 148.055   3
   3  -2  -9 3904.85 146.417   2
  -3   2   8 33.5291 15.7450   3
  -3   2   8 4.21088 14.3868   1
   3  -2  -8 13.1137 14.4953   3
  -3   2   7 922.305 68.0085   1
   3  -2  -7 896.094 60.8791   3
  -3   2   7 853.568 58.4739   3
  -3   2   6 18.3161 13.0716   1
  -3   2   6-15.6243 12.4616   3
   3  -2  -6 5.20980 13.5587   3
  -3   2   5 759.317 51.7037   1
  -3   2   5 847.917 53.4468   3
   3  -2  -5 774.237 52.2396   3
   3  -2  -5 920.459 55.3357   1
  -3   2   4 202.556 24.4724   1
  -3   2   4 197.191 26.3474   3
   3  -2  -4 182.629 25.4747   3
   3  -2  -4 209.953 25.8106   1
   3  -2  -3 3206.74 103.730   3
  -3   2   3 3195.29 91.7453   1
  -3   2   3 3298.80 104.500   3
   3  -2  -3 3296.17 90.2489   1
  -3   2   2 22.5660 9.50179   1
   3  -2  -2 14.3743 12.7905   3
  -3   2   2 16.0420 11.0976   3
   3  -2  -2 45.5264 12.7520   1
  -3   2   1 2751.40 93.8175   3
   3  -2  -1 2761.98 94.6290   3
  -3   2   1 2576.62 60.2527   1
   3  -2   0 4430.91 129.002   3
   3  -2   0 4707.42 139.819   2
  -3   2   0 4807.28 129.993   3
   3  -2   1 3252.74 111.786   3
   3  -2   1 3434.25 120.128   2
   3  -2   2 121.756 24.1922   3
   3  -2   2 134.177 24.2683   2
   3  -2   3 4083.58 135.209   2
   3  -2   3 3644.53 73.4347   1
   3  -2   3 3763.40 126.649   3
   3  -2   4 2791.44 73.4521   1
   3  -2   4 3019.15 119.150   2
   3  -2   4 2906.88 111.325   3
  -3   2  -4 2697.92 119.790   2
   3  -2   5 15511.1 322.696   2
   3  -2   5 14429.1 248.523   1
  -3   2  -5 13942.4 318.220   2
   3  -2   6 725.625 60.7993   2
   3  -2   6 691.793 44.5239   1
  -3   2  -6 597.448 61.9350   2
   3  -2   7 2366.18 115.714   2
   3  -2   7 2459.18 94.7751   1
  -3   2  -7 2514.94 124.522   2
   3  -2   8-3.58073 19.9942   2
  -3   2  -8 9.67037 18.1817   2
   3  -2   8 2.80337 12.5614   1
   3  -2   9 11.0958 18.9127   2
   3  -2   9 15.6016 11.4044   1
  -3   2  -9 37.6959 26.3117   2
  -3   2 -10 1274.41 99.4347   2
   3  -2  10 1248.37 83.5577   1
   3  -2  11 2857.30 137.090   1
  -3   2 -11 2988.97 160.091   2
  -3   2 -12 877.226 89.0096   2
  -3   2 -13 1001.11 97.6591   2
  -3   2 -14 528.646 75.4481   2
  -3   2 -15 454.860 72.1308   2
   3  -1 -16 295.316 49.2833   2
   3  -1 -15 664.673 75.2753   2
   3  -1 -14 95.4380 30.8211   2
   3  -1 -13 63.1970 25.1243   2
   3  -1 -12 27.3540 26.3222   2
   3  -1 -11 4092.41 158.269   2
  -3   1  11 3624.31 142.229   3
   3  -1 -10 193.119 34.1231   2
  -3   1  10 169.024 28.6246   3
   3  -1 -10 221.570 38.9867   1
   3  -1  -9 3568.25 142.904   1
  -3   1   9 3152.18 144.942   1
  -3   1   9 3226.66 120.238   3
   3  -1  -9 3210.42 125.852   2
  -3   1   8 277.551 42.1499   1
  -3   1   8 255.948 31.6388   3
   3  -1  -8 269.171 39.0171   1
   3  -1  -8 248.192 32.4870   2
   3  -1  -7 866.146 67.0445   1
  -3   1   7 831.198 53.5526   3
   3  -1  -7 863.274 56.4024   3
  -3   1   7 886.792 66.5841   1
   3  -1  -6 360.399 39.2171   1
  -3   1   6 347.245 33.3183   3
  -3   1   6 356.560 39.7577   1
   3  -1  -6 334.173 34.0184   3
   3  -1  -5 953.005 57.0297   1
  -3   1   5 883.982 49.8903   3
  -3   1   5 871.668 58.1065   1
   3  -1  -5 890.585 51.8224   3
   3  -1  -4 6173.48 151.982   1
  -3   1   4 5973.46 140.712   3
   3  -1  -4 5962.01 141.419   3
  -3   1   4 5987.95 154.116   1
   3  -1  -3 2551.85 83.8529   1
  -3   1   3 2261.44 78.3051   3
   3  -1  -3 2367.09 80.5809   3
  -3   1   3 2378.94 84.0891   1
   3  -1  -2 1993.19 67.9101   1
   3  -1  -2 1905.27 69.2390   3
  -3   1   2 1929.51 69.7280   3
  -3   1   2 1858.32 66.2880   1
   3  -1  -1 1489.55 51.6535   1
   3  -1  -1 1498.99 61.9897   3
  -3   1   1 1412.99 59.6933   3
  -3   1   1 1491.12 52.8476   1
   3  -1   0 354.186 33.3183   2
  -3   1   0 327.121 28.8618   3
   3  -1   0 336.518 29.8180   3
   3  -1   0 369.414 22.3308   1
   3  -1   1 445.542 35.3947   3
   3  -1   1 450.411 38.0890   2
   3  -1   1 419.548 21.4448   1
   3  -1   2 2283.25 85.4033   3
   3  -1   2 2396.05 90.3237   2
   3  -1   3 8541.27 197.539   2
  -3   1  -3 8314.23 200.567   2
   3  -1   4 654.904 51.6321   2
  -3   1  -4 581.456 50.3923   2
   3  -1   5 3321.88 121.073   2
  -3   1  -5 3064.89 123.422   2
   3  -1   5 3216.24 90.8581   1
   3  -1   6 908.587 50.4540   1
   3  -1   6 1068.02 69.1976   2
  -3   1  -6 972.324 72.0568   2
   3  -1   7 7933.85 185.480   1
   3  -1   7 8320.04 224.070   2
  -3   1  -7 8055.44 226.613   2
   3  -1   8 18.7104 12.1201   1
   3  -1   8 38.3459 22.5808   2
  -3   1  -8 18.4517 19.5916   2
   3  -1   9 3179.41 139.578   2
   3  -1   9 3380.76 129.116   1
  -3   1  -9 3200.63 149.845   2
   3  -1  10-20.9138 16.2481   1
  -3   1 -10-34.6053 26.8966   2
   3  -1  11 889.158 73.6988   1
  -3   1 -11 979.383 89.8998   2
  -3   1 -12 1084.59 97.2732   2
  -3   1 -13 541.114 71.4100   2
  -3   1 -14 98.2623 35.5923   2
  -3   1 -15 98.5153 38.6421   2
  -3   1 -16 285.911 57.8734   2
   3   0 -15 205.350 41.8314   2
   3   0 -14 115.655 31.9719   2
   3   0 -13 835.914 76.7755   2
   3   0 -12 87.4249 29.5542   1
   3   0 -12 20.2956 17.7794   2
   3   0 -11 821.766 74.8002   1
   3   0 -11 818.976 67.4410   2
  -3   0  11 657.411 56.9497   3
   3   0 -10 155.574 36.9265   1
   3   0 -10 176.262 30.7045   2
  -3   0  10 137.243 24.6620   3
   3   0  -9 1913.77 91.4076   2
   3   0  -9 2051.83 110.877   1
  -3   0   9 1740.21 83.3756   3
   3   0  -8-20.7037 18.0523   1
   3   0  -8 35.6508 18.6486   2
  -3   0   8 30.1087 18.7567   1
  -3   0   8 4.55291 10.9747   3
  -3   0   7 333.285 32.4466   3
   3   0  -7 274.914 39.3715   1
  -3   0   7 260.858 41.0396   1
   3   0  -7 339.550 34.1363   2
   3   0  -6 1610.35 84.2097   1
  -3   0   6 1641.30 66.5218   3
   3   0  -6 1626.13 70.3979   3
  -3   0   6 1591.03 88.2339   1
   3   0  -6 1526.87 66.5420   2
   3   0  -5 2687.80 105.121   1
  -3   0   5 2581.45 80.6176   3
  -3   0   5 2591.06 107.850   1
   3   0  -5 2397.02 81.5931   3
   3   0  -4 4750.00 142.177   1
  -3   0   4 4978.30 113.375   3
   3   0  -4 4853.48 115.063   3
  -3   0   4 4918.26 146.613   1
  -3   0   3 12865.5 213.259   3
   3   0  -3 12411.9 212.196   3
   3   0  -3 12931.8 248.964   1
  -3   0   3 12112.4 244.524   1
  -3   0   2 13553.6 224.872   3
   3   0  -2 14113.1 253.132   1
   3   0  -2 14011.8 224.643   3
  -3   0   2 14075.9 256.999   1
  -3   0   1 1519.09 53.1745   3
   3   0  -1 1577.79 54.4434   3
   3   0  -1 1432.43 58.8413   1
   3   0  -1 1513.07 56.2804   2
  -3   0   1 1543.73 61.7388   1
   3   0   0 1084.34 49.5149   2
   3   0   0 1152.07 47.0990   3
   3   0   0 1079.38 46.7966   1
   3   0   1 371.044 27.3204   1
   3   0   1 381.169 30.3893   2
   3   0   1 301.044 26.5920   3
   3   0   2 34.0483 13.9137   2
  -3   0  -2 42.8104 16.5305   2
   3   0   3 1627.57 70.9467   2
  -3   0  -3 1342.77 68.7740   2
   3   0   4 39.5107 15.1372   2
  -3   0  -4 17.5076 14.4684   2
   3   0   5 3896.45 129.814   2
  -3   0  -5 4020.44 132.063   2
   3   0   6 4264.64 139.138   2
  -3   0  -6 3917.03 141.141   2
   3   0   7 15247.6 311.093   2
  -3   0  -7 14299.2 317.654   2
   3   0   8 47.4399 17.3838   1
   3   0   8 37.2433 22.4205   2
  -3   0  -8 16.2560 19.2386   2
   3   0   9 3924.56 137.969   1
   3   0   9 4256.93 157.537   2
  -3   0  -9 4037.11 162.817   2
   3   0  10 2080.98 112.673   2
   3   0  10 1943.56 100.508   1
  -3   0 -10 2121.58 121.208   2
   3   0  11 1043.98 76.7513   1
  -3   0 -11 1014.80 87.5914   2
  -3   0 -12-9.29436 26.4406   2
  -3   0 -13 56.7543 24.7684   2
  -3   0 -14 99.5778 39.5329   2
  -3   0 -15 227.374 52.6796   2
  -3   0 -16 32.2742 32.0337   2
   3   1 -14 79.4461 35.3180   1
   3   1 -13 25.3576 24.8476   1
   3   1 -13 18.4646 19.3449   2
   3   1 -12 61.0089 30.7094   1
   3   1 -12 35.6216 19.6573   2
   3   1 -11 623.533 67.8369   1
   3   1 -11 569.082 54.1317   2
  -3  -1  11 473.867 47.6863   3
   3   1 -10 19.7063 14.9257   2
  -3  -1  10-15.2652 13.9528   3
   3   1 -10-5.62082 16.7166   1
   3   1  -9 201.318 28.4285   2
  -3  -1   9 178.593 24.9549   3
   3   1  -9 244.087 41.7458   1
   3   1  -8 523.734 41.9913   2
   3   1  -8 492.782 54.3312   1
  -3  -1   8 521.655 40.1385   3
  -3  -1   8 451.292 58.5369   1
   3   1  -7 694.919 45.4143   2
   3   1  -7 678.325 61.2859   1
  -3  -1   7 701.436 43.4537   3
  -3  -1   7 633.302 63.3117   1
   3   1  -6 2990.06 88.2811   2
   3   1  -6 2852.78 122.447   1
  -3  -1   6 2890.97 86.4530   3
  -3  -1   6 2931.65 128.702   1
   3   1  -5 395.743 27.2912   2
   3   1  -5 347.075 40.7799   1
  -3  -1   5 377.571 26.6258   3
  -3  -1   5 391.784 45.7819   1
   3   1  -4 1520.66 80.7256   1
  -3  -1   4 1450.90 49.5234   3
  -3  -1   4 1561.12 83.7935   1
   3   1  -4 1583.13 49.5298   2
  -3  -1   3 1967.22 53.7808   3
   3   1  -3 1969.14 85.1594   1
   3   1  -3 1873.21 53.7544   3
  -3  -1   3 1826.55 85.3539   1
  -3  -1   2 512.735 24.0927   3
   3   1  -2 591.770 26.3860   3
   3   1  -2 505.502 42.5097   1
  -3  -1   2 523.826 43.2755   1
  -3  -1   1 3356.32 105.586   1
   3   1  -1 3091.27 69.4199   2
   3   1  -1 3103.41 65.4748   3
   3   1  -1 3139.97 101.558   1
   3   1   0 1753.90 53.3770   2
   3   1   0 1645.42 48.5513   3
   3   1   0 1800.28 72.2916   1
   3   1   1 1434.44 62.5743   1
   3   1   1 1305.79 49.6392   2
   3   1   1 1419.57 47.6059   3
  -3  -1  -1 1371.29 51.3758   2
   3   1   2 6501.25 139.052   2
  -3  -1  -2 6259.80 138.348   2
   3   1   3 8272.04 173.444   2
  -3  -1  -3 8233.77 178.415   2
   3   1   4 6110.51 145.832   2
  -3  -1  -4 5234.39 145.114   2
   3   1   5 4395.90 131.742   2
  -3  -1  -5 4457.25 135.976   2
   3   1   6 551.137 48.2810   2
  -3  -1  -6 564.860 47.9781   2
   3   1   7 3186.63 121.621   2
  -3  -1  -7 3031.71 121.348   2
   3   1   8 2946.07 121.513   2
  -3  -1  -8 2854.30 123.895   2
   3   1   9 5502.99 181.530   2
  -3  -1  -9 5362.24 183.098   2
   3   1  10 47.3366 21.8918   2
  -3  -1 -10 21.2695 24.1678   2
   3   1  10 40.0021 18.9175   1
   3   1  11 8939.23 244.698   1
  -3  -1 -11 9056.90 268.844   2
  -3  -1 -12 1634.03 112.741   2
  -3  -1 -13 1476.02 114.320   2
  -3  -1 -14 9.48682 22.2771   2
  -3  -1 -15 382.116 60.4029   2
  -3  -1 -16 354.842 69.4014   2
  -3  -1 -17 133.452 51.1248   2
   3   2 -13 63.3634 31.5154   1
   3   2 -12 80.7649 29.6759   1
   3   2 -12 37.6250 18.0503   2
   3   2 -11 247.854 46.4519   1
   3   2 -11 308.176 39.8573   2
  -3  -2  11 173.252 28.6091   3
   3   2 -10 794.448 76.8606   1
  -3  -2  10 749.668 53.6581   3
   3   2 -10 839.789 60.3231   2
   3   2  -9 589.292 63.6718   1
   3   2  -9 642.961 48.7405   2
  -3  -2   9 555.672 42.7422   3
   3   2  -8 307.356 30.9891   2
  -3  -2   8 274.157 28.4119   3
   3   2  -8 282.485 44.3877   1
   3   2  -7 2075.84 74.0406   2
   3   2  -7 2022.54 110.835   1
  -3  -2   7 2155.12 75.4905   3
  -3  -2   7 1962.73 115.586   1
   3   2  -6 313.069 24.7533   2
  -3  -2   6 317.145 25.0789   3
   3   2  -6 291.359 41.5953   1
  -3  -2   6 300.467 41.1423   1
   3   2  -5 1027.75 38.3942   2
   3   2  -5 980.248 69.8945   1
  -3  -2   5 1018.98 39.8349   3
  -3  -2   5 866.697 69.8030   1
   3   2  -4 872.617 27.5025   2
  -3  -2   4 1116.69 35.0944   3
  -3  -2   4 1127.18 76.3375   1
   3   2  -4 1077.01 70.6042   1
  -3  -2   3 9267.25 135.858   3
  -3  -2   3 9802.66 233.474   1
   3   2  -3 9359.86 223.104   1
  -3  -2   2 2648.31 106.980   1
   3   2  -2 2889.70 108.259   1
  -3  -2   1 119.603 27.6722   1
   3   2  -1 97.6544 19.3706   1
  -3  -2   0 2799.53 54.8679   2
   3   2   0 2577.62 97.3870   1
   3   2   0 2498.34 51.8775   2
   3   2   1 22118.7 380.600   1
  -3  -2  -1 22691.4 321.027   2
   3   2   1 22410.6 317.437   2
   3   2   2 16653.8 259.935   2
  -3  -2  -2 16384.0 263.007   2
   3   2   3 4701.04 112.971   2
  -3  -2  -3 4495.07 116.235   2
   3   2   4 11806.7 223.294   2
  -3  -2  -4 11631.0 229.382   2
   3   2   5 7840.66 178.198   2
  -3  -2  -5 7369.72 180.681   2
   3   2   6 8158.36 194.343   2
  -3  -2  -6 7911.09 195.723   2
   3   2   7 262.903 33.6717   2
  -3  -2  -7 289.658 37.3381   2
   3   2   8 18.9093 16.5040   2
  -3  -2  -8 21.2504 16.8250   2
  -3  -2  -9 7581.60 220.603   2
   3   2   9 7931.66 218.271   2
  -3  -2 -10 517.744 59.4535   2
   3   2  10 450.933 51.1316   2
  -3  -2 -11 5591.54 205.501   2
  -3  -2 -12 1682.66 113.413   2
  -3  -2 -13 4530.20 195.405   2
  -3  -2 -14 293.522 49.6697   2
  -3  -2 -15 580.927 73.4235   2
  -3  -2 -16 204.036 48.2255   2
  -3  -2 -17 962.279 103.176   2
   3   3 -12 170.895 42.5860   1
   3   3 -11 492.104 64.5210   1
   3   3 -11 547.626 49.0675   2
   3   3 -10 396.612 57.0356   1
   3   3 -10 429.452 40.5706   2
   3   3  -9 3222.49 154.505   1
   3   3  -9 3308.01 107.156   2
  -3  -3   9 3020.71 102.670   3
   3   3  -8 919.936 80.9413   1
   3   3  -8 925.625 49.5667   2
  -3  -3   8 860.203 48.8508   3
  -3  -3   7 677.283 38.9207   3
   3   3  -7 613.523 35.5951   2
   3   3  -7 575.013 60.9369   1
   3   3  -6 2731.83 129.824   1
   3   3  -6 2691.19 69.6962   2
  -3  -3   6 2798.07 75.7680   3
  -3  -3   6 2697.81 139.750   1
  -3  -3   5 11042.1 288.146   1
   3   3  -5 10388.5 267.630   1
  -3  -3   5 10834.1 173.323   3
   3   3  -4 3.33741 14.7081   1
  -3  -3   4 0.50680 3.11278   3
  -3  -3   4-14.0241 19.2407   1
  -3  -3   3 1799.52 97.6896   1
   3   3  -3 1706.11 93.1555   1
  -3  -3   2 103.662 28.1294   1
   3   3  -2 115.406 27.9541   1
   3   3  -1 7783.41 201.428   1
  -3  -3   0 2330.75 46.7460   2
   3   3   0 2631.58 106.816   1
   3   3   1 15696.5 308.234   1
  -3  -3  -1 15629.2 231.606   2
   3   3   1 15356.1 212.083   3
  -3  -3  -2 9299.65 169.633   2
   3   3   2 9432.22 153.524   3
  -3  -3  -3 7733.84 161.576   2
   3   3   3 7833.63 146.123   3
  -3  -3  -4 11901.9 229.952   2
   3   3   4 11973.7 212.423   3
  -3  -3  -5 379.060 37.0190   2
   3   3   5 344.537 31.0515   3
   3   3   5 305.674 32.9051   2
  -3  -3  -6 6495.37 173.598   2
   3   3   6 6355.97 158.149   3
   3   3   6 6356.63 167.235   2
   3   3   7 67.3197 21.0545   2
  -3  -3  -7 31.6426 18.7536   2
   3   3   7 12.9632 11.4557   3
  -3  -3  -8 490.344 51.1570   2
   3   3   8 551.977 47.0068   3
   3   3   8 464.290 46.7085   2
  -3  -3  -9 3056.99 130.674   2
   3   3   9 3439.33 128.103   3
   3   3   9 3094.18 132.909   2
  -3  -3 -10-20.9197 21.9813   2
   3   3  10 2.17084 12.5040   3
   3   3  10 36.2508 20.9060   2
  -3  -3 -11 2651.48 136.106   2
  -3  -3 -12 54.1751 29.0730   2
  -3  -3 -13 2407.68 140.641   2
  -3  -3 -14 14.3860 26.8588   2
  -3  -3 -15 598.727 76.9595   2
  -3  -3 -16 165.293 44.8481   2
  -3  -3 -17 181.211 48.6980   2
   3   4 -11 387.007 61.1778   1
   3   4 -10 187.797 39.7270   1
   3   4  -9 175.119 42.1155   1
   3   4  -8 2506.51 139.647   1
  -3  -4   8 2438.31 84.8612   3
  -3  -4   7 1300.21 54.9301   3
   3   4  -7 1190.56 93.2164   1
  -3  -4   6 213.949 20.0490   3
  -3  -4   6 250.722 21.0086   3
   3   4  -6 271.034 43.9127   1
  -3  -4   5 1336.80 42.6895   3
   3   4  -5 1316.73 88.7730   1
  -3  -4   5 1329.86 43.3181   3
  -3  -4   5 1275.96 94.7785   1
  -3  -4   4 2225.21 120.705   1
  -3  -4   4 2093.79 45.9678   3
  -3  -4   4 2091.25 46.8956   3
   3   4  -4 2220.51 113.249   1
  -3  -4   3 9960.47 266.079   1
   3   4  -3 8758.60 242.035   1
   3   4  -2 146.794 31.8342   1
  -3  -4   2 139.921 32.1941   1
  -3  -4   1 11627.2 164.685   2
  -3  -4   1 11267.6 162.374   2
   3   4   0 490.312 49.0138   1
  -3  -4   0 491.327 23.8332   2
   3   4   1 4901.59 160.226   1
   3   4   1 4908.56 90.0804   3
  -3  -4  -1 5373.13 109.155   2
   3   4   2 4767.37 157.019   1
   3   4   2 4838.81 96.9303   3
  -3  -4  -2 4862.06 115.386   2
  -3  -4  -3 3439.67 100.102   2
   3   4   3 3307.61 83.9005   3
  -3  -4  -4 3194.13 104.825   2
   3   4   4 3282.56 90.2361   3
  -3  -4  -5 1137.25 63.9286   2
   3   4   5 1116.16 54.4950   3
  -3  -4  -6 27.2788 15.8269   2
   3   4   6 48.1629 14.6615   3
  -3  -4  -7 652.307 57.6333   2
   3   4   7 739.707 51.5916   3
  -3  -4  -8 394.068 47.0371   2
   3   4   8 428.952 43.4616   3
  -3  -4  -9 6631.25 203.774   2
   3   4   9 6317.10 184.507   3
  -3  -4 -10 716.273 68.7576   2
   3   4  10 736.932 62.8598   3
  -3  -4 -11 275.133 46.9174   2
  -3  -4 -12 1591.82 108.903   2
  -3  -4 -13 14.9405 21.6237   2
  -3  -4 -14-7.13538 22.9534   2
  -3  -4 -15-9.27883 23.3471   2
  -3  -4 -16 21.9496 27.4183   2
   3   5 -10 59.3771 27.9815   1
   3   5  -9 331.088 57.7965   1
  -3  -5   8-6.17164 8.33731   3
   3   5  -8-2.52867 18.9698   1
  -3  -5   7 88.1529 15.0445   3
   3   5  -7 112.170 34.8330   1
  -3  -5   6 321.438 23.7911   3
  -3  -5   6 255.682 23.2023   3
  -3  -5   6 280.208 20.4720   2
   3   5  -6 286.096 47.8479   1
   3   5  -5 149.859 36.5101   1
  -3  -5   5 150.446 14.5572   3
  -3  -5   5 128.960 13.0880   2
   3   5  -4 7.47824 19.1405   1
  -3  -5   4 26.9776 6.45858   3
  -3  -5   4 14.9055 5.68886   2
  -3  -5   3 2361.27 57.2012   2
  -3  -5   3 2471.03 51.0141   3
   3   5  -3 2485.71 124.816   1
  -3  -5   2 1704.82 48.9917   2
  -3  -5   2 1419.86 34.9730   3
   3   5  -2 1613.05 98.9516   1
  -3  -5   1 7706.28 136.016   2
  -3  -5   1 6661.27 112.251   3
   3   5  -1 7889.59 223.602   1
  -3  -5   0 1007.83 35.1415   3
   3   5   0 1064.69 79.2717   1
   3   5   1 2384.81 63.2531   3
   3   5   1 2319.51 114.063   1
   3   5   2 200.610 19.1313   3
  -3  -5  -2 155.691 21.5207   2
   3   5   2 189.326 34.1333   1
   3   5   3 3745.80 97.1935   3
  -3  -5  -3 3842.39 114.417   2
  -3  -5  -4 98.2406 21.9096   2
   3   5   4 118.217 17.7322   3
  -3  -5  -5 112.813 23.6291   2
   3   5   5 119.759 20.5651   3
   3   5   6 820.707 51.7409   3
  -3  -5  -6 839.121 62.4618   2
  -3  -5  -7 1236.93 78.8158   2
   3   5   7 1192.29 65.9589   3
  -3  -5  -8 3123.35 131.489   2
   3   5   8 3049.94 115.788   3
  -3  -5  -9 5510.38 189.440   2
   3   5   9 5078.93 160.793   3
  -3  -5 -10 2261.37 124.501   2
   3   5  10 2210.11 107.339   3
  -3  -5 -11 947.097 84.7464   2
  -3  -5 -12 4.37931 22.4930   2
  -3  -5 -13 26.8054 26.7292   2
  -3  -5 -14 31.6994 24.0518   2
  -3  -5 -15 325.039 60.1101   2
  -3  -5 -16 119.567 44.1808   2
   3   6  -9 45.2279 27.9376   1
   3   6  -8 491.658 67.5889   1
   3   6  -7 332.055 55.5314   1
  -3  -6   6 6.46869 6.94586   3
   3   6  -6-18.5575 22.2150   1
   3   6  -5 172.464 38.9493   1
  -3  -6   5 253.449 20.2978   3
   3   6  -4 99.7435 30.2489   1
  -3  -6   4 115.599 13.3375   3
  -3  -6   4 80.5447 13.1133   2
   3   6  -3 156.873 38.0665   1
  -3  -6   3 174.917 15.5301   3
  -3  -6   3 150.858 17.3176   2
  -3  -6   2 371.837 28.2605   2
  -3  -6   2 372.260 22.4244   3
   3   6  -2 433.985 55.4369   1
  -3  -6   1 3817.01 102.790   2
  -3  -6   1 3830.80 85.8771   3
   3   6  -1 3523.96 157.366   1
  -3  -6   0 3732.74 89.5980   3
   3   6   0 3311.37 152.057   1
   3   6   1 2831.56 80.8096   3
  -3  -6  -1 2882.74 81.7750   3
   3   6   1 2561.59 130.055   1
   3   6   2 177.172 20.9312   3
  -3  -6  -2 161.089 21.3709   3
   3   6   2 154.415 34.7965   1
   3   6   3 1069.12 84.1714   1
   3   6   3 1065.37 53.5160   3
  -3  -6  -3 1044.42 55.2672   3
   3   6   4 519.091 39.3084   3
  -3  -6  -4 559.577 47.6930   2
   3   6   5 699.881 47.9284   3
  -3  -6  -5 734.709 58.5676   2
  -3  -6  -6 21.1318 18.5704   2
   3   6   6 18.7185 12.0838   3
   3   6   7 2966.62 113.460   3
  -3  -6  -7 3001.94 130.452   2
  -3  -6  -8 106.271 28.4711   2
   3   6   8 59.8156 19.4358   3
  -3  -6  -9 1809.19 111.795   2
   3   6   9 1797.75 95.6139   3
  -3  -6 -10 1540.28 104.635   2
  -3  -6 -11 1553.75 109.455   2
  -3  -6 -12 515.655 69.2612   2
  -3  -6 -13 25.9849 29.5648   2
  -3  -6 -14-8.50800 27.2721   2
  -3  -6 -15 886.418 99.9348   2
   3   7  -8-24.5539 27.3397   1
   3   7  -7 1212.35 107.185   1
   3   7  -6 479.062 67.2114   1
   3   7  -5 546.141 69.6449   1
   3   7  -4 280.160 50.2933   1
   3   7  -3 92.7638 32.3111   1
  -3  -7   3 94.0909 14.2092   3
  -3  -7   2 232.422 21.4285   3
   3   7  -2 171.318 41.1557   1
  -3  -7   2 191.874 25.1142   2
  -3  -7   1 173.994 20.4506   3
   3   7  -1 208.986 47.3885   1
  -3  -7   1 144.163 22.6513   2
  -3  -7   0 1633.47 78.3735   2
  -3  -7   0 1878.78 67.6588   3
   3   7   0 1566.13 106.879   1
  -3  -7  -1 2306.32 82.2834   3
   3   7   1 2333.39 130.818   1
  -3  -7  -2 638.975 44.1156   3
   3   7   2 572.313 41.1085   3
   3   7   2 573.476 64.4064   1
   3   7   3-3.75454 20.0180   1
   3   7   3 12.5686 10.4775   3
  -3  -7  -3 12.7444 10.4596   3
   3   7   4 140.780 22.5771   3
   3   7   4 181.445 43.6821   1
  -3  -7  -4 141.421 23.6774   3
   3   7   5 2394.71 97.5863   3
  -3  -7  -5 2608.93 118.807   2
  -3  -7  -6 61.3457 25.3392   2
   3   7   6 74.7231 19.9718   3
   3   7   7 1629.43 86.1392   3
  -3  -7  -7 1861.02 108.128   2
  -3  -7  -8 170.259 37.4103   2
   3   7   8 139.525 27.5145   3
  -3  -7  -9 7.11320 17.8275   2
  -3  -7 -10-13.8919 22.5045   2
  -3  -7 -11 33.0684 22.5095   2
  -3  -7 -12 106.537 33.8287   2
  -3  -7 -13 243.212 55.5523   2
  -3  -7 -14 50.4100 27.2291   2
  -3  -7 -15 261.893 55.7188   2
   3   8  -6 285.304 56.1955   1
   3   8  -5 463.874 68.8468   1
   3   8  -4 254.096 53.2015   1
   3   8  -3 299.652 53.9611   1
   3   8  -2 140.033 40.8597   1
   3   8  -1 147.126 38.7246   1
  -3  -8   1 133.699 20.6076   3
  -3  -8   0 132.501 20.8835   3
   3   8   0 169.188 38.6035   1
   3   8   1 244.019 47.7829   1
  -3  -8  -1 246.679 30.8004   3
   3   8   2 37.1271 14.3802   3
   3   8   2 54.5544 30.9299   1
  -3  -8  -2 31.9590 16.6866   3
   3   8   3-16.8480 24.1920   1
   3   8   3 5.98298 10.7135   3
  -3  -8  -3 29.2412 13.2663   3
   3   8   4 394.262 41.4550   3
  -3  -8  -4 405.552 44.0085   3
   3   8   4 409.661 60.7861   1
   3   8   5 1363.51 109.070   1
   3   8   5 1206.64 76.9418   3
  -3  -8  -5 1391.55 81.8420   3
  -3  -8  -5 1331.73 88.5272   2
   3   8   6 911.088 67.6430   3
  -3  -8  -6 965.026 79.7549   2
  -3  -8  -7 882.893 77.3483   2
  -3  -8  -8 64.1398 27.9318   2
  -3  -8  -9 249.055 49.0371   2
  -3  -8 -10 311.586 53.1777   2
  -3  -8 -11 19.6018 27.0152   2
  -3  -8 -12 109.680 30.0192   2
  -3  -8 -13 227.001 51.9342   2
  -3  -8 -14 50.9170 27.2054   2
   3   9  -4 108.675 36.9455   1
   3   9  -3 504.862 72.0096   1
   3   9  -2 16.5291 21.4006   1
   3   9  -1 60.2555 27.1252   1
   3   9   0 85.4892 35.4171   1
   3   9   1 11.2283 21.5374   1
   3   9   2-20.4574 29.4865   1
  -3  -9  -2 21.4077 17.7164   3
  -3  -9  -3 399.274 44.4065   3
   3   9   3 375.596 62.1649   1
   3   9   4 90.9056 31.0161   1
  -3  -9  -4 91.3753 26.5024   3
   3   9   5 415.222 64.5789   1
  -3  -9  -5 298.369 42.2664   3
   3   9   6 515.562 74.4981   1
  -3  -9  -6 427.294 57.5839   2
  -3  -9  -7 1752.09 115.126   2
  -3  -9  -8 565.075 67.4426   2
  -3  -9  -9 1112.98 99.8224   2
  -3  -9 -10 5.41937 19.4514   2
  -3  -9 -11 16.4344 25.9386   2
  -3  -9 -12 16.0707 26.3351   2
   3  10  -1 72.1388 37.3624   1
   3  10   0 40.9714 29.5148   1
   3  10   1 311.990 58.7673   1
   3  10   2 128.603 39.6134   1
   3  10   3 83.2111 31.3007   1
   3  10   4 53.9872 22.6756   1
   3  10   5 348.809 61.5548   1
  -3 -10  -6 290.254 49.8752   2
   3  10   6 219.654 51.4934   1
   3  10   7 595.219 82.4060   1
  -3 -10  -7 476.932 64.9973   2
  -3 -10  -8 267.744 51.5096   2
  -3 -10  -9 364.105 62.7104   2
  -3 -10 -10 147.358 45.4262   2
   4  -8  -5 8.21925 25.5010   3
   4  -8  -4 9.44071 21.5051   3
   4  -8  -3-9.84121 24.4346   3
   4  -8  -2 363.179 58.4966   3
   4  -8  -1 265.758 50.0883   3
   4  -8   0 606.224 73.4107   3
   4  -8   1 348.198 59.2760   3
   4  -8   2 817.785 87.9743   3
   4  -7  -9 216.688 50.8630   3
   4  -7  -8 257.888 52.1985   3
   4  -7  -7-6.44405 21.4950   3
   4  -7  -6 542.973 68.6125   3
   4  -7  -5 125.151 36.5983   3
   4  -7  -4 149.417 38.7944   3
   4  -7  -3 38.4282 29.0577   3
   4  -7  -2 76.5376 29.7599   3
   4  -7  -1 176.471 40.2151   3
   4  -7   0 1505.25 110.219   3
   4  -7   1 1660.51 113.551   3
   4  -7   2 1224.17 99.6348   3
   4  -7   3 295.375 54.7476   3
   4  -7   4 78.6291 30.6984   3
   4  -7   5 59.4554 30.5719   3
   4  -7   6 676.071 79.6846   3
   4  -6 -11 626.242 79.5815   3
   4  -6 -10 987.723 96.0457   3
   4  -6  -9 307.044 56.3663   3
   4  -6  -8 524.381 64.6244   3
   4  -6  -7 156.202 38.4752   3
   4  -6  -6 1096.35 88.7498   3
   4  -6  -5 837.249 80.2098   3
   4  -6  -4 716.883 69.2680   3
  -4   6   4 501.274 25.9534   1
   4  -6  -3 11.6263 21.4988   3
   4  -6  -2 411.083 53.9688   3
   4  -6  -1 87.8930 31.7981   3
   4  -6   0 1660.55 106.458   3
   4  -6   1 969.933 85.2527   3
   4  -6   2 1161.73 92.3427   3
   4  -6   3 93.2073 31.0620   3
   4  -6   4 41.3958 25.4086   3
   4  -6   5-27.7772 23.8055   3
   4  -6   6 156.948 39.7238   3
   4  -6   7 188.843 44.4778   3
   4  -6   8 274.841 55.5110   3
   4  -6   9 52.6668 30.6657   3
   4  -5 -13 161.656 45.3752   2
   4  -5 -13 263.921 53.8164   3
   4  -5 -12 229.847 53.9702   3
   4  -5 -11 68.2675 33.6781   3
   4  -5 -10 265.223 50.3125   3
   4  -5  -9 258.782 45.2819   3
  -4   5   9 193.681 34.3050   1
  -4   5   8 461.164 50.2995   1
   4  -5  -8 549.901 63.9811   3
  -4   5   7 104.231 22.0126   1
   4  -5  -7 94.3568 28.7206   3
  -4   5   6 388.932 38.2936   1
   4  -5  -6 377.991 49.8617   3
  -4   5   5 59.4979 13.3885   1
   4  -5  -5 89.5921 24.7447   3
   4  -5  -4 2136.80 115.827   3
  -4   5   4 2025.71 66.7184   1
   4  -5  -3 153.100 32.8662   3
   4  -5  -2 1367.50 89.8208   3
   4  -5  -1 137.785 33.4530   3
   4  -5   0 615.459 60.8373   3
   4  -5   1 119.557 32.1237   3
   4  -5   2 1532.77 98.9509   3
   4  -5   3-17.0080 19.5359   3
   4  -5   4 96.4596 29.1163   3
   4  -5   5 271.046 44.2920   3
   4  -5   6 298.629 48.0433   3
   4  -5   7 856.577 82.7588   3
   4  -5   8 814.720 82.7934   3
   4  -5   9 59.1957 29.4400   3
   4  -5  10 215.348 46.1598   3
   4  -4 -14 354.129 59.5933   2
   4  -4 -13 92.9828 36.3544   2
   4  -4 -12 282.942 52.3228   2
   4  -4 -12 397.446 59.2839   3
   4  -4 -11 0.52901 23.2768   3
   4  -4 -10 7.51846 17.4931   3
  -4   4   9 50.9886 19.4887   1
   4  -4  -9 53.4432 23.2426   3
   4  -4  -8 530.107 58.5143   3
  -4   4   8 519.614 53.9139   1
  -4   4   7-0.08342 11.8577   1
   4  -4  -7-18.0493 19.6252   3
  -4   4   6 95.0120 23.1343   1
   4  -4  -6 78.9028 24.7857   3
  -4   4   5 56.7920 16.8050   1
   4  -4  -5 49.9235 20.7115   3
  -4   4   4 1425.69 87.9464   3
   4  -4  -4 1257.35 82.7755   3
  -4   4   4 1259.61 56.8030   1
   4  -4  -3 692.870 58.9056   3
  -4   4   3 613.282 31.9218   1
  -4   4   3 624.865 57.2863   3
   4  -4  -2 3333.10 131.591   3
  -4   4   2 3160.34 132.337   3
  -4   4   1 262.411 36.6465   3
   4  -4  -1 186.872 36.2058   3
  -4   4   0 4438.18 157.217   3
   4  -4   0 4187.69 157.201   3
   4  -4   0 3932.09 163.198   2
   4  -4   1 879.102 74.6281   2
   4  -4   1 934.698 72.2313   3
   4  -4   2 705.268 66.5511   2
   4  -4   2 691.188 61.3811   3
   4  -4   3 26.6247 19.2817   3
   4  -4   4 340.286 48.1264   3
   4  -4   5 55.3860 23.9372   3
   4  -4   6 63.5080 25.2105   3
   4  -4   6 35.1564 10.3070   1
   4  -4   7 1919.98 117.160   3
   4  -4   7 1569.73 68.8440   1
   4  -4   8 3804.58 170.531   3
   4  -4   8 3330.99 116.088   1
   4  -4   9 2138.00 131.840   3
   4  -4  10 486.188 65.3990   3
   4  -4  11 37.1038 28.3879   3
   4  -4  12 458.656 67.7338   3
  -4   4 -12 498.107 78.7227   2
   4  -3 -15 116.837 37.7082   2
   4  -3 -14 1045.06 96.9874   2
   4  -3 -13 203.154 44.6031   2
   4  -3 -12 343.800 53.4911   2
   4  -3 -11 154.473 38.2948   2
   4  -3 -11 116.599 34.1567   3
   4  -3 -10 216.371 39.7975   3
  -4   3   9 61.7263 21.5116   1
   4  -3  -9 64.9846 20.8261   3
  -4   3   8 400.447 49.7832   1
   4  -3  -8 450.196 50.7342   3
  -4   3   7 770.856 63.0451   3
  -4   3   7 729.618 60.6533   1
   4  -3  -7 769.208 64.2991   3
  -4   3   6 160.406 27.9111   1
  -4   3   6 188.467 33.7539   3
   4  -3  -6 163.137 30.9864   3
  -4   3   5 1138.71 72.0889   3
  -4   3   5 1168.44 64.7198   1
   4  -3  -5 1179.31 74.1283   3
  -4   3   4 299.368 29.7285   1
  -4   3   4 240.259 34.4457   3
   4  -3  -4 244.729 35.3865   3
   4  -3  -3 458.950 46.6777   3
  -4   3   3 427.108 30.9649   1
  -4   3   3 466.141 45.3635   3
  -4   3   2 6053.56 171.462   3
   4  -3  -2 5589.66 163.374   3
  -4   3   2 5369.15 108.674   1
  -4   3   1 38.0522 16.1096   3
   4  -3  -1 38.4870 19.9706   3
  -4   3   0 4078.55 141.700   3
   4  -3   0 4116.88 140.793   3
   4  -3   0 3974.16 150.482   2
   4  -3   1 354.990 41.6772   3
   4  -3   1 307.700 40.9639   2
   4  -3   2 331.008 44.5894   2
   4  -3   2 281.588 38.7837   3
   4  -3   3 26.5217 16.9911   3
   4  -3   3 20.4596 19.1045   2
   4  -3   4 1457.81 93.8154   2
   4  -3   4 1548.41 90.5145   3
   4  -3   5 57.8050 9.88320   1
   4  -3   5 48.3283 22.1933   3
   4  -3   5 78.5584 27.5446   2
   4  -3   6 873.604 74.4935   3
   4  -3   6 992.290 47.8652   1
   4  -3   7 324.795 31.0424   1
   4  -3   7 367.829 49.0906   3
  -4   3  -7 341.927 55.4550   2
   4  -3   8 1857.55 114.734   3
  -4   3  -8 1764.36 123.366   2
   4  -3   8 1710.90 81.5465   1
  -4   3  -9 1546.14 115.532   2
   4  -3   9 1351.73 78.2965   1
  -4   3 -10 1862.63 131.522   2
   4  -3  10 1463.92 88.3675   1
  -4   3 -11 395.918 65.7575   2
  -4   3 -12 578.975 82.5969   2
  -4   3 -13 596.776 82.6960   2
   4  -2 -15 38.1445 25.4388   2
   4  -2 -14 317.769 54.4349   2
   4  -2 -13 287.691 50.7818   2
   4  -2 -12 458.257 58.1048   2
   4  -2 -11 49.0870 28.4869   2
   4  -2 -10 866.709 73.0353   3
   4  -2 -10 814.716 70.5105   2
  -4   2   9 292.578 40.8917   3
   4  -2  -9 315.037 44.0686   3
  -4   2   8 901.109 67.0448   3
  -4   2   8 975.301 75.6761   1
   4  -2  -8 1054.26 74.1849   3
  -4   2   7 286.502 39.6586   1
  -4   2   7 288.750 38.0779   3
   4  -2  -7 321.621 39.6107   3
   4  -2  -7 376.041 46.3104   1
   4  -2  -6 2950.95 113.829   3
  -4   2   6 3069.68 124.509   1
  -4   2   6 2927.95 115.986   3
   4  -2  -6 3117.77 116.601   1
   4  -2  -5 316.491 35.8840   1
  -4   2   5 219.568 32.0914   1
   4  -2  -5 296.743 35.0182   3
  -4   2   5 252.205 33.3932   3
   4  -2  -4 26.3281 16.3026   1
  -4   2   4 4.00219 9.76572   1
  -4   2   4 23.8796 13.7149   3
   4  -2  -4 2.13370 12.1841   3
   4  -2  -3 797.416 46.1179   1
  -4   2   3 761.994 53.8330   3
   4  -2  -3 711.299 50.5607   3
  -4   2   3 692.496 44.0520   1
   4  -2  -2 869.482 42.8659   1
  -4   2   2 841.893 55.6350   3
   4  -2  -2 833.811 55.5127   3
  -4   2   2 809.849 42.3663   1
   4  -2  -1 1799.61 54.8731   1
  -4   2   1 1947.88 85.6170   3
   4  -2  -1 1852.30 83.1025   3
   4  -2   0 746.117 26.9053   1
  -4   2   0 1011.57 61.2421   3
   4  -2   0 837.321 57.5416   3
   4  -2   0 869.894 62.3764   2
   4  -2   1 145.024 24.8598   3
   4  -2   1 197.349 32.4006   2
   4  -2   2 1372.44 82.9486   2
   4  -2   2 1321.08 73.9857   3
   4  -2   3 2672.04 108.715   3
   4  -2   3 2708.54 117.214   2
   4  -2   3 2306.38 48.5723   1
   4  -2   4 5421.27 105.981   1
   4  -2   4 5439.58 174.532   3
   4  -2   4 5765.16 183.578   2
   4  -2   5 586.439 33.5108   1
   4  -2   5 565.321 57.2388   2
   4  -2   5 553.861 56.0235   3
  -4   2  -5 634.460 63.8195   2
   4  -2   6 3358.92 98.8274   1
   4  -2   6 3482.50 145.861   2
  -4   2  -6 3341.20 149.049   2
   4  -2   7 36.8322 12.0836   1
   4  -2   7 39.7441 22.9705   2
  -4   2  -7 37.0440 24.4841   2
   4  -2   8 405.517 39.3104   1
  -4   2  -8 380.687 54.8214   2
   4  -2   9 21.3911 15.3150   1
  -4   2  -9 6.48413 22.3193   2
   4  -2  10 41.8240 16.8544   1
  -4   2 -10 68.7798 29.7405   2
   4  -2  11 208.303 35.1308   1
  -4   2 -11 228.738 44.2787   2
  -4   2 -12 418.655 65.3005   2
  -4   2 -13 380.231 65.4851   2
  -4   2 -14 983.559 104.205   2
   4  -1 -14 27.4831 25.0966   2
   4  -1 -13 17.8775 15.3385   2
   4  -1 -12 93.1348 28.8581   2
   4  -1 -11 8.75775 14.2202   2
   4  -1 -11 19.0435 17.3006   1
   4  -1 -10 216.296 44.6822   1
   4  -1 -10 167.901 32.1259   2
  -4   1  10 184.628 33.5091   3
   4  -1  -9 6.59408 16.9900   1
   4  -1  -9 22.9543 18.4142   2
  -4   1   9-19.1204 11.7143   3
   4  -1  -8 920.575 71.1693   1
  -4   1   8 804.172 59.4691   3
  -4   1   8 858.044 74.1912   1
   4  -1  -8 907.556 64.5845   3
   4  -1  -7 307.777 43.8237   1
  -4   1   7 300.311 42.9242   1
   4  -1  -7 272.411 36.6079   3
  -4   1   7 260.133 33.3785   3
   4  -1  -6 3741.06 137.630   1
   4  -1  -6 3936.54 125.757   3
  -4   1   6 3629.65 120.587   3
  -4   1   6 3562.66 140.228   1
   4  -1  -5 88.4083 21.8714   1
  -4   1   5 102.154 25.3051   1
  -4   1   5 84.0663 19.0213   3
   4  -1  -5 69.4477 17.9993   3
   4  -1  -4 629.484 47.1572   1
  -4   1   4 679.701 46.1407   3
   4  -1  -4 671.759 45.4736   3
  -4   1   4 628.806 49.5912   1
   4  -1  -3 511.802 40.3336   1
  -4   1   3 476.894 38.6052   3
   4  -1  -3 523.699 39.5183   3
  -4   1   3 520.439 41.7518   1
  -4   1   2-10.3948 11.7953   3
   4  -1  -2-1.71112 10.1766   1
   4  -1  -2 14.8309 11.5631   3
  -4   1   2 13.3418 11.6480   1
  -4   1   1 3637.28 100.730   1
   4  -1  -1 3712.88 99.9627   1
   4  -1  -1 3570.16 109.191   3
   4  -1  -1 3610.98 118.752   2
  -4   1   1 3735.33 111.363   3
   4  -1   0 312.065 34.9373   2
   4  -1   0 381.064 34.2357   3
   4  -1   0 352.840 26.3390   1
   4  -1   1 188.333 18.5799   1
   4  -1   1 136.722 25.3978   3
   4  -1   1 152.159 25.4782   2
   4  -1   2 1190.97 65.6389   3
   4  -1   2 1306.44 74.7382   2
   4  -1   2 1278.43 47.1588   1
   4  -1   3 344.422 37.9036   2
   4  -1   3 279.190 35.7146   3
  -4   1  -3 305.434 39.2658   2
   4  -1   4 4785.50 160.994   2
   4  -1   4 4649.52 147.719   3
  -4   1  -4 4745.97 160.518   2
   4  -1   5 1565.76 89.7486   2
  -4   1  -5 1479.39 90.4832   2
   4  -1   6 20043.7 387.442   2
  -4   1  -6 18269.3 385.966   2
   4  -1   6 17595.8 310.104   1
   4  -1   7 10.1165 16.7442   2
   4  -1   7 39.7084 15.0437   1
  -4   1  -7 12.6509 18.9891   2
   4  -1   8 2146.40 92.3078   1
   4  -1   8 2139.89 114.287   2
  -4   1  -8 2000.22 117.186   2
   4  -1   9 6.62171 14.7273   1
  -4   1  -9 2.71349 18.7805   2
   4  -1  10 33.4274 18.9116   1
  -4   1 -10 44.7736 29.0138   2
   4  -1  11 103.091 26.7808   1
  -4   1 -11 147.827 43.7049   2
  -4   1 -12 339.309 57.0999   2
  -4   1 -13 348.724 60.1995   2
  -4   1 -14 411.546 69.4382   2
  -4   1 -15 124.378 42.8837   2
   4   0 -13 21.6340 17.7751   2
   4   0 -13 121.233 37.3460   1
   4   0 -12 25.6612 20.0448   1
   4   0 -12-3.10841 13.9988   2
   4   0 -11 110.639 34.1867   1
   4   0 -11 89.1844 25.2179   2
  -4   0  11 50.5815 17.7096   3
   4   0 -10 350.046 40.4262   2
   4   0 -10 306.698 47.7410   1
  -4   0  10 245.589 34.1547   3
   4   0  -9-4.43931 16.3994   1
   4   0  -9 10.6428 14.8517   2
  -4   0   9 2.05788 11.3502   3
   4   0  -8 1320.09 91.0559   1
  -4   0   8 1043.11 62.1391   3
   4   0  -8 1230.29 69.2478   2
   4   0  -7 2140.97 108.107   1
  -4   0   7 1950.18 81.8715   3
  -4   0   7 2120.96 117.804   1
   4   0  -7 2194.54 88.5084   2
   4   0  -6 2145.31 108.276   1
  -4   0   6 2060.95 80.8980   3
   4   0  -6 2252.85 86.5510   3
  -4   0   6 2190.02 112.332   1
   4   0  -5 89.0872 22.0396   1
  -4   0   5 91.2191 16.3006   3
  -4   0   5 126.690 27.8019   1
   4   0  -5 129.734 20.4257   3
  -4   0   4-27.4550 19.2233   1
  -4   0   4 5.97385 9.53632   3
   4   0  -4 6.27020 11.9550   1
   4   0  -4 14.8110 11.0944   3
  -4   0   3 4567.40 115.589   3
   4   0  -3 4838.32 143.039   1
   4   0  -3 4695.55 115.983   3
  -4   0   3 4735.07 145.599   1
  -4   0   2 3462.46 96.9344   3
   4   0  -2 3717.98 116.194   1
   4   0  -2 3458.90 95.5192   3
  -4   0   2 3560.97 115.615   1
  -4   0   1 9262.35 198.664   1
  -4   0   1 8909.02 180.914   3
   4   0  -1 9282.98 188.393   2
   4   0  -1 9132.82 178.718   3
   4   0  -1 9303.40 195.494   1
   4   0   0 641.680 39.4564   3
   4   0   0 641.968 42.4311   1
   4   0   0 627.548 41.5438   2
   4   0   1 1055.93 57.1434   2
   4   0   1 1097.52 55.2879   3
   4   0   1 1185.21 55.6984   1
   4   0   2 2736.08 87.8646   1
   4   0   2 2697.81 100.021   2
   4   0   2 2744.77 92.8723   3
  -4   0  -2 2749.20 101.965   2
   4   0   3 27.0771 15.2317   2
  -4   0  -3 28.2089 17.6997   2
   4   0   4 16256.3 315.486   2
  -4   0  -4 15889.5 319.279   2
   4   0   5 414.677 45.0521   2
  -4   0  -5 424.588 45.9360   2
   4   0   6 20252.2 387.839   2
  -4   0  -6 19335.4 395.679   2
   4   0   7 1503.37 92.2115   2
  -4   0  -7 1572.17 93.1596   2
   4   0   8 4049.75 154.074   2
  -4   0  -8 3982.60 164.233   2
   4   0   9 3857.31 157.974   2
  -4   0  -9 3871.30 167.688   2
   4   0   9 3866.33 138.056   1
   4   0  10 3328.78 133.498   1
  -4   0 -10 3350.45 160.322   2
   4   0  11 352.919 46.7965   1
  -4   0 -11 270.650 48.1122   2
  -4   0 -12 1262.70 104.821   2
  -4   0 -13 441.856 64.4890   2
  -4   0 -14 1519.25 124.203   2
  -4   0 -15 24.4057 30.8898   2
  -4   0 -16 84.5314 29.8896   2
   4   1 -13 165.399 39.6245   1
   4   1 -12 857.452 88.5943   1
   4   1 -12 967.005 71.7445   2
   4   1 -11 384.739 44.0629   2
   4   1 -11 346.738 55.3071   1
   4   1 -10 777.545 77.9422   1
   4   1 -10 818.992 58.7278   2
  -4  -1  10 667.597 52.7670   3
   4   1  -9 11.1248 17.6356   1
   4   1  -9 7.41268 10.4419   2
  -4  -1   9 25.2496 14.2141   3
   4   1  -8 3125.11 103.460   2
   4   1  -8 3015.75 139.780   1
  -4  -1   8 2805.82 99.8954   3
   4   1  -7 48.9349 14.2648   2
   4   1  -7 39.3470 22.1751   1
  -4  -1   7 31.9418 11.7475   3
  -4  -1   7 88.7115 28.8897   1
   4   1  -6 335.320 28.2628   2
  -4  -1   6 301.820 27.3655   3
   4   1  -6 293.446 44.3326   1
  -4  -1   6 239.568 40.0793   1
  -4  -1   5 222.621 36.8626   1
  -4  -1   5 257.941 23.2267   3
   4   1  -5 283.469 39.1585   1
   4   1  -5 280.869 24.1125   2
   4   1  -4 3200.53 125.316   1
   4   1  -4 3137.30 85.1769   3
  -4  -1   4 2994.80 81.8477   3
  -4  -1   4 3057.74 129.766   1
   4   1  -3 1069.25 43.2304   2
   4   1  -3 1041.19 68.0530   1
   4   1  -3 1053.77 43.2062   3
  -4  -1   3 996.996 42.5496   3
  -4  -1   3 1121.15 70.7111   1
  -4  -1   2 10449.5 238.268   1
  -4  -1   2 10324.4 178.608   3
   4   1  -2 10481.0 180.406   2
   4   1  -2 10305.1 175.985   3
   4   1  -2 10702.3 235.288   1
  -4  -1   1 12824.4 260.698   1
   4   1  -1 12146.3 208.816   2
   4   1  -1 12280.7 200.136   3
   4   1  -1 12279.7 255.888   1
   4   1   0 5336.39 121.431   2
   4   1   0 5208.56 112.018   3
   4   1   0 5175.31 143.485   1
   4   1   1 21.0494 7.82733   3
   4   1   1 27.0849 10.5832   2
   4   1   1 14.7587 12.2668   1
   4   1   2 4069.34 120.814   1
   4   1   2 4169.53 115.496   2
   4   1   2 3942.99 106.653   3
  -4  -1  -2 3994.97 114.862   2
   4   1   3 4368.33 125.367   2
  -4  -1  -3 4432.04 130.077   2
   4   1   4 3142.04 109.304   2
  -4  -1  -4 2981.25 111.582   2
   4   1   5 416.889 40.6309   2
  -4  -1  -5 383.097 41.2941   2
   4   1   6 3674.13 129.577   2
  -4  -1  -6 3705.75 137.547   2
   4   1   7 2340.06 107.214   2
  -4  -1  -7 2306.59 111.989   2
   4   1   8 4076.76 155.952   2
  -4  -1  -8 4017.72 161.422   2
   4   1   9 42.0292 20.3969   2
  -4  -1  -9 2.83842 18.6019   2
  -4  -1 -10 11432.9 312.218   2
  -4  -1 -11 1350.06 101.625   2
   4   1  11 1381.99 90.7709   1
  -4  -1 -12 2288.28 143.284   2
  -4  -1 -13 65.5747 26.3033   2
  -4  -1 -14 307.346 56.0995   2
  -4  -1 -15 376.779 67.0241   2
  -4  -1 -16 76.2931 37.3550   2
   4   2 -12 654.046 79.1555   1
   4   2 -11 1123.31 100.610   1
   4   2 -10 2501.41 141.140   1
   4   2 -10 2522.38 96.9302   2
   4   2  -9 508.113 62.7031   1
   4   2  -9 627.626 43.1249   2
  -4  -2   9 442.109 38.1636   3
   4   2  -8 251.641 24.6334   2
  -4  -2   8 214.866 24.8269   3
   4   2  -8 260.940 44.3547   1
   4   2  -7 594.885 33.8214   2
   4   2  -7 566.852 60.9570   1
  -4  -2   7 609.302 37.5197   3
   4   2  -6 547.255 28.3505   2
   4   2  -6 625.720 61.6220   1
  -4  -2   6 627.102 33.7926   3
  -4  -2   6 645.426 69.0916   1
  -4  -2   5 27.8941 21.0126   1
   4   2  -5 11.7625 4.63473   2
  -4  -2   5 23.2053 9.33302   3
   4   2  -5 2.59593 15.6523   1
  -4  -2   4 7433.40 125.891   3
   4   2  -4 7334.51 213.853   1
  -4  -2   4 7800.98 225.255   1
  -4  -2   3 1665.54 42.3804   3
   4   2  -3 1893.38 96.2648   1
  -4  -2   3 1960.63 101.892   1
  -4  -2   2 4136.50 149.646   1
   4   2  -2 3979.53 141.457   1
   4   2  -1 603.379 22.6550   2
   4   2  -1 715.589 23.3649   3
   4   2  -1 689.344 55.5216   1
   4   2   0 16935.3 249.318   2
   4   2   0 16823.2 239.485   3
   4   2   0 16825.2 330.781   1
   4   2   1 2335.02 67.5230   2
   4   2   1 2177.24 60.3439   3
  -4  -2  -1 2292.49 68.2331   2
   4   2   1 2178.74 94.2780   1
   4   2   2-4.35607 8.06839   2
   4   2   2-2.09686 15.5275   1
  -4  -2  -2 4.87153 9.68914   2
   4   2   3 123.856 19.8727   2
  -4  -2  -3 121.696 20.9050   2
   4   2   4 2361.36 90.6274   2
  -4  -2  -4 2414.99 94.3883   2
   4   2   5 1350.81 71.6651   2
  -4  -2  -5 1318.36 72.7212   2
   4   2   6 106.349 22.0964   2
  -4  -2  -6 87.3839 24.5246   2
   4   2   7-8.58363 16.7344   2
  -4  -2  -7-7.69230 17.6058   2
   4   2   8 1675.85 94.7754   2
  -4  -2  -8 1584.28 95.3189   2
   4   2   9 717.337 64.6117   2
  -4  -2  -9 723.674 67.5983   2
  -4  -2 -10 741.671 71.2810   2
   4   2  10 768.400 69.8473   2
  -4  -2 -11 810.814 81.1707   2
  -4  -2 -12 1992.49 126.252   2
  -4  -2 -13 35.2925 30.7904   2
  -4  -2 -14 200.187 48.8262   2
  -4  -2 -15 97.0852 36.8528   2
  -4  -2 -16 272.040 59.3115   2
   4   3 -11 522.349 68.4785   1
   4   3 -10 580.048 70.8400   1
   4   3  -9 361.298 25.8236   2
   4   3  -9 451.956 59.8645   1
   4   3  -8-13.8682 18.2805   1
  -4  -3   8 16.5102 8.74974   3
  -4  -3   7 35.9931 9.50845   3
   4   3  -7 44.2425 22.0917   1
   4   3  -6 1609.59 103.659   1
  -4  -3   6 1554.77 44.6777   3
   4   3  -5 1695.75 104.492   1
  -4  -3   5 1765.01 112.012   1
  -4  -3   4 3718.47 158.204   1
   4   3  -4 3409.70 144.469   1
  -4  -3   3 629.262 63.6017   1
   4   3  -3 619.570 58.4380   1
  -4  -3   2 7643.21 221.175   1
   4   3  -2 7204.99 211.697   1
   4   3  -1 644.528 56.1702   1
   4   3   0 4714.40 160.398   1
  -4  -3  -1 196.149 17.3430   2
   4   3   1 228.454 33.2441   1
   4   3   1 164.315 12.2683   3
   4   3   1 168.481 11.8528   3
   4   3   2 3323.10 127.811   1
  -4  -3  -2 3494.96 93.1261   2
  -4  -3  -3 292.665 28.5822   2
   4   3   3 300.917 27.0202   2
   4   3   4 19.4652 13.1914   2
  -4  -3  -4 8.80763 11.5521   2
  -4  -3  -5 5224.03 151.212   2
   4   3   5 5501.16 148.982   2
  -4  -3  -6 3918.39 137.853   2
   4   3   6 4165.38 134.154   2
  -4  -3  -7 579.426 53.7271   2
   4   3   7 630.688 53.1755   2
  -4  -3  -8 344.829 45.6586   2
   4   3   8 311.458 41.3750   2
  -4  -3  -9 634.927 61.0549   2
   4   3   9 618.002 60.3033   2
   4   3  10 20.2379 18.2605   2
  -4  -3 -10 0.28924 18.8337   2
  -4  -3 -11 108.359 35.3209   2
  -4  -3 -12 2425.01 138.348   2
  -4  -3 -13 63.8312 28.5652   2
  -4  -3 -14 20.1083 24.5386   2
  -4  -3 -15 59.3612 33.5306   2
  -4  -3 -16 251.910 59.7825   2
   4   4 -10 274.239 52.0967   1
   4   4  -9 11.4237 17.7540   1
   4   4  -8 121.135 36.1672   1
  -4  -4   7 20.9026 5.52235   3
  -4  -4   7 20.9641 5.83986   3
   4   4  -7 46.5730 25.6365   1
   4   4  -6 318.776 49.7530   1
   4   4  -5 1161.15 89.5870   1
   4   4  -4 7885.43 239.623   1
  -4  -4   3 1347.26 96.5865   1
   4   4  -3 1466.07 95.4174   1
   4   4  -2 2232.79 117.754   1
   4   4  -1 875.625 71.0988   1
   4   4   0 521.602 55.5337   1
   4   4   1 12.9676 17.4022   1
  -4  -4  -1 9.23745 6.42428   2
   4   4   2 559.194 58.0392   1
  -4  -4  -2 598.438 35.4440   2
   4   4   2 598.985 26.0830   3
  -4  -4  -3 827.588 47.6995   2
   4   4   3 904.190 39.1684   3
  -4  -4  -4 5587.39 147.554   2
   4   4   4 5942.04 133.249   3
  -4  -4  -5 1501.73 75.7506   2
   4   4   5 1628.70 67.7236   3
  -4  -4  -6 4430.65 143.215   2
   4   4   6 4231.49 125.697   3
  -4  -4  -7 2780.57 117.340   2
   4   4   7 2924.16 107.380   3
  -4  -4  -8 2902.96 128.230   2
   4   4   8 3052.75 117.291   3
  -4  -4  -9 754.005 67.7235   2
   4   4   9 743.291 58.8136   3
  -4  -4 -10 539.061 59.6044   2
   4   4  10 525.675 53.7959   3
  -4  -4 -11 246.472 45.4281   2
  -4  -4 -12 199.882 42.8602   2
  -4  -4 -13 262.033 48.8332   2
  -4  -4 -14 286.153 55.0307   2
  -4  -4 -15 2.96226 24.0922   2
  -4  -4 -16 1277.96 116.932   2
   4   5  -9 9.48026 20.8917   1
   4   5  -8 112.116 34.1695   1
   4   5  -7 119.861 35.9555   1
   4   5  -6 902.639 88.3078   1
   4   5  -5 732.849 74.2226   1
   4   5  -4 1142.09 91.4089   1
   4   5  -3 3268.03 153.518   1
   4   5  -2 3217.36 151.295   1
   4   5  -1 99.9386 25.2303   1
  -4  -5   0 423.944 16.8724   2
  -4  -5   0 566.059 19.7166   2
   4   5   0 731.134 68.8095   1
  -4  -5  -1 757.676 34.6017   2
   4   5   1 751.447 68.9152   1
   4   5   2 4015.65 162.835   1
  -4  -5  -2 4525.27 111.154   2
   4   5   2 4187.16 86.1446   3
  -4  -5  -3 35.4113 14.5105   2
   4   5   3 31.2433 10.0931   3
   4   5   3 39.0679 24.3851   1
  -4  -5  -4 1869.54 81.7149   2
   4   5   4 2041.97 70.2880   3
  -4  -5  -5 900.286 59.9287   2
   4   5   5 883.379 49.1195   3
  -4  -5  -6 148.965 28.7935   2
   4   5   6 166.623 24.5977   3
   4   5   7 315.269 35.3418   3
  -4  -5  -7 266.936 39.3024   2
  -4  -5  -8 4482.49 164.451   2
   4   5   8 4342.03 140.891   3
  -4  -5  -9 1171.70 86.7502   2
   4   5   9 1374.89 80.1370   3
  -4  -5 -10 1677.07 110.141   2
   4   5  10 1745.19 95.1666   3
  -4  -5 -11 172.652 37.8553   2
  -4  -5 -12 123.243 35.0327   2
  -4  -5 -13 3.01859 19.6137   2
  -4  -5 -14 1134.82 105.529   2
  -4  -5 -15 162.920 43.7909   2
  -4  -5 -16 658.092 85.7084   2
   4   6  -8 558.319 76.3284   1
   4   6  -7 112.139 35.7851   1
   4   6  -6 335.297 56.2694   1
   4   6  -5 460.643 63.6999   1
   4   6  -4 571.006 69.2269   1
   4   6  -3 32.9939 25.6231   1
   4   6  -2 438.634 62.0052   1
   4   6  -1 125.074 38.3335   1
   4   6   0 53.4805 27.6107   1
  -4  -6   0 37.2403 8.82231   2
  -4  -6   0 52.2840 9.67836   2
  -4  -6  -1 796.589 41.3972   2
   4   6   1 795.085 75.3564   1
  -4  -6  -2 695.806 44.2659   2
   4   6   2 605.752 30.5427   3
   4   6   2 578.541 64.6836   1
  -4  -6  -3 2088.70 84.5395   2
   4   6   3 1732.33 112.422   1
   4   6   3 1956.70 66.3884   3
  -4  -6  -4 126.407 23.4510   2
   4   6   4 141.919 37.7792   1
   4   6   4 123.931 18.4497   3
  -4  -6  -5 206.315 33.4715   2
   4   6   5 208.530 25.6340   3
  -4  -6  -6 488.442 52.2882   2
   4   6   6 566.505 43.8076   3
  -4  -6  -7 1111.59 79.0496   2
   4   6   7 1091.99 64.6690   3
  -4  -6  -8 356.903 47.5857   2
   4   6   8 305.797 37.4454   3
  -4  -6  -9 19.4630 20.8614   2
   4   6   9-5.67179 13.9558   3
  -4  -6 -10 2054.18 122.196   2
  -4  -6 -11 6.93968 21.0223   2
  -4  -6 -12 41.9527 26.0574   2
  -4  -6 -13 172.899 42.9657   2
  -4  -6 -14 992.723 98.4966   2
  -4  -6 -15 649.612 86.4163   2
   4   7  -6 642.660 80.4348   1
   4   7  -5 65.2498 30.8465   1
   4   7  -4 56.8949 27.9517   1
   4   7  -3 27.4148 22.9045   1
   4   7  -2-3.84478 20.8555   1
  -4  -7   1 6.05289 5.34127   2
   4   7  -1-10.8840 19.9076   1
  -4  -7   0 627.346 37.3443   2
   4   7   0 724.216 78.5013   1
  -4  -7   0 674.697 38.0919   2
   4   7   1 493.558 64.5553   1
  -4  -7  -1 479.924 36.3625   2
   4   7   2 248.834 22.0565   3
   4   7   2 255.829 47.8767   1
  -4  -7  -2 331.974 34.4190   2
   4   7   3 827.974 80.9642   1
   4   7   3 878.643 47.0534   3
  -4  -7  -3 910.254 60.0637   2
   4   7   4 3125.51 160.022   1
   4   7   4 3074.60 100.371   3
  -4  -7  -4 3041.28 120.984   2
  -4  -7  -5-6.54491 14.6004   2
   4   7   5 39.8355 15.6417   3
  -4  -7  -6 427.998 50.2582   2
   4   7   6 437.672 40.3547   3
  -4  -7  -7-1.44564 18.4668   2
   4   7   7-12.3715 13.7695   3
  -4  -7  -8 165.752 34.3732   2
   4   7   8 171.145 28.7114   3
  -4  -7  -9 294.496 48.9088   2
  -4  -7 -10 493.027 64.3735   2
  -4  -7 -11 447.536 63.1338   2
  -4  -7 -12 857.380 91.5762   2
  -4  -7 -13 134.589 42.1576   2
  -4  -7 -14 416.403 69.0390   2
   4   8  -4 202.936 56.2990   1
   4   8  -3 203.197 46.0679   1
   4   8  -2 30.4174 27.5028   1
   4   8  -1 51.3431 25.8064   1
   4   8   0 558.026 73.2265   1
   4   8   1 969.099 94.5547   1
  -4  -8  -1 836.155 53.1080   2
   4   8   2 1088.52 98.1732   1
  -4  -8  -2 1228.94 70.3354   2
   4   8   3 296.781 54.3288   1
  -4  -8  -3 359.324 41.7174   2
   4   8   4 1559.20 117.896   1
  -4  -8  -4 1596.16 90.1793   2
   4   8   5 1529.79 118.510   1
   4   8   5 1536.53 79.7107   3
  -4  -8  -5 1590.12 94.6239   2
   4   8   6 1720.62 88.0713   3
  -4  -8  -6 1913.50 108.089   2
  -4  -8  -7 116.009 30.3428   2
   4   8   7 91.8384 23.3726   3
  -4  -8  -8 808.094 76.7688   2
  -4  -8  -9 97.6850 29.9188   2
  -4  -8 -10 701.615 78.2900   2
  -4  -8 -11 351.425 57.4751   2
  -4  -8 -12 560.073 75.0926   2
  -4  -8 -13 396.628 64.5751   2
   4   9  -2 12.3044 25.9845   1
   4   9  -1 23.5331 22.7281   1
   4   9   0 389.624 64.9324   1
   4   9   1 40.8778 26.2709   1
   4   9   2 281.290 56.4730   1
   4   9   3 200.897 47.2603   1
   4   9   4 634.547 79.1487   1
  -4  -9  -4 558.190 55.8133   2
  -4  -9  -5 8.26806 18.5641   2
   4   9   5 34.0086 24.1315   1
   4   9   6 643.376 82.7018   1
  -4  -9  -6 580.246 63.9497   2
   4   9   7 610.704 79.9604   1
  -4  -9  -7 558.277 65.0127   2
  -4  -9  -8 698.625 75.4084   2
  -4  -9  -9 314.424 51.1047   2
  -4  -9 -10 230.422 53.2100   2
  -4  -9 -11 298.952 56.8858   2
  -4  -9 -12 292.645 57.4287   2
   4  10   3 17.7967 19.8590   1
   4  10   4 57.7533 34.3777   1
   4  10   5 29.0884 25.6480   1
   4  10   6 6.70961 29.7963   1
   4  10   7 22.2536 31.5514   1
  -4 -10  -7 42.2666 23.1063   2
  -4 -10  -8 125.977 35.2628   2
  -4 -10  -9 353.741 59.4853   2
  -4 -10 -10 72.1100 32.2453   2
  -4 -10 -11 8.61607 20.4746   2
   5  -7  -6 45.6360 23.4420   3
   5  -7  -5 159.433 44.6834   3
   5  -7  -4 201.095 43.6249   3
   5  -7  -3 287.551 54.4869   3
   5  -7  -2 264.817 52.8611   3
   5  -7  -1 350.214 58.2659   3
   5  -7   0 45.4231 27.4444   3
   5  -7   1-25.0519 25.3529   3
   5  -7   2 46.9344 20.8869   3
   5  -7   3 92.8119 36.2898   3
   5  -6  -9-5.87946 19.6752   3
   5  -6  -8-47.9996 27.2774   3
   5  -6  -7 208.477 46.8731   3
   5  -6  -6 625.258 72.8887   3
   5  -6  -5 606.175 72.1397   3
   5  -6  -4 169.232 40.0087   3
   5  -6  -3 375.447 56.1315   3
   5  -6  -2 55.9699 27.5749   3
   5  -6  -1 83.9909 31.5396   3
   5  -6   0 65.3642 22.6375   3
   5  -6   1 300.930 50.1579   3
   5  -6   2-15.0541 27.1363   3
   5  -6   3 141.017 41.0750   3
   5  -6   4 251.045 49.3470   3
   5  -6   5 534.002 67.7136   3
   5  -6   6 389.507 61.4051   3
   5  -5 -11 170.765 42.6937   3
   5  -5 -10 40.3296 24.2686   3
   5  -5  -9-13.2984 23.8998   3
   5  -5  -8 91.0809 31.8826   3
   5  -5  -7 69.1972 28.5294   3
   5  -5  -6 736.890 72.9636   3
   5  -5  -5 2154.59 125.660   3
   5  -5  -4 210.598 41.1853   3
   5  -5  -3 264.701 46.9762   3
   5  -5  -2 81.8224 30.1168   3
   5  -5  -1 29.4544 21.4198   3
   5  -5   0 61.9127 24.5985   3
   5  -5   1 1415.37 99.6288   3
   5  -5   2 289.811 48.0987   3
   5  -5   3 103.886 35.6402   3
   5  -5   4 259.772 45.4979   3
   5  -5   5 1911.96 123.630   3
   5  -5   6 1297.72 103.387   3
   5  -5   7 1104.42 99.1259   3
   5  -5   8 110.423 38.2444   3
   5  -5   9 289.941 55.5531   3
   5  -4 -13 337.201 57.8343   2
   5  -4 -12 7.00198 21.5132   3
   5  -4 -12 29.0057 17.9526   2
   5  -4 -11 87.9440 31.7955   3
   5  -4 -10 13.4090 17.4926   3
   5  -4  -9 19.8067 17.1831   3
  -5   4   8 47.5454 20.4944   1
   5  -4  -8 76.2331 28.1275   3
  -5   4   7 54.7918 18.2397   1
   5  -4  -7 36.9045 21.5017   3
  -5   4   6 110.724 23.0031   1
   5  -4  -6 123.306 31.1820   3
   5  -4  -5 1430.10 93.3912   3
  -5   4   5 1221.43 64.4218   1
   5  -4  -4 311.014 43.7956   3
  -5   4   4 215.973 23.5477   1
   5  -4  -3 507.203 54.9459   3
   5  -4  -2 153.503 33.5460   3
   5  -4  -1 1086.64 78.8841   3
   5  -4   0 458.004 55.7725   3
   5  -4   1 166.676 35.8482   3
   5  -4   2 1037.18 81.1304   3
   5  -4   3 994.041 79.8772   3
   5  -4   4 15.9795 27.2739   3
   5  -4   5 4.64420 21.5160   3
   5  -4   6 612.653 67.7078   3
   5  -4   7 1544.67 112.897   3
   5  -4   8 885.133 88.2445   3
   5  -4   9 832.811 84.1669   3
   5  -4  10 84.1349 34.7415   3
   5  -4  11 829.729 91.3034   3
   5  -3 -13 208.739 45.3980   2
   5  -3 -12 77.0416 29.7452   2
   5  -3 -11 7.18383 19.2778   3
   5  -3 -11-3.67674 18.0852   2
   5  -3 -10 3.99471 16.5706   3
   5  -3  -9 192.900 38.0397   3
  -5   3   8 159.119 32.7341   1
   5  -3  -8 187.549 36.9301   3
   5  -3  -7 415.738 51.4248   3
  -5   3   7 471.154 51.6325   1
  -5   3   6 107.233 24.1660   1
   5  -3  -6 73.4913 22.9572   3
  -5   3   5 192.821 32.8037   3
  -5   3   5 241.630 32.1660   1
   5  -3  -5 213.933 35.8207   3
  -5   3   4 17.9657 11.4507   1
  -5   3   4 23.3247 12.8033   3
   5  -3  -4 18.4378 20.2405   3
  -5   3   3 1819.48 98.3489   3
   5  -3  -3 1819.82 95.9845   3
  -5   3   3 1844.35 69.6572   1
  -5   3   2 103.152 25.7384   3
   5  -3  -2 103.552 26.2065   3
  -5   3   1 164.077 30.1196   3
   5  -3  -1 147.957 29.9314   3
   5  -3  -1 163.045 32.5935   2
   5  -3   0 476.509 53.2092   2
   5  -3   0 475.847 50.3902   3
   5  -3   1 846.531 74.0156   2
   5  -3   1 901.619 69.3947   3
   5  -3   2 124.791 26.4590   3
   5  -3   2 141.922 32.7544   2
   5  -3   3 2237.69 113.743   3
   5  -3   4 2.92529 19.0943   3
   5  -3   5-16.3336 22.1028   3
   5  -3   6 143.707 15.2830   1
   5  -3   6 151.269 33.6862   3
   5  -3   7 302.988 26.7978   1
   5  -3   7 351.186 50.6934   3
   5  -3   8 359.568 33.4177   1
   5  -3   8 321.830 51.4275   3
   5  -3   9 1197.57 99.2952   3
  -5   3  -9 1212.45 111.553   2
   5  -3  10 497.220 66.1654   3
  -5   3 -10 491.698 78.5734   2
   5  -3  11 228.103 50.6764   3
  -5   3 -11 125.266 38.1131   2
   5  -3  12 215.761 50.3450   3
  -5   3 -12 143.897 48.1840   2
   5  -2 -13-24.7394 21.1282   2
   5  -2 -12-7.08065 16.7729   2
   5  -2 -11 99.1304 31.6235   2
   5  -2 -10 21.6870 15.1266   2
   5  -2 -10 15.9554 16.3338   3
   5  -2  -9 340.001 45.4691   3
  -5   2   8 54.6740 26.1028   1
   5  -2  -8 46.9355 22.1396   3
  -5   2   7 637.225 58.5835   3
   5  -2  -7 667.189 59.1782   3
  -5   2   7 616.461 61.0584   1
   5  -2  -7 709.451 62.8146   1
   5  -2  -6 27.7381 16.6106   1
  -5   2   6 6.08377 15.5200   3
  -5   2   6 35.0338 21.1329   1
   5  -2  -6 19.5428 13.2428   3
   5  -2  -5 857.493 59.2307   1
  -5   2   5 800.194 61.6800   3
   5  -2  -5 834.228 62.2203   3
  -5   2   5 768.725 60.3975   1
   5  -2  -4 29.2828 15.2194   1
  -5   2   4 35.1651 14.0991   1
  -5   2   4 26.6010 15.5513   3
   5  -2  -4 10.6189 14.9450   3
  -5   2   3 197.441 27.1755   1
   5  -2  -3 203.290 27.4050   1
  -5   2   3 185.840 30.8671   3
   5  -2  -3 196.117 32.1510   3
   5  -2  -2 757.054 44.2090   1
  -5   2   2 769.452 45.7324   1
  -5   2   2 680.168 56.2452   3
   5  -2  -2 683.327 60.6706   2
   5  -2  -2 666.883 54.4244   3
   5  -2  -1 2246.39 69.1805   1
   5  -2  -1 2106.63 105.605   2
   5  -2  -1 2088.36 95.9736   3
  -5   2   1 2149.13 102.279   3
   5  -2   0 493.086 26.4777   1
   5  -2   0 469.815 50.3874   2
   5  -2   0 449.160 44.7957   3
   5  -2   1 5129.54 93.6848   1
   5  -2   1 5942.60 185.763   2
   5  -2   1 5639.60 171.176   3
   5  -2   2 994.188 74.7721   2
   5  -2   2 926.336 67.1286   3
   5  -2   2 707.804 23.1136   1
   5  -2   3 5566.73 183.572   2
   5  -2   3 5246.12 166.276   3
   5  -2   4 404.485 22.1546   1
   5  -2   4 421.717 52.4544   2
   5  -2   4 382.722 21.5780   1
   5  -2   4 381.835 48.0379   3
   5  -2   5 525.786 30.0839   1
   5  -2   5 553.209 60.7173   2
   5  -2   5 533.076 54.9614   3
   5  -2   6 384.130 29.5564   1
   5  -2   6 417.655 52.2754   3
  -5   2  -6 363.810 55.4941   2
   5  -2   7 1509.97 67.2817   1
   5  -2   7 1566.21 101.213   3
  -5   2  -7 1553.84 113.361   2
   5  -2   8 763.994 52.0681   1
  -5   2  -8 802.329 83.4617   2
   5  -2   9 401.248 40.4312   1
  -5   2  -9 546.775 70.9785   2
   5  -2  10 289.497 38.0869   1
  -5   2 -10 284.258 57.7991   2
  -5   2 -11 1023.00 102.113   2
  -5   2 -12 118.743 43.0520   2
  -5   2 -13 1055.65 112.515   2
   5  -1 -12 3.79917 13.9678   2
   5  -1 -11 156.455 32.8282   2
   5  -1 -11 155.315 42.0104   1
   5  -1 -10 23.5808 22.6346   1
   5  -1 -10-9.24755 17.8222   2
   5  -1  -9 88.8793 29.0256   1
   5  -1  -9 70.8211 24.2995   2
  -5   1   9 35.9238 18.5345   3
   5  -1  -8 73.3383 23.9451   1
  -5   1   8 91.3743 26.1128   3
   5  -1  -8 71.9448 22.2890   3
   5  -1  -7 2729.46 126.980   1
  -5   1   7 2559.78 109.707   3
   5  -1  -7 2670.93 112.048   3
  -5   1   7 2467.32 129.155   1
   5  -1  -6 31.2245 18.0611   1
  -5   1   6 40.6276 17.3750   3
   5  -1  -6 1.65038 13.8723   3
  -5   1   6 19.6350 15.2625   1
   5  -1  -5 1384.05 79.9903   1
  -5   1   5 1185.35 68.1346   3
   5  -1  -5 1203.72 69.0605   3
  -5   1   5 1069.08 75.1259   1
   5  -1  -4 1113.29 69.6899   1
  -5   1   4 935.958 60.5174   3
   5  -1  -4 1023.38 61.3211   3
  -5   1   4 941.396 65.5630   1
   5  -1  -3 1438.00 74.2420   1
  -5   1   3 1358.52 71.3609   3
   5  -1  -3 1348.99 69.4911   3
  -5   1   3 1349.22 73.9248   1
  -5   1   2 17.5083 10.7104   3
   5  -1  -2 4.40313 10.4982   1
   5  -1  -2-0.06025 11.8998   3
  -5   1   2 16.8944 13.1039   1
   5  -1  -2-0.95490 10.5514   2
   5  -1  -1 2544.28 89.6549   1
   5  -1  -1 2594.00 107.614   2
   5  -1  -1 2487.12 95.8032   3
   5  -1   0 4694.50 152.638   2
   5  -1   0 4610.25 141.889   3
   5  -1   0 4852.10 122.639   1
   5  -1   1 5194.68 150.453   3
   5  -1   1 5281.58 164.016   2
   5  -1   1 4919.05 120.634   1
   5  -1   2 789.706 61.1832   2
   5  -1   2 771.684 57.1289   3
   5  -1   2 737.187 40.3159   1
   5  -1   3 2673.69 120.418   2
   5  -1   3 2649.25 109.322   3
   5  -1   3 2643.29 80.2625   1
   5  -1   4 2090.91 108.720   2
   5  -1   4 1914.42 96.0327   3
   5  -1   5 7583.76 222.976   2
   5  -1   5 7116.23 212.822   3
  -5   1  -5 7729.36 231.646   2
   5  -1   6 1484.42 94.6567   2
  -5   1  -6 1377.46 100.244   2
  -5   1  -7 7592.93 242.873   2
   5  -1   7 7104.88 174.215   1
   5  -1   8 2014.07 88.5162   1
  -5   1  -8 2157.49 129.191   2
   5  -1   9 756.914 57.0622   1
  -5   1  -9 808.409 82.5785   2
   5  -1  10 99.4169 25.4511   1
  -5   1 -10 135.966 40.6234   2
   5  -1  11 657.836 61.2518   1
  -5   1 -11 784.932 86.2052   2
  -5   1 -12 232.654 49.8473   2
  -5   1 -13 594.069 80.2810   2
  -5   1 -14 420.334 68.7948   2
   5   0 -12 53.3552 27.9655   1
   5   0 -11 70.6916 29.0943   1
   5   0 -11 95.9248 25.0020   2
   5   0 -10 45.2906 21.5504   1
   5   0 -10 69.5821 22.7301   2
   5   0  -9 538.814 63.0149   1
  -5   0   9 458.369 45.5644   3
   5   0  -9 496.228 47.5474   2
   5   0  -8 49.9945 24.9543   1
   5   0  -8 14.5847 15.3114   2
  -5   0   8 5.48337 11.0887   3
   5   0  -7 2068.67 114.626   1
  -5   0   7 2012.24 89.0981   3
   5   0  -7 2216.03 94.8230   3
   5   0  -7 2151.77 90.2034   2
   5   0  -6 2402.76 118.951   1
  -5   0   6 2187.37 89.0922   3
   5   0  -6 2289.78 92.8700   3
  -5   0   6 2321.67 122.707   1
   5   0  -5 1421.21 87.8744   1
  -5   0   5 1397.51 67.3902   3
   5   0  -5 1504.46 70.5695   3
  -5   0   5 1334.05 89.9165   1
  -5   0   4 71.8412 17.0549   3
  -5   0   4 74.7472 23.1459   1
   5   0  -4 84.8758 22.9739   1
   5   0  -4 73.4490 16.8905   3
  -5   0   3 4335.08 123.203   3
   5   0  -3 4608.25 149.826   1
   5   0  -3 4455.36 129.856   2
   5   0  -3 4497.71 123.241   3
  -5   0   3 4369.17 148.949   1
  -5   0   2 2481.75 104.849   1
  -5   0   2 2594.79 91.5631   3
   5   0  -2 2580.49 95.4589   2
   5   0  -2 2583.47 103.297   1
   5   0  -2 2525.68 86.7082   3
   5   0  -1 1113.87 61.7080   2
   5   0  -1 1058.53 55.1351   3
   5   0  -1 951.355 59.5806   1
   5   0   0 191.044 26.5638   1
   5   0   0 181.198 25.1598   3
   5   0   0 161.471 25.6792   2
   5   0   1 1642.03 81.0816   2
   5   0   1 1527.62 72.3229   3
   5   0   1 1600.64 72.0882   1
   5   0   2 37.0527 14.1011   1
   5   0   2 51.7013 16.9569   3
   5   0   2 42.8157 17.1564   2
   5   0   3 573.627 42.9878   1
   5   0   3 557.606 50.3357   2
   5   0   3 546.530 48.0000   3
  -5   0  -3 543.039 51.8014   2
   5   0   4 4.45628 15.1210   3
   5   0   4 7.35167 14.0215   2
  -5   0  -4 6.92101 20.2509   2
   5   0   5 8398.98 228.499   2
  -5   0  -5 8012.70 229.161   2
   5   0   6 1634.35 95.5258   2
  -5   0  -6 1617.86 98.7245   2
   5   0   7 2802.87 130.674   2
  -5   0  -7 2826.05 135.995   2
   5   0   8 3190.64 145.044   2
  -5   0  -8 3360.78 153.447   2
  -5   0  -9 2021.73 124.693   2
   5   0  10 256.281 37.6719   1
  -5   0 -10 310.875 53.5508   2
   5   0  11 77.1487 22.9938   1
  -5   0 -11 89.9337 37.9570   2
  -5   0 -12 26.6334 22.2382   2
  -5   0 -13 454.931 70.1724   2
  -5   0 -14 85.6273 43.5079   2
  -5   0 -15 725.467 90.8845   2
   5   1 -12 112.972 37.8936   1
   5   1 -11 35.2548 27.1926   1
   5   1 -10-2.05123 17.6160   1
   5   1  -9 451.643 38.9810   2
   5   1  -9 472.306 60.7036   1
   5   1  -8 1244.91 62.5637   2
   5   1  -8 1312.22 96.8677   1
  -5  -1   8 1019.98 60.3294   3
   5   1  -7 835.255 47.3068   2
   5   1  -7 648.827 68.6250   1
  -5  -1   7 712.157 47.2951   3
  -5  -1   6 248.627 27.0949   3
   5   1  -6 208.018 39.5169   1
   5   1  -6 251.305 25.3335   2
   5   1  -5 2590.18 128.621   1
   5   1  -5 2975.97 93.4338   3
  -5  -1   5 2975.17 89.9840   3
  -5  -1   5 2809.55 136.061   1
   5   1  -5 2819.60 83.8305   2
  -5  -1   4 106.496 28.8630   1
  -5  -1   4 133.330 18.2696   3
   5   1  -4 105.605 17.7423   3
   5   1  -4 82.3696 14.2514   2
   5   1  -4 79.5201 23.4600   1
  -5  -1   3 4146.39 153.649   1
  -5  -1   3 3878.30 103.041   3
   5   1  -3 3984.48 103.256   2
   5   1  -3 3986.02 146.104   1
   5   1  -3 4082.02 102.437   3
  -5  -1   2 3655.93 138.805   1
   5   1  -2 3717.49 95.6645   3
   5   1  -2 3307.55 128.764   1
   5   1  -2 3609.24 99.1499   2
   5   1  -1 3690.37 103.610   2
   5   1  -1 3518.66 93.7522   3
   5   1  -1 3617.41 129.854   1
   5   1   0 118.744 18.2179   3
   5   1   0 139.521 21.7512   2
   5   1   0 90.6066 20.7679   1
   5   1   1 61.3809 19.8656   1
   5   1   1 23.8962 9.52108   3
   5   1   1 44.2979 13.6242   2
   5   1   2 229.843 29.1436   2
   5   1   2 220.583 29.2803   1
   5   1   2 207.085 24.8649   3
   5   1   3 1358.95 73.0712   2
   5   1   3 1285.84 70.8478   1
   5   1   3 1282.63 66.3074   3
  -5  -1  -3 1365.81 74.4801   2
   5   1   4 128.542 23.7817   2
  -5  -1  -4 125.922 26.1461   2
   5   1   5 2719.27 115.394   2
  -5  -1  -5 2797.74 120.502   2
   5   1   6 411.067 45.9143   2
  -5  -1  -6 335.090 44.0200   2
   5   1   7 1355.37 85.6120   2
  -5  -1  -7 1375.12 89.9438   2
   5   1   8 473.007 53.0444   2
  -5  -1  -8 426.725 54.2652   2
  -5  -1  -9 2643.59 137.940   2
  -5  -1 -10 389.432 54.2771   2
  -5  -1 -11 291.053 53.9416   2
  -5  -1 -12 98.0254 38.1991   2
  -5  -1 -13 336.018 60.5775   2
  -5  -1 -14 269.906 57.9652   2
  -5  -1 -15 677.165 87.9106   2
   5   2 -11 36.2117 20.1452   1
   5   2 -10 103.801 34.6358   1
   5   2  -9 286.549 51.9894   1
   5   2  -8 229.543 18.9996   2
   5   2  -8 329.961 52.3297   1
   5   2  -7 2121.57 125.380   1
  -5  -2   7 1957.60 65.5462   3
  -5  -2   6 235.508 20.2281   3
   5   2  -6 254.564 44.5810   1
  -5  -2   5 785.886 35.4484   3
   5   2  -5 810.033 71.8854   1
   5   2  -4 228.001 40.3414   1
  -5  -2   4 225.585 40.1090   1
  -5  -2   3 622.199 62.5117   1
   5   2  -3 537.337 57.6258   1
  -5  -2   2 2556.66 120.477   1
   5   2  -2 2307.33 56.5410   3
   5   2  -2 2231.30 109.258   1
   5   2  -1 4327.65 92.7731   2
   5   2  -1 4380.42 88.4589   3
   5   2  -1 4349.26 153.974   1
   5   2   0 160.519 28.2668   1
   5   2   0 213.766 20.4938   2
   5   2   0 209.155 17.4474   3
   5   2   1 1622.68 62.7743   2
   5   2   1 1568.61 55.4282   3
   5   2   1 1596.32 87.6908   1
   5   2   2 436.416 45.9483   1
   5   2   2 480.736 35.2763   2
   5   2   2 470.333 32.9929   3
  -5  -2  -2 486.366 37.4776   2
   5   2   3 7304.50 173.674   2
   5   2   3 7066.80 194.207   1
  -5  -2  -3 6998.96 174.171   2
   5   2   4 1549.74 77.9939   2
  -5  -2  -4 1502.27 78.2453   2
   5   2   5 5387.76 161.242   2
  -5  -2  -5 5132.35 161.409   2
   5   2   6 56.6589 18.9886   2
  -5  -2  -6 51.5232 24.0750   2
   5   2   7 662.482 58.1491   2
  -5  -2  -7 682.964 62.6383   2
   5   2   8-5.72054 15.2997   2
  -5  -2  -8 12.2809 19.0604   2
   5   2   9 280.220 43.2719   2
  -5  -2  -9 271.469 47.2500   2
  -5  -2 -10 630.760 69.9753   2
  -5  -2 -11 865.418 86.0838   2
  -5  -2 -12 30.1698 31.4534   2
  -5  -2 -13 1573.03 121.800   2
  -5  -2 -14 225.979 49.1259   2
  -5  -2 -15 889.249 98.9122   2
   5   3 -10 29.4413 22.5287   1
   5   3  -9 702.453 79.3110   1
   5   3  -8 489.734 65.2155   1
   5   3  -7 864.106 85.1717   1
   5   3  -6 1259.85 98.1056   1
   5   3  -5 652.369 67.9156   1
   5   3  -4 320.738 46.9581   1
  -5  -3   3 53.1637 30.6160   1
   5   3  -3 6.24353 17.3256   1
   5   3  -2 147.424 32.6853   1
   5   3  -1 2591.50 123.788   1
   5   3   0-11.0315 19.6679   1
   5   3   1 3973.46 79.2532   3
   5   3   1 3848.88 149.895   1
   5   3   1 4118.82 91.4570   2
   5   3   2 599.317 57.3004   1
   5   3   2 613.854 32.5161   3
  -5  -3  -2 659.183 39.7949   2
   5   3   2 676.770 39.1957   2
   5   3   3 4760.03 167.796   1
  -5  -3  -3 5199.27 138.231   2
   5   3   3 5981.95 142.027   2
  -5  -3  -4 897.834 57.4604   2
   5   3   4 806.010 52.0531   2
  -5  -3  -5 10567.3 243.770   2
   5   3   5 10488.8 233.370   2
  -5  -3  -6 4046.61 144.172   2
   5   3   6 3907.50 137.095   2
   5   3   7 134.056 27.6028   2
  -5  -3  -7 144.556 32.8737   2
  -5  -3  -8 999.127 80.6533   2
   5   3   8 983.353 75.2246   2
   5   3   9 2.98170 16.5922   2
  -5  -3  -9 0.17288 16.7522   2
  -5  -3 -10 45.7022 32.1694   2
  -5  -3 -11 3367.61 167.079   2
  -5  -3 -12 1171.16 100.193   2
  -5  -3 -13 1734.53 127.420   2
  -5  -3 -14 920.583 96.1651   2
  -5  -3 -15 555.528 76.0553   2
   5   4  -9 464.406 68.9921   1
   5   4  -8 169.146 44.1808   1
   5   4  -7 498.355 67.3250   1
   5   4  -6 524.113 66.8262   1
   5   4  -5 911.939 86.5631   1
   5   4  -4 326.543 48.0120   1
   5   4  -3 0.24763 18.1730   1
   5   4  -2 1199.42 92.6152   1
   5   4  -1 16.2235 23.4726   1
   5   4   0 256.465 42.2358   1
  -5  -4  -1 782.359 28.9088   2
   5   4   1 640.858 63.4257   1
  -5  -4  -2 394.205 28.8076   2
   5   4   2 310.787 19.8241   3
   5   4   2 359.322 46.6955   1
   5   4   2 384.247 19.7887   3
   5   4   3 2967.58 137.446   1
  -5  -4  -3 3380.65 103.487   2
   5   4   3 3296.49 84.2502   3
  -5  -4  -4 859.464 54.2120   2
   5   4   4 869.445 45.4378   3
  -5  -4  -5 947.743 63.0388   2
   5   4   5 1052.28 55.2244   3
  -5  -4  -6 852.953 63.2519   2
   5   4   6 864.439 54.6167   3
  -5  -4  -7 3170.35 131.966   2
   5   4   7 3010.84 113.213   3
   5   4   7 2961.19 122.000   2
  -5  -4  -8 964.155 74.4922   2
   5   4   8 964.802 64.9901   3
   5   4   8 914.549 69.0806   2
  -5  -4  -9 132.466 32.6925   2
   5   4   9 135.658 27.0198   3
   5   4   9 130.843 29.9829   2
  -5  -4 -10 138.891 35.8667   2
  -5  -4 -11 2758.65 148.283   2
  -5  -4 -12 1791.98 125.781   2
  -5  -4 -13 1201.01 106.289   2
  -5  -4 -14 126.875 41.9978   2
  -5  -4 -15 335.862 62.3609   2
   5   5  -8 117.560 36.7667   1
   5   5  -7 138.286 38.7026   1
   5   5  -6 18.5150 20.1185   1
   5   5  -5 134.674 38.0651   1
   5   5  -4 196.030 45.6566   1
   5   5  -3 929.209 84.6458   1
   5   5  -2 34.1684 26.3832   1
   5   5  -1 83.0916 32.6968   1
   5   5   0 130.296 33.5439   1
   5   5   1 1681.49 109.203   1
   5   5   2 250.784 44.3101   1
  -5  -5  -2 244.825 22.4410   2
   5   5   3 93.7606 30.4440   1
   5   5   3 133.382 13.8166   3
  -5  -5  -3 112.804 18.7961   2
  -5  -5  -4 742.635 51.3307   2
   5   5   4 495.875 60.2526   1
   5   5   4 680.303 37.5023   3
  -5  -5  -5 507.761 46.8435   2
   5   5   5 596.752 39.6340   3
  -5  -5  -6 672.661 57.0585   2
   5   5   6 542.173 42.5309   3
  -5  -5  -7 763.751 65.6379   2
   5   5   7 722.440 53.6549   3
  -5  -5  -8 2.82601 16.4382   2
   5   5   8 2.80226 10.8287   3
  -5  -5  -9 2169.50 119.698   2
   5   5   9 1966.50 99.9437   3
  -5  -5 -10 120.176 34.4353   2
  -5  -5 -11 2017.95 126.373   2
  -5  -5 -12 828.131 85.3581   2
  -5  -5 -13 754.780 86.3462   2
  -5  -5 -14 57.0502 31.0095   2
  -5  -5 -15 115.860 41.8910   2
   5   6  -6 44.6684 27.9312   1
   5   6  -5 92.8673 32.8096   1
   5   6  -4 20.4671 21.6808   1
   5   6  -3 1287.29 107.259   1
   5   6  -2 610.171 73.7371   1
   5   6  -1 946.942 90.0206   1
   5   6   0 351.237 53.7128   1
   5   6   1 105.110 31.9436   1
  -5  -6  -2 3841.76 97.0733   2
   5   6   2 3867.26 176.537   1
   5   6   3 1420.12 104.697   1
  -5  -6  -3 1620.79 69.2822   2
   5   6   3 1461.17 46.8804   3
  -5  -6  -4 181.760 27.4841   2
   5   6   4 153.462 18.5766   3
   5   6   4 115.047 36.5738   1
  -5  -6  -5 784.573 58.2662   2
   5   6   5 773.531 45.9576   3
  -5  -6  -6 231.389 35.6414   2
   5   6   6 191.657 25.2437   3
  -5  -6  -7 731.575 63.6507   2
   5   6   7 720.761 52.5463   3
  -5  -6  -8 152.724 34.5901   2
   5   6   8 156.878 28.6043   3
  -5  -6  -9 5676.17 201.192   2
   5   6   9 5369.51 171.401   3
  -5  -6 -10 1132.17 91.7037   2
  -5  -6 -11 1342.58 104.334   2
  -5  -6 -12 470.356 66.5307   2
  -5  -6 -13 1392.73 116.543   2
  -5  -6 -14 173.503 43.9556   2
  -5  -6 -15 31.0507 23.8712   2
   5   7  -5 38.5823 18.9762   1
   5   7  -4 0.36054 21.5377   1
   5   7  -3 687.449 82.0761   1
   5   7  -2 321.502 55.4461   1
   5   7  -1 500.171 70.5496   1
   5   7   0 722.565 83.2838   1
   5   7   1 1401.87 110.813   1
  -5  -7  -2 1101.59 51.3547   2
   5   7   2 1142.77 99.5650   1
  -5  -7  -3 2646.84 91.3383   2
   5   7   3 2439.23 144.255   1
   5   7   4 768.537 83.7804   1
  -5  -7  -4 821.624 57.3650   2
   5   7   4 760.266 41.6665   3
  -5  -7  -5 495.166 48.7415   2
   5   7   5 455.211 65.4691   1
   5   7   5 511.290 37.8933   3
  -5  -7  -6 171.698 30.9254   2
   5   7   6 149.223 22.9396   3
  -5  -7  -7 585.115 60.1682   2
   5   7   7 565.570 47.9112   3
  -5  -7  -8 416.388 55.1894   2
   5   7   8 349.387 40.1307   3
  -5  -7  -9 2302.57 129.021   2
  -5  -7 -10 735.303 75.1286   2
  -5  -7 -11 2203.62 135.335   2
  -5  -7 -12 249.465 48.6718   2
  -5  -7 -13 577.178 79.0616   2
  -5  -7 -14 94.2093 34.5099   2
   5   8  -2-15.2553 19.6912   1
   5   8  -1 377.706 65.6038   1
   5   8   0 35.8744 27.7809   1
   5   8   1 364.277 61.0985   1
   5   8   2 307.836 57.6368   1
   5   8   3 362.803 61.5989   1
   5   8   4 256.082 55.9932   1
  -5  -8  -4 193.655 30.4520   2
  -5  -8  -5 422.450 47.3752   2
   5   8   5 354.803 58.8694   1
  -5  -8  -6 183.790 34.4804   2
   5   8   6 253.423 53.7544   1
  -5  -8  -7 251.446 42.4799   2
  -5  -8  -8 16.2264 16.2248   2
  -5  -8  -9 592.299 68.0069   2
  -5  -8 -10 174.230 41.3003   2
  -5  -8 -11 155.140 41.8071   2
  -5  -8 -12 37.2044 26.7702   2
  -5  -8 -13 515.863 74.9587   2
   5   9   1 218.250 52.3052   1
   5   9   2 33.8748 31.5794   1
   5   9   3 473.643 75.7863   1
   5   9   4 86.6735 33.9139   1
   5   9   5 41.9456 30.6704   1
   5   9   6 52.1869 33.0207   1
  -5  -9  -7 407.085 53.8393   2
   5   9   7 403.165 69.1523   1
  -5  -9  -8 65.7745 27.1164   2
  -5  -9  -9 64.9576 28.8818   2
  -5  -9 -10 93.0865 32.7364   2
  -5  -9 -11 172.660 43.2514   2
  -5  -9 -12 67.9305 29.7080   2
   6  -6  -6 11.9092 22.2605   3
   6  -6  -5 107.427 30.1386   3
   6  -6  -4 67.7076 27.5716   3
   6  -6  -3 41.9335 27.1847   3
   6  -6  -2 11.4505 18.7140   3
   6  -6  -1 66.4826 32.1986   3
   6  -6   0 294.943 56.5689   3
   6  -6   1 85.7252 30.8757   3
   6  -6   2 217.389 45.2683   3
   6  -6   3 774.869 86.2787   3
   6  -5  -9-25.7062 26.8178   3
   6  -5  -8 17.2012 21.1905   3
   6  -5  -7-44.8581 26.7632   3
   6  -5  -6 460.560 61.8506   3
   6  -5  -5 50.4442 27.7891   3
   6  -5  -4 18.9059 22.2590   3
   6  -5  -3 0.83965 19.3043   3
   6  -5  -2-26.7346 24.5446   3
   6  -5  -1 16.1030 19.5489   3
   6  -5   0 231.241 44.6262   3
   6  -5   1 113.636 35.1545   3
   6  -5   2 55.5357 26.1499   3
   6  -5   3 11.2407 26.3262   3
   6  -5   4 1380.32 108.874   3
   6  -5   5 343.263 56.5752   3
   6  -5   6 351.920 58.7477   3
   6  -5   7 106.889 36.4831   3
   6  -4 -11 41.5738 27.6078   3
   6  -4 -10 144.965 37.0563   3
   6  -4  -9 38.1507 26.0492   3
   6  -4  -8-45.3795 26.1687   3
   6  -4  -7 37.2919 21.8473   3
   6  -4  -6 212.396 39.3690   3
   6  -4  -5 502.085 60.8301   3
   6  -4  -4 641.676 65.9942   3
   6  -4  -3 48.1501 23.2520   3
   6  -4  -2 378.559 51.5172   3
   6  -4  -1-1.53825 18.8818   3
   6  -4   0 169.705 35.4167   3
   6  -4   1 114.212 31.3460   3
   6  -4   2 616.911 67.5182   3
   6  -4   3 27.5183 20.4236   3
   6  -4   4 196.004 40.1976   3
   6  -4   5 421.988 58.8595   3
   6  -4   6 765.240 82.2354   3
   6  -4   7 151.356 33.8824   3
   6  -4   8 492.583 68.5210   3
   6  -4   9 66.1714 25.2457   3
   6  -3 -11 14.2271 19.5061   3
   6  -3 -11 51.1742 28.8450   2
   6  -3 -10 179.871 39.4786   3
   6  -3  -9-2.96795 17.7579   3
   6  -3  -8-19.9851 21.9947   3
   6  -3  -7 42.9163 22.8226   3
   6  -3  -6 524.408 60.6157   3
   6  -3  -5 375.051 49.0301   3
  -6   3   5 279.476 35.2988   1
  -6   3   4 1398.75 72.7072   1
   6  -3  -4 1458.13 93.3638   3
   6  -3  -3 704.317 66.0224   3
   6  -3  -2 1105.93 79.5927   3
   6  -3  -1 368.157 47.4272   3
   6  -3   0 1761.49 101.444   3
   6  -3   1 428.006 53.3407   3
   6  -3   2 2155.93 117.492   3
   6  -3   3 909.488 76.9697   3
   6  -3   4 1275.39 95.1752   3
   6  -3   5 690.334 71.3994   3
   6  -3   6 338.825 51.5926   3
   6  -3   7 268.776 51.7940   3
   6  -3   8 1983.88 132.475   3
   6  -3   9 823.035 87.6571   3
   6  -3  10 913.196 93.0452   3
   6  -2 -10 62.5548 26.0992   3
   6  -2 -10 40.2884 24.6770   2
   6  -2  -9 260.261 45.3467   3
   6  -2  -8 322.243 47.7136   3
   6  -2  -7 96.6690 28.1820   3
   6  -2  -7 105.357 30.4317   1
   6  -2  -6 1120.37 75.8850   1
   6  -2  -6 1025.40 74.7052   3
  -6   2   6 906.330 74.7102   1
   6  -2  -5 394.829 43.4038   1
  -6   2   5 325.678 43.5591   3
   6  -2  -5 391.465 45.7817   3
  -6   2   5 320.175 40.8986   1
   6  -2  -4 943.037 62.4567   1
  -6   2   4 978.968 66.1759   1
  -6   2   4 909.418 71.0406   3
   6  -2  -4 957.321 70.1392   3
   6  -2  -3 32.2305 15.1246   1
  -6   2   3 29.5258 20.0815   3
   6  -2  -3 25.7796 16.7022   3
   6  -2  -3 19.0809 13.6944   2
   6  -2  -2 2492.56 87.3902   1
  -6   2   2 2080.08 108.028   3
   6  -2  -2 2052.90 112.875   2
   6  -2  -2 2259.25 107.345   3
   6  -2  -1-2.65538 8.12323   1
   6  -2  -1 9.84428 15.6277   3
   6  -2  -1 23.9520 17.8466   2
   6  -2   0 940.785 42.1019   1
   6  -2   0 958.307 77.2105   2
   6  -2   0 1066.95 73.5294   3
   6  -2   1 1408.32 46.2458   1
   6  -2   1 1513.31 97.2156   2
   6  -2   1 1507.42 91.5170   3
   6  -2   2 4071.53 164.524   2
   6  -2   2 4340.91 159.697   3
   6  -2   3 2328.06 51.9281   1
   6  -2   3 3136.97 133.220   3
   6  -2   4 274.202 16.8951   1
   6  -2   4 330.204 45.9707   3
   6  -2   5 673.958 32.2593   1
   6  -2   5 912.308 75.9963   3
   6  -2   5 729.699 33.6041   1
   6  -2   6 1248.02 52.1764   1
   6  -2   6 1044.64 46.9335   1
   6  -2   6 1186.53 89.6534   3
   6  -2   7 6.38239 6.74352   1
   6  -2   7 12.4855 25.1667   3
   6  -2   8 305.899 32.3920   1
   6  -2   8 320.469 53.5481   3
  -6   2  -8 317.587 58.6754   2
   6  -2   9 384.008 60.1326   3
  -6   2  -9 489.022 71.1387   2
   6  -2  10 2168.92 138.012   3
  -6   2 -10 2061.40 147.873   2
   6  -2  11 38.6274 29.9984   3
  -6   2 -11 40.9403 32.7001   2
  -6   2 -12 848.812 101.345   2
   6  -1 -11 258.682 50.4140   1
   6  -1 -10 66.0179 30.2908   1
   6  -1 -10 125.749 29.0666   2
   6  -1  -9 244.815 43.3046   1
   6  -1  -9 327.052 46.4656   3
   6  -1  -9 311.009 43.5582   2
   6  -1  -8 962.182 84.0509   1
   6  -1  -8 1057.24 76.3896   3
   6  -1  -7 170.356 34.7467   1
  -6   1   7 201.661 34.8618   3
   6  -1  -7 269.624 37.8137   3
   6  -1  -6 1662.74 98.3267   1
  -6   1   6 1240.85 78.6996   3
   6  -1  -6 1622.86 86.9076   3
  -6   1   6 1434.42 97.5723   1
   6  -1  -5 581.067 56.4852   1
  -6   1   5 473.426 47.9957   3
   6  -1  -5 491.038 47.0647   3
  -6   1   5 424.837 51.8185   1
  -6   1   4 2015.01 105.075   1
   6  -1  -4 2407.82 109.188   1
  -6   1   4 2125.40 99.4413   3
   6  -1  -4 2049.93 102.807   2
   6  -1  -4 2283.99 99.4945   3
  -6   1   3 1092.44 71.5892   1
   6  -1  -3 1212.95 72.5783   1
  -6   1   3 964.903 67.6104   3
   6  -1  -3 1093.82 73.6716   2
   6  -1  -3 1096.46 68.5004   3
   6  -1  -2 84.5080 18.3294   1
   6  -1  -2 77.7522 18.8444   3
   6  -1  -2 82.4587 25.1282   2
   6  -1  -1-16.0166 14.9828   3
   6  -1  -1-34.1319 19.6084   1
   6  -1  -1 9.53435 15.4048   2
   6  -1   0 844.677 67.5816   2
   6  -1   0 926.856 54.3591   1
   6  -1   0 838.690 61.3569   3
   6  -1   1 869.400 69.7344   2
   6  -1   1 834.788 60.9063   3
   6  -1   1 832.717 48.5458   1
   6  -1   2 1399.11 90.0017   2
   6  -1   2 1527.21 85.1986   3
   6  -1   2 1413.43 62.5406   1
   6  -1   3 1615.27 98.8152   2
   6  -1   3 1631.19 93.6078   3
   6  -1   3 1630.87 66.4187   1
   6  -1   4 1366.56 94.9251   2
   6  -1   4 1391.33 86.2404   3
   6  -1   4 1349.60 61.1706   1
   6  -1   5 270.505 29.2977   1
   6  -1   5 192.469 36.6065   3
   6  -1   6 578.183 61.6204   3
  -6   1  -6 693.843 74.3169   2
   6  -1   7 436.778 56.5622   3
  -6   1  -7 474.569 67.0491   2
   6  -1   8 18.9661 11.6408   1
  -6   1  -8 22.2885 31.0791   2
   6  -1   9 173.398 28.9882   1
  -6   1  -9 211.780 47.7792   2
   6  -1  10 187.311 29.5133   1
  -6   1 -10 319.372 58.5377   2
  -6   1 -11 164.949 41.2948   2
  -6   1 -12 160.176 45.0532   2
  -6   1 -13 190.304 49.8699   2
   6   0 -11 133.701 38.8648   1
   6   0 -10 204.243 43.1725   1
   6   0  -9 118.601 36.4163   1
   6   0  -8 966.377 85.6924   1
   6   0  -8 929.205 63.4870   2
   6   0  -7 839.915 79.1776   1
  -6   0   7 720.430 54.9763   3
   6   0  -7 953.747 64.2187   3
   6   0  -6 2073.11 115.024   1
  -6   0   6 1673.92 83.1284   3
   6   0  -6 1974.06 90.3595   3
  -6   0   5 147.444 35.0125   1
   6   0  -5 187.637 36.2064   1
  -6   0   5 117.089 23.6828   3
   6   0  -5 128.857 22.9577   3
   6   0  -5 120.592 23.8881   2
  -6   0   4 1331.47 89.6831   1
   6   0  -4 1521.60 91.3512   1
  -6   0   4 1279.21 70.6480   3
   6   0  -4 1395.96 74.4867   2
   6   0  -4 1481.48 72.4883   3
  -6   0   3 44.5774 23.8575   1
   6   0  -3 8.99806 14.4421   3
   6   0  -3 17.9141 14.5345   1
   6   0  -3-7.87914 10.6937   2
   6   0  -2 52.5733 18.0768   3
   6   0  -2 42.2696 16.0555   2
   6   0  -2 70.0714 21.9690   1
   6   0  -1 232.184 32.8022   1
   6   0  -1 277.487 32.8439   3
   6   0  -1 219.258 31.3233   2
   6   0   0 1446.39 80.3137   2
   6   0   0 1618.96 77.1165   3
   6   0   0 1581.62 80.1063   1
   6   0   1 1178.71 74.1439   2
   6   0   1 1210.87 68.7897   3
   6   0   1 1323.84 73.1770   1
   6   0   2 3391.04 132.683   2
   6   0   2 3251.08 118.188   3
   6   0   2 3112.54 110.942   1
   6   0   3 48.0169 15.5885   1
   6   0   3 69.7287 23.0685   3
   6   0   3 37.3316 15.6002   2
   6   0   4 507.235 45.2129   1
   6   0   4 531.648 55.2007   2
   6   0   4 596.929 53.2196   3
   6   0   5 40.0762 17.9740   3
   6   0   5 7.25637 14.6091   2
  -6   0  -5 2.06164 18.9807   2
   6   0   6 44.6218 17.3645   3
   6   0   6 100.446 28.2708   2
  -6   0  -6 52.3410 25.8906   2
  -6   0  -7 751.399 74.7053   2
  -6   0  -8 892.167 85.4528   2
  -6   0  -9 29.2913 22.6484   2
  -6   0 -10 82.0285 36.9963   2
   6   0  10 74.2624 25.3760   1
  -6   0 -11 131.337 43.9159   2
  -6   0 -12 867.021 95.5059   2
  -6   0 -13 36.2972 35.8583   2
  -6   0 -14 597.564 84.3513   2
   6   1 -10 291.679 52.4041   1
   6   1  -9 340.571 56.7478   1
   6   1  -8 884.057 87.0769   1
   6   1  -7 300.121 29.0777   2
   6   1  -7 344.315 51.0027   1
   6   1  -6 918.224 83.5643   1
  -6  -1   6 723.108 48.4981   3
   6   1  -6 782.895 45.1556   2
   6   1  -6 845.248 46.7936   2
  -6  -1   5 18.5033 10.7379   3
   6   1  -5 63.6266 25.1829   1
   6   1  -5 51.2000 12.6726   2
   6   1  -5 25.6033 12.3282   3
  -6  -1   4 435.333 57.2822   1
   6   1  -4 402.214 32.9192   2
   6   1  -4 455.160 36.7757   3
   6   1  -4 353.520 48.3376   1
  -6  -1   3 531.443 58.9543   1
   6   1  -3 503.278 38.0087   2
   6   1  -3 510.077 55.1035   1
   6   1  -3 597.512 40.2245   3
   6   1  -2 797.581 48.9194   2
   6   1  -2 658.086 60.9514   1
   6   1  -2 800.034 46.1631   3
   6   1  -1 529.758 41.1583   2
   6   1  -1 461.333 33.9758   3
   6   1  -1 509.514 51.5119   1
   6   1   0 4601.04 134.505   2
   6   1   0 4400.85 120.623   3
   6   1   0 4323.21 152.099   1
   6   1   1 522.721 44.6672   2
   6   1   1 446.345 36.9866   3
   6   1   1 455.178 45.4813   1
   6   1   2 4545.17 144.447   2
   6   1   2 4323.85 129.918   3
   6   1   2 4304.01 148.329   1
   6   1   3 133.534 25.9582   1
   6   1   3 102.976 21.6917   3
   6   1   3 52.2611 21.2360   2
   6   1   4 881.736 64.4580   1
   6   1   4 779.303 62.6503   2
   6   1   4 734.397 56.0357   3
  -6  -1  -4 897.886 67.4837   2
   6   1   5 352.408 43.5007   2
  -6  -1  -5 334.183 45.3327   2
   6   1   6 667.104 62.2469   2
  -6  -1  -6 742.444 68.4362   2
   6   1   7 138.014 29.9935   2
  -6  -1  -7 170.392 35.9909   2
  -6  -1  -8 1892.10 118.327   2
  -6  -1  -9 3391.86 165.405   2
  -6  -1 -10 235.409 47.5812   2
  -6  -1 -11 74.0312 34.6964   2
  -6  -1 -12 587.819 78.8890   2
  -6  -1 -13 158.378 41.0977   2
  -6  -1 -14 559.972 79.9912   2
   6   2 -10 416.445 66.0762   1
   6   2  -9 203.422 43.0886   1
   6   2  -8 1104.43 97.7206   1
   6   2  -7 292.439 51.8933   1
   6   2  -6-2.97345 22.6212   1
   6   2  -5 139.057 35.3101   1
   6   2  -4 482.450 58.5238   1
   6   2  -3 504.983 57.2442   1
   6   2  -3 629.136 31.6700   3
   6   2  -3 416.290 18.7330   2
   6   2  -2 2732.30 71.4921   2
   6   2  -2 3196.04 141.237   1
   6   2  -2 3289.92 78.3693   3
   6   2  -1 408.646 28.8045   2
   6   2  -1 452.982 27.6569   3
   6   2  -1 392.351 49.3881   1
   6   2   0 3653.08 100.982   2
   6   2   0 3424.69 89.6632   3
   6   2   0 3241.03 138.141   1
   6   2   1 244.811 37.8524   1
   6   2   1 301.949 30.3822   2
   6   2   1 284.490 26.4434   3
   6   2   2 3469.60 111.509   2
   6   2   2 3401.72 101.136   3
   6   2   2 3224.91 135.153   1
   6   2   3 57.8753 19.2931   1
   6   2   3 90.2091 20.1081   2
   6   2   3 60.8914 16.0855   3
  -6  -2  -3 101.245 21.6807   2
   6   2   4 2820.95 113.512   2
   6   2   4 2745.10 122.403   1
   6   2   4 2764.47 106.401   3
  -6  -2  -4 2835.69 117.220   2
   6   2   5 914.176 67.4542   2
  -6  -2  -5 874.805 67.6610   2
   6   2   6 140.086 29.1576   2
  -6  -2  -6 132.672 31.8693   2
   6   2   7 233.219 38.0978   2
  -6  -2  -7 279.170 44.2616   2
   6   2   8 1701.99 102.998   2
  -6  -2  -8 1711.32 108.657   2
  -6  -2  -9 2456.98 138.079   2
  -6  -2 -10 2624.86 146.143   2
  -6  -2 -11 346.769 56.5943   2
  -6  -2 -12 927.475 94.5269   2
  -6  -2 -13 33.1767 23.6681   2
  -6  -2 -14 589.690 79.4238   2
   6   3  -9 206.443 46.2918   1
   6   3  -8 228.024 48.2709   1
   6   3  -7 230.019 47.3610   1
   6   3  -6-0.98493 19.0915   1
   6   3  -5 320.925 54.7715   1
   6   3  -4 293.473 49.3601   1
   6   3  -3 272.463 45.8702   1
   6   3  -2 1088.94 87.8152   1
   6   3  -1 783.900 74.9172   1
   6   3   0 615.496 64.0388   1
   6   3   1-2.16001 17.2397   1
   6   3   1-4.74094 7.65012   2
   6   3   1 3.49152 6.03207   3
   6   3   2 1156.24 48.6424   3
   6   3   2 1004.88 79.1392   1
   6   3   2 1120.48 54.9240   2
   6   3   3 650.757 64.0784   1
   6   3   3 824.410 47.3681   3
  -6  -3  -3 841.018 55.0531   2
   6   3   3 905.617 54.7779   2
   6   3   4 494.836 43.9894   2
   6   3   4 356.604 49.1336   1
  -6  -3  -4 420.707 41.2600   2
   6   3   5 7.94166 11.8329   2
  -6  -3  -5-16.3229 14.4328   2
   6   3   6 636.266 57.4047   2
  -6  -3  -6 690.203 60.5967   2
  -6  -3  -7 1311.37 88.4416   2
   6   3   7 1345.15 85.9882   2
  -6  -3  -8 1645.79 104.367   2
   6   3   8 1627.27 98.9083   2
  -6  -3  -9 1103.77 91.6731   2
  -6  -3 -10 1844.64 124.827   2
  -6  -3 -11 301.438 53.9403   2
  -6  -3 -12 367.079 60.3085   2
  -6  -3 -13 1557.38 125.436   2
  -6  -3 -14 505.199 75.7205   2
  -6  -3 -15 156.931 45.1951   2
   6   4  -8 21.9888 27.6278   1
   6   4  -7 54.9593 27.3250   1
   6   4  -6 570.430 74.1037   1
   6   4  -5-51.8858 26.3315   1
   6   4  -4-6.51715 19.9005   1
   6   4  -3 37.5463 23.6721   1
   6   4  -2 210.062 42.7280   1
   6   4  -1 1502.84 107.247   1
   6   4   0 1184.55 93.3666   1
   6   4   1-29.3214 24.8349   1
   6   4   2 212.995 14.9432   3
   6   4   2 219.398 15.1249   3
   6   4   2 207.661 40.2285   1
   6   4   3 20.8150 22.3246   1
   6   4   3 19.7572 8.43413   3
  -6  -4  -3 24.9203 10.0997   2
   6   4   3 4.04316 7.14755   3
  -6  -4  -4 549.079 45.1408   2
   6   4   4 375.759 55.8413   1
   6   4   4 431.731 33.7522   3
  -6  -4  -5 31.4822 19.2539   2
   6   4   5 13.9740 12.4024   2
  -6  -4  -6 7805.11 215.582   2
   6   4   6 7242.37 198.715   2
  -6  -4  -7 668.849 62.8082   2
   6   4   7 604.977 56.4862   2
  -6  -4  -8 322.868 47.1397   2
   6   4   8 324.229 43.8105   2
  -6  -4  -9 11.3094 21.0555   2
  -6  -4 -10 1432.64 107.368   2
  -6  -4 -11 839.439 85.1609   2
  -6  -4 -12 349.871 57.3846   2
  -6  -4 -13 66.0410 36.9029   2
  -6  -4 -14 998.796 103.511   2
  -6  -4 -15 96.7662 38.4187   2
   6   5  -6 252.540 52.9623   1
   6   5  -5 631.569 78.0749   1
   6   5  -4 1233.43 106.650   1
   6   5  -3 259.464 52.1939   1
   6   5  -2 903.063 88.5804   1
   6   5  -1 1234.59 101.086   1
   6   5   0 2081.23 128.599   1
   6   5   1 849.648 82.1978   1
   6   5   2 10.4197 20.1815   1
  -6  -5  -2 16.1369 7.11462   2
   6   5   3 75.3357 25.9095   1
   6   5   3 123.375 12.7154   3
   6   5   3 141.590 12.0106   3
  -6  -5  -3 154.780 21.0012   2
   6   5   4 1649.91 113.510   1
  -6  -5  -4 2100.84 86.6489   2
   6   5   4 1917.66 64.4566   3
   6   5   5 1505.53 106.693   1
  -6  -5  -5 1905.63 92.2247   2
   6   5   5 1622.81 67.4289   3
  -6  -5  -6 5804.91 178.570   2
   6   5   6 5510.85 150.329   3
  -6  -5  -7 2055.32 110.399   2
   6   5   7 1966.18 89.3874   3
  -6  -5  -8 3491.42 150.861   2
   6   5   8 3120.23 123.808   3
  -6  -5  -9-9.36538 17.6982   2
   6   5   9 8.59603 13.0204   3
  -6  -5 -10 1112.40 93.8953   2
  -6  -5 -11 146.484 38.6426   2
  -6  -5 -12 1281.86 108.687   2
  -6  -5 -13-0.08751 20.2775   2
  -6  -5 -14-6.53120 33.1051   2
   6   6  -5 55.4728 32.3537   1
   6   6  -4 945.155 97.6973   1
   6   6  -3 656.049 79.8858   1
   6   6  -2 841.642 89.2548   1
   6   6  -1 439.315 65.0460   1
   6   6   0 424.953 65.4267   1
   6   6   1 200.482 43.8040   1
   6   6   2 269.470 47.7921   1
  -6  -6  -3 249.887 24.2026   2
   6   6   3 165.695 40.4869   1
   6   6   4 802.387 85.0485   1
  -6  -6  -4 877.166 54.8842   2
   6   6   4 804.533 35.2036   3
   6   6   5 724.677 81.0824   1
  -6  -6  -5 765.386 56.7232   2
   6   6   5 684.829 40.6153   3
  -6  -6  -6 1497.98 87.0940   2
   6   6   6 1302.04 106.232   1
   6   6   6 1350.92 65.1369   3
  -6  -6  -7 1094.49 80.6569   2
   6   6   7 996.056 61.3948   3
  -6  -6  -8 1554.36 100.240   2
   6   6   8 1523.76 81.6229   3
  -6  -6  -9 115.310 34.4147   2
  -6  -6 -10 1822.68 120.257   2
  -6  -6 -11 89.2873 36.2066   2
  -6  -6 -12 592.824 77.1302   2
  -6  -6 -13 2.94114 21.1305   2
  -6  -6 -14 193.590 51.0724   2
   6   7  -2 390.855 63.6466   1
   6   7  -1 49.7140 29.2506   1
   6   7   0 504.928 71.2432   1
   6   7   1 18.6209 22.4158   1
   6   7   2 82.7594 34.1584   1
   6   7   3 306.531 56.3314   1
   6   7   4 145.417 40.0497   1
  -6  -7  -5 376.335 39.4475   2
   6   7   5 366.868 59.4329   1
   6   7   6 80.2945 35.2350   1
  -6  -7  -6-0.13576 17.7981   2
  -6  -7  -7-5.34557 14.6922   2
  -6  -7  -8 884.435 76.4496   2
  -6  -7  -9-46.7457 30.3829   2
  -6  -7 -10 609.921 73.2666   2
  -6  -7 -11 194.708 42.4349   2
  -6  -7 -12 807.152 88.6065   2
  -6  -7 -13-27.2414 28.4218   2
  -6  -7 -14 334.224 66.6256   2
   6   8   1 398.993 67.8496   1
   6   8   2 454.685 70.5824   1
   6   8   3 283.431 57.6620   1
   6   8   4 355.493 66.2334   1
   6   8   5 143.532 45.4097   1
   6   8   6 349.823 64.3408   1
   6   8   7 52.8566 33.9615   1
  -6  -8  -7 57.8500 19.6996   2
  -6  -8  -8 90.3281 29.3149   2
  -6  -8  -9 18.5446 20.2112   2
  -6  -8 -10 65.0127 29.4216   2
  -6  -8 -11 20.6123 29.1351   2
  -6  -8 -12 788.724 89.8888   2
  -6  -8 -13 346.107 62.6552   2
   7  -5  -5 1.49544 17.6351   3
   7  -5  -4 68.1598 28.7611   3
   7  -5  -3 434.937 61.5191   3
   7  -5  -2 119.087 37.4947   3
   7  -5  -1 309.446 50.3050   3
   7  -5   0 58.9557 26.0042   3
   7  -5   1 209.884 44.6305   3
   7  -5   2 12.1308 19.1882   3
   7  -5   3 956.342 93.8589   3
   7  -4  -9 62.1320 26.9658   3
   7  -4  -8 135.153 36.5895   3
   7  -4  -7 80.3067 30.1799   3
   7  -4  -6 41.8631 23.5269   3
   7  -4  -5 594.878 69.5236   3
   7  -4  -4 195.422 39.5591   3
   7  -4  -3 592.811 68.7938   3
   7  -4  -2 259.171 45.9597   3
   7  -4  -1 703.808 72.0246   3
   7  -4   0 473.783 60.6628   3
   7  -4   1 423.176 59.0997   3
   7  -4   2 287.756 48.3620   3
   7  -4   3 790.331 81.7824   3
   7  -4   4 770.111 81.3779   3
   7  -4   5 1023.02 95.4785   3
   7  -4   6 392.582 66.6609   3
   7  -3  -9 77.1732 29.4903   3
   7  -3  -8 99.0211 32.4301   3
   7  -3  -7 268.140 45.0879   3
   7  -3  -6 24.8743 19.1908   3
   7  -3  -5 134.270 31.8231   3
   7  -3  -4 122.468 32.9548   3
   7  -3  -3 602.133 64.4238   3
   7  -3  -2 199.296 39.8133   3
   7  -3  -1 642.224 64.5170   3
   7  -3   0 278.023 46.8613   3
   7  -3   1 323.689 48.1815   3
   7  -3   2 104.222 30.9166   3
   7  -3   3 522.458 63.2190   3
   7  -3   4 459.475 59.9699   3
   7  -3   5 285.267 49.3723   3
   7  -3   6 151.437 41.6059   3
   7  -3   7 490.646 66.1745   3
   7  -3   8 345.023 58.9170   3
   7  -3   9 297.309 58.1779   3
   7  -2  -9 268.084 44.0476   3
   7  -2  -8 36.6530 26.1142   3
   7  -2  -7 162.095 35.5921   3
   7  -2  -6 40.6643 25.3787   1
   7  -2  -6-17.1199 14.4889   3
   7  -2  -5 42.6118 18.9580   1
   7  -2  -5-4.15451 14.6969   3
   7  -2  -4 68.0987 20.9504   1
   7  -2  -4 3.00925 14.7615   3
   7  -2  -3 865.664 58.6192   1
   7  -2  -3 833.475 68.8544   3
   7  -2  -2 173.378 26.6048   1
   7  -2  -2 98.5049 26.8368   3
   7  -2  -1 453.688 35.3843   1
   7  -2  -1 425.271 50.1827   3
   7  -2   0 85.2091 12.4471   1
   7  -2   0 160.312 33.5067   3
   7  -2   1 226.064 18.6576   1
   7  -2   1 281.306 45.3445   3
   7  -2   2 124.729 11.2431   1
   7  -2   2 234.224 40.0005   3
   7  -2   3-5.82044 22.2681   3
   7  -2   4 42.9352 23.1322   3
   7  -2   5 365.678 52.7331   3
   7  -2   6 235.606 41.3823   3
   7  -2   7 356.785 56.4870   3
   7  -2   8 22.1410 26.1738   3
   7  -2   9 2070.19 135.995   3
   7  -2  10 164.719 44.5893   3
   7  -1 -10 225.536 50.0173   1
   7  -1  -9 352.632 55.4733   1
   7  -1  -8 6.69580 15.8854   1
   7  -1  -8 11.7143 18.0998   3
   7  -1  -7 119.828 32.3061   1
   7  -1  -7 115.129 29.9754   3
   7  -1  -6 127.041 32.0059   1
   7  -1  -6 158.634 32.6751   3
   7  -1  -5 476.406 54.2436   1
   7  -1  -5 501.101 51.7482   3
   7  -1  -4 28.1781 20.1797   1
   7  -1  -4 31.7550 16.4176   3
   7  -1  -4 42.5814 19.0786   2
   7  -1  -3 429.023 47.0350   1
   7  -1  -3 335.710 44.4850   2
   7  -1  -3 392.122 44.6038   3
   7  -1  -2 501.078 48.0928   1
   7  -1  -2 387.480 47.5196   2
   7  -1  -2 442.438 45.8240   3
   7  -1  -1 872.494 58.8850   1
   7  -1  -1 836.442 70.7331   2
   7  -1  -1 928.999 68.1083   3
   7  -1   0 243.247 31.0881   1
   7  -1   0 165.251 32.4613   3
   7  -1   0 169.432 35.2138   2
   7  -1   1 802.181 71.4775   2
   7  -1   1 969.563 56.7854   1
   7  -1   1 804.947 66.8577   3
   7  -1   2 174.324 23.1475   1
   7  -1   2 196.226 34.3434   3
   7  -1   3 1065.12 78.3287   3
   7  -1   3 970.525 54.0252   1
   7  -1   4-21.8809 20.6830   3
   7  -1   4 14.5501 9.84257   1
   7  -1   5 9.19109 10.5149   1
   7  -1   5 4.08790 16.8043   3
   7  -1   6 174.114 24.7608   1
   7  -1   6 158.603 36.2637   3
   7  -1   7 40.0784 19.1131   1
   7  -1   7-11.5296 17.9764   3
   7  -1   8 18.4186 22.5065   3
  -7   1  -8 37.8255 29.3849   2
   7  -1   9 584.532 71.5491   3
  -7   1  -9 592.168 79.6747   2
   7  -1  10 771.104 87.1998   3
  -7   1 -10 802.901 93.0021   2
   7  -1  11 774.128 86.0110   3
  -7   1 -11 795.050 93.4437   2
   7   0 -10 107.879 37.9379   1
   7   0  -9 76.9952 25.8359   1
   7   0  -8 34.6239 20.8269   1
   7   0  -7 17.7724 18.7082   1
   7   0  -7 18.2223 15.0989   3
   7   0  -6 137.408 34.8481   1
   7   0  -6 120.315 26.3051   3
   7   0  -5 1712.28 107.499   1
   7   0  -5 1617.53 83.4751   3
   7   0  -4 549.729 59.4539   1
   7   0  -4 503.972 48.9038   2
   7   0  -4 642.227 50.9963   3
   7   0  -3 405.174 50.1863   1
   7   0  -3 392.305 43.2599   2
   7   0  -3 459.385 43.4207   3
   7   0  -2 20.1703 15.4568   3
   7   0  -2 10.3667 12.9453   2
   7   0  -2-7.37510 16.7950   1
   7   0  -1 1336.16 82.7686   2
   7   0  -1 1535.86 88.7811   1
   7   0  -1 1381.36 75.7148   3
   7   0   0 78.6835 14.0705   1
   7   0   0 190.185 30.5323   3
   7   0   0 133.287 25.6631   2
   7   0   1 2312.92 114.759   2
   7   0   1 2426.69 106.500   3
   7   0   1 2503.07 107.084   1
   7   0   2 247.372 33.9561   1
   7   0   2 288.933 37.4350   3
   7   0   2 214.743 35.5090   2
   7   0   3 12.7709 14.9662   3
   7   0   3 33.4098 17.3887   2
   7   0   3 23.6705 14.1608   1
   7   0   4 133.410 25.5604   1
   7   0   4 138.140 28.1561   3
   7   0   4 142.814 35.2807   2
   7   0   5 425.005 50.2074   3
   7   0   5 484.784 46.3540   1
   7   0   6 971.310 66.7883   1
   7   0   6 866.868 75.4462   3
   7   0   7 1550.52 101.217   3
  -7   0  -7 1460.93 113.873   2
   7   0   8 292.423 50.1902   3
  -7   0  -8 333.476 56.9184   2
  -7   0  -9 582.846 74.4777   2
  -7   0 -10 104.836 36.3776   2
  -7   0 -11 906.780 96.8842   2
  -7   0 -12 46.2206 31.8813   2
   7   1  -9 12.5235 22.2189   1
   7   1  -8 194.258 43.4288   1
   7   1  -7 11.5170 14.7797   1
   7   1  -6 18.4586 21.6887   1
   7   1  -5 576.528 65.9581   1
   7   1  -5 637.352 46.4111   3
   7   1  -4 465.822 57.7876   1
   7   1  -4 506.145 40.8150   3
   7   1  -3 448.174 38.8770   2
   7   1  -3 377.288 50.7797   1
   7   1  -3 432.573 36.9265   3
   7   1  -2 111.029 29.8521   1
   7   1  -2 116.043 20.9684   2
   7   1  -2 141.910 23.0406   3
   7   1  -1 377.760 38.0456   2
   7   1  -1 336.128 32.0905   3
   7   1  -1 335.692 45.2059   1
   7   1   0 28.4208 19.1359   1
   7   1   0 24.5022 13.8804   2
   7   1   0 19.9721 9.56459   3
   7   1   1 220.924 33.5967   1
   7   1   1 202.140 27.6898   2
   7   1   1 239.659 28.2295   3
   7   1   2-0.81895 13.9839   2
   7   1   2-2.25606 18.2273   3
   7   1   2-5.88743 15.3868   1
   7   1   3 144.196 28.6385   1
   7   1   3 256.117 34.9198   3
   7   1   3 233.091 38.0405   2
   7   1   4 964.111 74.7570   2
   7   1   4 1127.22 74.4018   3
   7   1   4 947.943 69.8930   1
   7   1   5 364.586 44.7439   1
   7   1   5 344.906 46.4105   2
  -7  -1  -5 403.664 54.5136   2
   7   1   5 330.719 41.7670   3
   7   1   6 1162.03 79.1306   1
   7   1   6 1089.52 77.7613   3
  -7  -1  -6 1063.29 88.3696   2
   7   1   7 3569.09 153.537   3
  -7  -1  -7 3564.31 168.403   2
  -7  -1  -8 1935.72 126.307   2
  -7  -1  -9 753.280 81.1964   2
  -7  -1 -10 315.031 61.8743   2
  -7  -1 -11 304.526 59.5220   2
  -7  -1 -12-8.59499 24.2448   2
  -7  -1 -13 299.924 61.0471   2
   7   2  -8 40.8035 22.1281   1
   7   2  -7 22.3937 20.2149   1
   7   2  -6 22.7255 20.4397   1
   7   2  -5 124.720 32.8193   1
   7   2  -4 192.123 40.2349   1
   7   2  -3 565.029 65.9974   1
   7   2  -3 567.105 33.1031   3
   7   2  -2 11.2346 20.0810   1
   7   2  -2 8.58981 5.90380   2
   7   2  -2 10.8385 7.29780   3
   7   2  -1 0.84664 7.69944   2
   7   2  -1-20.1812 11.1717   3
   7   2   0 9.33591 15.5741   1
   7   2   0 31.7233 13.8681   2
   7   2   0 23.1764 10.6937   3
   7   2   1 395.683 36.7873   2
   7   2   1 346.059 30.9589   3
   7   2   1 416.882 52.1931   1
   7   2   2 244.553 38.7421   1
   7   2   2 234.619 30.2774   2
   7   2   2 294.295 31.4631   3
   7   2   3 981.473 65.9797   2
   7   2   3 1065.46 61.4831   3
   7   2   3 1021.03 78.6021   1
   7   2   4 110.634 29.3062   1
   7   2   4 116.737 26.1892   2
   7   2   4 103.525 21.5399   3
   7   2   5 39.8219 16.5269   1
   7   2   5 62.3388 21.0140   2
   7   2   5 23.4358 14.2467   3
  -7  -2  -5 71.7294 23.3998   2
   7   2   6 14.9921 18.7340   1
   7   2   6-0.54414 17.9291   3
   7   2   6 18.4854 15.3754   2
  -7  -2  -6 56.4842 24.9180   2
  -7  -2  -7 2874.96 143.444   2
  -7  -2  -8 2446.23 137.199   2
  -7  -2  -9 1500.21 111.816   2
  -7  -2 -10 392.015 62.1227   2
  -7  -2 -11 474.326 69.5382   2
  -7  -2 -12 76.5357 36.7627   2
  -7  -2 -13 198.125 48.6107   2
   7   3  -7 743.071 87.7726   1
   7   3  -6 24.7382 23.4754   1
   7   3  -5 106.108 36.4505   1
   7   3  -4 237.122 44.9062   1
   7   3  -3 661.601 74.0101   1
   7   3  -2 959.582 86.0543   1
   7   3  -1 257.793 46.4923   1
   7   3   0 164.399 12.5397   3
   7   3   0 187.394 41.0472   1
   7   3   0 161.817 14.6444   2
   7   3   1 1282.10 47.0386   3
   7   3   1 1165.63 90.5906   1
   7   3   1 1228.62 54.0984   2
   7   3   2 158.688 35.2292   1
   7   3   2 132.534 18.3206   2
   7   3   2 183.347 21.1791   3
   7   3   3 2991.14 108.757   2
   7   3   3 2998.77 96.4869   3
   7   3   3 2721.10 139.405   1
   7   3   4 570.682 49.0292   2
   7   3   4 506.094 41.3696   3
  -7  -3  -4 528.188 49.6371   2
   7   3   4 455.977 57.4147   1
   7   3   5 1821.26 96.2411   2
   7   3   5 1692.58 109.004   1
   7   3   5 2010.30 92.2256   3
  -7  -3  -5 2046.19 104.577   2
   7   3   6 137.511 33.0420   1
   7   3   6 167.258 31.9961   2
  -7  -3  -6 93.8820 24.3471   2
   7   3   7 1241.54 86.5356   2
  -7  -3  -7 1309.11 93.3060   2
  -7  -3  -8 1745.52 112.975   2
  -7  -3  -9 1684.38 115.564   2
  -7  -3 -10 216.373 44.6430   2
  -7  -3 -11-20.3445 23.6792   2
  -7  -3 -12 341.266 58.9600   2
  -7  -3 -13 1010.89 105.353   2
  -7  -3 -14 139.564 48.3084   2
   7   4  -6 498.139 72.6388   1
   7   4  -5 114.397 36.9342   1
   7   4  -4 120.700 37.0046   1
   7   4  -3 500.711 67.1240   1
   7   4  -2 560.633 69.3925   1
   7   4  -1 670.951 74.9699   1
   7   4   0 193.168 44.5938   1
   7   4   1 2206.43 130.901   1
   7   4   2 783.661 26.4399   3
   7   4   2 661.859 26.0832   3
   7   4   2 687.727 73.0172   1
   7   4   3 2098.46 66.6899   3
   7   4   3 2017.76 67.2097   3
   7   4   3 2005.91 123.526   1
   7   4   4 864.185 49.2601   3
  -7  -4  -4 968.026 62.0227   2
   7   4   4 648.265 72.5405   1
   7   4   5 3211.89 158.159   1
  -7  -4  -5 3650.21 134.538   2
   7   4   5 3364.50 126.455   2
   7   4   6 728.565 76.6376   1
  -7  -4  -6 962.407 73.0873   2
   7   4   6 838.359 64.6460   2
  -7  -4  -7 654.706 63.8863   2
   7   4   7 652.492 61.8052   2
  -7  -4  -8 302.955 47.8700   2
  -7  -4  -9 655.327 70.1710   2
  -7  -4 -10 4.33166 18.2620   2
  -7  -4 -11 197.145 45.0991   2
  -7  -4 -12 109.796 38.7620   2
  -7  -4 -13 941.110 101.195   2
  -7  -4 -14 663.570 88.8997   2
   7   5  -4-7.42140 20.6606   1
   7   5  -3 37.1714 19.3949   1
   7   5  -2 33.6559 27.0070   1
   7   5  -1 830.759 87.9354   1
   7   5   0 208.577 45.1571   1
   7   5   1 186.479 42.9944   1
   7   5   2 233.447 46.2666   1
   7   5   3 226.578 46.9961   1
   7   5   4 164.609 40.4004   1
   7   5   4 172.813 18.4263   3
  -7  -5  -4 179.653 25.7097   2
   7   5   5 1247.96 103.496   1
  -7  -5  -5 1327.98 75.9113   2
   7   5   6 1079.72 97.7367   1
  -7  -5  -6 1437.52 86.2077   2
  -7  -5  -7 1532.52 94.8747   2
  -7  -5  -8 61.5797 25.6250   2
  -7  -5  -9 873.917 81.5164   2
  -7  -5 -10 232.906 48.1637   2
  -7  -5 -11 150.113 39.2325   2
  -7  -5 -12 119.756 37.0547   2
  -7  -5 -13 133.125 39.2310   2
  -7  -5 -14 114.756 42.1178   2
   7   6  -2 68.4236 32.4738   1
   7   6  -1 471.360 70.6199   1
   7   6   0 155.307 42.9845   1
   7   6   1 190.505 47.9898   1
   7   6   2 47.3446 30.0073   1
   7   6   3 11.9579 21.1326   1
   7   6   4 31.9721 29.0915   1
   7   6   5 155.685 38.6525   1
   7   6   6 570.550 75.3362   1
  -7  -6  -6 532.469 51.8756   2
   7   6   7 972.332 96.4681   1
  -7  -6  -7 1083.05 80.3838   2
  -7  -6  -8-10.3887 18.4280   2
  -7  -6  -9 725.426 73.6662   2
  -7  -6 -10 313.564 52.9174   2
  -7  -6 -11 175.689 40.5292   2
  -7  -6 -12 11.2745 20.0305   2
  -7  -6 -13 597.369 81.1054   2
   7   7   1 132.532 40.8374   1
   7   7   2 133.257 40.3668   1
   7   7   3 93.7079 33.4161   1
   7   7   4 71.5118 37.7264   1
   7   7   5 239.628 51.3328   1
   7   7   6 2.28972 24.5788   1
   7   7   7 450.831 70.3154   1
   7   7   8 40.1951 31.8890   1
  -7  -7  -8 50.6153 24.4408   2
  -7  -7  -9 170.747 36.3308   2
  -7  -7 -10 120.314 33.4955   2
  -7  -7 -11 504.938 66.6587   2
  -7  -7 -12 4.44470 24.5268   2
  -7  -7 -13 68.3681 32.2008   2
   8  -4  -5-50.9233 31.1333   3
   8  -4  -4 43.4553 26.9770   3
   8  -4  -3 106.128 34.3233   3
   8  -4  -2 243.269 47.0784   3
   8  -4  -1 75.5299 30.8955   3
   8  -4   0 58.7392 24.6783   3
   8  -4   1 42.6688 26.3097   3
   8  -4   2 49.0609 28.0413   3
   8  -3  -6-16.4900 16.6623   3
   8  -3  -5 202.745 40.2060   3
   8  -3  -4 289.849 48.4882   3
   8  -3  -3 220.555 42.4140   3
   8  -3  -2 393.552 55.0777   3
   8  -3  -1 16.3616 17.2870   3
   8  -3   0 49.0749 26.1047   3
   8  -3   1 113.322 32.6340   3
   8  -3   2 25.6514 22.2404   3
   8  -3   3 60.8069 28.6125   3
   8  -3   4 116.910 37.2354   3
   8  -3   5 74.3987 33.7658   3
   8  -3   6 558.734 75.4654   3
   8  -2  -6-36.6662 23.0161   3
   8  -2  -5 23.1766 17.4399   3
   8  -2  -4 836.781 73.4914   3
   8  -2  -3 430.504 54.1495   3
   8  -2  -2 891.998 76.0831   3
   8  -2  -1 206.488 36.7277   3
   8  -2   0 80.4945 29.3675   3
   8  -2   1 134.371 32.8219   3
   8  -2   2 25.0452 24.8130   3
   8  -2   3 61.6564 27.1687   3
   8  -2   4 594.097 67.9279   3
   8  -2   5 111.828 31.4397   3
   8  -2   6 85.1085 29.1732   3
   8  -2   7 13.1876 28.4706   3
   8  -2   8 1192.51 104.893   3
   8  -1  -5 45.4889 19.6390   1
   8  -1  -5 6.88645 14.6156   3
   8  -1  -4 149.282 33.2933   1
   8  -1  -4 164.205 31.7011   3
   8  -1  -3 439.603 49.6946   1
   8  -1  -3 401.975 49.0753   3
   8  -1  -2 765.913 61.7293   1
   8  -1  -2 770.594 65.1643   3
   8  -1  -1-3.47255 13.2458   1
   8  -1  -1 16.3360 18.6334   3
   8  -1   0 10.4776 12.4708   1
   8  -1   0 34.0632 15.6910   3
   8  -1   1 99.9072 26.4661   3
   8  -1   1 99.3451 22.3801   1
   8  -1   2 53.7378 19.1498   3
   8  -1   3 652.991 67.3643   3
   8  -1   4 1530.69 102.394   3
   8  -1   5 731.485 74.7933   3
   8  -1   6 402.430 56.8555   3
   8  -1   7 24.0811 21.7839   3
   8  -1   8 154.768 38.4806   3
   8  -1   9 55.2699 32.5852   3
   8  -1  10 270.690 54.2776   3
   8   0  -8 1.34924 16.0501   1
   8   0  -7 13.6728 22.5505   1
   8   0  -6 208.104 40.2807   1
   8   0  -5 35.7523 14.5875   1
   8   0  -4 74.9021 28.5466   1
   8   0  -4 47.5586 14.1838   3
   8   0  -3 114.748 29.6461   1
   8   0  -3 64.3665 22.0658   3
   8   0  -2 34.3210 16.5068   1
   8   0  -2 89.8217 23.5157   3
   8   0  -1 72.4450 20.8769   3
   8   0  -1 53.6286 20.9997   1
   8   0   0-37.5304 27.0167   1
   8   0   0 92.4757 25.2593   3
   8   0   1-27.3528 19.2320   1
   8   0   1-20.4330 16.1318   3
   8   0   2-1.37285 14.5169   1
   8   0   2 16.3570 16.1450   3
   8   0   3 440.547 50.6393   3
   8   0   3 480.783 48.6005   1
   8   0   4 2568.82 126.664   3
   8   0   4 2288.86 105.626   1
   8   0   5 1187.25 87.1644   3
   8   0   5 1101.54 71.7932   1
   8   0   6 879.625 77.5271   3
   8   0   6 836.705 62.7625   1
   8   0   7-8.87076 11.9991   1
   8   0   7-20.3000 20.4334   3
   8   0   8 175.018 39.7982   3
   8   0   9 26.5931 22.3859   3
  -8   0  -9 41.6744 31.2770   2
   8   0  10 335.617 59.5906   3
  -8   0 -10 351.576 66.2290   2
   8   0  11 170.530 40.6209   3
   8   1  -7 39.2421 26.0180   1
   8   1  -6 645.433 74.4131   1
   8   1  -5 190.387 41.5841   1
   8   1  -4 268.249 47.2754   1
   8   1  -3-14.8069 19.6068   1
   8   1  -2 36.1145 16.2786   3
   8   1  -2-31.8776 23.7316   1
   8   1  -1 4.12084 14.2668   1
   8   1  -1 16.4965 13.7914   3
   8   1   0 51.9501 23.1075   1
   8   1   0 33.8533 11.2890   3
   8   1   1 155.890 29.6574   1
   8   1   1 172.867 26.5781   3
   8   1   2 946.642 73.0105   2
   8   1   2 1128.10 70.8640   3
   8   1   2 1067.46 78.8935   1
   8   1   3-0.29739 14.5404   3
   8   1   3 41.0529 21.9458   1
   8   1   4 1067.35 74.2895   3
   8   1   4 1003.91 74.9637   1
   8   1   5 1262.17 83.8362   3
   8   1   5 1117.07 81.4301   1
   8   1   6 1857.82 109.472   3
   8   1   6 1674.83 99.8847   1
   8   1   7 324.449 45.6661   1
   8   1   7 307.954 47.0134   3
  -8  -1  -7 310.513 55.8929   2
   8   1   8 51.8760 22.2138   3
  -8  -1  -8 8.89907 22.6814   2
   8   1   8 38.0930 20.4698   1
   8   1   9 145.538 39.3324   3
  -8  -1  -9 40.4542 32.3206   2
  -8  -1 -10 792.006 91.2727   2
  -8  -1 -11 368.969 65.4506   2
   8   2  -6 661.203 80.1482   1
   8   2  -5 890.820 92.1329   1
   8   2  -4 596.270 71.8969   1
   8   2  -3 113.367 34.6930   1
   8   2  -2 209.737 42.2641   1
   8   2  -1 221.813 41.2964   1
   8   2   0 885.661 49.3340   3
   8   2   0 919.486 80.8130   1
   8   2   1 441.843 36.2684   3
   8   2   1 508.390 61.0073   1
   8   2   2 2446.79 95.8381   3
   8   2   2 2263.24 126.184   1
   8   2   3 415.943 44.9679   2
   8   2   3 606.731 50.2423   3
   8   2   3 501.132 57.7904   1
   8   2   4 302.742 45.6981   1
   8   2   4 266.294 35.2719   3
   8   2   4 206.191 34.2209   2
   8   2   5 280.225 37.6236   3
   8   2   5 251.345 40.0342   1
   8   2   6 931.334 79.1960   1
   8   2   6 960.102 74.3674   3
  -8  -2  -6 1047.69 88.8560   2
   8   2   7 263.860 43.9243   1
   8   2   7 203.037 35.4765   3
  -8  -2  -7 314.830 52.9304   2
   8   2   8 383.897 52.6836   3
  -8  -2  -8 398.673 58.4385   2
  -8  -2  -9 72.3321 33.5082   2
  -8  -2 -10 847.622 92.8267   2
  -8  -2 -11 449.468 68.7399   2
  -8  -2 -12 657.837 85.3974   2
   8   3  -5 109.711 36.0123   1
   8   3  -4 738.802 84.7554   1
   8   3  -3 129.757 36.3145   1
   8   3  -2 83.8363 33.6902   1
   8   3  -1 179.965 41.8866   1
   8   3   0 1012.29 90.7984   1
   8   3   1 473.983 62.4463   1
   8   3   2 1540.98 62.1891   3
   8   3   2 1425.97 105.763   1
   8   3   3 1405.14 66.5912   3
   8   3   3 1111.98 93.0795   1
   8   3   4 746.253 51.8464   3
   8   3   4 548.562 66.2593   1
   8   3   5 158.427 28.9355   3
   8   3   5 108.824 31.2397   1
   8   3   6 178.360 31.3502   3
   8   3   6 236.736 45.8218   1
  -8  -3  -6 253.793 43.3251   2
   8   3   7 152.417 30.9445   3
   8   3   7 181.368 39.4954   1
  -8  -3  -7 173.151 39.4409   2
  -8  -3  -8 237.833 45.0080   2
  -8  -3  -9 262.623 49.3309   2
  -8  -3 -10 530.176 70.0327   2
  -8  -3 -11 165.762 43.1411   2
  -8  -3 -12 491.816 74.9581   2
   8   4  -3-52.0305 32.6579   1
   8   4  -2 207.209 46.2446   1
   8   4  -1 38.2905 24.6791   1
   8   4   0 203.561 48.7813   1
   8   4   1 370.562 60.2544   1
   8   4   2 580.312 70.4779   1
   8   4   3 278.900 49.6699   1
   8   4   4 838.274 86.6850   1
   8   4   5 20.7192 13.2416   3
  -8  -4  -5 30.4618 15.7954   2
   8   4   5 5.55209 19.6818   1
   8   4   6 15.6401 12.0947   3
   8   4   6-1.88121 19.3152   1
  -8  -4  -6 20.2452 14.6703   2
   8   4   7 96.7287 36.6373   1
  -8  -4  -7 81.8810 26.8325   2
   8   4   8 704.336 80.8427   1
  -8  -4  -8 759.502 75.4923   2
  -8  -4  -9 62.2077 29.4248   2
  -8  -4 -10 675.458 78.6596   2
  -8  -4 -11 60.1881 28.0515   2
  -8  -4 -12 121.986 40.1248   2
  -8  -4 -13 155.571 47.4693   2
   8   5  -2 89.9016 34.9977   1
   8   5  -1 33.8197 21.9908   1
   8   5   0 128.029 40.1289   1
   8   5   1 139.095 40.6963   1
   8   5   2 464.000 65.0812   1
   8   5   3 55.3931 26.7004   1
   8   5   4 171.809 42.6300   1
   8   5   5 145.313 39.6721   1
   8   5   6 437.775 63.7232   1
   8   5   7 182.487 42.5403   1
  -8  -5  -7 95.5330 24.0714   2
   8   5   8 770.274 86.5365   1
  -8  -5  -8 850.024 77.3413   2
  -8  -5  -9 62.2919 25.0625   2
  -8  -5 -10 25.3867 23.2203   2
  -8  -5 -11 80.4211 36.9182   2
  -8  -5 -12 130.700 40.1170   2
  -8  -5 -13-8.37203 25.7602   2
   8   6   1 130.126 43.0626   1
   8   6   2 212.681 53.0184   1
   8   6   3-6.52604 20.1220   1
   8   6   4 165.510 44.0961   1
   8   6   5 71.4992 34.5149   1
   8   6   6 236.409 52.3828   1
   8   6   7 292.478 57.6512   1
   8   6   8 239.388 57.8768   1
   8   6   9 139.803 40.6758   1
  -8  -6 -10 35.2230 21.0221   2
  -8  -6 -11 167.143 46.6764   2
  -8  -6 -12 219.039 49.9781   2
   9  -3  -1 24.4182 20.3193   3
   9  -3   0-8.00684 17.3030   3
   9  -2  -2-15.0097 21.7849   3
   9  -2  -1 55.9574 26.7121   3
   9  -2   0 14.1460 14.6312   3
   9  -2   1 321.431 52.7558   3
   9  -2   2 188.610 37.5644   3
   9  -2   3 375.523 56.6783   3
   9  -2   4-1.90517 22.6563   3
   9  -2   5 121.005 36.7848   3
   9  -1  -1 154.786 31.8382   3
   9  -1   0 10.0165 16.4999   3
   9  -1   1 262.768 43.3060   3
   9  -1   2 171.968 37.3294   3
   9  -1   3 678.888 70.9059   3
   9  -1   4 140.310 36.2897   3
   9  -1   5 144.858 31.1539   3
   9  -1   6 5.02326 17.6430   3
   9  -1   7 104.203 33.2095   3
   9   0   0 113.979 24.9897   3
   9   0   1 79.9005 24.2327   3
   9   0   2 138.220 28.6657   3
   9   0   3 1474.36 96.8850   3
   9   0   4 494.373 57.2478   3
   9   0   5 281.773 46.5718   3
   9   0   6 6.75798 20.4793   3
   9   0   7 206.443 43.4163   3
   9   0   8 24.6660 27.9673   3
   9   0   9 666.450 77.7272   3
   9   1  -4 166.044 39.5450   1
   9   1  -3 557.332 68.0042   1
   9   1  -2 255.728 46.7552   1
   9   1  -1 348.350 53.2062   1
   9   1   0 288.287 45.4134   1
   9   1   1 451.304 55.3192   1
   9   1   2 1.35046 17.4361   1
   9   1   2-16.8233 11.8323   3
   9   1   3 195.224 35.6776   1
   9   1   3 278.781 38.3807   3
   9   1   4 872.782 71.8222   3
   9   1   4 879.758 75.2926   1
   9   1   5 505.370 56.5709   3
   9   1   6 57.2572 22.9815   3
   9   1   7 170.980 37.6942   3
   9   1   8 56.2615 29.2826   3
   9   1   9 330.399 55.9706   3
   9   1  10 20.1551 21.4968   3
   9   2  -4-2.75686 15.7080   1
   9   2  -3 241.302 47.5573   1
   9   2  -2 256.825 48.1734   1
   9   2  -1 267.451 49.1420   1
   9   2   0 100.935 32.2541   1
   9   2   1 183.156 39.4044   1
   9   2   2 187.099 40.3657   1
   9   2   3-29.4053 25.9792   1
   9   2   4 64.4919 21.4795   1
   9   2   5 1173.18 78.9833   3
   9   2   5 925.128 83.0795   1
   9   2   6 55.7734 19.2217   1
   9   2   6 111.636 27.3383   3
   9   2   7 307.833 47.2157   3
   9   2   7 223.085 41.6737   1
   9   2   8 30.4827 18.1989   1
   9   2   8 9.97652 15.8582   3
   9   2   9 299.772 50.4769   1
   9   2   9 326.084 50.8846   3
  -9  -2  -9 354.332 60.9950   2
   9   2  10 17.8115 17.4031   3
  -9  -2 -10 54.3947 30.8923   2
   9   2  11 441.793 63.8372   3
   9   3  -2-9.91766 17.0217   1
   9   3  -1 149.655 39.6345   1
   9   3   0 148.708 37.5384   1
   9   3   1 105.720 30.1844   1
   9   3   2 139.567 36.4401   1
   9   3   3 522.263 67.8907   1
   9   3   4 67.0477 27.0478   1
   9   3   5 198.540 44.7603   1
   9   3   6 175.197 40.4096   1
   9   3   7 68.4345 30.6527   1
   9   3   8 29.2256 15.8828   3
   9   3   8-8.97520 16.6118   1
  -9  -3  -8 35.3952 24.4171   2
   9   3   9 434.625 64.1051   1
   9   3   9 419.338 55.5332   3
  -9  -3  -9 413.417 63.7548   2
   9   3  10 320.659 54.6624   3
   9   3  10 270.631 50.9462   1
  -9  -3 -10 355.480 66.8473   2
  -9  -3 -11 710.035 90.7483   2
   9   4   0-17.8251 20.0647   1
   9   4   1 371.087 63.4121   1
   9   4   2 124.137 36.1663   1
   9   4   3 427.300 64.8774   1
   9   4   4 173.819 41.8994   1
   9   4   5 1.99061 19.5490   1
   9   4   6 15.1907 19.9715   1
   9   4   7-33.0988 24.8516   1
   9   4   8-6.75956 19.2549   1
   9   4   9 166.383 45.9731   1
   9   4  10 134.363 40.9294   1
  -9  -4 -10 185.950 39.2074   2
  -9  -4 -11 362.621 60.8520   2
   9   5   3 414.969 66.9257   1
   9   5   4 2.58326 20.5927   1
   9   5   5-26.6286 26.5168   1
   9   5   6-0.18627 26.4400   1
   9   5   7 27.4637 25.1830   1
   9   5   8 40.0169 27.7392   1
   0   0   0    0.00    0.00   0
TITL VF16_2 in P-1
REM P-1 (#2 in standard setting)
CELL 0.71073   7.306088   8.023190  13.651973  74.7472  78.5822  80.7915
ZERR    3.00   0.000380   0.000468   0.001057   0.0059   0.0054   0.0046
LATT  1
SFAC C H N O
UNIT 33.00 30.00 3.00 3.00
TREF
HKLF 4
END
;
loop_
_space_group_symop_operation_xyz
'x, y, z'
'-x, -y, -z'
loop_
_atom_site_label
_atom_site_fract_x
_atom_site_fract_y
_atom_site_fract_z
_atom_site_U_iso_or_equiv
_atom_site_adp_type
_atom_site_calc_flag
_atom_site_occupancy
_atom_site_type_symbol
Mn 0 0 0 0.02537(14) Uani d 1 Mn
N1 0.1464(2) -0.2148(2) 0.17411(12) 0.0277(4) Uani d 1 N
N2 0.3353(3) -0.1711(3) 0.26757(14) 0.0346(4) Uani d 1 N
N3 0.2077(2) 0.1090(2) 0.02485(12) 0.0269(4) Uani d 1 N
N4 0.4515(2) 0.1294(2) 0.09821(13) 0.0303(4) Uani d 1 N
O1 0.0822(2) -0.21490(17) 0.08716(10) 0.0314(3) Uani d 1 O
O2 -0.1880(2) 0.0742(2) 0.13794(12) 0.0364(4) Uani d 1 O
C1 0.1389(3) -0.3729(3) 0.26128(16) 0.0330(5) Uani d 1 C
C2 0.2189(3) -0.3039(3) 0.33933(16) 0.0357(5) Uani d 1 C
C3 -0.0610(4) -0.4195(4) 0.29537(19) 0.0499(6) Uani d 1 C
H3A -0.063931 -0.521168 0.351354 0.075 Uiso calc 1 H
H3B -0.140738 -0.324342 0.317436 0.075 Uiso calc 1 H
H3C -0.104805 -0.442274 0.238871 0.075 Uiso calc 1 H
C4 0.2679(4) -0.5195(3) 0.2231(2) 0.0523(7) Uani d 1 C
H4A 0.266531 -0.623676 0.277352 0.078 Uiso calc 1 H
H4B 0.224898 -0.53934 0.165471 0.078 Uiso calc 1 H
H4C 0.393645 -0.488036 0.20224 0.078 Uiso calc 1 H
C5 0.3392(4) -0.4391(3) 0.4071(2) 0.0541(7) Uani d 1 C
H5A 0.262496 -0.523473 0.452793 0.081 Uiso calc 1 H
H5B 0.436908 -0.495967 0.364898 0.081 Uiso calc 1 H
H5C 0.394267 -0.383606 0.446662 0.081 Uiso calc 1 H
C6 0.0646(4) -0.2087(4) 0.4052(2) 0.0519(7) Uani d 1 C
H6A -0.012776 -0.291033 0.452292 0.078 Uiso calc 1 H
H6B 0.121106 -0.151333 0.443148 0.078 Uiso calc 1 H
H6C -0.011165 -0.124122 0.361422 0.078 Uiso calc 1 H
C7 0.2659(3) -0.1136(3) 0.17959(15) 0.0275(4) Uani d 1 C
C8 0.3111(3) 0.0398(2) 0.10114(15) 0.0256(4) Uani d 1 C
C9 0.2898(3) 0.2532(3) -0.03074(16) 0.0318(5) Uani d 1 C
H9 0.251451 0.330797 -0.088699 0.038 Uiso calc 1 H
C10 0.4380(3) 0.2637(3) 0.01348(17) 0.0338(5) Uani d 1 C
H10 0.518247 0.35 -0.010601 0.041 Uiso calc 1 H
C11 -0.1738(4) 0.2182(4) 0.1774(2) 0.0612(8) Uani d 1 C
H11A -0.269669 0.221771 0.236333 0.092 Uiso calc 1 H
H11B -0.052386 0.206037 0.197119 0.092 Uiso calc 1 H
H11C -0.189658 0.323898 0.125368 0.092 Uiso calc 1 H
P1 -0.5 0 -0.5 0.0448(2) Uani d 1 P
F1 -0.4217(3) -0.1160(3) -0.57960(18) 0.0994(8) Uani d 1 F
F2 -0.3632(3) 0.1393(3) -0.56134(15) 0.0836(6) Uani d 1 F
F3 -0.3450(3) -0.0938(3) -0.4322(2) 0.1042(8) Uani d 1 F
H1N 0.378(4) -0.097(3) 0.291(2) 0.041(7) Uiso d 1 H
H1M -0.302(4) 0.074(4) 0.137(2) 0.057(8) Uiso d 1 H
loop_
_atom_site_aniso_label
_atom_site_aniso_U_11
_atom_site_aniso_U_22
_atom_site_aniso_U_33
_atom_site_aniso_U_12
_atom_site_aniso_U_13
_atom_site_aniso_U_23
Mn 0.0269(2) 0.0273(2) 0.0227(2) -0.00565(17) -0.01120(16) -0.00055(16)
N1 0.0325(8) 0.0298(8) 0.0218(8) -0.0060(7) -0.0128(7) 0.0000(6)
N2 0.0373(9) 0.0416(10) 0.0266(9) -0.0124(8) -0.0151(8) 0.0011(8)
N3 0.0280(8) 0.0280(8) 0.0248(8) -0.0041(7) -0.0081(7) -0.0032(6)
N4 0.0283(8) 0.0345(9) 0.0304(9) -0.0067(7) -0.0078(7) -0.0076(7)
O1 0.0428(8) 0.0296(7) 0.0255(7) -0.0067(6) -0.0184(6) -0.0020(6)
O2 0.0306(8) 0.0481(9) 0.0340(8) -0.0045(7) -0.0078(7) -0.0142(7)
C1 0.0409(11) 0.0326(10) 0.0238(10) -0.0099(9) -0.0109(9) 0.0036(8)
C2 0.0401(11) 0.0412(11) 0.0252(11) -0.0104(10) -0.0126(9) 0.0018(9)
C3 0.0558(15) 0.0599(15) 0.0361(13) -0.0290(13) -0.0106(11) 0.0003(11)
C4 0.0745(19) 0.0377(12) 0.0396(14) 0.0019(13) -0.0141(13) -0.0020(10)
C5 0.0670(17) 0.0529(15) 0.0413(14) -0.0130(14) -0.0308(13) 0.0110(12)
C6 0.0544(15) 0.0691(17) 0.0370(14) -0.0176(14) -0.0018(12) -0.0188(12)
C7 0.0245(9) 0.0329(10) 0.0247(10) -0.0013(8) -0.0087(8) -0.0040(8)
C8 0.0242(9) 0.0295(9) 0.0238(10) -0.0032(8) -0.0068(7) -0.0054(8)
C9 0.0366(11) 0.0280(10) 0.0294(11) -0.0073(9) -0.0075(9) -0.0006(8)
C10 0.0334(10) 0.0341(10) 0.0345(11) -0.0125(9) -0.0044(9) -0.0048(9)
C11 0.0501(15) 0.077(2) 0.072(2) -0.0067(14) -0.0106(14) -0.0443(17)
P1 0.0478(5) 0.0487(5) 0.0435(5) -0.0047(4) -0.0152(4) -0.0152(4)
F1 0.0909(14) 0.1186(18) 0.1128(18) -0.0232(13) 0.0096(13) -0.0823(15)
F2 0.0963(14) 0.0951(14) 0.0675(12) -0.0514(12) -0.0074(10) -0.0138(10)
F3 0.1017(16) 0.0901(15) 0.130(2) -0.0085(12) -0.0796(15) 0.0020(14)
loop_
_atom_type_symbol
_atom_type_description
_atom_type_scat_dispersion_real
_atom_type_scat_dispersion_imag
_atom_type_scat_source
C C 0.0033 0.0016 'International Tables Vol C Tables 4.2.6.8 and 6.1.1.4'
H H 0 0 'International Tables Vol C Tables 4.2.6.8 and 6.1.1.4'
F F 0.0171 0.0103 'International Tables Vol C Tables 4.2.6.8 and 6.1.1.4'
Mn Mn 0.3368 0.7283 'International Tables Vol C Tables 4.2.6.8 and 6.1.1.4'
N N 0.0061 0.0033 'International Tables Vol C Tables 4.2.6.8 and 6.1.1.4'
O O 0.0106 0.006 'International Tables Vol C Tables 4.2.6.8 and 6.1.1.4'
P P 0.1023 0.0942 'International Tables Vol C Tables 4.2.6.8 and 6.1.1.4'
loop_
_geom_angle_atom_site_label_1
_geom_angle_atom_site_label_2
_geom_angle_atom_site_label_3
_geom_angle
_geom_angle_site_symmetry_1
_geom_angle_site_symmetry_3
O1 Mn O1 180 2 .
O1 Mn N3 89.85(6) 2 .
O1 Mn N3 90.15(6) . .
O1 Mn N3 90.15(6) 2 2
O1 Mn N3 89.85(6) . 2
N3 Mn N3 180 . 2
O1 Mn O2 89.22(6) 2 2
O1 Mn O2 90.78(6) . 2
N3 Mn O2 89.83(6) . 2
N3 Mn O2 90.16(6) 2 2
O1 Mn O2 90.78(6) 2 .
O1 Mn O2 89.22(6) . .
N3 Mn O2 90.16(6) . .
N3 Mn O2 89.84(6) 2 .
O2 Mn O2 180 2 .
C7 N1 O1 125.21(15) . .
C7 N1 C1 112.22(16) . .
O1 N1 C1 119.23(15) . .
C7 N2 C2 109.14(17) . .
C8 N3 C9 104.30(16) . .
C8 N3 Mn 124.74(13) . .
C9 N3 Mn 130.73(14) . .
C8 N4 C10 103.37(17) . .
N1 O1 Mn 119.55(11) . .
C11 O2 Mn 125.50(16) . .
N1 C1 C3 110.28(18) . .
N1 C1 C4 107.20(17) . .
C3 C1 C4 110.7(2) . .
N1 C1 C2 98.71(15) . .
C3 C1 C2 115.46(19) . .
C4 C1 C2 113.55(19) . .
N2 C2 C5 110.44(18) . .
N2 C2 C6 107.54(19) . .
C5 C2 C6 110.3(2) . .
N2 C2 C1 100.86(16) . .
C5 C2 C1 114.9(2) . .
C6 C2 C1 112.20(19) . .
N1 C7 N2 110.84(17) . .
N1 C7 C8 123.49(17) . .
N2 C7 C8 125.67(18) . .
N4 C8 N3 114.12(16) . .
N4 C8 C7 124.00(17) . .
N3 C8 C7 121.84(17) . .
N3 C9 C10 107.99(18) . .
C9 C10 N4 110.21(18) . .
F3 P1 F3 180 2_454 .
F3 P1 F2 89.27(11) 2_454 2_454
F3 P1 F2 90.73(11) . 2_454
F3 P1 F2 90.73(11) 2_454 .
F3 P1 F2 89.27(11) . .
F2 P1 F2 180 2_454 .
F3 P1 F1 91.04(14) 2_454 2_454
F3 P1 F1 88.96(14) . 2_454
F2 P1 F1 90.69(11) 2_454 2_454
F2 P1 F1 89.31(11) . 2_454
F3 P1 F1 88.96(14) 2_454 .
F3 P1 F1 91.04(14) . .
F2 P1 F1 89.31(11) 2_454 .
F2 P1 F1 90.69(11) . .
F1 P1 F1 180.00(16) 2_454 .
loop_
_geom_bond_atom_site_label_1
_geom_bond_atom_site_label_2
_geom_bond_site_symmetry_2
_geom_bond_distance
Mn O1 2 1.9031(13)
Mn O1 . 1.9031(13)
Mn N3 . 1.9923(16)
Mn N3 2 1.9923(16)
Mn O2 2 2.2564(15)
Mn O2 . 2.2564(15)
N1 C7 . 1.308(2)
N1 O1 . 1.360(2)
N1 C1 . 1.494(2)
N2 C7 . 1.337(3)
N2 C2 . 1.493(3)
N3 C8 . 1.355(2)
N3 C9 . 1.361(2)
N4 C8 . 1.333(2)
N4 C10 . 1.365(3)
O2 C11 . 1.423(3)
C1 C3 . 1.518(3)
C1 C4 . 1.522(3)
C1 C2 . 1.564(3)
C2 C5 . 1.515(3)
C2 C6 . 1.532(3)
C7 C8 . 1.438(3)
C9 C10 . 1.364(3)
P1 F3 2_454 1.5751(18)
P1 F3 . 1.5752(18)
P1 F2 2_454 1.5759(17)
P1 F2 . 1.5759(17)
P1 F1 2_454 1.5782(18)
P1 F1 . 1.5782(18)
