#------------------------------------------------------------------------------
#$Date: 2019-11-07 23:03:24 +0200 (Thu, 07 Nov 2019) $
#$Revision: 223921 $
#$URL: file:///home/coder/svn-repositories/cod/cif/7/70/06/7700636.cif $
#------------------------------------------------------------------------------
#
# This file is available in the Crystallography Open Database (COD),
# http://www.crystallography.net/
#
# All data on this site have been placed in the public domain by the
# contributors.
#
data_7700636
loop_
_publ_author_name
'Ito, Hiroaki'
'Miura, Akira'
'Goto, Yosuke'
'Mizuguchi, Yoshikazu'
'Moriyoshi, Chikako'
'Kuroiwa, Yoshihiro'
'Azuma, Masaki'
'Liu, Jinjia'
'Wen, Xiao-Dong'
'Nishioka, Shunta'
'Maeda, Kazuhiko'
'Masubuchi, Yuji'
'Rosero-Navarro, Nataly Carolina'
'Tadanaga, Kiyoharu'
_publ_section_title
;
 An electronic structure governed by the displacement of the indium site
 in In-S<sub>6</sub> octahedra: LnOInS<sub>2</sub> (Ln = La, Ce, and Pr).
;
_journal_issue                   32
_journal_name_full
'Dalton transactions (Cambridge, England : 2003)'
_journal_page_first              12272
_journal_page_last               12278
_journal_paper_doi               10.1039/c9dt01562k
_journal_volume                  48
_journal_year                    2019
_chemical_formula_sum            'In O Pr S2'
_chemical_formula_weight         335.8
_space_group_IT_number           11
_space_group_name_Hall           '-P 2yb'
_space_group_name_H-M_alt        'P 1 21/m 1'
_symmetry_cell_setting           monoclinic
_symmetry_Int_Tables_number      11
_symmetry_space_group_name_Hall  '-P 2yb'
_symmetry_space_group_name_H-M   'P 1 21/m 1'
_audit_update_record
;
2019-01-16 deposited with the CCDC.    2019-07-24 downloaded from the CCDC.
;
_cell_angle_alpha                90
_cell_angle_beta                 90
_cell_angle_gamma                90
_cell_formula_units_Z            2
_cell_length_a                   3.996654(15)
_cell_length_b                   4.001852(16)
_cell_length_c                   12.72153(4)
_cell_measurement_temperature    300
_cell_volume                     203.4684(13)
_diffrn_ambient_temperature      300
_diffrn_detector_type
'multiple MYTHEN system (Rev. Sci. Instrum. 88, 85111 (2017))'
_diffrn_measurement_device_type  SPring-8_BL02B2
_diffrn_radiation_probe          x-ray
_diffrn_radiation_type           synchrotron
_diffrn_radiation_wavelength     0.49527
_diffrn_source                   synchrotron
_exptl_absorpt_coefficient_mu    6.773
_exptl_crystal_density_diffrn    5.4818
_exptl_crystal_F_000             296
_pd_instr_location               ' ?'
_pd_meas_2theta_range_inc        0.006
_pd_meas_2theta_range_max        78.216
_pd_meas_2theta_range_min        2.100
_pd_meas_number_of_points        12687
_pd_proc_2theta_range_inc        0.006
_pd_proc_2theta_range_max        78.216
_pd_proc_2theta_range_min        2.1
_pd_proc_ls_background_function  'Manual background'
_pd_proc_ls_pref_orient_corr     none
_pd_proc_ls_profile_function     Pseudo-Voigt
_pd_proc_ls_prof_R_factor        0.0609
_pd_proc_ls_prof_wR_expected     0.0131
_pd_proc_ls_prof_wR_factor       0.0924
_refine_ls_goodness_of_fit_all   7.06
_refine_ls_number_constraints    0
_refine_ls_number_parameters     23
_refine_ls_number_restraints     0
_refine_ls_R_factor_all          0.0577
_refine_ls_R_factor_gt           0.0574
_refine_ls_shift/su_max          0.0263
_refine_ls_shift/su_mean         0.0047
_refine_ls_weighting_scheme      sigma
_refine_ls_wR_factor_all         0.0615
_refine_ls_wR_factor_gt          0.0613
_cod_data_source_file            c9dt01562k2.cif
_cod_data_source_block           I_CCDC7
_cod_depositor_comments
;
The following automatic conversions were performed:

'_diffrn_radiation_probe' value 'X-ray' changed to 'x-ray' according
to
/home/data/users/saulius/crontab/automatic-downloads/rss-feeds/RSC/lib/dictionaries/cif_core.dic
dictionary named 'cif_core.dic' version 2.4.2 from 2011-04-26.

Automatic conversion script
Id: cif_fix_values 4973 2017-02-22 13:04:09Z antanas 

 Adding full bibliography for 7700629--7700637.cif.
;
_cod_original_cell_volume        203.4683(13)
_cod_original_formula_sum        'In1 O1 Pr1 S2'
_cod_database_code               7700636
loop_
_space_group_symop_id
_space_group_symop_operation_xyz
1 x,y,z
2 -x,y+1/2,-z
3 -x,-y,-z
4 x,-y+1/2,z
loop_
_atom_site_label
_atom_site_type_symbol
_atom_site_fract_x
_atom_site_fract_y
_atom_site_fract_z
_atom_site_adp_type
_atom_site_U_iso_or_equiv
_atom_site_site_symmetry_multiplicity
_atom_site_occupancy
_atom_site_calc_flag
Pr1 Pr 0.25 0.25 0.09587(5) Uiso 0.00333(9) 2 1 d
In1 In 0.25 0.25 0.60860(7) Uani 0.0637(8) 2 1 d
S1 S 0.25 0.25 0.4125(2) Uiso 0.0108(5) 2 1 d
S2 S 0.25 0.25 0.79440(19) Uiso 0.0062(5) 2 1 d
O1 O 0.75 0.25 0 Uiso 0.0018(12) 2 1 d
loop_
_atom_site_aniso_label
_atom_site_aniso_type_symbol
_atom_site_aniso_U_11
_atom_site_aniso_U_22
_atom_site_aniso_U_33
_atom_site_aniso_U_12
_atom_site_aniso_U_13
_atom_site_aniso_U_23
In1 In 0.0497(12) 0.137(2) 0.0045(6) 0 0 0
loop_
_atom_type_symbol
_atom_type_scat_dispersion_real
_atom_type_scat_dispersion_imag
_atom_type_scat_source
In -2.1272 0.6711 'International Tables Vol C tables 4.2.6.8 and 6.1.1.1'
O 0.0007 0.0027 'International Tables Vol C tables 4.2.6.8 and 6.1.1.1'
Pr -1.0877 1.4730 'International Tables Vol C tables 4.2.6.8 and 6.1.1.1'
S 0.0527 0.0607 'International Tables Vol C tables 4.2.6.8 and 6.1.1.1'
loop_
_geom_angle_atom_site_label_1
_geom_angle_atom_site_label_2
_geom_angle_atom_site_label_3
_geom_angle_site_symmetry_1
_geom_angle_site_symmetry_3
_geom_angle
O1 Pr1 O1 1_455 . 117.21(2)
O1 Pr1 O1 1_455 2_645 74.268(11)
O1 Pr1 O1 1_455 2_655 74.268(11)
O1 Pr1 O1 . 2_645 74.268(11)
O1 Pr1 O1 . 2_655 74.268(11)
O1 Pr1 O1 2_645 2_655 117.27(2)
S1 In1 S1 . 2_546 84.59(6)
S1 In1 S1 . 2_556 84.59(6)
S1 In1 S1 . 2_646 84.59(6)
S1 In1 S1 . 2_656 84.59(6)
S1 In1 S2 . . 180.0(5)
S1 In1 S1 2_546 2_556 89.564(8)
S1 In1 S1 2_546 2_646 89.416(8)
S1 In1 S1 2_546 2_656 169.17(8)
S1 In1 S2 2_546 . 95.41(6)
S1 In1 S1 2_556 2_646 169.17(8)
S1 In1 S1 2_556 2_656 89.416(8)
S1 In1 S2 2_556 . 95.41(6)
S1 In1 S1 2_646 2_656 89.564(8)
S1 In1 S2 2_646 . 95.41(6)
S1 In1 S2 2_656 . 95.41(6)
In1 S1 In1 . 2_546 95.41(6)
In1 S1 In1 . 2_556 95.41(6)
In1 S1 In1 . 2_646 95.41(6)
In1 S1 In1 . 2_656 95.41(6)
In1 S1 In1 2_546 2_556 89.564(10)
In1 S1 In1 2_546 2_646 89.416(10)
In1 S1 In1 2_546 2_656 169.17(11)
In1 S1 In1 2_556 2_646 169.17(11)
In1 S1 In1 2_556 2_656 89.416(10)
In1 S1 In1 2_646 2_656 89.564(10)
Pr1 O1 Pr1 . 1_655 117.208(17)
Pr1 O1 Pr1 . 2_645 105.732(8)
Pr1 O1 Pr1 . 2_655 105.732(8)
Pr1 O1 O1 . 2_645 52.902(6)
Pr1 O1 O1 . 2_655 52.902(6)
Pr1 O1 O1 . 2_745 127.098(6)
Pr1 O1 O1 . 2_755 127.098(6)
Pr1 O1 Pr1 1_655 2_645 105.732(8)
Pr1 O1 Pr1 1_655 2_655 105.732(8)
Pr1 O1 O1 1_655 2_645 127.098(6)
Pr1 O1 O1 1_655 2_655 127.098(6)
Pr1 O1 O1 1_655 2_745 52.902(6)
Pr1 O1 O1 1_655 2_755 52.902(6)
Pr1 O1 Pr1 2_645 2_655 117.274(17)
Pr1 O1 O1 2_645 2_645 52.830(6)
Pr1 O1 O1 2_645 2_655 127.170(6)
Pr1 O1 O1 2_645 2_745 52.830(6)
Pr1 O1 O1 2_645 2_755 127.170(6)
Pr1 O1 O1 2_655 2_645 127.170(6)
Pr1 O1 O1 2_655 2_655 52.830(6)
Pr1 O1 O1 2_655 2_745 127.170(6)
Pr1 O1 O1 2_655 2_755 52.830(6)
O1 O1 O1 2_645 2_655 90.0745(3)
O1 O1 O1 2_645 2_745 89.9255(3)
O1 O1 O1 2_645 2_755 180.0(5)
O1 O1 O1 2_655 2_745 180.0(5)
O1 O1 O1 2_655 2_755 89.9255(3)
O1 O1 O1 2_745 2_755 90.0745(3)
loop_
_geom_bond_atom_site_label_1
_geom_bond_atom_site_label_2
_geom_bond_site_symmetry_2
_geom_bond_distance
Pr1 O1 1_455 2.3411(3)
Pr1 O1 . 2.3411(3)
Pr1 O1 2_645 2.3433(3)
Pr1 O1 2_655 2.3433(3)
In1 S1 . 2.495(3)
In1 S1 2_546 2.8406(3)
In1 S1 2_556 2.8406(3)
In1 S1 2_646 2.8406(3)
In1 S1 2_656 2.8406(3)
In1 S2 . 2.364(3)
O1 O1 2_645 2.827899(16)
O1 O1 2_655 2.827899(16)
O1 O1 2_745 2.827899(16)
O1 O1 2_755 2.827899(16)
loop_
_pd_proc_point_id
_pd_proc_2theta_corrected
_pd_proc_intensity_net
_pd_calc_intensity_net
_pd_proc_ls_weight
1 2.1000 5787.00 5880.67 76.00
2 2.1060 5899.00 5894.74 77.00
3 2.1120 6013.00 5909.74 78.00
4 2.1180 5879.00 5925.88 77.00
5 2.1240 5805.00 5943.41 76.00
6 2.1300 5968.00 5962.68 77.00
7 2.1360 6050.00 5984.13 78.00
8 2.1420 6012.00 6008.37 78.00
9 2.1480 5947.00 6036.21 77.00
10 2.1540 6071.00 6068.80 78.00
11 2.1600 6158.00 6107.77 78.00
12 2.1660 6218.00 6155.54 79.00
13 2.1720 6468.00 6215.74 80.00
14 2.1780 6690.00 6294.09 82.00
15 2.1840 6902.00 6399.97 83.00
16 2.1900 7215.00 6549.62 85.00
17 2.1960 7881.00 6774.37 89.00
18 2.2020 8975.00 7176.87 95.00
19 2.2080 12071.00 8501.21 110.00
20 2.2140 21380.00 15155.00 146.00
21 2.2200 47031.00 38476.10 217.00
22 2.2260 89682.00 78365.70 299.00
23 2.2320 114166.00 93948.50 338.00
24 2.2380 91602.00 61604.90 303.00
25 2.2440 48645.00 26122.20 221.00
26 2.2500 21449.00 11204.00 146.00
27 2.2560 12036.00 7775.01 110.00
28 2.2620 8996.00 7055.76 95.00
29 2.2680 7644.00 6768.48 87.00
30 2.2740 7000.00 6596.37 84.00
31 2.2800 6707.00 6483.44 82.00
32 2.2860 6478.00 6406.42 80.00
33 2.2920 6364.00 6352.46 80.00
34 2.2980 6239.00 6313.96 79.00
35 2.3040 6088.00 6286.20 78.00
36 2.3100 6138.00 6266.11 78.00
37 2.3160 6077.00 6251.66 78.00
38 2.3220 5952.00 6241.44 77.00
39 2.3280 5904.00 6234.45 77.00
40 2.3340 5842.00 6229.97 76.00
41 2.3400 5837.00 6227.48 76.00
42 2.3460 5800.00 6226.57 76.00
43 2.3520 5833.00 6226.94 76.00
44 2.3580 5843.00 6228.36 76.00
45 2.3640 5770.00 6230.64 76.00
46 2.3700 5796.00 6233.64 76.00
47 2.3760 5669.00 6187.08 75.00
48 2.3820 5626.00 6195.08 75.00
49 2.3880 5735.00 6203.09 76.00
50 2.3940 5683.00 6211.09 75.00
51 2.4000 5712.00 6219.10 76.00
52 2.4060 5713.00 6227.10 76.00
53 2.4120 5872.00 6235.11 77.00
54 2.4180 5692.00 6243.12 75.00
55 2.4240 5613.00 6251.12 75.00
56 2.4300 5567.00 6259.13 75.00
57 2.4360 5707.00 6267.13 76.00
58 2.4420 5785.00 6275.14 76.00
59 2.4480 5722.00 6279.14 76.00
60 2.4540 5675.00 6279.14 75.00
61 2.4600 5715.00 6279.14 76.00
62 2.4660 5740.00 6279.14 76.00
63 2.4720 5708.00 6279.14 76.00
64 2.4780 5760.00 6279.14 76.00
65 2.4840 5617.00 6279.14 75.00
66 2.4900 5689.00 6279.14 75.00
67 2.4960 5710.00 6279.14 76.00
68 2.5020 5747.00 6279.14 76.00
69 2.5080 5729.00 6279.14 76.00
70 2.5140 5690.00 6279.14 75.00
71 2.5200 5785.00 6279.14 76.00
72 2.5260 5903.00 6279.14 77.00
73 2.5320 5867.00 6279.14 77.00
74 2.5380 5664.00 6279.14 75.00
75 2.5440 5762.00 6279.14 76.00
76 2.5500 5607.00 6279.14 75.00
77 2.5560 5540.00 6279.14 74.00
78 2.5620 5587.00 6279.14 75.00
79 2.5680 5783.00 6279.14 76.00
80 2.5740 5776.00 6279.14 76.00
81 2.5800 5725.00 6279.14 76.00
82 2.5860 5703.00 6279.14 76.00
83 2.5920 5596.00 6279.14 75.00
84 2.5980 5722.00 6279.14 76.00
85 2.6040 5782.00 6279.14 76.00
86 2.6100 5825.00 6279.14 76.00
87 2.6160 5767.00 6279.14 76.00
88 2.6220 5893.00 6279.14 77.00
89 2.6280 5882.00 6279.14 77.00
90 2.6340 5787.00 6279.14 76.00
91 2.6400 5782.00 6279.14 76.00
92 2.6460 5724.00 6279.14 76.00
93 2.6520 5670.00 6279.14 75.00
94 2.6580 5816.00 6279.14 76.00
95 2.6640 5828.00 6279.14 76.00
96 2.6700 5765.00 6279.14 76.00
97 2.6760 5844.00 6279.14 76.00
98 2.6820 5743.00 6279.14 76.00
99 2.6880 5625.00 6279.14 75.00
100 2.6940 5835.00 6279.14 76.00
101 2.7000 5746.00 6279.14 76.00
102 2.7060 5708.00 6279.14 76.00
103 2.7120 5867.00 6279.14 77.00
104 2.7180 5676.00 6279.14 75.00
105 2.7240 5819.00 6279.14 76.00
106 2.7300 5901.00 6279.14 77.00
107 2.7360 5732.00 6279.14 76.00
108 2.7420 5830.00 6279.14 76.00
109 2.7480 5811.00 6279.14 76.00
110 2.7540 5844.00 6279.14 76.00
111 2.7600 5781.00 6279.14 76.00
112 2.7660 5884.00 6279.14 77.00
113 2.7720 5727.00 6279.14 76.00
114 2.7780 5909.00 6279.14 77.00
115 2.7840 5784.00 6279.14 76.00
116 2.7900 5882.00 6279.14 77.00
117 2.7960 5593.00 6279.14 75.00
118 2.8020 5815.00 6279.14 76.00
119 2.8080 5703.00 6279.14 76.00
120 2.8140 5836.00 6279.14 76.00
121 2.8200 5895.00 6279.14 77.00
122 2.8260 5802.00 6279.14 76.00
123 2.8320 5858.00 6279.14 77.00
124 2.8380 5810.00 6279.14 76.00
125 2.8440 5801.00 6279.14 76.00
126 2.8500 5874.00 6279.14 77.00
127 2.8560 5709.00 6279.14 76.00
128 2.8620 5844.00 6279.14 76.00
129 2.8680 5809.00 6279.14 76.00
130 2.8740 5788.00 6279.14 76.00
131 2.8800 5760.00 6279.14 76.00
132 2.8860 5748.00 6279.14 76.00
133 2.8920 5776.00 6279.14 76.00
134 2.8980 5942.00 6279.14 77.00
135 2.9040 5798.00 6279.14 76.00
136 2.9100 5858.00 6279.14 77.00
137 2.9160 5897.00 6279.14 77.00
138 2.9220 5957.00 6279.14 77.00
139 2.9280 5791.00 6279.14 76.00
140 2.9340 5811.00 6279.14 76.00
141 2.9400 5836.00 6279.14 76.00
142 2.9460 5856.00 6279.14 77.00
143 2.9520 5898.00 6279.14 77.00
144 2.9580 5856.00 6279.14 77.00
145 2.9640 5888.00 6279.14 77.00
146 2.9700 5786.00 6279.14 76.00
147 2.9760 5823.00 6279.14 76.00
148 2.9820 5708.00 6279.14 76.00
149 2.9880 5696.00 6279.14 75.00
150 2.9940 5808.00 6279.14 76.00
151 3.0000 5854.00 6279.14 77.00
152 3.0060 5824.00 6279.14 76.00
153 3.0120 5780.00 6279.14 76.00
154 3.0180 5927.00 6279.14 77.00
155 3.0240 6008.00 6279.14 78.00
156 3.0300 5919.00 6279.14 77.00
157 3.0360 5882.00 6279.14 77.00
158 3.0420 5995.00 6279.14 77.00
159 3.0480 5890.00 6279.14 77.00
160 3.0540 5850.00 6279.14 76.00
161 3.0600 5875.00 6279.14 77.00
162 3.0660 5954.00 6279.14 77.00
163 3.0720 5974.00 6279.14 77.00
164 3.0780 5952.00 6279.14 77.00
165 3.0840 5905.00 6279.14 77.00
166 3.0900 5846.00 6279.14 76.00
167 3.0960 5928.00 6279.14 77.00
168 3.1020 5868.00 6279.14 77.00
169 3.1080 5910.00 6279.14 77.00
170 3.1140 6077.00 6279.14 78.00
171 3.1200 5998.00 6279.14 77.00
172 3.1260 5985.00 6279.14 77.00
173 3.1320 5909.00 6279.14 77.00
174 3.1380 5968.00 6279.14 77.00
175 3.1440 5873.00 6279.14 77.00
176 3.1500 5899.00 6279.14 77.00
177 3.1560 5900.00 6279.14 77.00
178 3.1620 5896.00 6279.14 77.00
179 3.1680 5832.00 6279.14 76.00
180 3.1740 6006.00 6279.14 77.00
181 3.1800 6035.00 6279.14 78.00
182 3.1860 5848.00 6279.14 76.00
183 3.1920 5816.00 6279.14 76.00
184 3.1980 5975.00 6279.14 77.00
185 3.2040 6027.00 6279.14 78.00
186 3.2100 6370.00 6279.14 80.00
187 3.2160 6812.00 6279.14 83.00
188 3.2220 6682.00 6279.14 82.00
189 3.2280 6370.00 6279.14 80.00
190 3.2340 6075.00 6279.14 78.00
191 3.2400 5916.00 6279.14 77.00
192 3.2460 5893.00 6279.14 77.00
193 3.2520 5905.00 6279.14 77.00
194 3.2580 5858.00 6279.14 77.00
195 3.2640 5958.00 6279.14 77.00
196 3.2700 5939.00 6279.14 77.00
197 3.2760 5818.00 6279.14 76.00
198 3.2820 5819.00 6279.14 76.00
199 3.2880 5981.00 6279.14 77.00
200 3.2940 5980.00 6279.14 77.00
201 3.3000 6030.00 6279.14 78.00
202 3.3060 6091.00 6280.51 78.00
203 3.3120 6164.00 6281.88 79.00
204 3.3180 6109.00 6283.25 78.00
205 3.3240 6057.00 6284.62 78.00
206 3.3300 6088.00 6285.99 78.00
207 3.3360 5979.00 6287.36 77.00
208 3.3420 5939.00 6288.73 77.00
209 3.3480 6011.00 6290.09 78.00
210 3.3540 5943.00 6291.46 77.00
211 3.3600 5970.00 6292.83 77.00
212 3.3660 5860.00 6294.20 77.00
213 3.3720 5909.00 6295.57 77.00
214 3.3780 6017.00 6296.94 78.00
215 3.3840 6031.00 6298.31 78.00
216 3.3900 6154.00 6299.68 78.00
217 3.3960 6477.00 6301.05 80.00
218 3.4020 6843.00 6302.42 83.00
219 3.4080 6877.00 6303.79 83.00
220 3.4140 6453.00 6305.16 80.00
221 3.4200 6181.00 6306.53 79.00
222 3.4260 6094.00 6307.90 78.00
223 3.4320 6118.00 6309.26 78.00
224 3.4380 6047.00 6310.63 78.00
225 3.4440 5950.00 6312.00 77.00
226 3.4500 6014.00 6313.37 78.00
227 3.4560 6000.00 6314.74 77.00
228 3.4620 5938.00 6316.11 77.00
229 3.4680 6049.00 6317.48 78.00
230 3.4740 5968.00 6318.85 77.00
231 3.4800 5884.00 6320.22 77.00
232 3.4860 5965.00 6321.59 77.00
233 3.4920 5994.00 6322.96 77.00
234 3.4980 5936.00 6324.33 77.00
235 3.5040 5931.00 6325.70 77.00
236 3.5100 6033.00 6327.07 78.00
237 3.5160 6077.00 6328.44 78.00
238 3.5220 6024.00 6329.80 78.00
239 3.5280 6033.00 6331.17 78.00
240 3.5340 6061.00 6332.54 78.00
241 3.5400 5965.00 6333.91 77.00
242 3.5460 5926.00 6335.28 77.00
243 3.5520 5978.00 6336.65 77.00
244 3.5580 6048.00 6338.02 78.00
245 3.5640 6020.00 6339.39 78.00
246 3.5700 6004.00 6340.76 77.00
247 3.5760 6045.00 6342.13 78.00
248 3.5820 6147.00 6343.50 78.00
249 3.5880 6078.00 6344.87 78.00
250 3.5940 6047.00 6346.24 78.00
251 3.6000 6017.00 6347.60 78.00
252 3.6060 5940.00 6348.97 77.00
253 3.6120 5960.00 6350.34 77.00
254 3.6180 5968.00 6351.71 77.00
255 3.6240 6003.00 6353.08 77.00
256 3.6300 5941.00 6354.45 77.00
257 3.6360 5869.00 6355.82 77.00
258 3.6420 6018.00 6357.19 78.00
259 3.6480 5985.00 6358.56 77.00
260 3.6540 5930.00 6359.93 77.00
261 3.6600 5944.00 6361.30 77.00
262 3.6660 5923.00 6362.67 77.00
263 3.6720 5912.00 6364.04 77.00
264 3.6780 5912.00 6365.41 77.00
265 3.6840 6012.00 6366.77 78.00
266 3.6900 6037.00 6368.14 78.00
267 3.6960 5985.00 6369.51 77.00
268 3.7020 5996.00 6370.88 77.00
269 3.7080 5934.00 6372.25 77.00
270 3.7140 6010.00 6373.62 78.00
271 3.7200 5992.00 6374.99 77.00
272 3.7260 5951.00 6376.36 77.00
273 3.7320 6048.00 6377.73 78.00
274 3.7380 6109.00 6379.10 78.00
275 3.7440 5977.00 6380.47 77.00
276 3.7500 5932.00 6381.84 77.00
277 3.7560 6011.00 6383.21 78.00
278 3.7620 5957.00 6384.58 77.00
279 3.7680 5912.00 6385.95 77.00
280 3.7740 5944.00 6387.31 77.00
281 3.7800 5986.00 6388.68 77.00
282 3.7860 5965.00 6390.05 77.00
283 3.7920 5999.00 6391.42 77.00
284 3.7980 5980.00 6392.79 77.00
285 3.8040 5966.00 6394.16 77.00
286 3.8100 5961.00 6395.53 77.00
287 3.8160 5944.00 6396.90 77.00
288 3.8220 5930.00 6398.27 77.00
289 3.8280 5941.00 6399.64 77.00
290 3.8340 5995.00 6401.01 77.00
291 3.8400 6083.00 6402.38 78.00
292 3.8460 5972.00 6403.75 77.00
293 3.8520 6026.00 6405.12 78.00
294 3.8580 6077.00 6406.48 78.00
295 3.8640 6065.00 6407.85 78.00
296 3.8700 6001.00 6409.22 77.00
297 3.8760 5955.00 6410.59 77.00
298 3.8820 6093.00 6411.96 78.00
299 3.8880 5994.00 6413.33 77.00
300 3.8940 6105.00 6414.70 78.00
301 3.9000 6056.00 6416.07 78.00
302 3.9060 5942.00 6417.44 77.00
303 3.9120 6068.00 6418.81 78.00
304 3.9180 6059.00 6420.18 78.00
305 3.9240 6029.00 6421.55 78.00
306 3.9300 6065.00 6422.92 78.00
307 3.9360 6119.00 6424.29 78.00
308 3.9420 5987.00 6425.65 77.00
309 3.9480 6070.00 6427.02 78.00
310 3.9540 6048.00 6428.39 78.00
311 3.9600 6144.00 6429.76 78.00
312 3.9660 6163.00 6431.13 79.00
313 3.9720 6141.00 6432.50 78.00
314 3.9780 6085.00 6433.87 78.00
315 3.9840 6004.00 6435.24 77.00
316 3.9900 5959.00 6436.61 77.00
317 3.9960 5943.00 6437.98 77.00
318 4.0020 6120.00 6439.35 78.00
319 4.0080 6204.00 6440.72 79.00
320 4.0140 6188.00 6442.09 79.00
321 4.0200 6098.00 6443.46 78.00
322 4.0260 6069.00 6444.82 78.00
323 4.0320 6046.00 6446.19 78.00
324 4.0380 6077.00 6447.56 78.00
325 4.0440 6154.00 6448.93 78.00
326 4.0500 6124.00 6450.30 78.00
327 4.0560 6118.00 6451.67 78.00
328 4.0620 6033.00 6453.04 78.00
329 4.0680 5991.00 6454.41 77.00
330 4.0740 5969.00 6455.78 77.00
331 4.0800 6064.00 6457.15 78.00
332 4.0860 6248.00 6458.52 79.00
333 4.0920 6146.00 6459.89 78.00
334 4.0980 6098.00 6461.26 78.00
335 4.1040 6232.00 6462.63 79.00
336 4.1100 6219.00 6463.99 79.00
337 4.1160 6079.00 6465.36 78.00
338 4.1220 6033.00 6466.73 78.00
339 4.1280 6241.00 6468.10 79.00
340 4.1340 6261.00 6469.47 79.00
341 4.1400 6323.00 6470.84 80.00
342 4.1460 6694.00 6472.21 82.00
343 4.1520 7036.00 6473.58 84.00
344 4.1580 7669.00 6474.95 88.00
345 4.1640 7828.00 6476.32 88.00
346 4.1700 7383.00 6477.69 86.00
347 4.1760 7533.00 6479.06 87.00
348 4.1820 7381.00 6480.43 86.00
349 4.1880 6774.00 6481.80 82.00
350 4.1940 6455.00 6483.17 80.00
351 4.2000 6388.00 6484.53 80.00
352 4.2060 6310.00 6485.90 79.00
353 4.2120 6215.00 6487.27 79.00
354 4.2180 6259.00 6488.64 79.00
355 4.2240 6216.00 6490.01 79.00
356 4.2300 6302.00 6491.38 79.00
357 4.2360 6316.00 6492.75 79.00
358 4.2420 6178.00 6494.12 79.00
359 4.2480 6274.00 6495.49 79.00
360 4.2540 6456.00 6496.86 80.00
361 4.2600 6412.00 6498.23 80.00
362 4.2660 6389.00 6499.60 80.00
363 4.2720 6444.00 6500.97 80.00
364 4.2780 6378.00 6502.33 80.00
365 4.2840 6252.00 6503.70 79.00
366 4.2900 6308.00 6505.07 79.00
367 4.2960 6348.00 6506.44 80.00
368 4.3020 6332.00 6507.81 80.00
369 4.3080 6330.00 6509.18 80.00
370 4.3140 6304.00 6510.55 79.00
371 4.3200 6287.00 6511.92 79.00
372 4.3260 6438.00 6688.05 80.00
373 4.3320 6537.00 6705.81 81.00
374 4.3380 6307.00 6725.98 79.00
375 4.3440 6505.00 6749.06 81.00
376 4.3500 6514.00 6775.68 81.00
377 4.3560 6560.00 6806.66 81.00
378 4.3620 6554.00 6843.06 81.00
379 4.3680 6958.00 6886.28 83.00
380 4.3740 6703.00 6938.20 82.00
381 4.3800 6927.00 7001.41 83.00
382 4.3860 6762.00 7079.52 82.00
383 4.3920 7021.00 7177.71 84.00
384 4.3980 7205.00 7303.58 85.00
385 4.4040 7445.00 7468.72 86.00
386 4.4100 7606.00 7691.39 87.00
387 4.4160 8320.00 8001.62 91.00
388 4.4220 8519.00 8451.69 92.00
389 4.4280 9272.00 9140.58 96.00
390 4.4340 10520.00 10335.70 103.00
391 4.4400 13437.00 13677.10 116.00
392 4.4460 21169.00 29272.00 145.00
393 4.4520 58205.00 85027.90 241.00
394 4.4580 171284.00 181899.00 414.00
395 4.4640 234272.00 213176.00 484.00
396 4.4700 170563.00 127809.00 413.00
397 4.4760 70879.00 47832.30 266.00
398 4.4820 27203.00 17970.10 165.00
399 4.4880 15884.00 11345.50 126.00
400 4.4940 11816.00 9603.03 109.00
401 4.5000 10175.00 8744.06 101.00
402 4.5060 9162.00 8204.82 96.00
403 4.5120 9026.00 7842.06 95.00
404 4.5180 8469.00 7586.96 92.00
405 4.5240 8341.00 7401.18 91.00
406 4.5300 8776.00 7261.91 94.00
407 4.5360 9539.00 7154.98 98.00
408 4.5420 9993.00 7071.23 100.00
409 4.5480 9653.00 7004.50 98.00
410 4.5540 9344.00 6950.54 97.00
411 4.5600 8278.00 6906.37 91.00
412 4.5660 7545.00 6869.80 87.00
413 4.5720 7343.00 6839.24 86.00
414 4.5780 7092.00 6813.48 84.00
415 4.5840 6892.00 6791.62 83.00
416 4.5900 6737.00 6772.93 82.00
417 4.5960 6829.00 6756.86 83.00
418 4.6020 6723.00 6576.28 82.00
419 4.6080 6581.00 6577.65 81.00
420 4.6140 6747.00 6579.02 82.00
421 4.6200 6502.00 6580.38 81.00
422 4.6260 6758.00 6581.75 82.00
423 4.6320 6597.00 6583.12 81.00
424 4.6380 6602.00 6584.49 81.00
425 4.6440 6659.00 6585.86 82.00
426 4.6500 6404.00 6587.23 80.00
427 4.6560 6612.00 6588.60 81.00
428 4.6620 6513.00 6589.97 81.00
429 4.6680 6538.00 6591.34 81.00
430 4.6740 6416.00 6592.71 80.00
431 4.6800 6548.00 6594.08 81.00
432 4.6860 6403.00 6595.45 80.00
433 4.6920 6414.00 6596.82 80.00
434 4.6980 6541.00 6598.19 81.00
435 4.7040 6427.00 6599.55 80.00
436 4.7100 6428.00 6600.92 80.00
437 4.7160 6630.00 6602.29 81.00
438 4.7220 6417.00 6601.08 80.00
439 4.7280 6326.00 6599.86 80.00
440 4.7340 6377.00 6598.64 80.00
441 4.7400 6310.00 6597.42 79.00
442 4.7460 6422.00 6596.20 80.00
443 4.7520 6428.00 6594.98 80.00
444 4.7580 6374.00 6593.77 80.00
445 4.7640 6507.00 6592.55 81.00
446 4.7700 6380.00 6591.33 80.00
447 4.7760 6359.00 6590.11 80.00
448 4.7820 6217.00 6588.89 79.00
449 4.7880 6400.00 6587.68 80.00
450 4.7940 6365.00 6586.46 80.00
451 4.8000 6388.00 6585.24 80.00
452 4.8060 6366.00 6584.02 80.00
453 4.8120 6499.00 6582.80 81.00
454 4.8180 6449.00 6581.58 80.00
455 4.8240 6403.00 6580.37 80.00
456 4.8300 6412.00 6579.15 80.00
457 4.8360 6431.00 6577.93 80.00
458 4.8420 6401.00 6576.71 80.00
459 4.8480 6343.00 6575.49 80.00
460 4.8540 6325.00 6574.28 80.00
461 4.8600 6383.00 6573.06 80.00
462 4.8660 6383.00 6571.84 80.00
463 4.8720 6351.00 6570.62 80.00
464 4.8780 6431.00 6569.40 80.00
465 4.8840 6411.00 6568.19 80.00
466 4.8900 6488.00 6566.97 81.00
467 4.8960 6351.00 6565.75 80.00
468 4.9020 6311.00 6564.53 79.00
469 4.9080 6430.00 6563.31 80.00
470 4.9140 6442.00 6562.09 80.00
471 4.9200 6386.00 6560.88 80.00
472 4.9260 6333.00 6559.66 80.00
473 4.9320 6510.00 6558.44 81.00
474 4.9380 6414.00 6557.22 80.00
475 4.9440 6490.00 6556.00 81.00
476 4.9500 6438.00 6554.79 80.00
477 4.9560 6358.00 6553.57 80.00
478 4.9620 6466.00 6552.35 80.00
479 4.9680 6374.00 6551.13 80.00
480 4.9740 6362.00 6549.91 80.00
481 4.9800 6479.00 6548.70 80.00
482 4.9860 6490.00 6547.48 81.00
483 4.9920 6504.00 6546.26 81.00
484 4.9980 6440.00 6545.04 80.00
485 5.0040 6465.00 6543.82 80.00
486 5.0100 6380.00 6542.60 80.00
487 5.0160 6531.00 6541.39 81.00
488 5.0220 6488.00 6540.17 81.00
489 5.0280 6501.00 6538.95 81.00
490 5.0340 6516.00 6537.73 81.00
491 5.0400 6512.00 6536.51 81.00
492 5.0460 6508.00 6535.30 81.00
493 5.0520 6309.00 6534.08 79.00
494 5.0580 6321.00 6532.86 80.00
495 5.0640 6465.00 6531.64 80.00
496 5.0700 6509.00 6530.42 81.00
497 5.0760 6599.00 6529.20 81.00
498 5.0820 6530.00 6527.99 81.00
499 5.0880 6498.00 6526.77 81.00
500 5.0940 6564.00 6525.55 81.00
501 5.1000 6766.00 6524.33 82.00
502 5.1060 6807.00 6523.11 83.00
503 5.1120 6826.00 6521.90 83.00
504 5.1180 6658.00 6520.68 82.00
505 5.1240 6578.00 6519.46 81.00
506 5.1300 6536.00 6518.24 81.00
507 5.1360 6481.00 6517.02 81.00
508 5.1420 6593.00 6515.81 81.00
509 5.1480 6571.00 6514.59 81.00
510 5.1540 6636.00 6513.37 81.00
511 5.1600 6911.00 6512.15 83.00
512 5.1660 6815.00 6510.93 83.00
513 5.1720 6769.00 6509.71 82.00
514 5.1780 6714.00 6508.50 82.00
515 5.1840 6781.00 6507.28 82.00
516 5.1900 6599.00 6506.06 81.00
517 5.1960 6491.00 6504.84 81.00
518 5.2020 6609.00 6503.62 81.00
519 5.2080 6647.00 6502.41 82.00
520 5.2140 6582.00 6501.19 81.00
521 5.2200 6576.00 6499.97 81.00
522 5.2260 6545.00 6498.75 81.00
523 5.2320 6632.00 6497.53 81.00
524 5.2380 6511.00 6496.31 81.00
525 5.2440 6583.00 6495.10 81.00
526 5.2500 6544.00 6493.88 81.00
527 5.2560 6616.00 6492.66 81.00
528 5.2620 6653.00 6491.44 82.00
529 5.2680 6504.00 6490.22 81.00
530 5.2740 6617.00 6489.01 81.00
531 5.2800 6773.00 6487.79 82.00
532 5.2860 6671.00 6486.57 82.00
533 5.2920 6750.00 6485.35 82.00
534 5.2980 6647.00 6484.13 82.00
535 5.3040 6721.00 6482.92 82.00
536 5.3100 6738.00 6481.70 82.00
537 5.3160 6570.00 6480.48 81.00
538 5.3220 6614.00 6479.26 81.00
539 5.3280 6646.00 6478.04 82.00
540 5.3340 6690.00 6476.82 82.00
541 5.3400 6620.00 6475.61 81.00
542 5.3460 6606.00 6474.39 81.00
543 5.3520 6594.00 6473.17 81.00
544 5.3580 6658.00 6471.95 82.00
545 5.3640 6730.00 6470.73 82.00
546 5.3700 6738.00 6469.52 82.00
547 5.3760 6660.00 6468.30 82.00
548 5.3820 6636.00 6467.08 81.00
549 5.3880 6725.00 6465.86 82.00
550 5.3940 6830.00 6464.64 83.00
551 5.4000 6776.00 6463.43 82.00
552 5.4060 6833.00 6462.21 83.00
553 5.4120 6912.00 6460.99 83.00
554 5.4180 7176.00 6459.77 85.00
555 5.4240 7163.00 6458.55 85.00
556 5.4300 6900.00 6457.33 83.00
557 5.4360 6877.00 6456.12 83.00
558 5.4420 6874.00 6454.90 83.00
559 5.4480 6713.00 6453.68 82.00
560 5.4540 6725.00 6452.46 82.00
561 5.4600 6827.00 6451.24 83.00
562 5.4660 6827.00 6450.03 83.00
563 5.4720 6791.00 6448.81 82.00
564 5.4780 6887.00 6447.59 83.00
565 5.4840 6851.00 6446.37 83.00
566 5.4900 6895.00 6445.15 83.00
567 5.4960 6893.00 6443.94 83.00
568 5.5020 6812.00 6442.72 83.00
569 5.5080 6828.00 6441.50 83.00
570 5.5140 6918.00 6440.28 83.00
571 5.5200 6801.00 6439.06 82.00
572 5.5260 6816.00 6437.84 83.00
573 5.5320 6778.00 6436.63 82.00
574 5.5380 6890.00 6435.41 83.00
575 5.5440 6943.00 6445.52 83.00
576 5.5500 6838.00 6461.29 83.00
577 5.5560 6861.00 6477.06 83.00
578 5.5620 6774.00 6492.83 82.00
579 5.5680 6831.00 6508.60 83.00
580 5.5740 6858.00 6524.37 83.00
581 5.5800 6883.00 6540.14 83.00
582 5.5860 6810.00 6555.91 83.00
583 5.5920 6868.00 6571.68 83.00
584 5.5980 6902.00 6587.45 83.00
585 5.6040 6980.00 6603.22 84.00
586 5.6100 7009.00 6618.99 84.00
587 5.6160 7018.00 6634.76 84.00
588 5.6220 6950.00 6650.53 83.00
589 5.6280 6961.00 6666.30 83.00
590 5.6340 7035.00 6682.07 84.00
591 5.6400 7047.00 6697.84 84.00
592 5.6460 7088.00 6713.61 84.00
593 5.6520 7101.00 6729.38 84.00
594 5.6580 7119.00 6745.15 84.00
595 5.6640 7022.00 6760.92 84.00
596 5.6700 6934.00 6776.69 83.00
597 5.6760 7055.00 6792.46 84.00
598 5.6820 7156.00 6808.23 85.00
599 5.6880 7146.00 6824.00 85.00
600 5.6940 7133.00 6839.77 84.00
601 5.7000 7089.00 6855.54 84.00
602 5.7060 7072.00 6871.31 84.00
603 5.7120 7092.00 6887.09 84.00
604 5.7180 7090.00 6902.86 84.00
605 5.7240 7264.00 6918.63 85.00
606 5.7300 7370.00 6934.40 86.00
607 5.7360 7275.00 6950.17 85.00
608 5.7420 7289.00 6965.94 85.00
609 5.7480 7281.00 6981.71 85.00
610 5.7540 7198.00 6997.48 85.00
611 5.7600 7209.00 7013.25 85.00
612 5.7660 7324.00 7029.02 86.00
613 5.7720 7277.00 7044.79 85.00
614 5.7780 7179.00 7060.56 85.00
615 5.7840 7344.00 7076.33 86.00
616 5.7900 7334.00 7092.10 86.00
617 5.7960 7166.00 7107.87 85.00
618 5.8020 7250.00 7123.64 85.00
619 5.8080 7306.00 7139.41 85.00
620 5.8140 7296.00 7155.18 85.00
621 5.8200 7259.00 7170.95 85.00
622 5.8260 7176.00 7186.72 85.00
623 5.8320 7155.00 7202.49 85.00
624 5.8380 7241.00 7218.26 85.00
625 5.8440 7273.00 7234.03 85.00
626 5.8500 7199.00 7249.80 85.00
627 5.8560 7171.00 7265.57 85.00
628 5.8620 7173.00 7281.35 85.00
629 5.8680 7238.00 7297.12 85.00
630 5.8740 7297.00 7312.89 85.00
631 5.8800 7341.00 7328.66 86.00
632 5.8860 7471.00 7344.43 86.00
633 5.8920 7568.00 7360.20 87.00
634 5.8980 7545.00 7375.97 87.00
635 5.9040 7464.00 7391.74 86.00
636 5.9100 7474.00 7407.51 86.00
637 5.9160 7491.00 7423.28 87.00
638 5.9220 7422.00 7439.05 86.00
639 5.9280 7399.00 7454.82 86.00
640 5.9340 7477.00 7470.59 86.00
641 5.9400 7529.00 7486.36 87.00
642 5.9460 7476.00 7502.13 86.00
643 5.9520 7506.00 7517.90 87.00
644 5.9580 7524.00 7533.67 87.00
645 5.9640 7427.00 7549.44 86.00
646 5.9700 7456.00 7565.21 86.00
647 5.9760 7541.00 7580.98 87.00
648 5.9820 7478.00 7596.75 86.00
649 5.9880 7519.00 7612.52 87.00
650 5.9940 7578.00 7628.29 87.00
651 6.0000 7544.00 7644.06 87.00
652 6.0060 7550.00 7659.83 87.00
653 6.0120 7555.00 7675.60 87.00
654 6.0180 7546.00 7691.38 87.00
655 6.0240 7568.00 7707.15 87.00
656 6.0300 7529.00 7722.92 87.00
657 6.0360 7550.00 7738.69 87.00
658 6.0420 7598.00 7754.46 87.00
659 6.0480 7568.00 7770.23 87.00
660 6.0540 7532.00 7786.00 87.00
661 6.0600 7569.00 7801.77 87.00
662 6.0660 7560.00 7817.54 87.00
663 6.0720 7570.00 7833.31 87.00
664 6.0780 7657.00 7849.08 88.00
665 6.0840 7742.00 7864.85 88.00
666 6.0900 7698.00 7880.62 88.00
667 6.0960 7675.00 7896.39 88.00
668 6.1020 7736.00 7912.16 88.00
669 6.1080 7712.00 7927.93 88.00
670 6.1140 7815.00 7943.70 88.00
671 6.1200 7796.00 7959.47 88.00
672 6.1260 7650.00 7975.24 87.00
673 6.1320 7684.00 7991.01 88.00
674 6.1380 7776.00 8006.78 88.00
675 6.1440 7663.00 8022.55 88.00
676 6.1500 7699.00 8038.32 88.00
677 6.1560 7857.00 8054.09 89.00
678 6.1620 7740.00 8069.86 88.00
679 6.1680 7621.00 8085.63 87.00
680 6.1740 7593.00 8101.40 87.00
681 6.1800 7650.00 8117.17 87.00
682 6.1860 7759.00 8132.94 88.00
683 6.1920 7777.00 8148.72 88.00
684 6.1980 7726.00 8164.49 88.00
685 6.2040 7664.00 8180.26 88.00
686 6.2100 7794.00 8196.03 88.00
687 6.2160 7892.00 8211.80 89.00
688 6.2220 7824.00 8227.57 88.00
689 6.2280 7846.00 8243.34 89.00
690 6.2340 7831.00 8259.11 88.00
691 6.2400 7832.00 8274.88 88.00
692 6.2460 7921.00 8290.65 89.00
693 6.2520 7766.00 8306.42 88.00
694 6.2580 7775.00 8322.19 88.00
695 6.2640 7903.00 8337.96 89.00
696 6.2700 7988.00 8353.73 89.00
697 6.2760 8052.00 8369.50 90.00
698 6.2820 8190.00 8385.27 90.00
699 6.2880 8283.00 8401.04 91.00
700 6.2940 8220.00 8416.81 91.00
701 6.3000 8194.00 8432.58 91.00
702 6.3060 8094.00 8448.35 90.00
703 6.3120 8049.00 8464.12 90.00
704 6.3180 8077.00 8479.89 90.00
705 6.3240 8084.00 8495.66 90.00
706 6.3300 8186.00 8511.43 90.00
707 6.3360 8206.00 8527.20 91.00
708 6.3420 8084.00 8542.97 90.00
709 6.3480 7988.00 8558.75 89.00
710 6.3540 7992.00 8574.52 89.00
711 6.3600 8080.00 8590.29 90.00
712 6.3660 8093.00 8606.06 90.00
713 6.3720 8008.00 8621.83 89.00
714 6.3780 8081.00 8637.60 90.00
715 6.3840 8051.00 8653.37 90.00
716 6.3900 8113.00 8669.14 90.00
717 6.3960 8122.00 8684.91 90.00
718 6.4020 8022.00 8700.68 90.00
719 6.4080 8070.00 8703.05 90.00
720 6.4140 8196.00 8702.73 91.00
721 6.4200 8160.00 8702.42 90.00
722 6.4260 8176.00 8702.11 90.00
723 6.4320 8074.00 8701.80 90.00
724 6.4380 8078.00 8701.49 90.00
725 6.4440 8068.00 8701.18 90.00
726 6.4500 8194.00 8700.86 91.00
727 6.4560 8260.00 8700.55 91.00
728 6.4620 8161.00 8700.24 90.00
729 6.4680 7985.00 8699.93 89.00
730 6.4740 8057.00 8699.62 90.00
731 6.4800 8221.00 8699.31 91.00
732 6.4860 8166.00 8698.99 90.00
733 6.4920 8424.00 8698.68 92.00
734 6.4980 8391.00 8698.37 92.00
735 6.5040 8316.00 8698.06 91.00
736 6.5100 8289.00 8697.75 91.00
737 6.5160 8355.00 8697.44 91.00
738 6.5220 8338.00 8697.12 91.00
739 6.5280 8428.00 8696.81 92.00
740 6.5340 8360.00 8696.50 91.00
741 6.5400 8268.00 8696.19 91.00
742 6.5460 8219.00 8695.88 91.00
743 6.5520 8392.00 8695.57 92.00
744 6.5580 8444.00 8695.25 92.00
745 6.5640 8459.00 8697.90 92.00
746 6.5700 8598.00 8697.87 93.00
747 6.5760 8615.00 8697.89 93.00
748 6.5820 8610.00 8697.97 93.00
749 6.5880 9007.00 8698.11 95.00
750 6.5940 9398.00 8698.33 97.00
751 6.6000 9290.00 8698.65 96.00
752 6.6060 8939.00 8699.10 95.00
753 6.6120 8728.00 8699.72 93.00
754 6.6180 8508.00 8700.57 92.00
755 6.6240 8416.00 8701.71 92.00
756 6.6300 8443.00 8703.25 92.00
757 6.6360 8453.00 8705.37 92.00
758 6.6420 8488.00 8708.33 92.00
759 6.6480 8523.00 8712.54 92.00
760 6.6540 8568.00 8718.75 93.00
761 6.6600 8503.00 8728.29 92.00
762 6.6660 8523.00 8744.11 92.00
763 6.6720 8549.00 8778.73 92.00
764 6.6780 8485.00 8914.19 92.00
765 6.6840 8824.00 9455.87 94.00
766 6.6900 9668.00 10642.10 98.00
767 6.6960 10184.00 11412.70 101.00
768 6.7020 9772.00 10494.80 99.00
769 6.7080 9127.00 9361.06 96.00
770 6.7140 8699.00 8885.30 93.00
771 6.7200 8559.00 8770.21 93.00
772 6.7260 8482.00 8738.71 92.00
773 6.7320 8593.00 8723.23 93.00
774 6.7380 8635.00 8713.53 93.00
775 6.7440 8482.00 8706.97 92.00
776 6.7500 8447.00 8702.30 92.00
777 6.7560 8455.00 8698.83 92.00
778 6.7620 8367.00 8696.16 91.00
779 6.7680 8352.00 8694.05 91.00
780 6.7740 8557.00 8692.32 93.00
781 6.7800 8565.00 8690.88 93.00
782 6.7860 8396.00 8689.66 92.00
783 6.7920 8555.00 8688.60 92.00
784 6.7980 8626.00 8687.66 93.00
785 6.8040 8421.00 8686.83 92.00
786 6.8100 8694.00 8686.08 93.00
787 6.8160 8819.00 8685.39 94.00
788 6.8220 8880.00 8684.75 94.00
789 6.8280 8844.00 8684.15 94.00
790 6.8340 8991.00 8680.91 95.00
791 6.8400 9196.00 8680.60 96.00
792 6.8460 9085.00 8680.29 95.00
793 6.8520 8891.00 8679.98 94.00
794 6.8580 8931.00 8679.67 95.00
795 6.8640 8836.00 8679.36 94.00
796 6.8700 8694.00 8679.04 93.00
797 6.8760 8748.00 8678.73 94.00
798 6.8820 8679.00 8678.42 93.00
799 6.8880 8722.00 8678.11 93.00
800 6.8940 8793.00 8677.80 94.00
801 6.9000 8736.00 8677.49 93.00
802 6.9060 8564.00 8677.17 93.00
803 6.9120 8489.00 8676.86 92.00
804 6.9180 8637.00 8676.55 93.00
805 6.9240 8591.00 8676.24 93.00
806 6.9300 8582.00 8675.93 93.00
807 6.9360 8477.00 8675.62 92.00
808 6.9420 8419.00 8675.30 92.00
809 6.9480 8410.00 8674.99 92.00
810 6.9540 8470.00 8674.68 92.00
811 6.9600 8746.00 8674.37 94.00
812 6.9660 8591.00 8674.06 93.00
813 6.9720 8438.00 8673.74 92.00
814 6.9780 8580.00 8673.43 93.00
815 6.9840 8470.00 8673.12 92.00
816 6.9900 8561.00 8672.81 93.00
817 6.9960 8258.00 8672.50 91.00
818 7.0020 8383.00 8672.19 92.00
819 7.0080 8595.00 8671.87 93.00
820 7.0140 8552.00 8671.56 92.00
821 7.0200 8389.00 8671.25 92.00
822 7.0260 8374.00 8670.94 92.00
823 7.0320 8393.00 8670.63 92.00
824 7.0380 8455.00 8670.32 92.00
825 7.0440 8544.00 8670.00 92.00
826 7.0500 8608.00 8669.69 93.00
827 7.0560 8398.00 8669.38 92.00
828 7.0620 8558.00 8669.07 93.00
829 7.0680 8506.00 8668.76 92.00
830 7.0740 8459.00 8668.45 92.00
831 7.0800 8485.00 8668.13 92.00
832 7.0860 8548.00 8667.82 92.00
833 7.0920 8586.00 8667.51 93.00
834 7.0980 8636.00 8667.20 93.00
835 7.1040 8869.00 8666.89 94.00
836 7.1100 8616.00 8666.58 93.00
837 7.1160 8604.00 8666.26 93.00
838 7.1220 8776.00 8665.95 94.00
839 7.1280 8781.00 8665.64 94.00
840 7.1340 8888.00 8665.33 94.00
841 7.1400 9013.00 8665.02 95.00
842 7.1460 9199.00 8664.71 96.00
843 7.1520 9200.00 8664.39 96.00
844 7.1580 9505.00 8664.08 97.00
845 7.1640 9613.00 8663.77 98.00
846 7.1700 9337.00 8663.46 97.00
847 7.1760 9238.00 8663.15 96.00
848 7.1820 9192.00 8662.83 96.00
849 7.1880 8921.00 8662.52 94.00
850 7.1940 9036.00 8662.21 95.00
851 7.2000 8910.00 8661.90 94.00
852 7.2060 8827.00 8661.59 94.00
853 7.2120 8938.00 8661.28 95.00
854 7.2180 8905.00 8660.96 94.00
855 7.2240 8679.00 8660.65 93.00
856 7.2300 9024.00 8660.34 95.00
857 7.2360 8790.00 8660.03 94.00
858 7.2420 8783.00 8659.72 94.00
859 7.2480 8791.00 8659.41 94.00
860 7.2540 8822.00 8659.09 94.00
861 7.2600 8692.00 8658.78 93.00
862 7.2660 8598.00 8658.47 93.00
863 7.2720 8648.00 8658.16 93.00
864 7.2780 8722.00 8657.85 93.00
865 7.2840 8723.00 8657.54 93.00
866 7.2900 8628.00 8657.22 93.00
867 7.2960 8820.00 8656.91 94.00
868 7.3020 8824.00 8656.60 94.00
869 7.3080 8928.00 8656.55 94.00
870 7.3140 8680.00 8656.27 93.00
871 7.3200 8872.00 8656.55 94.00
872 7.3260 8655.00 8656.33 93.00
873 7.3320 8743.00 8656.13 94.00
874 7.3380 8716.00 8655.94 93.00
875 7.3440 8820.00 8655.03 94.00
876 7.3500 8799.00 8650.45 94.00
877 7.3560 8621.00 8645.91 93.00
878 7.3620 8721.00 8641.41 93.00
879 7.3680 8630.00 8636.98 93.00
880 7.3740 8731.00 8632.63 93.00
881 7.3800 8702.00 8628.40 93.00
882 7.3860 8691.00 8624.35 93.00
883 7.3920 8823.00 8620.54 94.00
884 7.3980 8977.00 8617.13 95.00
885 7.4040 9138.00 8614.34 96.00
886 7.4100 9456.00 8612.68 97.00
887 7.4160 9410.00 8613.92 97.00
888 7.4220 9883.00 8627.93 99.00
889 7.4280 9916.00 8690.35 100.00
890 7.4340 9847.00 8849.33 99.00
891 7.4400 9592.00 9057.77 98.00
892 7.4460 9412.00 9151.95 97.00
893 7.4520 8980.00 8985.43 95.00
894 7.4580 8684.00 8738.90 93.00
895 7.4640 8936.00 8614.24 95.00
896 7.4700 8635.00 8576.30 93.00
897 7.4760 8826.00 8562.68 94.00
898 7.4820 8686.00 8553.90 93.00
899 7.4880 8539.00 8546.69 92.00
900 7.4940 8468.00 8540.30 92.00
901 7.5000 8421.00 8534.40 92.00
902 7.5060 8601.00 8528.82 93.00
903 7.5120 8547.00 8523.44 92.00
904 7.5180 8488.00 8518.21 92.00
905 7.5240 8504.00 8513.09 92.00
906 7.5300 8447.00 8508.03 92.00
907 7.5360 8531.00 8503.04 92.00
908 7.5420 8339.00 8498.08 91.00
909 7.5480 8360.00 8493.16 91.00
910 7.5540 8576.00 8488.26 93.00
911 7.5600 8481.00 8483.39 92.00
912 7.5660 8760.00 8478.53 94.00
913 7.5720 8677.00 8473.68 93.00
914 7.5780 8554.00 8468.62 92.00
915 7.5840 8449.00 8463.32 92.00
916 7.5900 8415.00 8458.56 92.00
917 7.5960 8348.00 8453.80 91.00
918 7.6020 8650.00 8449.04 93.00
919 7.6080 8450.00 8444.29 92.00
920 7.6140 8397.00 8439.53 92.00
921 7.6200 8447.00 8434.77 92.00
922 7.6260 8448.00 8430.01 92.00
923 7.6320 8510.00 8425.25 92.00
924 7.6380 8244.00 8420.49 91.00
925 7.6440 8433.00 8415.73 92.00
926 7.6500 8446.00 8410.97 92.00
927 7.6560 8354.00 8406.21 91.00
928 7.6620 8576.00 8401.45 93.00
929 7.6680 8517.00 8396.70 92.00
930 7.6740 8418.00 8391.94 92.00
931 7.6800 8579.00 8387.18 93.00
932 7.6860 8431.00 8382.42 92.00
933 7.6920 8492.00 8377.66 92.00
934 7.6980 8452.00 8372.90 92.00
935 7.7040 8359.00 8368.14 91.00
936 7.7100 8460.00 8363.38 92.00
937 7.7160 8510.00 8358.62 92.00
938 7.7220 8676.00 8353.87 93.00
939 7.7280 8373.00 8349.11 92.00
940 7.7340 8501.00 8344.35 92.00
941 7.7400 8438.00 8339.59 92.00
942 7.7460 8348.00 8334.83 91.00
943 7.7520 8462.00 8330.07 92.00
944 7.7580 8501.00 8325.31 92.00
945 7.7640 8516.00 8320.55 92.00
946 7.7700 8493.00 8315.79 92.00
947 7.7760 8464.00 8311.04 92.00
948 7.7820 8398.00 8306.28 92.00
949 7.7880 8310.00 8301.52 91.00
950 7.7940 8258.00 8296.76 91.00
951 7.8000 8331.00 8292.00 91.00
952 7.8060 8364.00 8287.24 91.00
953 7.8120 8447.00 8282.48 92.00
954 7.8180 8309.00 8277.72 91.00
955 7.8240 8302.00 8272.96 91.00
956 7.8300 8336.00 8268.21 91.00
957 7.8360 8246.00 8263.45 91.00
958 7.8420 8176.00 8258.69 90.00
959 7.8480 8275.00 8253.93 91.00
960 7.8540 8365.00 8249.17 91.00
961 7.8600 8372.00 8244.41 91.00
962 7.8660 8193.00 8239.65 91.00
963 7.8720 8211.00 8234.89 91.00
964 7.8780 8386.00 8230.13 92.00
965 7.8840 8199.00 8225.38 91.00
966 7.8900 8243.00 8220.62 91.00
967 7.8960 8414.00 8215.86 92.00
968 7.9020 8269.00 8211.10 91.00
969 7.9080 8377.00 8206.34 92.00
970 7.9140 8224.00 8201.58 91.00
971 7.9200 8296.00 8196.82 91.00
972 7.9260 8192.00 8192.06 91.00
973 7.9320 8252.00 8187.30 91.00
974 7.9380 8282.00 8182.54 91.00
975 7.9440 8287.00 8177.79 91.00
976 7.9500 8171.00 8173.03 90.00
977 7.9560 8196.00 8168.27 91.00
978 7.9620 8169.00 8163.51 90.00
979 7.9680 8139.00 8158.75 90.00
980 7.9740 8083.00 8153.99 90.00
981 7.9800 7980.00 8149.23 89.00
982 7.9860 8125.00 8143.10 90.00
983 7.9920 8093.00 8136.68 90.00
984 7.9980 8104.00 8130.27 90.00
985 8.0040 8267.00 8123.86 91.00
986 8.0100 8280.00 8117.45 91.00
987 8.0160 8223.00 8111.04 91.00
988 8.0220 8379.00 8104.62 92.00
989 8.0280 8506.00 8098.21 92.00
990 8.0340 8391.00 8091.80 92.00
991 8.0400 8302.00 8085.39 91.00
992 8.0460 8229.00 8078.98 91.00
993 8.0520 8222.00 8072.56 91.00
994 8.0580 8224.00 8066.15 91.00
995 8.0640 8192.00 8059.74 91.00
996 8.0700 8493.00 8053.33 92.00
997 8.0760 8676.00 8046.91 93.00
998 8.0820 8632.00 8040.50 93.00
999 8.0880 8492.00 8034.09 92.00
1000 8.0940 8099.00 8027.68 90.00
1001 8.1000 8132.00 8021.27 90.00
1002 8.1060 8105.00 8014.85 90.00
1003 8.1120 8250.00 8008.44 91.00
1004 8.1180 8592.00 8002.03 93.00
1005 8.1240 8772.00 7995.62 94.00
1006 8.1300 8870.00 7989.21 94.00
1007 8.1360 9319.00 7982.79 97.00
1008 8.1420 9816.00 7976.38 99.00
1009 8.1480 10524.00 7969.97 103.00
1010 8.1540 10810.00 7963.56 104.00
1011 8.1600 10463.00 7957.15 102.00
1012 8.1660 9686.00 7950.73 98.00
1013 8.1720 8895.00 7944.32 94.00
1014 8.1780 8406.00 7937.91 92.00
1015 8.1840 8222.00 7931.50 91.00
1016 8.1900 8252.00 7925.08 91.00
1017 8.1960 8281.00 7918.67 91.00
1018 8.2020 8218.00 7912.26 91.00
1019 8.2080 8257.00 7905.85 91.00
1020 8.2140 8231.00 7899.44 91.00
1021 8.2200 8245.00 7893.02 91.00
1022 8.2260 8355.00 7886.61 91.00
1023 8.2320 8533.00 7880.20 92.00
1024 8.2380 8827.00 7873.79 94.00
1025 8.2440 9573.00 7867.38 98.00
1026 8.2500 11445.00 7860.96 107.00
1027 8.2560 12966.00 8492.01 114.00
1028 8.2620 12083.00 9252.32 110.00
1029 8.2680 10596.00 9388.09 103.00
1030 8.2740 9731.00 9546.61 99.00
1031 8.2800 9481.00 9732.96 97.00
1032 8.2860 9629.00 9953.84 98.00
1033 8.2920 9870.00 10217.90 99.00
1034 8.2980 10307.00 10536.80 102.00
1035 8.3040 10922.00 10926.50 105.00
1036 8.3100 12253.00 11409.20 111.00
1037 8.3160 14544.00 12016.00 121.00
1038 8.3220 16472.00 12793.20 128.00
1039 8.3280 16487.00 13809.70 128.00
1040 8.3340 15788.00 15173.20 126.00
1041 8.3400 15996.00 17060.40 126.00
1042 8.3460 17468.00 19773.20 132.00
1043 8.3520 21099.00 23873.10 145.00
1044 8.3580 28475.00 30661.80 169.00
1045 8.3640 44853.00 45961.80 212.00
1046 8.3700 94812.00 100955.00 308.00
1047 8.3760 252099.00 282737.00 502.00
1048 8.3820 564407.00 632350.00 751.00
1049 8.3880 843261.00 886849.00 918.00
1050 8.3940 781871.00 782604.00 884.00
1051 8.4000 440196.00 413528.00 663.00
1052 8.4060 164190.00 152117.00 405.00
1053 8.4120 61352.00 59207.90 248.00
1054 8.4180 33400.00 34941.40 183.00
1055 8.4240 23623.00 26105.20 154.00
1056 8.4300 19088.00 21147.30 138.00
1057 8.4360 16653.00 17947.20 129.00
1058 8.4420 14637.00 15756.80 121.00
1059 8.4480 13077.00 14193.10 114.00
1060 8.4540 12199.00 13037.70 110.00
1061 8.4600 11513.00 12159.80 107.00
1062 8.4660 10851.00 11477.00 104.00
1063 8.4720 10461.00 10935.00 102.00
1064 8.4780 10020.00 10497.50 100.00
1065 8.4840 9699.00 10138.90 98.00
1066 8.4900 9271.00 9841.13 96.00
1067 8.4960 8940.00 9590.88 95.00
1068 8.5020 8739.00 9378.46 93.00
1069 8.5080 8676.00 9196.37 93.00
1070 8.5140 8536.00 9038.98 92.00
1071 8.5200 8354.00 8318.28 91.00
1072 8.5260 8112.00 8246.40 90.00
1073 8.5320 8028.00 7559.59 90.00
1074 8.5380 8152.00 7553.18 90.00
1075 8.5440 8021.00 7546.77 90.00
1076 8.5500 7914.00 7540.36 89.00
1077 8.5560 7967.00 7533.95 89.00
1078 8.5620 7804.00 7527.53 88.00
1079 8.5680 7587.00 7521.12 87.00
1080 8.5740 7623.00 7514.71 87.00
1081 8.5800 7663.00 7508.30 88.00
1082 8.5860 7637.00 7501.88 87.00
1083 8.5920 7647.00 7495.47 87.00
1084 8.5980 7568.00 7489.06 87.00
1085 8.6040 7528.00 7482.65 87.00
1086 8.6100 7471.00 7476.24 86.00
1087 8.6160 7507.00 7469.82 87.00
1088 8.6220 7511.00 7463.41 87.00
1089 8.6280 7422.00 7457.00 86.00
1090 8.6340 7433.00 7450.59 86.00
1091 8.6400 7555.00 7444.18 87.00
1092 8.6460 7538.00 7437.76 87.00
1093 8.6520 7566.00 7431.35 87.00
1094 8.6580 7801.00 7424.94 88.00
1095 8.6640 8000.00 7418.53 89.00
1096 8.6700 8151.00 7412.12 90.00
1097 8.6760 8666.00 7405.70 93.00
1098 8.6820 9390.00 7399.29 97.00
1099 8.6880 10247.00 7392.88 101.00
1100 8.6940 11102.00 7386.47 105.00
1101 8.7000 11958.00 7380.06 109.00
1102 8.7060 12391.00 7373.64 111.00
1103 8.7120 12545.00 7367.23 112.00
1104 8.7180 12210.00 7360.82 110.00
1105 8.7240 11618.00 7354.41 108.00
1106 8.7300 10625.00 7348.00 103.00
1107 8.7360 9491.00 7341.58 97.00
1108 8.7420 8779.00 7335.17 94.00
1109 8.7480 8440.00 7328.76 92.00
1110 8.7540 8320.00 7322.35 91.00
1111 8.7600 8051.00 7315.93 90.00
1112 8.7660 7763.00 7309.52 88.00
1113 8.7720 7636.00 7303.11 87.00
1114 8.7780 7713.00 7296.70 88.00
1115 8.7840 7618.00 7290.29 87.00
1116 8.7900 7648.00 7283.87 87.00
1117 8.7960 7692.00 7277.46 88.00
1118 8.8020 7658.00 7623.31 88.00
1119 8.8080 7559.00 7651.79 87.00
1120 8.8140 7639.00 7685.72 87.00
1121 8.8200 7608.00 7726.29 87.00
1122 8.8260 7492.00 7775.03 87.00
1123 8.8320 7515.00 7833.94 87.00
1124 8.8380 7628.00 7905.71 87.00
1125 8.8440 7626.00 7993.89 87.00
1126 8.8500 7771.00 8103.45 88.00
1127 8.8560 7992.00 8241.29 89.00
1128 8.8620 8068.00 8417.37 90.00
1129 8.8680 8419.00 8646.37 92.00
1130 8.8740 8876.00 8950.79 94.00
1131 8.8800 9063.00 9366.39 95.00
1132 8.8860 9633.00 9952.32 98.00
1133 8.8920 10524.00 10813.00 103.00
1134 8.8980 12155.00 12145.30 110.00
1135 8.9040 14754.00 14431.80 121.00
1136 8.9100 20418.00 20027.90 143.00
1137 8.9160 38692.00 42208.40 197.00
1138 8.9220 115083.00 115747.00 339.00
1139 8.9280 210502.00 236078.00 459.00
1140 8.9340 250327.00 252067.00 500.00
1141 8.9400 168973.00 135307.00 411.00
1142 8.9460 80659.00 50115.40 284.00
1143 8.9520 35624.00 21919.00 189.00
1144 8.9580 20523.00 14963.90 143.00
1145 8.9640 14934.00 12379.70 122.00
1146 8.9700 12072.00 10919.20 110.00
1147 8.9760 10713.00 9982.46 104.00
1148 8.9820 9987.00 9345.37 100.00
1149 8.9880 9422.00 8892.70 97.00
1150 8.9940 9233.00 8559.20 96.00
1151 9.0000 9207.00 8306.24 96.00
1152 9.0060 8877.00 8109.44 94.00
1153 9.0120 8466.00 7952.99 92.00
1154 9.0180 8294.00 7826.30 91.00
1155 9.0240 8166.00 7721.98 90.00
1156 9.0300 8193.00 7634.86 91.00
1157 9.0360 8225.00 7561.09 91.00
1158 9.0420 8349.00 7497.94 91.00
1159 9.0480 8217.00 7443.25 91.00
1160 9.0540 8123.00 7395.45 90.00
1161 9.0600 8015.00 7353.27 90.00
1162 9.0660 7883.00 6988.92 89.00
1163 9.0720 7724.00 6982.51 88.00
1164 9.0780 7678.00 6976.09 88.00
1165 9.0840 7609.00 6969.68 87.00
1166 9.0900 7362.00 6963.27 86.00
1167 9.0960 7454.00 6956.86 86.00
1168 9.1020 7540.00 6950.44 87.00
1169 9.1080 7339.00 6944.03 86.00
1170 9.1140 7274.00 6937.62 85.00
1171 9.1200 7086.00 6931.21 84.00
1172 9.1260 6908.00 6924.80 83.00
1173 9.1320 6923.00 6918.38 83.00
1174 9.1380 6898.00 6911.97 83.00
1175 9.1440 6764.00 6905.56 82.00
1176 9.1500 6715.00 6899.15 82.00
1177 9.1560 6678.00 6892.74 82.00
1178 9.1620 6614.00 6886.32 81.00
1179 9.1680 6651.00 6879.91 82.00
1180 9.1740 6692.00 6873.50 82.00
1181 9.1800 6669.00 6867.09 82.00
1182 9.1860 6724.00 6860.68 82.00
1183 9.1920 6857.00 6854.26 83.00
1184 9.1980 6819.00 6847.85 83.00
1185 9.2040 6716.00 6841.44 82.00
1186 9.2100 6903.00 6835.03 83.00
1187 9.2160 7133.00 6828.61 84.00
1188 9.2220 7555.00 6822.20 87.00
1189 9.2280 8703.00 6815.79 93.00
1190 9.2340 12063.00 6809.38 110.00
1191 9.2400 20082.00 6802.97 142.00
1192 9.2460 27760.00 6796.55 167.00
1193 9.2520 26466.00 6790.14 163.00
1194 9.2580 18287.00 6783.73 135.00
1195 9.2640 11459.00 6777.32 107.00
1196 9.2700 8451.00 6770.91 92.00
1197 9.2760 7360.00 6764.49 86.00
1198 9.2820 6848.00 6758.08 83.00
1199 9.2880 6643.00 6751.67 82.00
1200 9.2940 6605.00 6745.26 81.00
1201 9.3000 6549.00 6738.84 81.00
1202 9.3060 6367.00 6732.43 80.00
1203 9.3120 6331.00 6726.02 80.00
1204 9.3180 6334.00 6719.61 80.00
1205 9.3240 6287.00 6713.20 79.00
1206 9.3300 6227.00 6706.78 79.00
1207 9.3360 6144.00 6700.37 78.00
1208 9.3420 6103.00 6693.96 78.00
1209 9.3480 6166.00 6687.55 79.00
1210 9.3540 6243.00 6681.14 79.00
1211 9.3600 6283.00 6674.72 79.00
1212 9.3660 6170.00 6668.31 79.00
1213 9.3720 6090.00 6661.90 78.00
1214 9.3780 6162.00 6655.49 78.00
1215 9.3840 6176.00 6649.08 79.00
1216 9.3900 6194.00 6642.66 79.00
1217 9.3960 6067.00 6636.25 78.00
1218 9.4020 6134.00 6629.84 78.00
1219 9.4080 6060.00 6623.43 78.00
1220 9.4140 5947.00 6617.02 77.00
1221 9.4200 5914.00 6610.60 77.00
1222 9.4260 6051.00 6604.19 78.00
1223 9.4320 6149.00 6597.78 78.00
1224 9.4380 6048.00 6591.37 78.00
1225 9.4440 5982.00 6584.95 77.00
1226 9.4500 5907.00 6578.54 77.00
1227 9.4560 5861.00 6572.52 77.00
1228 9.4620 6013.00 6568.44 78.00
1229 9.4680 6032.00 6564.35 78.00
1230 9.4740 5954.00 6560.27 77.00
1231 9.4800 5957.00 6556.19 77.00
1232 9.4860 6059.00 6552.11 78.00
1233 9.4920 6054.00 6548.03 78.00
1234 9.4980 6112.00 6543.95 78.00
1235 9.5040 6268.00 6539.86 79.00
1236 9.5100 6538.00 6535.78 81.00
1237 9.5160 6734.00 6531.70 82.00
1238 9.5220 6744.00 6527.62 82.00
1239 9.5280 6767.00 6523.54 82.00
1240 9.5340 6867.00 6519.45 83.00
1241 9.5400 6590.00 6515.37 81.00
1242 9.5460 6223.00 6511.29 79.00
1243 9.5520 5919.00 6507.21 77.00
1244 9.5580 6013.00 6503.13 78.00
1245 9.5640 6063.00 6499.05 78.00
1246 9.5700 6032.00 6494.96 78.00
1247 9.5760 5978.00 6490.88 77.00
1248 9.5820 6151.00 6486.80 78.00
1249 9.5880 5990.00 6482.72 77.00
1250 9.5940 6017.00 6478.64 78.00
1251 9.6000 6098.00 6474.55 78.00
1252 9.6060 6157.00 6470.47 78.00
1253 9.6120 6142.00 6466.39 78.00
1254 9.6180 6099.00 6462.31 78.00
1255 9.6240 6066.00 6458.23 78.00
1256 9.6300 6164.00 6632.37 79.00
1257 9.6360 6193.00 6789.47 79.00
1258 9.6420 6172.00 6819.28 79.00
1259 9.6480 6331.00 6854.42 80.00
1260 9.6540 6375.00 6896.08 80.00
1261 9.6600 6399.00 6945.77 80.00
1262 9.6660 6500.00 7005.52 81.00
1263 9.6720 6611.00 7077.95 81.00
1264 9.6780 6785.00 7166.71 82.00
1265 9.6840 6936.00 7276.71 83.00
1266 9.6900 7206.00 7415.00 85.00
1267 9.6960 7465.00 7591.74 86.00
1268 9.7020 7831.00 7822.02 88.00
1269 9.7080 7831.00 8129.24 88.00
1270 9.7140 8064.00 8550.86 90.00
1271 9.7200 8564.00 9150.07 93.00
1272 9.7260 9444.00 10040.00 97.00
1273 9.7320 10730.00 11450.00 104.00
1274 9.7380 13552.00 14109.50 116.00
1275 9.7440 20588.00 21993.20 143.00
1276 9.7500 43912.00 50817.90 210.00
1277 9.7560 117657.00 122496.00 343.00
1278 9.7620 220681.00 202846.00 470.00
1279 9.7680 229459.00 197455.00 479.00
1280 9.7740 133468.00 116302.00 365.00
1281 9.7800 55704.00 48432.90 236.00
1282 9.7860 24480.00 21412.10 156.00
1283 9.7920 15059.00 13893.90 123.00
1284 9.7980 11509.00 11307.20 107.00
1285 9.8040 9822.00 9925.55 99.00
1286 9.8100 8954.00 9047.79 95.00
1287 9.8160 8420.00 8452.87 92.00
1288 9.8220 7901.00 8030.96 89.00
1289 9.8280 7472.00 7720.82 86.00
1290 9.8340 7528.00 7486.00 87.00
1291 9.8400 7318.00 7303.67 86.00
1292 9.8460 7178.00 7159.10 85.00
1293 9.8520 7129.00 7042.33 84.00
1294 9.8580 7049.00 6946.50 84.00
1295 9.8640 7136.00 6866.72 84.00
1296 9.8700 7284.00 6799.48 85.00
1297 9.8760 7460.00 6742.14 86.00
1298 9.8820 7673.00 6692.74 88.00
1299 9.8880 8218.00 6649.78 91.00
1300 9.8940 9378.00 6612.09 97.00
1301 9.9000 10668.00 6416.62 103.00
1302 9.9060 11754.00 6266.38 108.00
1303 9.9120 11515.00 6262.30 107.00
1304 9.9180 10341.00 7423.41 102.00
1305 9.9240 9159.00 7534.76 96.00
1306 9.9300 8381.00 7664.16 92.00
1307 9.9360 8192.00 7815.49 91.00
1308 9.9420 8100.00 7993.89 90.00
1309 9.9480 7872.00 8205.94 89.00
1310 9.9540 8102.00 8460.52 90.00
1311 9.9600 8378.00 8769.44 92.00
1312 9.9660 8692.00 9149.10 93.00
1313 9.9720 9325.00 9622.36 97.00
1314 9.9780 9817.00 10222.10 99.00
1315 9.9840 10639.00 10997.20 103.00
1316 9.9900 10890.00 12021.80 104.00
1317 9.9960 11489.00 13414.70 107.00
1318 10.0020 12954.00 15371.30 114.00
1319 10.0080 14961.00 18236.90 122.00
1320 10.0140 18719.00 22664.20 137.00
1321 10.0200 26582.00 30236.20 163.00
1322 10.0260 44635.00 48372.40 211.00
1323 10.0320 100346.00 117260.00 317.00
1324 10.0380 308240.00 339934.00 555.00
1325 10.0440 685482.00 702006.00 828.00
1326 10.0500 764991.00 748096.00 875.00
1327 10.0560 415508.00 395769.00 645.00
1328 10.0620 137034.00 140197.00 370.00
1329 10.0680 52765.00 54148.50 230.00
1330 10.0740 31460.00 32033.90 177.00
1331 10.0800 23362.00 23576.50 153.00
1332 10.0860 19087.00 18779.30 138.00
1333 10.0920 17128.00 15706.60 131.00
1334 10.0980 15668.00 13621.80 125.00
1335 10.1040 14704.00 12144.30 121.00
1336 10.1100 13616.00 11060.80 117.00
1337 10.1160 12800.00 10242.50 113.00
1338 10.1220 12435.00 9609.73 112.00
1339 10.1280 11743.00 9110.11 108.00
1340 10.1340 11505.00 8708.76 107.00
1341 10.1400 10604.00 8381.24 103.00
1342 10.1460 10142.00 8110.52 101.00
1343 10.1520 10030.00 7883.97 100.00
1344 10.1580 10114.00 7692.42 101.00
1345 10.1640 9914.00 7531.25 100.00
1346 10.1700 9573.00 7390.63 98.00
1347 10.1760 9284.00 7268.65 96.00
1348 10.1820 8966.00 6081.82 95.00
1349 10.1880 8584.00 6078.12 93.00
1350 10.1940 8332.00 6074.48 91.00
1351 10.2000 7910.00 6070.92 89.00
1352 10.2060 7654.00 6067.48 87.00
1353 10.2120 7851.00 6064.19 89.00
1354 10.2180 7698.00 6061.08 88.00
1355 10.2240 7566.00 6058.24 87.00
1356 10.2300 7458.00 6055.75 86.00
1357 10.2360 7403.00 6053.78 86.00
1358 10.2420 7414.00 6052.56 86.00
1359 10.2480 7249.00 6052.50 85.00
1360 10.2540 7474.00 6054.31 86.00
1361 10.2600 7447.00 6059.34 86.00
1362 10.2660 7633.00 6070.87 87.00
1363 10.2720 7657.00 6104.35 88.00
1364 10.2780 7705.00 6242.11 88.00
1365 10.2840 7980.00 6690.07 89.00
1366 10.2900 8577.00 7408.83 93.00
1367 10.2960 8312.00 7478.86 91.00
1368 10.3020 7563.00 6767.37 87.00
1369 10.3080 6994.00 6258.69 84.00
1370 10.3140 6674.00 6085.20 82.00
1371 10.3200 6777.00 6037.14 82.00
1372 10.3260 6796.00 6016.01 82.00
1373 10.3320 7113.00 6002.23 84.00
1374 10.3380 6953.00 5991.92 83.00
1375 10.3440 6657.00 5983.62 82.00
1376 10.3500 6512.00 5976.55 81.00
1377 10.3560 6591.00 5970.28 81.00
1378 10.3620 6252.00 5964.54 79.00
1379 10.3680 6464.00 5959.18 80.00
1380 10.3740 6609.00 5954.09 81.00
1381 10.3800 6839.00 5942.66 83.00
1382 10.3860 6878.00 5928.11 83.00
1383 10.3920 6818.00 5913.67 83.00
1384 10.3980 6530.00 5899.33 81.00
1385 10.4040 6413.00 5885.05 80.00
1386 10.4100 6188.00 5870.83 79.00
1387 10.4160 6022.00 5856.66 78.00
1388 10.4220 6044.00 5842.52 78.00
1389 10.4280 6164.00 5826.22 79.00
1390 10.4340 6055.00 5812.32 78.00
1391 10.4400 6067.00 5798.43 78.00
1392 10.4460 6096.00 5784.54 78.00
1393 10.4520 6175.00 5770.64 79.00
1394 10.4580 6158.00 5756.75 78.00
1395 10.4640 6175.00 5742.85 79.00
1396 10.4700 6441.00 5728.96 80.00
1397 10.4760 6629.00 5715.06 81.00
1398 10.4820 7001.00 5701.17 84.00
1399 10.4880 7527.00 5687.27 87.00
1400 10.4940 7952.00 5673.38 89.00
1401 10.5000 8186.00 5659.49 90.00
1402 10.5060 8248.00 5645.59 91.00
1403 10.5120 8206.00 5631.70 91.00
1404 10.5180 7819.00 5617.80 88.00
1405 10.5240 7578.00 5603.91 87.00
1406 10.5300 7043.00 5590.01 84.00
1407 10.5360 6728.00 5576.12 82.00
1408 10.5420 6359.00 5562.23 80.00
1409 10.5480 6178.00 5548.33 79.00
1410 10.5540 6052.00 5534.44 78.00
1411 10.5600 6039.00 5520.54 78.00
1412 10.5660 5906.00 5506.65 77.00
1413 10.5720 5955.00 5492.75 77.00
1414 10.5780 5736.00 5478.86 76.00
1415 10.5840 5714.00 5464.97 76.00
1416 10.5900 5635.00 5451.07 75.00
1417 10.5960 5707.00 5437.18 76.00
1418 10.6020 5553.00 5423.28 75.00
1419 10.6080 5514.00 5409.39 74.00
1420 10.6140 5430.00 5395.49 74.00
1421 10.6200 5445.00 5381.60 74.00
1422 10.6260 5588.00 5367.70 75.00
1423 10.6320 5511.00 5353.81 74.00
1424 10.6380 5299.00 5339.92 73.00
1425 10.6440 5370.00 5326.02 73.00
1426 10.6500 5327.00 5312.13 73.00
1427 10.6560 5328.00 5298.23 73.00
1428 10.6620 5338.00 5284.34 73.00
1429 10.6680 5307.00 5270.44 73.00
1430 10.6740 5247.00 5256.55 72.00
1431 10.6800 5272.00 5242.65 73.00
1432 10.6860 5233.00 5228.76 72.00
1433 10.6920 5195.00 5214.86 72.00
1434 10.6980 5083.00 5200.97 71.00
1435 10.7040 5055.00 5187.08 71.00
1436 10.7100 5008.00 5173.18 71.00
1437 10.7160 5082.00 5159.29 71.00
1438 10.7220 5144.00 5145.39 72.00
1439 10.7280 5040.00 5131.50 71.00
1440 10.7340 4957.00 5117.60 70.00
1441 10.7400 5034.00 5103.71 71.00
1442 10.7460 5117.00 5089.81 72.00
1443 10.7520 5051.00 5075.92 71.00
1444 10.7580 5009.00 5062.03 71.00
1445 10.7640 4926.00 5048.13 70.00
1446 10.7700 4900.00 5034.24 70.00
1447 10.7760 4987.00 5024.03 71.00
1448 10.7820 4947.00 5021.19 70.00
1449 10.7880 5003.00 5018.35 71.00
1450 10.7940 5018.00 5015.51 71.00
1451 10.8000 5134.00 5012.67 72.00
1452 10.8060 5351.00 5009.83 73.00
1453 10.8120 5429.00 5006.99 74.00
1454 10.8180 5413.00 5004.15 74.00
1455 10.8240 5160.00 5001.31 72.00
1456 10.8300 4989.00 4998.47 71.00
1457 10.8360 4974.00 4995.63 71.00
1458 10.8420 5010.00 4992.79 71.00
1459 10.8480 5240.00 4989.95 72.00
1460 10.8540 5284.00 4987.11 73.00
1461 10.8600 5294.00 4984.27 73.00
1462 10.8660 5281.00 5015.54 73.00
1463 10.8720 5167.00 5016.00 72.00
1464 10.8780 5179.00 5016.96 72.00
1465 10.8840 5385.00 5018.53 73.00
1466 10.8900 5872.00 5020.84 77.00
1467 10.8960 6379.00 5024.08 80.00
1468 10.9020 7076.00 5028.47 84.00
1469 10.9080 7482.00 5034.33 86.00
1470 10.9140 7206.00 5042.09 85.00
1471 10.9200 6656.00 5052.33 82.00
1472 10.9260 5949.00 5065.89 77.00
1473 10.9320 5515.00 5083.99 74.00
1474 10.9380 5186.00 5108.47 72.00
1475 10.9440 4991.00 5142.18 71.00
1476 10.9500 5040.00 5189.73 71.00
1477 10.9560 4973.00 5259.01 71.00
1478 10.9620 5120.00 5364.30 72.00
1479 10.9680 5308.00 5534.95 73.00
1480 10.9740 5485.00 5865.68 74.00
1481 10.9800 6482.00 6881.88 81.00
1482 10.9860 9816.00 10651.60 99.00
1483 10.9920 17554.00 19625.80 132.00
1484 10.9980 23918.00 27552.10 155.00
1485 11.0040 19931.00 21473.60 141.00
1486 11.0100 11053.00 11802.50 105.00
1487 11.0160 6528.00 7226.27 81.00
1488 11.0220 5368.00 5938.92 73.00
1489 11.0280 5067.00 5547.27 71.00
1490 11.0340 4872.00 5354.10 70.00
1491 11.0400 4800.00 5249.54 69.00
1492 11.0460 4782.00 5171.13 69.00
1493 11.0520 4787.00 5116.53 69.00
1494 11.0580 4761.00 5077.12 69.00
1495 11.0640 4740.00 5047.91 69.00
1496 11.0700 4756.00 5025.90 69.00
1497 11.0760 4637.00 5009.20 68.00
1498 11.0820 4583.00 4996.68 68.00
1499 11.0880 4703.00 4987.64 69.00
1500 11.0940 4847.00 4981.71 70.00
1501 11.1000 4948.00 4978.86 70.00
1502 11.1060 5130.00 4979.33 72.00
1503 11.1120 5370.00 4983.75 73.00
1504 11.1180 5555.00 4993.33 75.00
1505 11.1240 5458.00 5010.19 74.00
1506 11.1300 5256.00 5038.15 72.00
1507 11.1360 5102.00 5052.74 71.00
1508 11.1420 5037.00 5136.14 71.00
1509 11.1480 5143.00 5317.97 72.00
1510 11.1540 5725.00 5950.22 76.00
1511 11.1600 8040.00 8113.18 90.00
1512 11.1660 11935.00 12289.10 109.00
1513 11.1720 13342.00 14178.20 116.00
1514 11.1780 10629.00 10466.30 103.00
1515 11.1840 7486.00 6949.07 87.00
1516 11.1900 5874.00 5569.68 77.00
1517 11.1960 5265.00 5197.96 73.00
1518 11.2020 4860.00 5066.68 70.00
1519 11.2080 4724.00 4994.65 69.00
1520 11.2140 4750.00 4948.23 69.00
1521 11.2200 4720.00 4916.14 69.00
1522 11.2260 4707.00 4892.77 69.00
1523 11.2320 4675.00 4874.98 68.00
1524 11.2380 4597.00 4860.93 68.00
1525 11.2440 4562.00 4849.47 68.00
1526 11.2500 4659.00 4839.86 68.00
1527 11.2560 4680.00 4831.62 68.00
1528 11.2620 4669.00 4824.39 68.00
1529 11.2680 4699.00 4817.95 69.00
1530 11.2740 4780.00 4812.10 69.00
1531 11.2800 4815.00 4806.74 69.00
1532 11.2860 4776.00 5010.68 69.00
1533 11.2920 4749.00 5250.85 69.00
1534 11.2980 4775.00 5292.45 69.00
1535 11.3040 4779.00 5341.61 69.00
1536 11.3100 4815.00 5386.87 69.00
1537 11.3160 4960.00 5457.60 70.00
1538 11.3220 5011.00 5542.32 71.00
1539 11.3280 5085.00 5644.85 71.00
1540 11.3340 5221.00 5770.28 72.00
1541 11.3400 5385.00 5925.81 73.00
1542 11.3460 5587.00 6121.56 75.00
1543 11.3520 5754.00 6372.39 76.00
1544 11.3580 6114.00 6700.60 78.00
1545 11.3640 6519.00 7140.94 81.00
1546 11.3700 6878.00 7749.84 83.00
1547 11.3760 7615.00 8624.25 87.00
1548 11.3820 8871.00 9941.20 94.00
1549 11.3880 10804.00 12087.80 104.00
1550 11.3940 15218.00 16509.20 123.00
1551 11.4000 27841.00 30509.40 167.00
1552 11.4060 74520.00 76581.50 273.00
1553 11.4120 177590.00 172248.00 421.00
1554 11.4180 252810.00 247550.00 503.00
1555 11.4240 203253.00 203047.00 451.00
1556 11.4300 100252.00 99881.60 317.00
1557 11.4360 39953.00 39092.50 200.00
1558 11.4420 18951.00 18877.50 138.00
1559 11.4480 12384.00 12969.80 111.00
1560 11.4540 9512.00 10417.00 98.00
1561 11.4600 7981.00 8910.87 89.00
1562 11.4660 7243.00 7925.95 85.00
1563 11.4720 6560.00 7246.75 81.00
1564 11.4780 6079.00 6759.00 78.00
1565 11.4840 5726.00 6396.88 76.00
1566 11.4900 5486.00 6120.66 74.00
1567 11.4960 5335.00 5905.00 73.00
1568 11.5020 5228.00 5733.31 72.00
1569 11.5080 5063.00 5594.29 71.00
1570 11.5140 4850.00 5480.05 70.00
1571 11.5200 4740.00 5384.91 69.00
1572 11.5260 4744.00 5304.76 69.00
1573 11.5320 4723.00 5236.53 69.00
1574 11.5380 4628.00 5177.86 68.00
1575 11.5440 4545.00 5127.01 67.00
1576 11.5500 4473.00 5082.57 67.00
1577 11.5560 4515.00 4863.79 67.00
1578 11.5620 4473.00 4652.02 67.00
1579 11.5680 4419.00 4649.18 66.00
1580 11.5740 4391.00 4646.34 66.00
1581 11.5800 4421.00 4643.50 66.00
1582 11.5860 4373.00 4640.66 66.00
1583 11.5920 4285.00 4637.82 65.00
1584 11.5980 4237.00 4634.98 65.00
1585 11.6040 4258.00 4632.14 65.00
1586 11.6100 4298.00 4629.30 66.00
1587 11.6160 4262.00 4626.46 65.00
1588 11.6220 4240.00 4623.62 65.00
1589 11.6280 4209.00 4620.78 65.00
1590 11.6340 4136.00 4617.94 64.00
1591 11.6400 4151.00 4615.10 64.00
1592 11.6460 4176.00 4612.26 65.00
1593 11.6520 4274.00 4609.42 65.00
1594 11.6580 4387.00 4606.58 66.00
1595 11.6640 4394.00 4603.74 66.00
1596 11.6700 4401.00 4600.90 66.00
1597 11.6760 4335.00 4598.06 66.00
1598 11.6820 4356.00 4595.22 66.00
1599 11.6880 4437.00 4592.38 67.00
1600 11.6940 4384.00 4589.54 66.00
1601 11.7000 4473.00 4586.71 67.00
1602 11.7060 4622.00 4583.86 68.00
1603 11.7120 5013.00 4581.03 71.00
1604 11.7180 5952.00 4578.19 77.00
1605 11.7240 8234.00 4575.35 91.00
1606 11.7300 10573.00 4572.51 103.00
1607 11.7360 10593.00 4569.67 103.00
1608 11.7420 8317.00 4566.83 91.00
1609 11.7480 6108.00 4563.99 78.00
1610 11.7540 4986.00 4561.15 71.00
1611 11.7600 4539.00 4558.31 67.00
1612 11.7660 4321.00 4555.47 66.00
1613 11.7720 4218.00 4552.63 65.00
1614 11.7780 4213.00 4549.79 65.00
1615 11.7840 4213.00 4546.95 65.00
1616 11.7900 4139.00 4544.11 64.00
1617 11.7960 4067.00 4541.27 64.00
1618 11.8020 4035.00 4538.43 64.00
1619 11.8080 4037.00 4535.59 64.00
1620 11.8140 4018.00 4532.75 63.00
1621 11.8200 4049.00 4529.91 64.00
1622 11.8260 4040.00 4527.07 64.00
1623 11.8320 4055.00 4524.23 64.00
1624 11.8380 3992.00 4521.39 63.00
1625 11.8440 4079.00 4518.55 64.00
1626 11.8500 4049.00 4515.71 64.00
1627 11.8560 3923.00 4512.87 63.00
1628 11.8620 3988.00 4510.03 63.00
1629 11.8680 4017.00 4507.19 63.00
1630 11.8740 3988.00 4504.35 63.00
1631 11.8800 3964.00 4501.51 63.00
1632 11.8860 4004.00 4498.67 63.00
1633 11.8920 3970.00 4495.83 63.00
1634 11.8980 3983.00 4492.99 63.00
1635 11.9040 4022.00 4490.15 63.00
1636 11.9100 4026.00 4487.31 63.00
1637 11.9160 3992.00 4484.47 63.00
1638 11.9220 3969.00 4481.63 63.00
1639 11.9280 4005.00 4478.79 63.00
1640 11.9340 4070.00 4475.95 64.00
1641 11.9400 4119.00 4473.11 64.00
1642 11.9460 4056.00 4470.27 64.00
1643 11.9520 3980.00 4485.77 63.00
1644 11.9580 4060.00 4484.71 64.00
1645 11.9640 4175.00 4483.93 65.00
1646 11.9700 4067.00 4483.48 64.00
1647 11.9760 4092.00 4483.43 64.00
1648 11.9820 4232.00 4483.89 65.00
1649 11.9880 4190.00 4484.99 65.00
1650 11.9940 4088.00 4486.89 64.00
1651 12.0000 4044.00 4489.84 64.00
1652 12.0060 4079.00 4494.15 64.00
1653 12.0120 4123.00 4500.30 64.00
1654 12.0180 4087.00 4508.97 64.00
1655 12.0240 4132.00 4521.20 64.00
1656 12.0300 4201.00 4538.58 65.00
1657 12.0360 4225.00 4563.77 65.00
1658 12.0420 4267.00 4601.25 65.00
1659 12.0480 4374.00 4659.31 66.00
1660 12.0540 4498.00 4755.57 67.00
1661 12.0600 4672.00 4952.97 68.00
1662 12.0660 5372.00 5586.44 73.00
1663 12.0720 7792.00 7774.61 88.00
1664 12.0780 13262.00 12393.00 115.00
1665 12.0840 16811.00 15485.50 130.00
1666 12.0900 12662.00 11810.80 113.00
1667 12.0960 7358.00 7396.86 86.00
1668 12.1020 5255.00 5450.90 72.00
1669 12.1080 4570.00 4897.57 68.00
1670 12.1140 4270.00 4713.23 65.00
1671 12.1200 4199.00 4617.06 65.00
1672 12.1260 4162.00 4556.21 65.00
1673 12.1320 4161.00 4514.73 65.00
1674 12.1380 4072.00 4484.91 64.00
1675 12.1440 4098.00 4462.51 64.00
1676 12.1500 4076.00 4445.07 64.00
1677 12.1560 4021.00 4431.04 63.00
1678 12.1620 4076.00 4419.44 64.00
1679 12.1680 4097.00 4409.62 64.00
1680 12.1740 4076.00 4401.13 64.00
1681 12.1800 3895.00 4393.65 62.00
1682 12.1860 3912.00 4386.95 63.00
1683 12.1920 4032.00 4380.87 63.00
1684 12.1980 4087.00 4375.28 64.00
1685 12.2040 4167.00 4370.09 65.00
1686 12.2100 4212.00 4365.23 65.00
1687 12.2160 4181.00 4360.63 65.00
1688 12.2220 4288.00 4339.65 65.00
1689 12.2280 4070.00 4336.81 64.00
1690 12.2340 4059.00 4333.97 64.00
1691 12.2400 4038.00 4331.13 64.00
1692 12.2460 4032.00 4328.29 63.00
1693 12.2520 3977.00 4325.45 63.00
1694 12.2580 3959.00 4322.61 63.00
1695 12.2640 3855.00 4319.77 62.00
1696 12.2700 3946.00 4316.93 63.00
1697 12.2760 4079.00 4314.09 64.00
1698 12.2820 4043.00 4311.25 64.00
1699 12.2880 4059.00 4308.41 64.00
1700 12.2940 3977.00 4305.57 63.00
1701 12.3000 4018.00 4302.73 63.00
1702 12.3060 3941.00 4299.89 63.00
1703 12.3120 3936.00 4297.05 63.00
1704 12.3180 3976.00 4294.21 63.00
1705 12.3240 3998.00 4291.37 63.00
1706 12.3300 4027.00 4288.53 63.00
1707 12.3360 4132.00 4285.69 64.00
1708 12.3420 4141.00 4282.85 64.00
1709 12.3480 4203.00 4280.01 65.00
1710 12.3540 4124.00 4277.17 64.00
1711 12.3600 4090.00 4274.33 64.00
1712 12.3660 4152.00 4271.49 64.00
1713 12.3720 4064.00 4268.65 64.00
1714 12.3780 3984.00 4265.81 63.00
1715 12.3840 4087.00 4262.97 64.00
1716 12.3900 4018.00 4260.13 63.00
1717 12.3960 3839.00 4257.29 62.00
1718 12.4020 3933.00 4254.45 63.00
1719 12.4080 3920.00 4251.61 63.00
1720 12.4140 3942.00 4248.77 63.00
1721 12.4200 3939.00 4245.93 63.00
1722 12.4260 3886.00 4243.09 62.00
1723 12.4320 3948.00 4240.25 63.00
1724 12.4380 3916.00 4237.41 63.00
1725 12.4440 4046.00 4234.57 64.00
1726 12.4500 4103.00 4231.73 64.00
1727 12.4560 4098.00 4228.89 64.00
1728 12.4620 4110.00 4226.06 64.00
1729 12.4680 4144.00 4223.21 64.00
1730 12.4740 4245.00 4220.38 65.00
1731 12.4800 4368.00 4217.54 66.00
1732 12.4860 4682.00 4214.70 68.00
1733 12.4920 5309.00 4211.86 73.00
1734 12.4980 5322.00 4209.02 73.00
1735 12.5040 4894.00 4206.18 70.00
1736 12.5100 4539.00 4203.34 67.00
1737 12.5160 4438.00 4200.50 67.00
1738 12.5220 4163.00 4197.66 65.00
1739 12.5280 4255.00 4194.82 65.00
1740 12.5340 4292.00 4191.98 66.00
1741 12.5400 4289.00 4189.14 65.00
1742 12.5460 4152.00 4186.30 64.00
1743 12.5520 4324.00 4183.46 66.00
1744 12.5580 4346.00 4180.62 66.00
1745 12.5640 4244.00 4177.78 65.00
1746 12.5700 4289.00 4174.94 65.00
1747 12.5760 4211.00 4172.10 65.00
1748 12.5820 4183.00 4169.26 65.00
1749 12.5880 4105.00 4166.42 64.00
1750 12.5940 4185.00 4163.58 65.00
1751 12.6000 4291.00 4164.45 66.00
1752 12.6060 4399.00 4165.33 66.00
1753 12.6120 4516.00 4166.20 67.00
1754 12.6180 4494.00 4167.07 67.00
1755 12.6240 4326.00 4167.95 66.00
1756 12.6300 4203.00 4168.82 65.00
1757 12.6360 4175.00 4169.69 65.00
1758 12.6420 4284.00 4170.57 65.00
1759 12.6480 4135.00 4171.44 64.00
1760 12.6540 4058.00 4172.32 64.00
1761 12.6600 4013.00 4173.19 63.00
1762 12.6660 4092.00 4174.06 64.00
1763 12.6720 4016.00 4174.94 63.00
1764 12.6780 3967.00 4175.81 63.00
1765 12.6840 4018.00 4176.68 63.00
1766 12.6900 4057.00 4177.56 64.00
1767 12.6960 4071.00 4178.43 64.00
1768 12.7020 4015.00 4179.30 63.00
1769 12.7080 4102.00 4180.18 64.00
1770 12.7140 4102.00 4181.05 64.00
1771 12.7200 3969.00 4181.92 63.00
1772 12.7260 3976.00 4182.80 63.00
1773 12.7320 4109.00 4183.67 64.00
1774 12.7380 4057.00 4184.55 64.00
1775 12.7440 4040.00 4185.42 64.00
1776 12.7500 4096.00 4186.29 64.00
1777 12.7560 4024.00 4187.17 63.00
1778 12.7620 4127.00 4188.04 64.00
1779 12.7680 4047.00 4188.91 64.00
1780 12.7740 4073.00 4189.79 64.00
1781 12.7800 4070.00 4190.66 64.00
1782 12.7860 4201.00 4191.53 65.00
1783 12.7920 4187.00 4192.41 65.00
1784 12.7980 3977.00 4193.28 63.00
1785 12.8040 4153.00 4194.15 64.00
1786 12.8100 4232.00 4195.03 65.00
1787 12.8160 4200.00 4195.90 65.00
1788 12.8220 4201.00 4196.77 65.00
1789 12.8280 4062.00 4197.65 64.00
1790 12.8340 4057.00 4198.52 64.00
1791 12.8400 4311.00 4199.40 66.00
1792 12.8460 4166.00 4200.27 65.00
1793 12.8520 4122.00 4201.14 64.00
1794 12.8580 4182.00 4202.02 65.00
1795 12.8640 4275.00 4202.89 65.00
1796 12.8700 4274.00 4203.76 65.00
1797 12.8760 4375.00 4204.64 66.00
1798 12.8820 4421.00 4205.51 66.00
1799 12.8880 4304.00 4206.38 66.00
1800 12.8940 4349.00 4207.26 66.00
1801 12.9000 4338.00 4208.13 66.00
1802 12.9060 4292.00 4209.00 66.00
1803 12.9120 4171.00 4209.88 65.00
1804 12.9180 4168.00 4210.75 65.00
1805 12.9240 4270.00 4211.62 65.00
1806 12.9300 4082.00 4212.50 64.00
1807 12.9360 4122.00 4213.37 64.00
1808 12.9420 4241.00 4214.25 65.00
1809 12.9480 4209.00 4215.12 65.00
1810 12.9540 4340.00 4215.99 66.00
1811 12.9600 4541.00 4216.87 67.00
1812 12.9660 4761.00 4217.74 69.00
1813 12.9720 4753.00 4218.61 69.00
1814 12.9780 4751.00 4219.49 69.00
1815 12.9840 4613.00 4220.36 68.00
1816 12.9900 4447.00 4221.23 67.00
1817 12.9960 4400.00 4222.11 66.00
1818 13.0020 4211.00 4222.98 65.00
1819 13.0080 4125.00 4223.85 64.00
1820 13.0140 4154.00 4224.73 64.00
1821 13.0200 4159.00 4225.60 64.00
1822 13.0260 4121.00 4226.48 64.00
1823 13.0320 4165.00 4227.35 65.00
1824 13.0380 4140.00 4228.22 64.00
1825 13.0440 4338.00 4229.10 66.00
1826 13.0500 4458.00 4229.97 67.00
1827 13.0560 4149.00 4230.84 64.00
1828 13.0620 4212.00 4231.72 65.00
1829 13.0680 4200.00 4232.59 65.00
1830 13.0740 4084.00 4233.46 64.00
1831 13.0800 4101.00 4234.34 64.00
1832 13.0860 4044.00 4235.21 64.00
1833 13.0920 4227.00 4236.08 65.00
1834 13.0980 4314.00 4236.96 66.00
1835 13.1040 4167.00 4237.83 65.00
1836 13.1100 4202.00 4257.83 65.00
1837 13.1160 4187.00 4282.40 65.00
1838 13.1220 4254.00 4287.42 65.00
1839 13.1280 4116.00 4293.07 64.00
1840 13.1340 4197.00 4299.48 65.00
1841 13.1400 4158.00 4306.83 64.00
1842 13.1460 4303.00 4315.35 66.00
1843 13.1520 4236.00 4325.32 65.00
1844 13.1580 4243.00 4337.14 65.00
1845 13.1640 4307.00 4351.35 66.00
1846 13.1700 4324.00 4368.70 66.00
1847 13.1760 4405.00 4390.24 66.00
1848 13.1820 4507.00 4417.54 67.00
1849 13.1880 4435.00 4452.91 67.00
1850 13.1940 4338.00 4500.00 66.00
1851 13.2000 4535.00 4564.70 67.00
1852 13.2060 4588.00 4657.17 68.00
1853 13.2120 4879.00 4795.96 70.00
1854 13.2180 4843.00 5022.40 70.00
1855 13.2240 5259.00 5489.47 73.00
1856 13.2300 6307.00 6914.88 79.00
1857 13.2360 9750.00 11339.00 99.00
1858 13.2420 19624.00 20142.00 140.00
1859 13.2480 25358.00 26683.70 159.00
1860 13.2540 19116.00 21820.20 138.00
1861 13.2600 10915.00 12563.50 104.00
1862 13.2660 7295.00 7375.52 85.00
1863 13.2720 5753.00 5629.92 76.00
1864 13.2780 5106.00 5236.08 71.00
1865 13.2840 5039.00 5002.60 71.00
1866 13.2900 4917.00 4871.10 70.00
1867 13.2960 4922.00 4793.06 70.00
1868 13.3020 4908.00 4748.20 70.00
1869 13.3080 4899.00 4726.10 70.00
1870 13.3140 5155.00 4721.21 72.00
1871 13.3200 5171.00 5342.21 72.00
1872 13.3260 5061.00 5421.80 71.00
1873 13.3320 5378.00 5523.71 73.00
1874 13.3380 5475.00 5651.66 74.00
1875 13.3440 5729.00 5811.38 76.00
1876 13.3500 5835.00 6011.62 76.00
1877 13.3560 5975.00 6265.40 77.00
1878 13.3620 6500.00 6592.90 81.00
1879 13.3680 6690.00 7025.81 82.00
1880 13.3740 7274.00 7617.49 85.00
1881 13.3800 8284.00 8464.03 91.00
1882 13.3860 9667.00 9761.47 98.00
1883 13.3920 12591.00 12366.80 112.00
1884 13.3980 20871.00 20232.70 144.00
1885 13.4040 47354.00 43185.70 218.00
1886 13.4100 91996.00 82609.80 303.00
1887 13.4160 98401.00 96918.50 314.00
1888 13.4220 69143.00 63893.30 263.00
1889 13.4280 41454.00 36142.00 204.00
1890 13.4340 33114.00 30017.00 182.00
1891 13.4400 43493.00 45084.00 209.00
1892 13.4460 97844.00 106696.00 313.00
1893 13.4520 261237.00 247394.00 511.00
1894 13.4580 408039.00 373655.00 639.00
1895 13.4640 291815.00 283887.00 540.00
1896 13.4700 108278.00 129477.00 329.00
1897 13.4760 41619.00 50270.50 204.00
1898 13.4820 23522.00 25422.70 153.00
1899 13.4880 15496.00 17492.00 124.00
1900 13.4940 11984.00 13646.30 109.00
1901 13.5000 9935.00 11289.90 100.00
1902 13.5060 8760.00 9724.29 94.00
1903 13.5120 7956.00 8632.25 89.00
1904 13.5180 7138.00 7840.92 84.00
1905 13.5240 6644.00 7249.21 82.00
1906 13.5300 6515.00 6795.36 81.00
1907 13.5360 6313.00 6439.56 79.00
1908 13.5420 5952.00 6155.49 77.00
1909 13.5480 5805.00 5925.09 76.00
1910 13.5540 5671.00 5591.04 75.00
1911 13.5600 5545.00 5445.03 74.00
1912 13.5660 5292.00 5322.75 73.00
1913 13.5720 5292.00 5219.35 73.00
1914 13.5780 5197.00 5131.15 72.00
1915 13.5840 5095.00 5055.37 71.00
1916 13.5900 5050.00 4989.78 71.00
1917 13.5960 4999.00 4932.67 71.00
1918 13.6020 5115.00 4310.34 72.00
1919 13.6080 5129.00 4311.21 72.00
1920 13.6140 5244.00 4312.08 72.00
1921 13.6200 5329.00 4312.96 73.00
1922 13.6260 5495.00 4313.83 74.00
1923 13.6320 5615.00 4314.70 75.00
1924 13.6380 5690.00 4315.58 75.00
1925 13.6440 5912.00 4316.45 77.00
1926 13.6500 6018.00 4317.32 78.00
1927 13.6560 6195.00 4318.20 79.00
1928 13.6620 6014.00 4319.07 78.00
1929 13.6680 6067.00 4319.94 78.00
1930 13.6740 6048.00 4320.82 78.00
1931 13.6800 5813.00 4321.69 76.00
1932 13.6860 5510.00 4322.56 74.00
1933 13.6920 5441.00 4323.44 74.00
1934 13.6980 5248.00 4324.31 72.00
1935 13.7040 5041.00 4325.19 71.00
1936 13.7100 5046.00 4326.06 71.00
1937 13.7160 4947.00 4326.93 70.00
1938 13.7220 4821.00 4327.81 69.00
1939 13.7280 4672.00 4328.68 68.00
1940 13.7340 4580.00 4329.55 68.00
1941 13.7400 4551.00 4330.43 67.00
1942 13.7460 4657.00 4331.30 68.00
1943 13.7520 4492.00 4332.17 67.00
1944 13.7580 4651.00 4333.05 68.00
1945 13.7640 4533.00 4333.92 67.00
1946 13.7700 4466.00 4334.79 67.00
1947 13.7760 4531.00 4335.67 67.00
1948 13.7820 4500.00 4336.54 67.00
1949 13.7880 4572.00 4337.42 68.00
1950 13.7940 4517.00 4338.29 67.00
1951 13.8000 4372.00 4339.16 66.00
1952 13.8060 4340.00 4340.04 66.00
1953 13.8120 4344.00 4340.91 66.00
1954 13.8180 4429.00 4341.78 67.00
1955 13.8240 4441.00 4342.66 67.00
1956 13.8300 4441.00 4343.53 67.00
1957 13.8360 4450.00 4344.40 67.00
1958 13.8420 4390.00 4345.28 66.00
1959 13.8480 4400.00 4346.15 66.00
1960 13.8540 4572.00 4347.02 68.00
1961 13.8600 4538.00 4347.90 67.00
1962 13.8660 4507.00 4348.77 67.00
1963 13.8720 4516.00 4349.64 67.00
1964 13.8780 4453.00 4350.52 67.00
1965 13.8840 4577.00 4351.39 68.00
1966 13.8900 4559.00 4352.27 68.00
1967 13.8960 4465.00 4353.14 67.00
1968 13.9020 4370.00 4354.01 66.00
1969 13.9080 4460.00 4354.89 67.00
1970 13.9140 4400.00 4355.76 66.00
1971 13.9200 4390.00 4356.63 66.00
1972 13.9260 4444.00 4357.51 67.00
1973 13.9320 4462.00 4358.38 67.00
1974 13.9380 4543.00 4359.25 67.00
1975 13.9440 4482.00 4360.13 67.00
1976 13.9500 4471.00 4361.00 67.00
1977 13.9560 4501.00 4361.87 67.00
1978 13.9620 4519.00 4362.75 67.00
1979 13.9680 4554.00 4363.62 67.00
1980 13.9740 4555.00 4364.50 67.00
1981 13.9800 4611.00 4365.37 68.00
1982 13.9860 4725.00 4366.24 69.00
1983 13.9920 4773.00 4367.12 69.00
1984 13.9980 4744.00 4367.99 69.00
1985 14.0040 4824.00 4368.86 69.00
1986 14.0100 5093.00 4369.74 71.00
1987 14.0160 5354.00 4370.61 73.00
1988 14.0220 5717.00 4371.48 76.00
1989 14.0280 5942.00 4372.36 77.00
1990 14.0340 5960.00 4373.23 77.00
1991 14.0400 5797.00 4374.10 76.00
1992 14.0460 5444.00 4374.98 74.00
1993 14.0520 5207.00 4375.85 72.00
1994 14.0580 5026.00 4376.72 71.00
1995 14.0640 4978.00 4377.60 71.00
1996 14.0700 4893.00 4378.47 70.00
1997 14.0760 4846.00 4379.35 70.00
1998 14.0820 4831.00 4619.22 70.00
1999 14.0880 4919.00 4642.50 70.00
2000 14.0940 4990.00 4669.09 71.00
2001 14.1000 5119.00 5009.92 72.00
2002 14.1060 5247.00 5074.28 72.00
2003 14.1120 5312.00 5148.86 73.00
2004 14.1180 5296.00 5235.93 73.00
2005 14.1240 5412.00 5338.55 74.00
2006 14.1300 5519.00 5460.71 74.00
2007 14.1360 5685.00 5607.76 75.00
2008 14.1420 5798.00 5787.11 76.00
2009 14.1480 6028.00 6009.08 78.00
2010 14.1540 6376.00 6288.52 80.00
2011 14.1600 6651.00 6647.40 82.00
2012 14.1660 7148.00 7119.56 85.00
2013 14.1720 8020.00 7758.80 90.00
2014 14.1780 9260.00 8655.98 96.00
2015 14.1840 11761.00 9975.06 108.00
2016 14.1900 16870.00 12083.50 130.00
2017 14.1960 27798.00 16377.00 167.00
2018 14.2020 47965.00 28944.50 219.00
2019 14.2080 74957.00 64180.00 274.00
2020 14.2140 103553.00 124501.00 322.00
2021 14.2200 131723.00 156376.00 363.00
2022 14.2260 160262.00 145325.00 400.00
2023 14.2320 185810.00 171720.00 431.00
2024 14.2380 177659.00 186797.00 421.00
2025 14.2440 121925.00 119052.00 349.00
2026 14.2500 63110.00 53591.00 251.00
2027 14.2560 31775.00 24557.00 178.00
2028 14.2620 19495.00 15324.70 140.00
2029 14.2680 14663.00 11812.00 121.00
2030 14.2740 12129.00 9888.66 110.00
2031 14.2800 10668.00 8641.64 103.00
2032 14.2860 9847.00 7786.94 99.00
2033 14.2920 9317.00 7177.14 97.00
2034 14.2980 9136.00 6728.54 96.00
2035 14.3040 9437.00 6390.92 97.00
2036 14.3100 10363.00 6132.69 102.00
2037 14.3160 12039.00 5933.64 110.00
2038 14.3220 13790.00 5780.51 117.00
2039 14.3280 13490.00 5664.83 116.00
2040 14.3340 11700.00 5581.83 108.00
2041 14.3400 9922.00 5529.79 100.00
2042 14.3460 8590.00 5510.58 93.00
2043 14.3520 8070.00 5530.96 90.00
2044 14.3580 7918.00 5606.17 89.00
2045 14.3640 8103.00 5562.21 90.00
2046 14.3700 8986.00 5960.73 95.00
2047 14.3760 10965.00 7175.87 105.00
2048 14.3820 13968.00 10731.30 118.00
2049 14.3880 16534.00 18584.90 129.00
2050 14.3940 17757.00 24681.30 133.00
2051 14.4000 17635.00 20366.00 133.00
2052 14.4060 16831.00 15227.80 130.00
2053 14.4120 14921.00 13541.20 122.00
2054 14.4180 11616.00 10573.80 108.00
2055 14.4240 8439.00 7402.50 92.00
2056 14.4300 6606.00 5776.25 81.00
2057 14.4360 5968.00 5192.31 77.00
2058 14.4420 5681.00 4960.17 75.00
2059 14.4480 5577.00 4830.71 75.00
2060 14.4540 5469.00 4745.48 74.00
2061 14.4600 5438.00 4685.83 74.00
2062 14.4660 5455.00 4642.45 74.00
2063 14.4720 5398.00 4609.93 73.00
2064 14.4780 5426.00 4584.97 74.00
2065 14.4840 5467.00 4565.44 74.00
2066 14.4900 5404.00 4549.89 74.00
2067 14.4960 5435.00 4537.37 74.00
2068 14.5020 5438.00 4527.15 74.00
2069 14.5080 5408.00 4518.75 74.00
2070 14.5140 5391.00 4511.77 73.00
2071 14.5200 5384.00 4505.95 73.00
2072 14.5260 5278.00 4501.07 73.00
2073 14.5320 5123.00 4496.95 72.00
2074 14.5380 5110.00 4461.34 71.00
2075 14.5440 5140.00 4460.91 72.00
2076 14.5500 5104.00 4460.64 71.00
2077 14.5560 5088.00 4449.23 71.00
2078 14.5620 5000.00 4450.10 71.00
2079 14.5680 4964.00 4450.98 70.00
2080 14.5740 4962.00 4451.85 70.00
2081 14.5800 4974.00 4452.72 71.00
2082 14.5860 4946.00 4453.60 70.00
2083 14.5920 4894.00 4454.47 70.00
2084 14.5980 4792.00 4455.34 69.00
2085 14.6040 4925.00 4456.22 70.00
2086 14.6100 4906.00 4457.09 70.00
2087 14.6160 4967.00 4457.96 70.00
2088 14.6220 4929.00 4458.84 70.00
2089 14.6280 4850.00 4459.71 70.00
2090 14.6340 4930.00 4460.58 70.00
2091 14.6400 4846.00 4461.46 70.00
2092 14.6460 4901.00 4462.33 70.00
2093 14.6520 5021.00 4463.21 71.00
2094 14.6580 4946.00 4464.08 70.00
2095 14.6640 4868.00 4464.95 70.00
2096 14.6700 4942.00 4465.83 70.00
2097 14.6760 4820.00 4466.70 69.00
2098 14.6820 4656.00 4467.56 68.00
2099 14.6880 4615.00 4468.42 68.00
2100 14.6940 4610.00 4469.28 68.00
2101 14.7000 4576.00 4470.14 68.00
2102 14.7060 4611.00 4471.00 68.00
2103 14.7120 4573.00 4471.86 68.00
2104 14.7180 4791.00 4472.72 69.00
2105 14.7240 4803.00 4473.58 69.00
2106 14.7300 4868.00 4474.44 70.00
2107 14.7360 5126.00 4475.29 72.00
2108 14.7420 5195.00 4476.15 72.00
2109 14.7480 5138.00 4477.01 72.00
2110 14.7540 5183.00 4477.87 72.00
2111 14.7600 5110.00 4478.73 71.00
2112 14.7660 5142.00 4501.07 72.00
2113 14.7720 5112.00 4503.85 71.00
2114 14.7780 4998.00 4506.89 71.00
2115 14.7840 4952.00 4537.57 70.00
2116 14.7900 4912.00 4543.75 70.00
2117 14.7960 4925.00 4550.75 70.00
2118 14.8020 4823.00 4558.72 69.00
2119 14.8080 5016.00 4567.90 71.00
2120 14.8140 5099.00 4578.57 71.00
2121 14.8200 5111.00 4591.12 71.00
2122 14.8260 5191.00 4606.06 72.00
2123 14.8320 5425.00 4624.08 74.00
2124 14.8380 5573.00 4646.19 75.00
2125 14.8440 5795.00 4673.76 76.00
2126 14.8500 6213.00 4708.91 79.00
2127 14.8560 6487.00 4754.78 81.00
2128 14.8620 6955.00 4816.43 83.00
2129 14.8680 7402.00 4902.29 86.00
2130 14.8740 7777.00 5027.40 88.00
2131 14.8800 8137.00 5224.73 90.00
2132 14.8860 8786.00 5611.75 94.00
2133 14.8920 10522.00 6694.33 103.00
2134 14.8980 13036.00 9732.05 114.00
2135 14.9040 15941.00 15254.30 126.00
2136 14.9100 18519.00 19093.10 136.00
2137 14.9160 21027.00 18561.20 145.00
2138 14.9220 23293.00 20504.90 153.00
2139 14.9280 21281.00 21262.90 146.00
2140 14.9340 15412.00 14987.00 124.00
2141 14.9400 10136.00 9090.40 101.00
2142 14.9460 7256.00 6427.86 85.00
2143 14.9520 6338.00 5556.28 80.00
2144 14.9580 5889.00 5220.03 77.00
2145 14.9640 5632.00 5034.93 75.00
2146 14.9700 5755.00 4915.62 76.00
2147 14.9760 6048.00 4833.94 78.00
2148 14.9820 7020.00 4775.81 84.00
2149 14.9880 9014.00 4733.29 95.00
2150 14.9940 10280.00 4701.64 101.00
2151 15.0000 9354.00 4677.97 97.00
2152 15.0060 7584.00 4660.60 87.00
2153 15.0120 6171.00 4648.75 79.00
2154 15.0180 5535.00 4643.03 74.00
2155 15.0240 5114.00 4649.36 72.00
2156 15.0300 5146.00 4694.94 72.00
2157 15.0360 5357.00 4837.57 73.00
2158 15.0420 5678.00 5068.45 75.00
2159 15.0480 5852.00 5269.79 76.00
2160 15.0540 5511.00 5204.17 74.00
2161 15.0600 5137.00 5041.27 72.00
2162 15.0660 5295.00 4993.11 73.00
2163 15.0720 5334.00 4979.55 73.00
2164 15.0780 5378.00 5016.62 73.00
2165 15.0840 5341.00 5065.70 73.00
2166 15.0900 5556.00 5126.19 75.00
2167 15.0960 5763.00 5199.66 76.00
2168 15.1020 5640.00 5288.91 75.00
2169 15.1080 5590.00 5398.06 75.00
2170 15.1140 5662.00 5533.08 75.00
2171 15.1200 5708.00 5702.43 76.00
2172 15.1260 5931.00 5918.54 77.00
2173 15.1320 5903.00 6200.11 77.00
2174 15.1380 6342.00 6576.03 80.00
2175 15.1440 6730.00 7093.51 82.00
2176 15.1500 7276.00 7832.30 85.00
2177 15.1560 8329.00 8938.14 91.00
2178 15.1620 10041.00 10733.80 100.00
2179 15.1680 14100.00 14381.50 119.00
2180 15.1740 23445.00 24913.10 153.00
2181 15.1800 55873.00 55988.40 236.00
2182 15.1860 133571.00 117575.00 365.00
2183 15.1920 177833.00 168053.00 422.00
2184 15.1980 137893.00 137693.00 371.00
2185 15.2040 71463.00 71228.50 267.00
2186 15.2100 33369.00 31056.20 183.00
2187 15.2160 18263.00 16314.70 135.00
2188 15.2220 12041.00 11508.70 110.00
2189 15.2280 9172.00 9376.68 96.00
2190 15.2340 7817.00 8118.80 88.00
2191 15.2400 7091.00 7293.60 84.00
2192 15.2460 6606.00 6723.12 81.00
2193 15.2520 6252.00 6313.03 79.00
2194 15.2580 5734.00 6008.77 76.00
2195 15.2640 5584.00 5777.08 75.00
2196 15.2700 5426.00 5596.65 74.00
2197 15.2760 5337.00 5453.52 73.00
2198 15.2820 5065.00 5338.15 71.00
2199 15.2880 5037.00 5243.85 71.00
2200 15.2940 4884.00 5165.85 70.00
2201 15.3000 4869.00 5100.61 70.00
2202 15.3060 4717.00 5045.53 69.00
2203 15.3120 4638.00 4998.63 68.00
2204 15.3180 4784.00 4958.40 69.00
2205 15.3240 4584.00 4923.64 68.00
2206 15.3300 4641.00 4893.45 68.00
2207 15.3360 4548.00 4727.07 67.00
2208 15.3420 4346.00 4562.05 66.00
2209 15.3480 4482.00 4562.91 67.00
2210 15.3540 4483.00 4563.77 67.00
2211 15.3600 4498.00 4564.63 67.00
2212 15.3660 4476.00 4565.49 67.00
2213 15.3720 4412.00 4566.35 66.00
2214 15.3780 4368.00 4567.21 66.00
2215 15.3840 4219.00 4570.05 65.00
2216 15.3900 4511.00 4576.86 67.00
2217 15.3960 4360.00 4583.67 66.00
2218 15.4020 4373.00 4590.48 66.00
2219 15.4080 4404.00 4597.29 66.00
2220 15.4140 4363.00 4604.10 66.00
2221 15.4200 4506.00 4610.91 67.00
2222 15.4260 4505.00 4617.72 67.00
2223 15.4320 4371.00 4624.53 66.00
2224 15.4380 4478.00 4631.34 67.00
2225 15.4440 4428.00 4638.15 67.00
2226 15.4500 4383.00 4644.96 66.00
2227 15.4560 4372.00 4651.77 66.00
2228 15.4620 4462.00 4658.58 67.00
2229 15.4680 4662.00 4665.39 68.00
2230 15.4740 4692.00 4672.20 68.00
2231 15.4800 4781.00 4679.01 69.00
2232 15.4860 4754.00 4685.82 69.00
2233 15.4920 4766.00 4692.63 69.00
2234 15.4980 4651.00 4699.44 68.00
2235 15.5040 4673.00 4706.25 68.00
2236 15.5100 4635.00 4713.06 68.00
2237 15.5160 4704.00 4719.87 69.00
2238 15.5220 4704.00 4737.15 69.00
2239 15.5280 4693.00 4744.90 69.00
2240 15.5340 4712.00 4752.79 69.00
2241 15.5400 4673.00 4760.84 68.00
2242 15.5460 4635.00 4769.09 68.00
2243 15.5520 4729.00 4777.57 69.00
2244 15.5580 4659.00 4786.34 68.00
2245 15.5640 4631.00 4795.48 68.00
2246 15.5700 4624.00 4805.08 68.00
2247 15.5760 4695.00 4815.26 69.00
2248 15.5820 4676.00 4826.21 68.00
2249 15.5880 4624.00 4839.38 68.00
2250 15.5940 4727.00 4852.82 69.00
2251 15.6000 4718.00 4868.17 69.00
2252 15.6060 4641.00 4886.26 68.00
2253 15.6120 4588.00 4908.33 68.00
2254 15.6180 4488.00 4936.53 67.00
2255 15.6240 4577.00 4974.59 68.00
2256 15.6300 4505.00 5029.80 67.00
2257 15.6360 4639.00 5122.30 68.00
2258 15.6420 4963.00 5340.73 70.00
2259 15.6480 5651.00 6014.22 75.00
2260 15.6540 7539.00 7686.86 87.00
2261 15.6600 9694.00 9950.36 98.00
2262 15.6660 9699.00 9994.18 98.00
2263 15.6720 7902.00 7757.01 89.00
2264 15.6780 6176.00 6076.60 79.00
2265 15.6840 5390.00 5403.85 73.00
2266 15.6900 5050.00 5197.81 71.00
2267 15.6960 4899.00 5123.02 70.00
2268 15.7020 4930.00 5089.72 70.00
2269 15.7080 4965.00 5084.02 70.00
2270 15.7140 5104.00 5127.13 71.00
2271 15.7200 5251.00 5278.80 72.00
2272 15.7260 5287.00 5544.19 73.00
2273 15.7320 5078.00 5658.83 71.00
2274 15.7380 4871.00 5432.06 70.00
2275 15.7440 4699.00 5202.13 69.00
2276 15.7500 4602.00 5095.82 68.00
2277 15.7560 4505.00 5059.10 67.00
2278 15.7620 4452.00 5046.57 67.00
2279 15.7680 4421.00 5042.79 66.00
2280 15.7740 4351.00 5042.93 66.00
2281 15.7800 4367.00 5045.04 66.00
2282 15.7860 4554.00 5048.32 67.00
2283 15.7920 4482.00 5052.36 67.00
2284 15.7980 4384.00 5056.95 66.00
2285 15.8040 4360.00 5061.94 66.00
2286 15.8100 4413.00 5057.58 66.00
2287 15.8160 4544.00 5063.85 67.00
2288 15.8220 4538.00 5070.21 67.00
2289 15.8280 4448.00 5076.66 67.00
2290 15.8340 4452.00 5083.17 67.00
2291 15.8400 4477.00 5089.72 67.00
2292 15.8460 4503.00 5096.32 67.00
2293 15.8520 4569.00 5102.94 68.00
2294 15.8580 4630.00 5109.59 68.00
2295 15.8640 4576.00 5116.27 68.00
2296 15.8700 4769.00 5122.96 69.00
2297 15.8760 4799.00 5129.66 69.00
2298 15.8820 4860.00 5135.29 70.00
2299 15.8880 4940.00 5142.09 70.00
2300 15.8940 5089.00 5148.90 71.00
2301 15.9000 5209.00 5155.69 72.00
2302 15.9060 5243.00 5162.50 72.00
2303 15.9120 5189.00 5169.31 72.00
2304 15.9180 5132.00 5176.12 72.00
2305 15.9240 5272.00 5194.35 73.00
2306 15.9300 5302.00 5202.17 73.00
2307 15.9360 5201.00 5213.08 72.00
2308 15.9420 5253.00 5221.46 72.00
2309 15.9480 5213.00 5230.07 72.00
2310 15.9540 5214.00 5238.97 72.00
2311 15.9600 5252.00 5248.21 72.00
2312 15.9660 5347.00 5257.88 73.00
2313 15.9720 5333.00 5268.08 73.00
2314 15.9780 5381.00 5278.96 73.00
2315 15.9840 5451.00 5301.64 74.00
2316 15.9900 5521.00 5325.44 74.00
2317 15.9960 5627.00 5350.74 75.00
2318 16.0020 5858.00 5378.08 77.00
2319 16.0080 5932.00 5408.24 77.00
2320 16.0140 5903.00 5442.46 77.00
2321 16.0200 5965.00 5482.70 77.00
2322 16.0260 5878.00 5532.25 77.00
2323 16.0320 5847.00 5597.05 76.00
2324 16.0380 6005.00 5689.74 77.00
2325 16.0440 6193.00 5853.23 79.00
2326 16.0500 6822.00 6272.66 83.00
2327 16.0560 8069.00 7466.87 90.00
2328 16.0620 9312.00 9878.29 96.00
2329 16.0680 9981.00 12112.60 100.00
2330 16.0740 10215.00 11341.40 101.00
2331 16.0800 9546.00 9435.84 98.00
2332 16.0860 8166.00 7759.17 90.00
2333 16.0920 6930.00 6635.75 83.00
2334 16.0980 6270.00 6107.88 79.00
2335 16.1040 5844.00 5910.80 76.00
2336 16.1100 5662.00 5836.79 75.00
2337 16.1160 5672.00 5803.27 75.00
2338 16.1220 5674.00 5787.41 75.00
2339 16.1280 5608.00 5781.67 75.00
2340 16.1340 5537.00 5782.35 74.00
2341 16.1400 5644.00 5787.30 75.00
2342 16.1460 5673.00 5795.21 75.00
2343 16.1520 5499.00 5805.23 74.00
2344 16.1580 5647.00 5816.80 75.00
2345 16.1640 5738.00 5829.52 76.00
2346 16.1700 5755.00 5843.14 76.00
2347 16.1760 5835.00 5857.44 76.00
2348 16.1820 5888.00 5872.29 77.00
2349 16.1880 6013.00 5887.57 78.00
2350 16.1940 6021.00 5903.21 78.00
2351 16.2000 6057.00 5919.13 78.00
2352 16.2060 6149.00 5935.29 78.00
2353 16.2120 6241.00 5951.65 79.00
2354 16.2180 6282.00 5957.47 79.00
2355 16.2240 6254.00 5974.95 79.00
2356 16.2300 6414.00 5989.65 80.00
2357 16.2360 6661.00 6007.40 82.00
2358 16.2420 6817.00 6025.15 83.00
2359 16.2480 6855.00 6042.89 83.00
2360 16.2540 6737.00 6060.64 82.00
2361 16.2600 6683.00 6078.39 82.00
2362 16.2660 6614.00 6096.14 81.00
2363 16.2720 6493.00 6113.88 81.00
2364 16.2780 6397.00 6131.63 80.00
2365 16.2840 6188.00 6149.38 79.00
2366 16.2900 6167.00 6167.13 79.00
2367 16.2960 6272.00 6184.88 79.00
2368 16.3020 6262.00 6202.63 79.00
2369 16.3080 6226.00 6220.38 79.00
2370 16.3140 6230.00 6238.12 79.00
2371 16.3200 6249.00 6255.87 79.00
2372 16.3260 6202.00 6273.62 79.00
2373 16.3320 6136.00 6291.37 78.00
2374 16.3380 6077.00 6305.64 78.00
2375 16.3440 6101.00 6302.55 78.00
2376 16.3500 6096.00 6299.47 78.00
2377 16.3560 6189.00 6296.38 79.00
2378 16.3620 6121.00 6293.29 78.00
2379 16.3680 6075.00 6290.21 78.00
2380 16.3740 6026.00 6287.12 78.00
2381 16.3800 5928.00 6284.03 77.00
2382 16.3860 5902.00 6426.90 77.00
2383 16.3920 5917.00 6436.46 77.00
2384 16.3980 5952.00 6658.46 77.00
2385 16.4040 5996.00 6690.04 77.00
2386 16.4100 5932.00 6726.55 77.00
2387 16.4160 5917.00 6768.98 77.00
2388 16.4220 5936.00 6818.53 77.00
2389 16.4280 5947.00 6876.78 77.00
2390 16.4340 6039.00 6945.79 78.00
2391 16.4400 6258.00 7028.22 79.00
2392 16.4460 6317.00 7127.57 79.00
2393 16.4520 6280.00 7248.73 79.00
2394 16.4580 6467.00 7398.28 80.00
2395 16.4640 6687.00 7585.60 82.00
2396 16.4700 6956.00 7824.20 83.00
2397 16.4760 7118.00 8134.48 84.00
2398 16.4820 7467.00 8547.72 86.00
2399 16.4880 8088.00 9114.68 90.00
2400 16.4940 9113.00 9920.72 95.00
2401 16.5000 10980.00 11128.70 105.00
2402 16.5060 14608.00 13161.70 121.00
2403 16.5120 22292.00 17656.30 149.00
2404 16.5180 38365.00 30032.00 196.00
2405 16.5240 63485.00 59335.20 252.00
2406 16.5300 99032.00 104902.00 315.00
2407 16.5360 136686.00 137996.00 370.00
2408 16.5420 150528.00 150969.00 388.00
2409 16.5480 124832.00 125431.00 353.00
2410 16.5540 74497.00 70864.60 273.00
2411 16.5600 37627.00 34231.20 194.00
2412 16.5660 21216.00 19068.90 146.00
2413 16.5720 15191.00 13802.00 123.00
2414 16.5780 13246.00 11497.00 115.00
2415 16.5840 12724.00 10145.80 113.00
2416 16.5900 11992.00 9251.38 110.00
2417 16.5960 10526.00 8626.21 103.00
2418 16.6020 9225.00 8172.14 96.00
2419 16.6080 8331.00 7831.68 91.00
2420 16.6140 7657.00 7569.76 88.00
2421 16.6200 7129.00 7363.79 84.00
2422 16.6260 6913.00 7198.79 83.00
2423 16.6320 6831.00 7064.36 83.00
2424 16.6380 6810.00 7312.01 83.00
2425 16.6440 6867.00 7249.55 83.00
2426 16.6500 6736.00 7205.40 82.00
2427 16.6560 6698.00 7177.45 82.00
2428 16.6620 6674.00 7164.44 82.00
2429 16.6680 6776.00 7241.65 82.00
2430 16.6740 6989.00 7264.15 84.00
2431 16.6800 7247.00 7416.40 85.00
2432 16.6860 7113.00 7348.92 84.00
2433 16.6920 7162.00 7447.24 85.00
2434 16.6980 7229.00 7377.43 85.00
2435 16.7040 7194.00 7546.89 85.00
2436 16.7100 7393.00 7754.92 86.00
2437 16.7160 7431.00 8014.33 86.00
2438 16.7220 7625.00 8343.33 87.00
2439 16.7280 8034.00 8769.17 90.00
2440 16.7340 8308.00 9333.73 91.00
2441 16.7400 8778.00 10105.00 94.00
2442 16.7460 9812.00 11197.20 99.00
2443 16.7520 11269.00 12820.00 106.00
2444 16.7580 13607.00 15460.60 117.00
2445 16.7640 18834.00 20955.20 137.00
2446 16.7700 31847.00 36695.10 178.00
2447 16.7760 77007.00 79719.00 278.00
2448 16.7820 182095.00 156486.00 427.00
2449 16.7880 223909.00 205532.00 473.00
2450 16.7940 152185.00 152187.00 390.00
2451 16.8000 79809.00 83450.10 283.00
2452 16.8060 55461.00 56908.20 236.00
2453 16.8120 58737.00 62652.50 242.00
2454 16.8180 68327.00 70556.90 261.00
2455 16.8240 80001.00 75232.40 283.00
2456 16.8300 80588.00 82258.00 284.00
2457 16.8360 62752.00 65243.30 251.00
2458 16.8420 36625.00 37474.80 191.00
2459 16.8480 20473.00 20566.20 143.00
2460 16.8540 13726.00 13801.80 117.00
2461 16.8600 10882.00 11257.00 104.00
2462 16.8660 9403.00 9972.00 97.00
2463 16.8720 8679.00 9147.13 93.00
2464 16.8780 8216.00 8567.46 91.00
2465 16.8840 7824.00 8140.96 88.00
2466 16.8900 7193.00 7816.43 85.00
2467 16.8960 6896.00 7562.58 83.00
2468 16.9020 6979.00 7359.62 84.00
2469 16.9080 6979.00 7194.30 84.00
2470 16.9140 6849.00 7057.55 83.00
2471 16.9200 6677.00 6942.77 82.00
2472 16.9260 6540.00 6845.39 81.00
2473 16.9320 6380.00 6761.90 80.00
2474 16.9380 6353.00 6689.60 80.00
2475 16.9440 6130.00 6297.02 78.00
2476 16.9500 6113.00 6265.36 78.00
2477 16.9560 6021.00 6237.57 78.00
2478 16.9620 5931.00 6212.96 77.00
2479 16.9680 5917.00 6111.06 77.00
2480 16.9740 5789.00 6085.70 76.00
2481 16.9800 5897.00 6061.69 77.00
2482 16.9860 5888.00 5930.40 77.00
2483 16.9920 5713.00 5916.40 76.00
2484 16.9980 5743.00 5902.41 76.00
2485 17.0040 5728.00 5888.42 76.00
2486 17.0100 5719.00 5874.42 76.00
2487 17.0160 5709.00 5860.43 76.00
2488 17.0220 5607.00 5846.44 75.00
2489 17.0280 5685.00 5832.44 75.00
2490 17.0340 5793.00 5818.45 76.00
2491 17.0400 5850.00 5804.45 76.00
2492 17.0460 5820.00 5790.46 76.00
2493 17.0520 5931.00 5776.47 77.00
2494 17.0580 6279.00 5762.47 79.00
2495 17.0640 7035.00 5762.16 84.00
2496 17.0700 8135.00 5758.66 90.00
2497 17.0760 8615.00 5746.79 93.00
2498 17.0820 8188.00 5735.20 90.00
2499 17.0880 7313.00 5723.97 86.00
2500 17.0940 6505.00 5713.15 81.00
2501 17.1000 6032.00 5702.83 78.00
2502 17.1060 5718.00 5693.13 76.00
2503 17.1120 5570.00 5684.20 75.00
2504 17.1180 5517.00 5676.22 74.00
2505 17.1240 5419.00 5669.45 74.00
2506 17.1300 5492.00 5816.01 74.00
2507 17.1360 5233.00 5825.75 72.00
2508 17.1420 5462.00 5945.40 74.00
2509 17.1480 5569.00 5974.31 75.00
2510 17.1540 5444.00 6012.01 74.00
2511 17.1600 5501.00 6061.50 74.00
2512 17.1660 5610.00 6127.34 75.00
2513 17.1720 5763.00 6216.83 76.00
2514 17.1780 5824.00 6342.61 76.00
2515 17.1840 5821.00 6532.19 76.00
2516 17.1900 6113.00 6879.06 78.00
2517 17.1960 6825.00 7746.83 83.00
2518 17.2020 9270.00 10026.30 96.00
2519 17.2080 15128.00 14327.00 123.00
2520 17.2140 18877.00 18097.10 137.00
2521 17.2200 16274.00 16535.20 128.00
2522 17.2260 11929.00 12309.70 109.00
2523 17.2320 9717.00 9704.20 99.00
2524 17.2380 9199.00 9046.83 96.00
2525 17.2440 9895.00 9474.04 99.00
2526 17.2500 11673.00 10680.40 108.00
2527 17.2560 16083.00 13435.90 127.00
2528 17.2620 25082.00 21175.10 158.00
2529 17.2680 43529.00 41410.50 209.00
2530 17.2740 69183.00 77676.60 263.00
2531 17.2800 89761.00 107803.00 300.00
2532 17.2860 100732.00 105461.00 317.00
2533 17.2920 84745.00 85589.40 291.00
2534 17.2980 50339.00 52376.50 224.00
2535 17.3040 25774.00 27335.10 161.00
2536 17.3100 14750.00 15513.50 121.00
2537 17.3160 10325.00 11064.60 102.00
2538 17.3220 8400.00 9196.59 92.00
2539 17.3280 7671.00 8148.93 88.00
2540 17.3340 6710.00 7458.99 82.00
2541 17.3400 6325.00 6973.97 80.00
2542 17.3460 5920.00 6618.36 77.00
2543 17.3520 5669.00 6348.94 75.00
2544 17.3580 5750.00 6138.80 76.00
2545 17.3640 5574.00 5970.92 75.00
2546 17.3700 5463.00 5821.43 74.00
2547 17.3760 5513.00 5700.47 74.00
2548 17.3820 5366.00 5605.72 73.00
2549 17.3880 5325.00 5524.56 73.00
2550 17.3940 5091.00 5454.11 71.00
2551 17.4000 5217.00 5392.19 72.00
2552 17.4060 5095.00 5337.16 71.00
2553 17.4120 5224.00 5287.78 72.00
2554 17.4180 5174.00 5243.05 72.00
2555 17.4240 5143.00 5202.18 72.00
2556 17.4300 5126.00 5164.56 72.00
2557 17.4360 4962.00 4991.77 70.00
2558 17.4420 5029.00 4969.19 71.00
2559 17.4480 4928.00 4852.88 70.00
2560 17.4540 4955.00 4838.89 70.00
2561 17.4600 5122.00 4824.90 72.00
2562 17.4660 5041.00 4810.90 71.00
2563 17.4720 4986.00 4796.91 71.00
2564 17.4780 5012.00 4782.91 71.00
2565 17.4840 5028.00 4768.92 71.00
2566 17.4900 4983.00 4754.93 71.00
2567 17.4960 4991.00 4740.93 71.00
2568 17.5020 5080.00 4726.94 71.00
2569 17.5080 5107.00 4712.95 71.00
2570 17.5140 4820.00 4698.95 69.00
2571 17.5200 4953.00 4684.96 70.00
2572 17.5260 4840.00 4670.97 70.00
2573 17.5320 4787.00 4656.97 69.00
2574 17.5380 4835.00 4642.98 70.00
2575 17.5440 4617.00 4628.98 68.00
2576 17.5500 4726.00 4614.99 69.00
2577 17.5560 4754.00 4601.00 69.00
2578 17.5620 4848.00 4587.00 70.00
2579 17.5680 4613.00 4573.01 68.00
2580 17.5740 4706.00 4559.02 69.00
2581 17.5800 4678.00 4545.02 68.00
2582 17.5860 4664.00 4531.03 68.00
2583 17.5920 4777.00 4517.04 69.00
2584 17.5980 4802.00 4503.04 69.00
2585 17.6040 4689.00 4489.05 68.00
2586 17.6100 4700.00 4475.05 69.00
2587 17.6160 4760.00 4461.06 69.00
2588 17.6220 4687.00 4447.07 68.00
2589 17.6280 4541.00 4433.07 67.00
2590 17.6340 4563.00 4419.08 68.00
2591 17.6400 4635.00 4405.09 68.00
2592 17.6460 4650.00 4391.09 68.00
2593 17.6520 4562.00 4377.10 68.00
2594 17.6580 4533.00 4371.35 67.00
2595 17.6640 4554.00 4369.73 67.00
2596 17.6700 4463.00 4368.11 67.00
2597 17.6760 4473.00 4366.49 67.00
2598 17.6820 4491.00 4364.87 67.00
2599 17.6880 4444.00 4363.24 67.00
2600 17.6940 4511.00 4361.62 67.00
2601 17.7000 4372.00 4360.00 66.00
2602 17.7060 4560.00 4358.38 68.00
2603 17.7120 4481.00 4356.76 67.00
2604 17.7180 4602.00 4355.14 68.00
2605 17.7240 4555.00 4353.51 67.00
2606 17.7300 4473.00 4351.89 67.00
2607 17.7360 4361.00 4350.27 66.00
2608 17.7420 4484.00 4348.65 67.00
2609 17.7480 4428.00 4347.03 67.00
2610 17.7540 4404.00 4345.41 66.00
2611 17.7600 4375.00 4343.78 66.00
2612 17.7660 4505.00 4351.28 67.00
2613 17.7720 4525.00 4350.42 67.00
2614 17.7780 4614.00 4349.66 68.00
2615 17.7840 4575.00 4349.02 68.00
2616 17.7900 5007.00 4348.52 71.00
2617 17.7960 5203.00 4348.18 72.00
2618 17.8020 5370.00 4348.05 73.00
2619 17.8080 5308.00 4348.17 73.00
2620 17.8140 5275.00 4348.59 73.00
2621 17.8200 4837.00 4349.40 70.00
2622 17.8260 4769.00 4350.68 69.00
2623 17.8320 4473.00 4352.59 67.00
2624 17.8380 4502.00 4355.31 67.00
2625 17.8440 4355.00 4359.11 66.00
2626 17.8500 4436.00 4364.37 67.00
2627 17.8560 4251.00 4371.66 65.00
2628 17.8620 4171.00 4381.85 65.00
2629 17.8680 4256.00 4396.35 65.00
2630 17.8740 4218.00 4417.50 65.00
2631 17.8800 4318.00 4449.45 66.00
2632 17.8860 4396.00 4501.26 66.00
2633 17.8920 4547.00 4603.25 67.00
2634 17.8980 4840.00 4877.62 70.00
2635 17.9040 5895.00 5651.51 77.00
2636 17.9100 7974.00 7230.75 89.00
2637 17.9160 9517.00 8866.92 98.00
2638 17.9220 8665.00 8382.65 93.00
2639 17.9280 7059.00 6548.98 84.00
2640 17.9340 5596.00 5267.45 75.00
2641 17.9400 4909.00 4727.22 70.00
2642 17.9460 4642.00 4539.80 68.00
2643 17.9520 4496.00 4460.11 67.00
2644 17.9580 4501.00 4414.17 67.00
2645 17.9640 4350.00 4384.88 66.00
2646 17.9700 4252.00 4363.44 65.00
2647 17.9760 4173.00 4348.58 65.00
2648 17.9820 3994.00 4336.56 63.00
2649 17.9880 4133.00 4327.10 64.00
2650 17.9940 4203.00 4319.47 65.00
2651 18.0000 4124.00 4313.17 64.00
2652 18.0060 4135.00 4307.89 64.00
2653 18.0120 4127.00 4303.40 64.00
2654 18.0180 4011.00 4299.54 63.00
2655 18.0240 3987.00 4296.22 63.00
2656 18.0300 4068.00 4293.37 64.00
2657 18.0360 4128.00 4290.94 64.00
2658 18.0420 4143.00 4288.93 64.00
2659 18.0480 4174.00 4287.37 65.00
2660 18.0540 4149.00 4286.31 64.00
2661 18.0600 4194.00 4285.87 65.00
2662 18.0660 4133.00 4286.23 64.00
2663 18.0720 4114.00 4287.73 64.00
2664 18.0780 4080.00 4282.73 64.00
2665 18.0840 4138.00 4289.34 64.00
2666 18.0900 4117.00 4301.90 64.00
2667 18.0960 4215.00 4332.58 65.00
2668 18.1020 4193.00 4418.47 65.00
2669 18.1080 4325.00 4613.62 66.00
2670 18.1140 4493.00 4892.45 67.00
2671 18.1200 4588.00 5106.09 68.00
2672 18.1260 4402.00 5073.09 66.00
2673 18.1320 4525.00 5108.17 67.00
2674 18.1380 4505.00 4907.22 67.00
2675 18.1440 4484.00 4698.21 67.00
2676 18.1500 4361.00 4591.22 66.00
2677 18.1560 4454.00 4562.78 67.00
2678 18.1620 4599.00 4569.05 68.00
2679 18.1680 4631.00 4589.63 68.00
2680 18.1740 4615.00 4619.54 68.00
2681 18.1800 4636.00 4658.40 68.00
2682 18.1860 4663.00 4707.27 68.00
2683 18.1920 4696.00 4768.14 69.00
2684 18.1980 4836.00 4844.16 70.00
2685 18.2040 4964.00 4939.89 70.00
2686 18.2100 4871.00 5061.90 70.00
2687 18.2160 5034.00 5220.23 71.00
2688 18.2220 5177.00 5430.14 72.00
2689 18.2280 5396.00 5715.96 73.00
2690 18.2340 5794.00 6118.26 76.00
2691 18.2400 6675.00 6712.03 82.00
2692 18.2460 7905.00 7678.88 89.00
2693 18.2520 10722.00 9664.22 104.00
2694 18.2580 16973.00 14815.70 130.00
2695 18.2640 29888.00 27344.50 173.00
2696 18.2700 49495.00 49355.50 222.00
2697 18.2760 70355.00 70017.00 265.00
2698 18.2820 79915.00 76032.30 283.00
2699 18.2880 66431.00 64950.10 258.00
2700 18.2940 38551.00 39770.80 196.00
2701 18.3000 19415.00 20815.20 139.00
2702 18.3060 11591.00 11917.80 108.00
2703 18.3120 8397.00 8581.63 92.00
2704 18.3180 6734.00 7186.81 82.00
2705 18.3240 5942.00 6411.81 77.00
2706 18.3300 5379.00 5906.09 73.00
2707 18.3360 5003.00 5554.06 71.00
2708 18.3420 4759.00 5299.09 69.00
2709 18.3480 4707.00 5108.39 69.00
2710 18.3540 4581.00 4961.98 68.00
2711 18.3600 4393.00 4847.11 66.00
2712 18.3660 4334.00 4755.26 66.00
2713 18.3720 4373.00 4680.55 66.00
2714 18.3780 4245.00 4618.93 65.00
2715 18.3840 4202.00 4567.44 65.00
2716 18.3900 4203.00 4523.95 65.00
2717 18.3960 4146.00 4486.80 64.00
2718 18.4020 4122.00 4454.79 64.00
2719 18.4080 4015.00 4426.98 63.00
2720 18.4140 4021.00 4402.63 63.00
2721 18.4200 3923.00 4381.14 63.00
2722 18.4260 3983.00 4362.06 63.00
2723 18.4320 3977.00 4345.03 63.00
2724 18.4380 3978.00 4258.44 63.00
2725 18.4440 3987.00 4158.91 63.00
2726 18.4500 4037.00 4157.28 64.00
2727 18.4560 4000.00 4155.66 63.00
2728 18.4620 3868.00 4154.04 62.00
2729 18.4680 3996.00 4152.42 63.00
2730 18.4740 3931.00 4150.80 63.00
2731 18.4800 4088.00 4149.18 64.00
2732 18.4860 4161.00 4193.94 65.00
2733 18.4920 4204.00 4196.07 65.00
2734 18.4980 4229.00 4198.66 65.00
2735 18.5040 4139.00 4201.81 64.00
2736 18.5100 4087.00 4205.62 64.00
2737 18.5160 4081.00 4210.21 64.00
2738 18.5220 4091.00 4215.74 64.00
2739 18.5280 4106.00 4222.41 64.00
2740 18.5340 4295.00 4230.47 66.00
2741 18.5400 4593.00 4240.25 68.00
2742 18.5460 5049.00 4252.19 71.00
2743 18.5520 5355.00 4266.85 73.00
2744 18.5580 5314.00 4285.04 73.00
2745 18.5640 4968.00 4307.80 70.00
2746 18.5700 4526.00 4336.71 67.00
2747 18.5760 4257.00 4373.94 65.00
2748 18.5820 4318.00 4422.83 66.00
2749 18.5880 4224.00 4488.44 65.00
2750 18.5940 4228.00 4579.00 65.00
2751 18.6000 4348.00 4708.27 66.00
2752 18.6060 4505.00 4901.56 67.00
2753 18.6120 4675.00 5218.86 68.00
2754 18.6180 5280.00 5878.85 73.00
2755 18.6240 6788.00 7688.64 82.00
2756 18.6300 11937.00 12428.40 109.00
2757 18.6360 23011.00 21031.40 152.00
2758 18.6420 30616.00 28125.10 175.00
2759 18.6480 24330.00 23758.90 156.00
2760 18.6540 13971.00 14589.10 118.00
2761 18.6600 8255.00 8665.04 91.00
2762 18.6660 5972.00 6212.46 77.00
2763 18.6720 5239.00 5340.95 72.00
2764 18.6780 4828.00 4957.57 69.00
2765 18.6840 4433.00 4734.09 67.00
2766 18.6900 4254.00 4586.34 65.00
2767 18.6960 4169.00 4483.06 65.00
2768 18.7020 4149.00 4407.95 64.00
2769 18.7080 4072.00 4351.57 64.00
2770 18.7140 3994.00 4308.11 63.00
2771 18.7200 4000.00 4273.82 63.00
2772 18.7260 3919.00 4246.20 63.00
2773 18.7320 3930.00 4223.56 63.00
2774 18.7380 3907.00 4204.72 63.00
2775 18.7440 3873.00 4188.82 62.00
2776 18.7500 3859.00 4175.21 62.00
2777 18.7560 3871.00 4163.45 62.00
2778 18.7620 3862.00 4153.16 62.00
2779 18.7680 3766.00 4144.08 61.00
2780 18.7740 3863.00 4135.99 62.00
2781 18.7800 3869.00 4128.72 62.00
2782 18.7860 3770.00 4122.15 61.00
2783 18.7920 3845.00 4116.15 62.00
2784 18.7980 3855.00 4110.66 62.00
2785 18.8040 3884.00 4061.60 62.00
2786 18.8100 3983.00 4059.98 63.00
2787 18.8160 3968.00 4058.36 63.00
2788 18.8220 3903.00 4056.74 62.00
2789 18.8280 3904.00 4055.11 62.00
2790 18.8340 3903.00 4053.49 62.00
2791 18.8400 4029.00 4051.87 63.00
2792 18.8460 3947.00 4050.25 63.00
2793 18.8520 3854.00 4048.63 62.00
2794 18.8580 3932.00 4047.01 63.00
2795 18.8640 4004.00 4045.38 63.00
2796 18.8700 3965.00 4043.76 63.00
2797 18.8760 3893.00 4042.14 62.00
2798 18.8820 3848.00 4040.52 62.00
2799 18.8880 3795.00 4038.90 62.00
2800 18.8940 3861.00 4037.28 62.00
2801 18.9000 3877.00 4035.65 62.00
2802 18.9060 3778.00 4034.03 61.00
2803 18.9120 3720.00 4032.41 61.00
2804 18.9180 3784.00 4030.79 62.00
2805 18.9240 3817.00 4029.17 62.00
2806 18.9300 3798.00 4027.55 62.00
2807 18.9360 3810.00 4025.92 62.00
2808 18.9420 3819.00 4025.91 62.00
2809 18.9480 3822.00 4026.69 62.00
2810 18.9540 3926.00 4027.47 63.00
2811 18.9600 3974.00 4028.26 63.00
2812 18.9660 3943.00 4029.04 63.00
2813 18.9720 3904.00 4029.82 62.00
2814 18.9780 3883.00 4030.61 62.00
2815 18.9840 3849.00 4031.39 62.00
2816 18.9900 3836.00 4032.17 62.00
2817 18.9960 3855.00 4032.96 62.00
2818 19.0020 3847.00 4033.74 62.00
2819 19.0080 3835.00 4034.52 62.00
2820 19.0140 3876.00 4035.31 62.00
2821 19.0200 3975.00 4036.09 63.00
2822 19.0260 4019.00 4036.87 63.00
2823 19.0320 3998.00 4037.66 63.00
2824 19.0380 4356.00 4038.44 66.00
2825 19.0440 5012.00 4039.22 71.00
2826 19.0500 5421.00 4040.01 74.00
2827 19.0560 5363.00 4040.79 73.00
2828 19.0620 4922.00 4041.57 70.00
2829 19.0680 4560.00 4042.36 68.00
2830 19.0740 4180.00 4043.14 65.00
2831 19.0800 3965.00 4043.92 63.00
2832 19.0860 3925.00 4044.71 63.00
2833 19.0920 3904.00 4045.49 62.00
2834 19.0980 3954.00 4046.27 63.00
2835 19.1040 4010.00 4047.06 63.00
2836 19.1100 4002.00 4047.84 63.00
2837 19.1160 3986.00 4048.62 63.00
2838 19.1220 3955.00 4049.41 63.00
2839 19.1280 3964.00 4050.19 63.00
2840 19.1340 4006.00 4171.98 63.00
2841 19.1400 3998.00 4182.27 63.00
2842 19.1460 3913.00 4193.73 63.00
2843 19.1520 3864.00 4206.56 62.00
2844 19.1580 3874.00 4220.99 62.00
2845 19.1640 3921.00 4237.31 63.00
2846 19.1700 3945.00 4255.92 63.00
2847 19.1760 3888.00 4277.26 62.00
2848 19.1820 3912.00 4301.93 63.00
2849 19.1880 3954.00 4330.69 63.00
2850 19.1940 3960.00 4364.52 63.00
2851 19.2000 3983.00 4404.71 63.00
2852 19.2060 4018.00 4453.00 63.00
2853 19.2120 4170.00 4511.80 65.00
2854 19.2180 4237.00 4584.38 65.00
2855 19.2240 4225.00 4675.47 65.00
2856 19.2300 4355.00 4791.91 66.00
2857 19.2360 4559.00 4944.17 68.00
2858 19.2420 4747.00 5148.43 69.00
2859 19.2480 4971.00 5431.05 71.00
2860 19.2540 5357.00 5837.85 73.00
2861 19.2600 5923.00 6460.78 77.00
2862 19.2660 7004.00 7568.21 84.00
2863 19.2720 9523.00 10168.40 98.00
2864 19.2780 16624.00 17221.60 129.00
2865 19.2840 36212.00 33064.10 190.00
2866 19.2900 60899.00 55755.30 247.00
2867 19.2960 64496.00 65357.40 254.00
2868 19.3020 44935.00 48429.30 212.00
2869 19.3080 24920.00 26782.70 158.00
2870 19.3140 14271.00 14154.70 119.00
2871 19.3200 9323.00 9038.63 97.00
2872 19.3260 7111.00 7132.57 84.00
2873 19.3320 5995.00 6249.69 77.00
2874 19.3380 5364.00 5716.07 73.00
2875 19.3440 4990.00 5359.64 71.00
2876 19.3500 4723.00 5109.49 69.00
2877 19.3560 4594.00 4927.94 68.00
2878 19.3620 4501.00 4792.56 67.00
2879 19.3680 4400.00 4689.36 66.00
2880 19.3740 4274.00 4609.40 65.00
2881 19.3800 4221.00 4546.72 65.00
2882 19.3860 4212.00 4497.21 65.00
2883 19.3920 4205.00 4458.09 65.00
2884 19.3980 4114.00 4427.42 64.00
2885 19.4040 4113.00 4403.91 64.00
2886 19.4100 4151.00 4386.76 64.00
2887 19.4160 4097.00 4375.63 64.00
2888 19.4220 4149.00 4370.63 64.00
2889 19.4280 4127.00 4372.47 64.00
2890 19.4340 4053.00 4445.83 64.00
2891 19.4400 4062.00 4472.10 64.00
2892 19.4460 4170.00 4595.03 65.00
2893 19.4520 4206.00 4674.20 65.00
2894 19.4580 4331.00 4769.89 66.00
2895 19.4640 4745.00 5072.02 69.00
2896 19.4700 5500.00 5942.98 74.00
2897 19.4760 6843.00 7612.33 83.00
2898 19.4820 8507.00 9664.12 92.00
2899 19.4880 9568.00 10788.80 98.00
2900 19.4940 8889.00 10355.10 94.00
2901 19.5000 7075.00 8278.23 84.00
2902 19.5060 5573.00 6402.01 75.00
2903 19.5120 4872.00 5439.16 70.00
2904 19.5180 4665.00 5098.08 68.00
2905 19.5240 4571.00 5018.65 68.00
2906 19.5300 4565.00 5040.27 68.00
2907 19.5360 4690.00 5122.35 68.00
2908 19.5420 4828.00 5262.74 69.00
2909 19.5480 5030.00 5474.42 71.00
2910 19.5540 5414.00 5785.92 74.00
2911 19.5600 5865.00 6254.38 77.00
2912 19.5660 6840.00 7028.28 83.00
2913 19.5720 8692.00 8622.76 93.00
2914 19.5780 13066.00 12603.40 114.00
2915 19.5840 23530.00 21717.70 153.00
2916 19.5900 40044.00 36995.60 200.00
2917 19.5960 55550.00 51385.90 236.00
2918 19.6020 63922.00 57183.40 253.00
2919 19.6080 58640.00 57534.20 242.00
2920 19.6140 41365.00 43934.00 203.00
2921 19.6200 23859.00 25816.30 154.00
2922 19.6260 13528.00 14347.40 116.00
2923 19.6320 8850.00 9283.41 94.00
2924 19.6380 6853.00 7314.98 83.00
2925 19.6440 5846.00 6399.81 76.00
2926 19.6500 5265.00 5847.40 73.00
2927 19.6560 4921.00 5479.38 70.00
2928 19.6620 4643.00 5209.93 68.00
2929 19.6680 4473.00 5018.29 67.00
2930 19.6740 4449.00 4873.36 67.00
2931 19.6800 4346.00 4761.23 66.00
2932 19.6860 4244.00 4672.74 65.00
2933 19.6920 4233.00 4601.74 65.00
2934 19.6980 4221.00 4543.93 65.00
2935 19.7040 4155.00 4496.27 64.00
2936 19.7100 4112.00 4456.56 64.00
2937 19.7160 3994.00 4423.12 63.00
2938 19.7220 4064.00 4394.74 64.00
2939 19.7280 4002.00 4370.47 63.00
2940 19.7340 4007.00 4349.57 63.00
2941 19.7400 4005.00 4331.46 63.00
2942 19.7460 4073.00 4315.68 64.00
2943 19.7520 3991.00 4301.86 63.00
2944 19.7580 4019.00 4289.71 63.00
2945 19.7640 4004.00 4221.12 63.00
2946 19.7700 4003.00 4215.50 63.00
2947 19.7760 3880.00 4134.80 62.00
2948 19.7820 3894.00 4135.58 62.00
2949 19.7880 3914.00 4136.36 63.00
2950 19.7940 3947.00 4137.15 63.00
2951 19.8000 3867.00 4137.93 62.00
2952 19.8060 3820.00 4138.71 62.00
2953 19.8120 3824.00 4139.50 62.00
2954 19.8180 3880.00 4140.28 62.00
2955 19.8240 3879.00 4141.06 62.00
2956 19.8300 3885.00 4141.85 62.00
2957 19.8360 3870.00 4142.63 62.00
2958 19.8420 3904.00 4143.41 62.00
2959 19.8480 3950.00 4144.20 63.00
2960 19.8540 3936.00 4144.98 63.00
2961 19.8600 3988.00 4145.76 63.00
2962 19.8660 4021.00 4146.55 63.00
2963 19.8720 4024.00 4147.33 63.00
2964 19.8780 4100.00 4148.11 64.00
2965 19.8840 4065.00 4148.90 64.00
2966 19.8900 4210.00 4149.68 65.00
2967 19.8960 4103.00 4150.46 64.00
2968 19.9020 4005.00 4151.25 63.00
2969 19.9080 3944.00 4152.03 63.00
2970 19.9140 4032.00 4152.81 63.00
2971 19.9200 3983.00 4153.60 63.00
2972 19.9260 3945.00 4154.38 63.00
2973 19.9320 3922.00 4155.16 63.00
2974 19.9380 3918.00 4155.95 63.00
2975 19.9440 3872.00 4156.73 62.00
2976 19.9500 3972.00 4157.51 63.00
2977 19.9560 4040.00 4158.30 64.00
2978 19.9620 3992.00 4159.08 63.00
2979 19.9680 3985.00 4159.86 63.00
2980 19.9740 3940.00 4160.65 63.00
2981 19.9800 3908.00 4161.43 63.00
2982 19.9860 3935.00 4162.21 63.00
2983 19.9920 3940.00 4163.00 63.00
2984 19.9980 3934.00 4163.78 63.00
2985 20.0040 3981.00 4164.56 63.00
2986 20.0100 3932.00 4299.01 63.00
2987 20.0160 4012.00 4310.21 63.00
2988 20.0220 4028.00 4322.59 63.00
2989 20.0280 3983.00 4336.43 63.00
2990 20.0340 3946.00 4351.97 63.00
2991 20.0400 3926.00 4369.55 63.00
2992 20.0460 4023.00 4389.52 63.00
2993 20.0520 3986.00 4412.39 63.00
2994 20.0580 4220.00 4438.76 65.00
2995 20.0640 4131.00 4469.40 64.00
2996 20.0700 4277.00 4505.34 65.00
2997 20.0760 4285.00 4547.87 65.00
2998 20.0820 4255.00 4598.76 65.00
2999 20.0880 4383.00 4660.36 66.00
3000 20.0940 4371.00 4735.98 66.00
3001 20.1000 4494.00 4830.24 67.00
3002 20.1060 4717.00 4949.81 69.00
3003 20.1120 4989.00 5104.57 71.00
3004 20.1180 5099.00 5309.85 71.00
3005 20.1240 5770.00 5589.94 76.00
3006 20.1300 6224.00 5985.51 79.00
3007 20.1360 7086.00 6600.72 84.00
3008 20.1420 8901.00 7573.15 94.00
3009 20.1480 12033.00 9613.12 110.00
3010 20.1540 19514.00 14986.10 140.00
3011 20.1600 33860.00 28142.10 184.00
3012 20.1660 53838.00 51014.50 232.00
3013 20.1720 61761.00 70615.00 249.00
3014 20.1780 54349.00 61502.00 233.00
3015 20.1840 37071.00 37055.40 193.00
3016 20.1900 22494.00 19448.90 150.00
3017 20.1960 14395.00 11337.90 120.00
3018 20.2020 10719.00 8296.19 104.00
3019 20.2080 9067.00 7020.87 95.00
3020 20.2140 7994.00 6320.46 89.00
3021 20.2200 7487.00 5872.51 87.00
3022 20.2260 7067.00 5570.34 84.00
3023 20.2320 6771.00 5363.26 82.00
3024 20.2380 6474.00 5223.21 80.00
3025 20.2440 6363.00 5134.94 80.00
3026 20.2500 6317.00 5091.75 79.00
3027 20.2560 6174.00 5094.61 79.00
3028 20.2620 6302.00 5154.84 79.00
3029 20.2680 6641.00 5312.46 81.00
3030 20.2740 7243.00 5723.38 85.00
3031 20.2800 8673.00 6891.73 93.00
3032 20.2860 11869.00 9735.96 109.00
3033 20.2920 15583.00 14503.30 125.00
3034 20.2980 16903.00 18179.30 130.00
3035 20.3040 14416.00 15829.60 120.00
3036 20.3100 10738.00 10812.40 104.00
3037 20.3160 7706.00 7340.29 88.00
3038 20.3220 6217.00 5762.59 79.00
3039 20.3280 5566.00 5162.74 75.00
3040 20.3340 5159.00 4899.63 72.00
3041 20.3400 5082.00 4748.04 71.00
3042 20.3460 4828.00 4527.13 69.00
3043 20.3520 4803.00 4462.74 69.00
3044 20.3580 4707.00 4416.35 69.00
3045 20.3640 4655.00 4381.95 68.00
3046 20.3700 4565.00 4355.81 68.00
3047 20.3760 4586.00 4335.55 68.00
3048 20.3820 4581.00 4319.58 68.00
3049 20.3880 4487.00 4306.81 67.00
3050 20.3940 4439.00 4296.49 67.00
3051 20.4000 4478.00 4288.05 67.00
3052 20.4060 4398.00 4281.09 66.00
3053 20.4120 4500.00 4275.32 67.00
3054 20.4180 4534.00 4274.70 67.00
3055 20.4240 4386.00 4270.99 66.00
3056 20.4300 4496.00 4267.95 67.00
3057 20.4360 4426.00 4265.49 67.00
3058 20.4420 4437.00 4263.52 67.00
3059 20.4480 4300.00 4262.00 66.00
3060 20.4540 4255.00 4260.86 65.00
3061 20.4600 4226.00 4260.09 65.00
3062 20.4660 4209.00 4259.65 65.00
3063 20.4720 4209.00 4237.06 65.00
3064 20.4780 4352.00 4241.10 66.00
3065 20.4840 4290.00 4245.33 65.00
3066 20.4900 4208.00 4249.81 65.00
3067 20.4960 4043.00 4254.61 64.00
3068 20.5020 4138.00 4272.44 64.00
3069 20.5080 4008.00 4279.13 63.00
3070 20.5140 4154.00 4286.66 64.00
3071 20.5200 4007.00 4295.32 63.00
3072 20.5260 3959.00 4305.56 63.00
3073 20.5320 4069.00 4318.07 64.00
3074 20.5380 4154.00 4333.96 64.00
3075 20.5440 4117.00 4355.22 64.00
3076 20.5500 4026.00 4386.26 63.00
3077 20.5560 4107.00 4441.66 64.00
3078 20.5620 4147.00 4572.18 64.00
3079 20.5680 4580.00 4896.89 68.00
3080 20.5740 5494.00 5526.15 74.00
3081 20.5800 6630.00 6259.84 81.00
3082 20.5860 6371.00 6322.41 80.00
3083 20.5920 5280.00 5635.50 73.00
3084 20.5980 4529.00 4995.68 67.00
3085 20.6040 4403.00 4663.42 66.00
3086 20.6100 4113.00 4543.81 64.00
3087 20.6160 4200.00 4513.32 65.00
3088 20.6220 4229.00 4517.46 65.00
3089 20.6280 4195.00 4543.79 65.00
3090 20.6340 4350.00 4595.42 66.00
3091 20.6400 4676.00 4691.23 68.00
3092 20.6460 4850.00 4905.53 70.00
3093 20.6520 5406.00 5472.55 74.00
3094 20.6580 7012.00 6814.12 84.00
3095 20.6640 8825.00 9048.92 94.00
3096 20.6700 9754.00 10838.90 99.00
3097 20.6760 8782.00 9859.81 94.00
3098 20.6820 7085.00 7515.84 84.00
3099 20.6880 5516.00 5833.75 74.00
3100 20.6940 4738.00 5048.64 69.00
3101 20.7000 4299.00 4809.24 66.00
3102 20.7060 4306.00 4766.60 66.00
3103 20.7120 4129.00 4708.85 64.00
3104 20.7180 4097.00 4677.17 64.00
3105 20.7240 4160.00 4661.07 64.00
3106 20.7300 4163.00 4655.63 65.00
3107 20.7360 4149.00 4658.19 64.00
3108 20.7420 4256.00 4667.29 65.00
3109 20.7480 4331.00 4682.20 66.00
3110 20.7540 4321.00 4698.82 66.00
3111 20.7600 4326.00 4725.49 66.00
3112 20.7660 4319.00 4758.56 66.00
3113 20.7720 4493.00 4799.03 67.00
3114 20.7780 4871.00 4848.39 70.00
3115 20.7840 5412.00 4908.74 74.00
3116 20.7900 5834.00 4983.01 76.00
3117 20.7960 5966.00 5075.39 77.00
3118 20.8020 5751.00 5192.01 76.00
3119 20.8080 5348.00 5341.81 73.00
3120 20.8140 5192.00 5538.39 72.00
3121 20.8200 5271.00 5803.39 73.00
3122 20.8260 5627.00 6172.59 75.00
3123 20.8320 6148.00 6713.72 78.00
3124 20.8380 7052.00 7600.43 84.00
3125 20.8440 8876.00 9395.14 94.00
3126 20.8500 13523.00 13760.90 116.00
3127 20.8560 24355.00 23615.20 156.00
3128 20.8620 43671.00 40677.40 209.00
3129 20.8680 65718.00 58584.80 256.00
3130 20.8740 73087.00 65284.50 270.00
3131 20.8800 55407.00 55403.40 235.00
3132 20.8860 31159.00 35178.30 177.00
3133 20.8920 16584.00 19691.50 129.00
3134 20.8980 10643.00 11849.20 103.00
3135 20.9040 8089.00 8642.31 90.00
3136 20.9100 6586.00 7280.35 81.00
3137 20.9160 5859.00 6548.58 77.00
3138 20.9220 5461.00 6077.87 74.00
3139 20.9280 5102.00 5751.06 71.00
3140 20.9340 4774.00 5514.65 69.00
3141 20.9400 4533.00 5338.57 67.00
3142 20.9460 4458.00 5204.23 67.00
3143 20.9520 4456.00 5099.60 67.00
3144 20.9580 4534.00 5016.72 67.00
3145 20.9640 4411.00 4950.13 66.00
3146 20.9700 4306.00 4895.96 66.00
3147 20.9760 4270.00 4851.42 65.00
3148 20.9820 4295.00 4814.46 66.00
3149 20.9880 4247.00 4783.56 65.00
3150 20.9940 4165.00 4757.56 65.00
3151 21.0000 4226.00 4735.54 65.00
3152 21.0060 4176.00 4716.82 65.00
3153 21.0120 4225.00 4700.85 65.00
3154 21.0180 4259.00 4687.17 65.00
3155 21.0240 4086.00 4675.42 64.00
3156 21.0300 4140.00 4665.33 64.00
3157 21.0360 4176.00 4656.66 65.00
3158 21.0420 4170.00 4601.03 65.00
3159 21.0480 4162.00 4598.69 65.00
3160 21.0540 4234.00 4530.70 65.00
3161 21.0600 4350.00 4534.79 66.00
3162 21.0660 4338.00 4539.03 66.00
3163 21.0720 4224.00 4543.42 65.00
3164 21.0780 4295.00 4547.98 66.00
3165 21.0840 4339.00 4552.77 66.00
3166 21.0900 4425.00 4557.81 67.00
3167 21.0960 4501.00 4563.16 67.00
3168 21.1020 4421.00 4568.87 66.00
3169 21.1080 4385.00 4576.80 66.00
3170 21.1140 4348.00 4583.65 66.00
3171 21.1200 4348.00 4591.19 66.00
3172 21.1260 4354.00 4599.62 66.00
3173 21.1320 4279.00 4609.19 65.00
3174 21.1380 4260.00 4620.21 65.00
3175 21.1440 4251.00 4633.16 65.00
3176 21.1500 4231.00 4648.72 65.00
3177 21.1560 4201.00 4667.87 65.00
3178 21.1620 4272.00 4692.14 65.00
3179 21.1680 4322.00 4723.92 66.00
3180 21.1740 4345.00 4767.31 66.00
3181 21.1800 4348.00 4830.65 66.00
3182 21.1860 4458.00 4937.87 67.00
3183 21.1920 4696.00 5167.51 69.00
3184 21.1980 5237.00 5714.39 72.00
3185 21.2040 6568.00 6839.35 81.00
3186 21.2100 8336.00 8515.86 91.00
3187 21.2160 9818.00 9847.36 99.00
3188 21.2220 10073.00 10164.60 100.00
3189 21.2280 8788.00 9587.47 94.00
3190 21.2340 7072.00 7943.26 84.00
3191 21.2400 5817.00 6402.92 76.00
3192 21.2460 5065.00 5555.00 71.00
3193 21.2520 4742.00 5193.12 69.00
3194 21.2580 4673.00 5107.82 68.00
3195 21.2640 4802.00 5203.84 69.00
3196 21.2700 5120.00 5449.32 72.00
3197 21.2760 5266.00 5673.51 73.00
3198 21.2820 5096.00 5560.53 71.00
3199 21.2880 4792.00 5241.31 69.00
3200 21.2940 4579.00 4996.22 68.00
3201 21.3000 4436.00 4875.33 67.00
3202 21.3060 4403.00 4829.52 66.00
3203 21.3120 4408.00 4814.15 66.00
3204 21.3180 4304.00 4810.71 66.00
3205 21.3240 4327.00 4813.99 66.00
3206 21.3300 4298.00 4822.63 66.00
3207 21.3360 4339.00 4836.46 66.00
3208 21.3420 4378.00 4861.82 66.00
3209 21.3480 4305.00 4888.58 66.00
3210 21.3540 4378.00 4924.20 66.00
3211 21.3600 4324.00 4971.87 66.00
3212 21.3660 4567.00 5036.76 68.00
3213 21.3720 4600.00 5128.56 68.00
3214 21.3780 4741.00 5261.64 69.00
3215 21.3840 4846.00 5476.92 70.00
3216 21.3900 5589.00 5902.95 75.00
3217 21.3960 6402.00 6977.53 80.00
3218 21.4020 9071.00 9533.70 95.00
3219 21.4080 15289.00 14156.00 124.00
3220 21.4140 20254.00 19039.40 142.00
3221 21.4200 18479.00 19110.30 136.00
3222 21.4260 13304.00 14278.40 115.00
3223 21.4320 9029.00 9633.10 95.00
3224 21.4380 6889.00 7041.03 83.00
3225 21.4440 5827.00 5956.97 76.00
3226 21.4500 5421.00 5528.88 74.00
3227 21.4560 5065.00 5323.16 71.00
3228 21.4620 4937.00 5205.15 70.00
3229 21.4680 4898.00 5133.61 70.00
3230 21.4740 4870.00 5094.42 70.00
3231 21.4800 5145.00 5083.67 72.00
3232 21.4860 5306.00 5110.75 73.00
3233 21.4920 5686.00 5223.41 75.00
3234 21.4980 5950.00 5552.23 77.00
3235 21.5040 5942.00 6272.10 77.00
3236 21.5100 6210.00 7311.28 79.00
3237 21.5160 6014.00 7873.09 78.00
3238 21.5220 6152.00 7211.25 78.00
3239 21.5280 5944.00 6247.03 77.00
3240 21.5340 5695.00 5700.70 75.00
3241 21.5400 5481.00 5547.08 74.00
3242 21.5460 5290.00 5446.24 73.00
3243 21.5520 5013.00 5243.93 71.00
3244 21.5580 4895.00 5062.83 70.00
3245 21.5640 4851.00 4956.60 70.00
3246 21.5700 4880.00 4905.95 70.00
3247 21.5760 4873.00 4881.29 70.00
3248 21.5820 4824.00 4866.90 69.00
3249 21.5880 4870.00 4857.30 70.00
3250 21.5940 4713.00 4821.79 69.00
3251 21.6000 4848.00 4818.91 70.00
3252 21.6060 4727.00 4817.28 69.00
3253 21.6120 4858.00 4816.57 70.00
3254 21.6180 4816.00 4816.53 69.00
3255 21.6240 4758.00 4817.03 69.00
3256 21.6300 4780.00 4817.92 69.00
3257 21.6360 4693.00 4819.14 69.00
3258 21.6420 4913.00 4820.62 70.00
3259 21.6480 4720.00 4822.31 69.00
3260 21.6540 4815.00 4824.16 69.00
3261 21.6600 4722.00 4826.16 69.00
3262 21.6660 4724.00 4828.28 69.00
3263 21.6720 4775.00 4830.50 69.00
3264 21.6780 4729.00 4832.80 69.00
3265 21.6840 4650.00 4835.18 68.00
3266 21.6900 4700.00 4837.61 69.00
3267 21.6960 4779.00 4849.08 69.00
3268 21.7020 4859.00 4853.02 70.00
3269 21.7080 4809.00 4857.08 69.00
3270 21.7140 4696.00 4861.30 69.00
3271 21.7200 4817.00 4899.55 69.00
3272 21.7260 4692.00 4906.68 68.00
3273 21.7320 4836.00 4914.31 70.00
3274 21.7380 4725.00 4922.52 69.00
3275 21.7440 4672.00 4931.42 68.00
3276 21.7500 4820.00 4941.13 69.00
3277 21.7560 4797.00 4951.82 69.00
3278 21.7620 4768.00 4963.67 69.00
3279 21.7680 4740.00 4976.95 69.00
3280 21.7740 4708.00 4991.98 69.00
3281 21.7800 4769.00 5009.19 69.00
3282 21.7860 4789.00 5029.12 69.00
3283 21.7920 4832.00 5052.55 70.00
3284 21.7980 4867.00 5080.54 70.00
3285 21.8040 4897.00 5114.56 70.00
3286 21.8100 4976.00 5156.77 71.00
3287 21.8160 5023.00 5210.44 71.00
3288 21.8220 5115.00 5280.64 72.00
3289 21.8280 5337.00 5376.01 73.00
3290 21.8340 5649.00 5515.06 75.00
3291 21.8400 6255.00 5752.98 79.00
3292 21.8460 7269.00 6262.37 85.00
3293 21.8520 8443.00 7417.18 92.00
3294 21.8580 9622.00 9573.47 98.00
3295 21.8640 10891.00 12262.10 104.00
3296 21.8700 12426.00 13433.00 111.00
3297 21.8760 14509.00 12927.80 120.00
3298 21.8820 16937.00 14181.40 130.00
3299 21.8880 19910.00 18607.70 141.00
3300 21.8940 21789.00 23010.70 148.00
3301 21.9000 20111.00 21035.70 142.00
3302 21.9060 15389.00 14868.30 124.00
3303 21.9120 10816.00 9941.69 104.00
3304 21.9180 8228.00 7391.83 91.00
3305 21.9240 6819.00 6390.21 83.00
3306 21.9300 6143.00 5948.77 78.00
3307 21.9360 5717.00 5715.27 76.00
3308 21.9420 5443.00 5567.28 74.00
3309 21.9480 5441.00 5466.30 74.00
3310 21.9540 5369.00 5395.34 73.00
3311 21.9600 5315.00 5344.82 73.00
3312 21.9660 5248.00 5308.82 72.00
3313 21.9720 5189.00 5283.65 72.00
3314 21.9780 5202.00 5266.90 72.00
3315 21.9840 4920.00 5257.04 70.00
3316 21.9900 4863.00 5253.11 70.00
3317 21.9960 4993.00 5254.63 71.00
3318 22.0020 5029.00 5261.46 71.00
3319 22.0080 4993.00 5273.80 71.00
3320 22.0140 4952.00 5292.27 70.00
3321 22.0200 5113.00 5317.90 72.00
3322 22.0260 5136.00 5352.33 72.00
3323 22.0320 5158.00 5398.12 72.00
3324 22.0380 5430.00 5459.11 74.00
3325 22.0440 5812.00 5541.30 76.00
3326 22.0500 6142.00 5641.36 78.00
3327 22.0560 6575.00 5802.04 81.00
3328 22.0620 6855.00 6040.74 83.00
3329 22.0680 7153.00 6441.03 85.00
3330 22.0740 7978.00 7253.38 89.00
3331 22.0800 10120.00 9370.75 101.00
3332 22.0860 15106.00 14171.20 123.00
3333 22.0920 22846.00 22164.60 151.00
3334 22.0980 27952.00 29473.50 167.00
3335 22.1040 25214.00 27696.70 159.00
3336 22.1100 17943.00 19301.80 134.00
3337 22.1160 11540.00 12236.90 107.00
3338 22.1220 8285.00 8476.84 91.00
3339 22.1280 6842.00 6918.44 83.00
3340 22.1340 6227.00 6278.21 79.00
3341 22.1400 5821.00 5950.65 76.00
3342 22.1460 5590.00 5745.56 75.00
3343 22.1520 5474.00 5605.15 74.00
3344 22.1580 5413.00 5504.82 74.00
3345 22.1640 5181.00 5431.03 72.00
3346 22.1700 5008.00 5375.44 71.00
3347 22.1760 5025.00 5332.77 71.00
3348 22.1820 5088.00 5299.51 71.00
3349 22.1880 5096.00 5273.24 71.00
3350 22.1940 5024.00 5252.28 71.00
3351 22.2000 4964.00 5235.43 70.00
3352 22.2060 5014.00 5221.80 71.00
3353 22.2120 4958.00 5208.17 70.00
3354 22.2180 4931.00 5225.21 70.00
3355 22.2240 4950.00 5214.92 70.00
3356 22.2300 4917.00 5224.49 70.00
3357 22.2360 4966.00 5218.52 70.00
3358 22.2420 5010.00 5213.95 71.00
3359 22.2480 5022.00 5210.72 71.00
3360 22.2540 5182.00 5208.79 72.00
3361 22.2600 5271.00 5208.15 73.00
3362 22.2660 5235.00 5252.87 72.00
3363 22.2720 5249.00 5315.63 72.00
3364 22.2780 5174.00 5326.88 72.00
3365 22.2840 5203.00 5295.30 72.00
3366 22.2900 5252.00 5336.68 72.00
3367 22.2960 5240.00 5361.19 72.00
3368 22.3020 5253.00 5389.88 72.00
3369 22.3080 5258.00 5423.70 73.00
3370 22.3140 5296.00 5463.89 73.00
3371 22.3200 5465.00 5512.16 74.00
3372 22.3260 5726.00 5570.77 76.00
3373 22.3320 5931.00 5642.93 77.00
3374 22.3380 6377.00 5733.17 80.00
3375 22.3440 7193.00 5848.34 85.00
3376 22.3500 7856.00 5998.83 89.00
3377 22.3560 8226.00 6201.75 91.00
3378 22.3620 8253.00 6489.57 91.00
3379 22.3680 8233.00 6948.77 91.00
3380 22.3740 8661.00 7854.03 93.00
3381 22.3800 10177.00 9924.25 101.00
3382 22.3860 13984.00 14295.90 118.00
3383 22.3920 21364.00 21400.50 146.00
3384 22.3980 28397.00 28116.90 169.00
3385 22.4040 28937.00 28978.40 170.00
3386 22.4100 23993.00 24526.50 155.00
3387 22.4160 19227.00 18826.00 139.00
3388 22.4220 18586.00 16232.30 136.00
3389 22.4280 21473.00 19220.20 147.00
3390 22.4340 28278.00 29224.50 168.00
3391 22.4400 39873.00 44554.70 200.00
3392 22.4460 48626.00 55256.10 221.00
3393 22.4520 47199.00 50863.60 217.00
3394 22.4580 39366.00 37699.10 198.00
3395 22.4640 31468.00 28286.70 177.00
3396 22.4700 25093.00 23696.70 158.00
3397 22.4760 19032.00 18815.80 138.00
3398 22.4820 13870.00 13721.50 118.00
3399 22.4880 10689.00 10236.50 103.00
3400 22.4940 9206.00 8421.89 96.00
3401 22.5000 8760.00 7597.65 94.00
3402 22.5060 8448.00 7229.14 92.00
3403 22.5120 8090.00 7040.58 90.00
3404 22.5180 7864.00 6973.34 89.00
3405 22.5240 7818.00 7010.09 88.00
3406 22.5300 8169.00 7164.59 90.00
3407 22.5360 8974.00 7467.58 95.00
3408 22.5420 10747.00 8062.20 104.00
3409 22.5480 13713.00 9401.21 117.00
3410 22.5540 17482.00 12576.90 132.00
3411 22.5600 21462.00 18981.70 146.00
3412 22.5660 25762.00 28294.50 161.00
3413 22.5720 30376.00 35306.70 174.00
3414 22.5780 35935.00 35165.20 190.00
3415 22.5840 41937.00 36034.10 205.00
3416 22.5900 47259.00 43064.40 217.00
3417 22.5960 46924.00 47472.00 217.00
3418 22.6020 37913.00 38364.90 195.00
3419 22.6080 26921.00 24662.90 164.00
3420 22.6140 18561.00 15080.50 136.00
3421 22.6200 13731.00 10342.90 117.00
3422 22.6260 11109.00 8323.83 105.00
3423 22.6320 9532.00 7388.86 98.00
3424 22.6380 8685.00 6915.72 93.00
3425 22.6440 8471.00 6639.09 92.00
3426 22.6500 8463.00 6504.57 92.00
3427 22.6560 8882.00 6516.97 94.00
3428 22.6620 9518.00 6887.28 98.00
3429 22.6680 10471.00 7991.49 102.00
3430 22.6740 11324.00 10233.00 106.00
3431 22.6800 11304.00 13169.70 106.00
3432 22.6860 11473.00 14439.40 107.00
3433 22.6920 11375.00 12609.90 107.00
3434 22.6980 11032.00 10389.50 105.00
3435 22.7040 10355.00 9324.08 102.00
3436 22.7100 9322.00 8689.32 97.00
3437 22.7160 8175.00 7619.05 90.00
3438 22.7220 7285.00 6579.73 85.00
3439 22.7280 6601.00 5914.96 81.00
3440 22.7340 6244.00 5577.09 79.00
3441 22.7400 5943.00 5411.60 77.00
3442 22.7460 5976.00 5316.30 77.00
3443 22.7520 5871.00 5250.54 77.00
3444 22.7580 5678.00 5154.07 75.00
3445 22.7640 5638.00 5118.79 75.00
3446 22.7700 5659.00 5089.39 75.00
3447 22.7760 5493.00 5069.14 74.00
3448 22.7820 5453.00 4976.92 74.00
3449 22.7880 5428.00 4964.20 74.00
3450 22.7940 5195.00 4953.45 72.00
3451 22.8000 5362.00 4944.25 73.00
3452 22.8060 5361.00 4936.28 73.00
3453 22.8120 5398.00 4929.34 73.00
3454 22.8180 5416.00 4923.25 74.00
3455 22.8240 5467.00 4917.90 74.00
3456 22.8300 5344.00 4913.20 73.00
3457 22.8360 5414.00 4910.78 74.00
3458 22.8420 5296.00 4907.33 73.00
3459 22.8480 5387.00 4904.43 73.00
3460 22.8540 5411.00 4902.09 74.00
3461 22.8600 5358.00 4903.53 73.00
3462 22.8660 5333.00 4902.67 73.00
3463 22.8720 5169.00 4886.52 72.00
3464 22.8780 5199.00 4888.41 72.00
3465 22.8840 5211.00 4891.43 72.00
3466 22.8900 5228.00 4895.96 72.00
3467 22.8960 5198.00 4897.81 72.00
3468 22.9020 5150.00 4907.76 72.00
3469 22.9080 5104.00 4922.30 71.00
3470 22.9140 5195.00 4944.79 72.00
3471 22.9200 5230.00 4984.50 72.00
3472 22.9260 5336.00 5067.26 73.00
3473 22.9320 5399.00 5251.63 73.00
3474 22.9380 5745.00 5613.47 76.00
3475 22.9440 6541.00 6189.89 81.00
3476 22.9500 7439.00 6826.90 86.00
3477 22.9560 7712.00 7260.99 88.00
3478 22.9620 7127.00 7040.94 84.00
3479 22.9680 6267.00 6282.26 79.00
3480 22.9740 5565.00 5619.22 75.00
3481 22.9800 5362.00 5248.59 73.00
3482 22.9860 5196.00 5094.91 72.00
3483 22.9920 4967.00 5052.30 70.00
3484 22.9980 5065.00 5080.78 71.00
3485 23.0040 5316.00 5202.41 73.00
3486 23.0100 5479.00 5449.19 74.00
3487 23.0160 5872.00 5771.18 77.00
3488 23.0220 6077.00 5959.10 78.00
3489 23.0280 6386.00 5984.36 80.00
3490 23.0340 6604.00 6165.09 81.00
3491 23.0400 6929.00 6500.09 83.00
3492 23.0460 6725.00 6507.21 82.00
3493 23.0520 6086.00 6007.11 78.00
3494 23.0580 5348.00 5486.35 73.00
3495 23.0640 5102.00 5167.60 71.00
3496 23.0700 4982.00 5041.69 71.00
3497 23.0760 4857.00 4989.09 70.00
3498 23.0820 4832.00 4976.31 70.00
3499 23.0880 4818.00 4993.73 69.00
3500 23.0940 4826.00 5067.11 69.00
3501 23.1000 5128.00 5258.33 72.00
3502 23.1060 5500.00 5620.26 74.00
3503 23.1120 6205.00 6062.36 79.00
3504 23.1180 6289.00 6204.32 79.00
3505 23.1240 5642.00 5858.08 75.00
3506 23.1300 5232.00 5425.41 72.00
3507 23.1360 4910.00 5143.95 70.00
3508 23.1420 4765.00 5015.66 69.00
3509 23.1480 4809.00 4966.16 69.00
3510 23.1540 4846.00 4954.60 70.00
3511 23.1600 4735.00 4958.32 69.00
3512 23.1660 4887.00 4972.80 70.00
3513 23.1720 4745.00 4998.14 69.00
3514 23.1780 4881.00 5036.76 70.00
3515 23.1840 4817.00 5093.82 69.00
3516 23.1900 5137.00 5180.54 72.00
3517 23.1960 5413.00 5328.91 74.00
3518 23.2020 5912.00 5638.91 77.00
3519 23.2080 7098.00 6347.31 84.00
3520 23.2140 8038.00 7772.81 90.00
3521 23.2200 9130.00 9885.86 96.00
3522 23.2260 10079.00 11608.50 100.00
3523 23.2320 10924.00 11521.50 105.00
3524 23.2380 12215.00 11144.40 111.00
3525 23.2440 13374.00 12280.70 116.00
3526 23.2500 14131.00 14187.20 119.00
3527 23.2560 13471.00 13823.50 116.00
3528 23.2620 10553.00 10915.90 103.00
3529 23.2680 7948.00 8112.67 89.00
3530 23.2740 6231.00 6436.60 79.00
3531 23.2800 5560.00 5664.86 75.00
3532 23.2860 5172.00 5332.71 72.00
3533 23.2920 5008.00 5164.62 71.00
3534 23.2980 4744.00 5059.68 69.00
3535 23.3040 4676.00 4983.63 68.00
3536 23.3100 4681.00 4929.58 68.00
3537 23.3160 4629.00 4888.34 68.00
3538 23.3220 4526.00 4856.02 67.00
3539 23.3280 4550.00 4830.10 67.00
3540 23.3340 4623.00 4808.87 68.00
3541 23.3400 4502.00 4791.18 67.00
3542 23.3460 4495.00 4776.20 67.00
3543 23.3520 4486.00 4763.33 67.00
3544 23.3580 4382.00 4752.13 66.00
3545 23.3640 4492.00 4742.27 67.00
3546 23.3700 4425.00 4733.50 67.00
3547 23.3760 4500.00 4725.63 67.00
3548 23.3820 4423.00 4726.94 67.00
3549 23.3880 4375.00 4722.16 66.00
3550 23.3940 4450.00 4716.86 67.00
3551 23.4000 4443.00 4712.07 67.00
3552 23.4060 4424.00 4711.35 67.00
3553 23.4120 4461.00 4707.69 67.00
3554 23.4180 4505.00 4693.34 67.00
3555 23.4240 4460.00 4691.17 67.00
3556 23.4300 4536.00 4689.33 67.00
3557 23.4360 4474.00 4687.86 67.00
3558 23.4420 4434.00 4669.72 67.00
3559 23.4480 4551.00 4670.08 67.00
3560 23.4540 4528.00 4670.83 67.00
3561 23.4600 4506.00 4672.05 67.00
3562 23.4660 4555.00 4673.83 67.00
3563 23.4720 4552.00 4676.33 67.00
3564 23.4780 4556.00 4679.73 67.00
3565 23.4840 4473.00 4684.25 67.00
3566 23.4900 4813.00 4690.25 69.00
3567 23.4960 4720.00 4698.17 69.00
3568 23.5020 4945.00 4708.69 70.00
3569 23.5080 5387.00 4722.76 73.00
3570 23.5140 5639.00 4741.86 75.00
3571 23.5200 5837.00 4768.26 76.00
3572 23.5260 5757.00 4805.85 76.00
3573 23.5320 5588.00 4862.68 75.00
3574 23.5380 5724.00 4961.50 76.00
3575 23.5440 5827.00 5173.56 76.00
3576 23.5500 6397.00 5671.34 80.00
3577 23.5560 7041.00 6695.04 84.00
3578 23.5620 7685.00 8261.49 88.00
3579 23.5680 8087.00 9618.57 90.00
3580 23.5740 8508.00 9480.97 92.00
3581 23.5800 8652.00 8403.55 93.00
3582 23.5860 8379.00 7637.04 92.00
3583 23.5920 7966.00 7202.46 89.00
3584 23.5980 7023.00 6527.09 84.00
3585 23.6040 5869.00 5776.83 77.00
3586 23.6100 5518.00 5249.67 74.00
3587 23.6160 5040.00 4966.24 71.00
3588 23.6220 5062.00 4831.97 71.00
3589 23.6280 4819.00 4763.55 69.00
3590 23.6340 4886.00 4721.35 70.00
3591 23.6400 4767.00 4691.49 69.00
3592 23.6460 4767.00 4668.93 69.00
3593 23.6520 4760.00 4651.26 69.00
3594 23.6580 4618.00 4637.00 68.00
3595 23.6640 4547.00 4625.23 67.00
3596 23.6700 4568.00 4615.29 68.00
3597 23.6760 4525.00 4606.75 67.00
3598 23.6820 4459.00 4599.30 67.00
3599 23.6880 4534.00 4592.68 67.00
3600 23.6940 4515.00 4586.75 67.00
3601 23.7000 4545.00 4581.35 67.00
3602 23.7060 4514.00 4576.41 67.00
3603 23.7120 4507.00 4571.82 67.00
3604 23.7180 4438.00 4567.55 67.00
3605 23.7240 4469.00 4563.52 67.00
3606 23.7300 4572.00 4559.72 68.00
3607 23.7360 4565.00 4556.10 68.00
3608 23.7420 4419.00 4552.63 66.00
3609 23.7480 4416.00 4549.30 66.00
3610 23.7540 4551.00 4546.09 67.00
3611 23.7600 4548.00 4534.80 67.00
3612 23.7660 4377.00 4531.17 66.00
3613 23.7720 4501.00 4528.74 67.00
3614 23.7780 4411.00 4526.33 66.00
3615 23.7840 4619.00 4520.55 68.00
3616 23.7900 4603.00 4518.39 68.00
3617 23.7960 4460.00 4516.23 67.00
3618 23.8020 4665.00 4514.47 68.00
3619 23.8080 4709.00 4513.53 69.00
3620 23.8140 4691.00 4512.58 68.00
3621 23.8200 4689.00 4511.63 68.00
3622 23.8260 4631.00 4510.69 68.00
3623 23.8320 4623.00 4509.74 68.00
3624 23.8380 4562.00 4508.79 68.00
3625 23.8440 4572.00 4507.85 68.00
3626 23.8500 4510.00 4506.90 67.00
3627 23.8560 4563.00 4505.96 68.00
3628 23.8620 4560.00 4535.27 68.00
3629 23.8680 4583.00 4576.07 68.00
3630 23.8740 4625.00 4579.95 68.00
3631 23.8800 4571.00 4584.34 68.00
3632 23.8860 4536.00 4589.31 67.00
3633 23.8920 4645.00 4594.93 68.00
3634 23.8980 4541.00 4601.32 67.00
3635 23.9040 4688.00 4608.58 68.00
3636 23.9100 4571.00 4616.89 68.00
3637 23.9160 4495.00 4626.41 67.00
3638 23.9220 4508.00 4637.36 67.00
3639 23.9280 4494.00 4650.02 67.00
3640 23.9340 4506.00 4664.74 67.00
3641 23.9400 4480.00 4681.94 67.00
3642 23.9460 4544.00 4702.18 67.00
3643 23.9520 4666.00 4726.18 68.00
3644 23.9580 4575.00 4754.88 68.00
3645 23.9640 4655.00 4789.52 68.00
3646 23.9700 4581.00 4831.80 68.00
3647 23.9760 4729.00 4884.08 69.00
3648 23.9820 4849.00 4949.66 70.00
3649 23.9880 4901.00 5033.32 70.00
3650 23.9940 4997.00 5142.17 71.00
3651 24.0000 5023.00 5287.30 71.00
3652 24.0060 5349.00 5487.25 73.00
3653 24.0120 5472.00 5775.00 74.00
3654 24.0180 5872.00 6237.43 77.00
3655 24.0240 6790.00 7131.39 82.00
3656 24.0300 8498.00 9126.55 92.00
3657 24.0360 12482.00 13425.50 112.00
3658 24.0420 22825.00 21059.20 151.00
3659 24.0480 37214.00 30655.60 193.00
3660 24.0540 44773.00 36591.40 212.00
3661 24.0600 36179.00 34362.30 190.00
3662 24.0660 22646.00 25273.30 150.00
3663 24.0720 13166.00 16204.00 115.00
3664 24.0780 9184.00 10510.10 96.00
3665 24.0840 7160.00 7730.55 85.00
3666 24.0900 6141.00 6511.85 78.00
3667 24.0960 5826.00 5926.64 76.00
3668 24.1020 5382.00 5583.79 73.00
3669 24.1080 5232.00 5352.87 72.00
3670 24.1140 4954.00 5237.56 70.00
3671 24.1200 4863.00 5117.80 70.00
3672 24.1260 4707.00 5058.29 69.00
3673 24.1320 4854.00 4991.63 70.00
3674 24.1380 4705.00 4941.09 69.00
3675 24.1440 4584.00 4903.09 68.00
3676 24.1500 4682.00 4931.22 68.00
3677 24.1560 4768.00 4915.85 69.00
3678 24.1620 4769.00 4909.19 69.00
3679 24.1680 4720.00 4912.71 69.00
3680 24.1740 4783.00 4932.29 69.00
3681 24.1800 4891.00 4981.24 70.00
3682 24.1860 4908.00 5075.20 70.00
3683 24.1920 4949.00 5211.16 70.00
3684 24.1980 5117.00 5337.59 72.00
3685 24.2040 5130.00 5403.68 72.00
3686 24.2100 5256.00 5505.83 72.00
3687 24.2160 5471.00 5722.39 74.00
3688 24.2220 5481.00 5940.08 74.00
3689 24.2280 5525.00 5920.90 74.00
3690 24.2340 5344.00 5736.92 73.00
3691 24.2400 5284.00 5609.08 73.00
3692 24.2460 5361.00 5582.42 73.00
3693 24.2520 5434.00 5664.73 74.00
3694 24.2580 5565.00 5887.78 75.00
3695 24.2640 6009.00 6225.03 78.00
3696 24.2700 6637.00 6756.66 81.00
3697 24.2760 7925.00 7741.96 89.00
3698 24.2820 9983.00 9874.58 100.00
3699 24.2880 15064.00 14402.30 123.00
3700 24.2940 25420.00 22355.90 159.00
3701 24.3000 38485.00 32442.60 196.00
3702 24.3060 41696.00 38758.40 204.00
3703 24.3120 35418.00 38343.80 188.00
3704 24.3180 30148.00 35472.50 174.00
3705 24.3240 30234.00 32016.60 174.00
3706 24.3300 33278.00 31965.60 182.00
3707 24.3360 36117.00 35646.30 190.00
3708 24.3420 34125.00 35583.90 185.00
3709 24.3480 25560.00 27555.10 160.00
3710 24.3540 16906.00 18214.70 130.00
3711 24.3600 11421.00 11858.80 107.00
3712 24.3660 8645.00 8591.22 93.00
3713 24.3720 7314.00 7113.49 86.00
3714 24.3780 6365.00 6392.30 80.00
3715 24.3840 5860.00 5963.20 77.00
3716 24.3900 5448.00 5668.70 74.00
3717 24.3960 5320.00 5452.14 73.00
3718 24.4020 5108.00 5288.29 71.00
3719 24.4080 5044.00 5160.75 71.00
3720 24.4140 4983.00 5059.43 71.00
3721 24.4200 4821.00 4975.87 69.00
3722 24.4260 4776.00 4908.61 69.00
3723 24.4320 4662.00 4852.64 68.00
3724 24.4380 4754.00 4805.48 69.00
3725 24.4440 4705.00 4765.35 69.00
3726 24.4500 4749.00 4730.89 69.00
3727 24.4560 4686.00 4811.91 68.00
3728 24.4620 4669.00 4793.04 68.00
3729 24.4680 4662.00 4778.06 68.00
3730 24.4740 4646.00 4766.54 68.00
3731 24.4800 4659.00 4758.20 68.00
3732 24.4860 4696.00 4752.84 69.00
3733 24.4920 4661.00 4750.36 68.00
3734 24.4980 4586.00 4750.72 68.00
3735 24.5040 4652.00 4708.10 68.00
3736 24.5100 4657.00 4717.04 68.00
3737 24.5160 4657.00 4700.17 68.00
3738 24.5220 4623.00 4717.22 68.00
3739 24.5280 4680.00 4738.04 68.00
3740 24.5340 4647.00 4765.99 68.00
3741 24.5400 4730.00 4745.62 69.00
3742 24.5460 4807.00 4785.59 69.00
3743 24.5520 4830.00 4833.24 69.00
3744 24.5580 4834.00 4890.56 70.00
3745 24.5640 4945.00 4960.26 70.00
3746 24.5700 5059.00 5046.16 71.00
3747 24.5760 5082.00 5157.55 71.00
3748 24.5820 5111.00 5294.23 71.00
3749 24.5880 5271.00 5472.05 73.00
3750 24.5940 5373.00 5706.68 73.00
3751 24.6000 5560.00 6026.42 75.00
3752 24.6060 6015.00 6480.51 78.00
3753 24.6120 6684.00 7182.79 82.00
3754 24.6180 8062.00 8477.54 90.00
3755 24.6240 10505.00 11366.80 102.00
3756 24.6300 16614.00 17944.80 129.00
3757 24.6360 32459.00 30504.20 180.00
3758 24.6420 57055.00 47937.70 239.00
3759 24.6480 67318.00 60103.90 259.00
3760 24.6540 51464.00 53410.60 227.00
3761 24.6600 30850.00 36024.70 176.00
3762 24.6660 18129.00 21407.70 135.00
3763 24.6720 12007.00 13035.40 110.00
3764 24.6780 9174.00 9214.09 96.00
3765 24.6840 7632.00 7562.91 87.00
3766 24.6900 6845.00 6740.92 83.00
3767 24.6960 6388.00 6254.18 80.00
3768 24.7020 6038.00 5961.41 78.00
3769 24.7080 5842.00 5846.52 76.00
3770 24.7140 5922.00 5937.63 77.00
3771 24.7200 6378.00 6216.17 80.00
3772 24.7260 6405.00 6477.72 80.00
3773 24.7320 6196.00 6346.37 79.00
3774 24.7380 5953.00 5898.87 77.00
3775 24.7440 5771.00 5519.98 76.00
3776 24.7500 5485.00 5398.75 74.00
3777 24.7560 5610.00 5603.60 75.00
3778 24.7620 6242.00 6128.45 79.00
3779 24.7680 7221.00 6770.69 85.00
3780 24.7740 7358.00 6983.30 86.00
3781 24.7800 6505.00 6547.92 81.00
3782 24.7860 5850.00 5890.57 76.00
3783 24.7920 5308.00 5320.49 73.00
3784 24.7980 4977.00 4960.11 71.00
3785 24.8040 4826.00 4769.14 69.00
3786 24.8100 4769.00 4671.71 69.00
3787 24.8160 4658.00 4616.83 68.00
3788 24.8220 4653.00 4580.48 68.00
3789 24.8280 4585.00 4553.31 68.00
3790 24.8340 4562.00 4531.66 68.00
3791 24.8400 4547.00 4513.83 67.00
3792 24.8460 4460.00 4392.37 67.00
3793 24.8520 4544.00 4385.62 67.00
3794 24.8580 4544.00 4379.99 67.00
3795 24.8640 4413.00 4375.22 66.00
3796 24.8700 4308.00 4371.10 66.00
3797 24.8760 4289.00 4367.50 65.00
3798 24.8820 4320.00 4364.30 66.00
3799 24.8880 4302.00 4361.42 66.00
3800 24.8940 4340.00 4358.82 66.00
3801 24.9000 4385.00 4356.44 66.00
3802 24.9060 4409.00 4354.23 66.00
3803 24.9120 4405.00 4352.18 66.00
3804 24.9180 4484.00 4350.25 67.00
3805 24.9240 4577.00 4348.44 68.00
3806 24.9300 4814.00 4344.19 69.00
3807 24.9360 5007.00 4342.69 71.00
3808 24.9420 5049.00 4341.25 71.00
3809 24.9480 5082.00 4339.86 71.00
3810 24.9540 4837.00 4338.51 70.00
3811 24.9600 4588.00 4337.21 68.00
3812 24.9660 4545.00 4335.93 67.00
3813 24.9720 4437.00 4330.83 67.00
3814 24.9780 4367.00 4329.83 66.00
3815 24.9840 4368.00 4328.06 66.00
3816 24.9900 4307.00 4327.11 66.00
3817 24.9960 4288.00 4326.17 65.00
3818 25.0020 4300.00 4325.22 66.00
3819 25.0080 4262.00 4324.27 65.00
3820 25.0140 4215.00 4323.33 65.00
3821 25.0200 4204.00 4322.38 65.00
3822 25.0260 4249.00 4321.43 65.00
3823 25.0320 4202.00 4320.49 65.00
3824 25.0380 4141.00 4319.54 64.00
3825 25.0440 4183.00 4318.59 65.00
3826 25.0500 4211.00 4330.07 65.00
3827 25.0560 4189.00 4329.90 65.00
3828 25.0620 4159.00 4329.80 64.00
3829 25.0680 4218.00 4329.79 65.00
3830 25.0740 4280.00 4332.88 65.00
3831 25.0800 4229.00 4333.26 65.00
3832 25.0860 4162.00 4333.79 65.00
3833 25.0920 4230.00 4334.48 65.00
3834 25.0980 4176.00 4335.37 65.00
3835 25.1040 4139.00 4336.48 64.00
3836 25.1100 4141.00 4337.85 64.00
3837 25.1160 4129.00 4339.53 64.00
3838 25.1220 4087.00 4341.58 64.00
3839 25.1280 4158.00 4344.06 64.00
3840 25.1340 4271.00 4347.06 65.00
3841 25.1400 4274.00 4358.12 65.00
3842 25.1460 4231.00 4363.00 65.00
3843 25.1520 4213.00 4368.91 65.00
3844 25.1580 4297.00 4376.07 66.00
3845 25.1640 4303.00 4401.11 66.00
3846 25.1700 4312.00 4412.97 66.00
3847 25.1760 4473.00 4427.63 67.00
3848 25.1820 4529.00 4446.00 67.00
3849 25.1880 4490.00 4469.43 67.00
3850 25.1940 4541.00 4499.89 67.00
3851 25.2000 4631.00 4540.52 68.00
3852 25.2060 4742.00 4596.68 69.00
3853 25.2120 4957.00 4680.09 70.00
3854 25.2180 5224.00 4824.19 72.00
3855 25.2240 5717.00 5125.64 76.00
3856 25.2300 6671.00 5796.48 82.00
3857 25.2360 7875.00 7107.37 89.00
3858 25.2420 8822.00 9069.07 94.00
3859 25.2480 9088.00 10868.60 95.00
3860 25.2540 8935.00 10908.80 95.00
3861 25.2600 8544.00 9457.89 92.00
3862 25.2660 7971.00 8100.54 89.00
3863 25.2720 7145.00 7194.75 85.00
3864 25.2780 6220.00 6383.59 79.00
3865 25.2840 5400.00 5691.27 73.00
3866 25.2900 4964.00 5239.27 70.00
3867 25.2960 4789.00 5014.37 69.00
3868 25.3020 4783.00 4950.04 69.00
3869 25.3080 5044.00 5006.76 71.00
3870 25.3140 5495.00 5225.21 74.00
3871 25.3200 6218.00 5739.72 79.00
3872 25.3260 7385.00 6698.29 86.00
3873 25.3320 8956.00 8048.72 95.00
3874 25.3380 10352.00 9259.90 102.00
3875 25.3440 11412.00 9812.27 107.00
3876 25.3500 12414.00 10560.50 111.00
3877 25.3560 13473.00 12113.30 116.00
3878 25.3620 13540.00 13184.70 116.00
3879 25.3680 11760.00 11864.90 108.00
3880 25.3740 9004.00 9228.48 95.00
3881 25.3800 6745.00 7036.93 82.00
3882 25.3860 5604.00 5748.65 75.00
3883 25.3920 5147.00 5133.28 72.00
3884 25.3980 4878.00 4852.83 70.00
3885 25.4040 4675.00 4705.97 68.00
3886 25.4100 4543.00 4613.09 67.00
3887 25.4160 4587.00 4547.45 68.00
3888 25.4220 4781.00 4498.60 69.00
3889 25.4280 4810.00 4461.10 69.00
3890 25.4340 4796.00 4431.56 69.00
3891 25.4400 4612.00 4414.18 68.00
3892 25.4460 4377.00 4395.17 66.00
3893 25.4520 4406.00 4367.16 66.00
3894 25.4580 4345.00 4354.73 66.00
3895 25.4640 4264.00 4344.28 65.00
3896 25.4700 4223.00 4335.43 65.00
3897 25.4760 4139.00 4325.05 64.00
3898 25.4820 4125.00 4318.74 64.00
3899 25.4880 4095.00 4313.32 64.00
3900 25.4940 4090.00 4308.69 64.00
3901 25.5000 4069.00 4304.73 64.00
3902 25.5060 4044.00 4301.38 64.00
3903 25.5120 4054.00 4298.59 64.00
3904 25.5180 4078.00 4295.77 64.00
3905 25.5240 4056.00 4293.35 64.00
3906 25.5300 4075.00 4291.47 64.00
3907 25.5360 4103.00 4290.16 64.00
3908 25.5420 4070.00 4282.39 64.00
3909 25.5480 4104.00 4282.83 64.00
3910 25.5540 4075.00 4288.07 64.00
3911 25.5600 4078.00 4295.94 64.00
3912 25.5660 4107.00 4284.50 64.00
3913 25.5720 4102.00 4291.23 64.00
3914 25.5780 4131.00 4300.20 64.00
3915 25.5840 4159.00 4312.31 64.00
3916 25.5900 4220.00 4328.97 65.00
3917 25.5960 4242.00 4352.61 65.00
3918 25.6020 4334.00 4404.72 66.00
3919 25.6080 4382.00 4483.48 66.00
3920 25.6140 4475.00 4618.65 67.00
3921 25.6200 4758.00 4921.01 69.00
3922 25.6260 5378.00 5520.76 73.00
3923 25.6320 6598.00 6443.47 81.00
3924 25.6380 7855.00 7347.78 89.00
3925 25.6440 7495.00 7431.88 87.00
3926 25.6500 6237.00 6600.15 79.00
3927 25.6560 5300.00 5656.48 73.00
3928 25.6620 4798.00 5017.65 69.00
3929 25.6680 4522.00 4692.35 67.00
3930 25.6740 4468.00 4553.69 67.00
3931 25.6800 4429.00 4497.47 67.00
3932 25.6860 4279.00 4475.00 65.00
3933 25.6920 4219.00 4475.47 65.00
3934 25.6980 4323.00 4483.35 66.00
3935 25.7040 4394.00 4506.56 66.00
3936 25.7100 4385.00 4540.38 66.00
3937 25.7160 4480.00 4592.63 67.00
3938 25.7220 4481.00 4676.19 67.00
3939 25.7280 4625.00 4829.08 68.00
3940 25.7340 4851.00 5149.18 70.00
3941 25.7400 5677.00 5811.78 75.00
3942 25.7460 7415.00 6968.03 86.00
3943 25.7520 9199.00 8459.98 96.00
3944 25.7580 9672.00 9448.62 98.00
3945 25.7640 8697.00 9028.01 93.00
3946 25.7700 7436.00 7901.18 86.00
3947 25.7760 6715.00 7245.06 82.00
3948 25.7820 7055.00 7725.70 84.00
3949 25.7880 9208.00 9752.76 96.00
3950 25.7940 14287.00 13342.20 120.00
3951 25.8000 19714.00 17284.40 140.00
3952 25.8060 20603.00 18893.70 144.00
3953 25.8120 16220.00 16905.90 127.00
3954 25.8180 11044.00 12821.80 105.00
3955 25.8240 8080.00 9175.09 90.00
3956 25.8300 6486.00 6908.11 81.00
3957 25.8360 5775.00 5771.04 76.00
3958 25.8420 5364.00 5255.81 73.00
3959 25.8480 5253.00 5007.73 72.00
3960 25.8540 5284.00 4886.24 73.00
3961 25.8600 5376.00 4841.35 73.00
3962 25.8660 5548.00 4890.06 74.00
3963 25.8720 5916.00 5109.15 77.00
3964 25.8780 6524.00 5621.60 81.00
3965 25.8840 7252.00 6495.55 85.00
3966 25.8900 7819.00 7526.76 88.00
3967 25.8960 8253.00 8072.79 91.00
3968 25.9020 8328.00 7855.73 91.00
3969 25.9080 7789.00 7180.09 88.00
3970 25.9140 6756.00 6236.25 82.00
3971 25.9200 6054.00 5410.92 78.00
3972 25.9260 5542.00 4880.83 74.00
3973 25.9320 5130.00 4596.05 72.00
3974 25.9380 4958.00 4454.19 70.00
3975 25.9440 4841.00 4378.71 70.00
3976 25.9500 4823.00 4331.45 69.00
3977 25.9560 4806.00 4297.67 69.00
3978 25.9620 4867.00 4267.83 70.00
3979 25.9680 4681.00 4242.49 68.00
3980 25.9740 4719.00 4226.12 69.00
3981 25.9800 4550.00 4212.49 67.00
3982 25.9860 4601.00 4213.72 68.00
3983 25.9920 4576.00 4204.53 68.00
3984 25.9980 4658.00 4215.92 68.00
3985 26.0040 4683.00 4210.30 68.00
3986 26.0100 4613.00 4190.65 68.00
3987 26.0160 4515.00 4173.55 67.00
3988 26.0220 4491.00 4172.22 67.00
3989 26.0280 4551.00 4171.52 67.00
3990 26.0340 4563.00 4171.45 68.00
3991 26.0400 4527.00 4172.01 67.00
3992 26.0460 4623.00 4173.23 68.00
3993 26.0520 4510.00 4175.16 67.00
3994 26.0580 4479.00 4177.87 67.00
3995 26.0640 4421.00 4181.44 66.00
3996 26.0700 4478.00 4186.01 67.00
3997 26.0760 4428.00 4191.75 67.00
3998 26.0820 4416.00 4198.86 66.00
3999 26.0880 4405.00 4207.62 66.00
4000 26.0940 4467.00 4218.40 67.00
4001 26.1000 4338.00 4226.29 66.00
4002 26.1060 4338.00 4243.00 66.00
4003 26.1120 4327.00 4263.69 66.00
4004 26.1180 4404.00 4286.57 66.00
4005 26.1240 4435.00 4319.53 67.00
4006 26.1300 4561.00 4361.83 68.00
4007 26.1360 4613.00 4417.19 68.00
4008 26.1420 4758.00 4528.65 69.00
4009 26.1480 4813.00 4634.41 69.00
4010 26.1540 5061.00 4793.13 71.00
4011 26.1600 5400.00 5117.79 73.00
4012 26.1660 6359.00 5673.47 80.00
4013 26.1720 7651.00 6812.23 87.00
4014 26.1780 9559.00 8904.50 98.00
4015 26.1840 11996.00 12050.00 110.00
4016 26.1900 14809.00 15402.10 122.00
4017 26.1960 16849.00 17484.40 130.00
4018 26.2020 16953.00 17714.00 130.00
4019 26.2080 14391.00 15265.60 120.00
4020 26.2140 10797.00 11456.30 104.00
4021 26.2200 8134.00 8355.40 90.00
4022 26.2260 6678.00 6494.35 82.00
4023 26.2320 5667.00 5576.62 75.00
4024 26.2380 5215.00 5160.39 72.00
4025 26.2440 5005.00 4959.96 71.00
4026 26.2500 4885.00 4851.39 70.00
4027 26.2560 4897.00 4791.27 70.00
4028 26.2620 4862.00 4764.00 70.00
4029 26.2680 4694.00 4763.11 69.00
4030 26.2740 4844.00 4786.26 70.00
4031 26.2800 4857.00 4833.99 70.00
4032 26.2860 5114.00 4909.55 72.00
4033 26.2920 5097.00 5019.64 71.00
4034 26.2980 5358.00 5175.79 73.00
4035 26.3040 5958.00 5399.56 77.00
4036 26.3100 6518.00 5740.05 81.00
4037 26.3160 7418.00 6332.86 86.00
4038 26.3220 9332.00 7527.47 97.00
4039 26.3280 12489.00 9991.91 112.00
4040 26.3340 17302.00 14476.00 132.00
4041 26.3400 22117.00 20991.60 149.00
4042 26.3460 26598.00 27535.30 163.00
4043 26.3520 31101.00 30786.70 176.00
4044 26.3580 36435.00 32310.10 191.00
4045 26.3640 38400.00 34438.70 196.00
4046 26.3700 34306.00 33245.00 185.00
4047 26.3760 25089.00 26081.60 158.00
4048 26.3820 16117.00 17741.90 127.00
4049 26.3880 10984.00 11695.40 105.00
4050 26.3940 8183.00 8307.34 90.00
4051 26.4000 6914.00 6663.28 83.00
4052 26.4060 6020.00 5877.22 78.00
4053 26.4120 5642.00 5418.61 75.00
4054 26.4180 5513.00 5143.99 74.00
4055 26.4240 5129.00 4937.29 72.00
4056 26.4300 4905.00 4782.23 70.00
4057 26.4360 4922.00 4662.75 70.00
4058 26.4420 4863.00 4574.07 70.00
4059 26.4480 4647.00 4499.18 68.00
4060 26.4540 4684.00 4438.45 68.00
4061 26.4600 4712.00 4388.61 69.00
4062 26.4660 4654.00 4383.76 68.00
4063 26.4720 4722.00 4439.20 69.00
4064 26.4780 4689.00 4417.88 68.00
4065 26.4840 4641.00 4435.25 68.00
4066 26.4900 4903.00 4425.89 70.00
4067 26.4960 5103.00 4420.94 71.00
4068 26.5020 5407.00 4420.16 74.00
4069 26.5080 5303.00 4423.44 73.00
4070 26.5140 5139.00 4430.80 72.00
4071 26.5200 5011.00 4442.40 71.00
4072 26.5260 4676.00 4458.54 68.00
4073 26.5320 4659.00 4479.67 68.00
4074 26.5380 4662.00 4506.44 68.00
4075 26.5440 4523.00 4544.84 67.00
4076 26.5500 4580.00 4586.19 68.00
4077 26.5560 4794.00 4636.99 69.00
4078 26.5620 4824.00 4664.99 69.00
4079 26.5680 4747.00 4744.28 69.00
4080 26.5740 4827.00 4842.97 69.00
4081 26.5800 4966.00 4920.58 70.00
4082 26.5860 5214.00 5088.57 72.00
4083 26.5920 5451.00 5328.18 74.00
4084 26.5980 5700.00 5723.65 75.00
4085 26.6040 6728.00 6460.91 82.00
4086 26.6100 8280.00 7813.45 91.00
4087 26.6160 10093.00 9931.87 100.00
4088 26.6220 11013.00 12419.60 105.00
4089 26.6280 11898.00 13935.90 109.00
4090 26.6340 12416.00 13738.20 111.00
4091 26.6400 13250.00 13398.90 115.00
4092 26.6460 14559.00 14401.10 121.00
4093 26.6520 18139.00 17563.00 135.00
4094 26.6580 25711.00 24394.50 160.00
4095 26.6640 41957.00 36908.40 205.00
4096 26.6700 63448.00 54131.40 252.00
4097 26.6760 74086.00 68936.50 272.00
4098 26.6820 70945.00 72640.50 266.00
4099 26.6880 57164.00 63585.30 239.00
4100 26.6940 41329.00 47351.10 203.00
4101 26.7000 27331.00 31063.00 165.00
4102 26.7060 17599.00 19495.40 133.00
4103 26.7120 12119.00 12898.40 110.00
4104 26.7180 9307.00 9600.70 96.00
4105 26.7240 7835.00 8042.84 89.00
4106 26.7300 6968.00 7362.25 83.00
4107 26.7360 6819.00 7237.21 83.00
4108 26.7420 7364.00 7517.85 86.00
4109 26.7480 7836.00 7889.91 89.00
4110 26.7540 7322.00 7748.66 86.00
4111 26.7600 6394.00 6956.33 80.00
4112 26.7660 5790.00 6064.00 76.00
4113 26.7720 5457.00 5403.58 74.00
4114 26.7780 5210.00 5004.69 72.00
4115 26.7840 4892.00 4779.63 70.00
4116 26.7900 4783.00 4642.06 69.00
4117 26.7960 4520.00 4544.95 67.00
4118 26.8020 4437.00 4468.99 67.00
4119 26.8080 4466.00 4407.64 67.00
4120 26.8140 4272.00 4355.34 65.00
4121 26.8200 4185.00 4310.69 65.00
4122 26.8260 4232.00 4272.12 65.00
4123 26.8320 4130.00 4238.45 64.00
4124 26.8380 4139.00 4208.81 64.00
4125 26.8440 4124.00 4169.71 64.00
4126 26.8500 4065.00 4146.91 64.00
4127 26.8560 4182.00 4126.44 65.00
4128 26.8620 4029.00 4102.91 63.00
4129 26.8680 3944.00 4086.45 63.00
4130 26.8740 4025.00 4071.46 63.00
4131 26.8800 4048.00 4057.77 64.00
4132 26.8860 3976.00 4010.77 63.00
4133 26.8920 3930.00 3961.30 63.00
4134 26.8980 3884.00 3911.71 62.00
4135 26.9040 3903.00 3876.26 62.00
4136 26.9100 3760.00 3874.34 61.00
4137 26.9160 3751.00 3872.56 61.00
4138 26.9220 3756.00 3870.94 61.00
4139 26.9280 3738.00 3869.48 61.00
4140 26.9340 3813.00 3868.22 62.00
4141 26.9400 3714.00 3867.19 61.00
4142 26.9460 3815.00 3866.44 62.00
4143 26.9520 3713.00 3866.07 61.00
4144 26.9580 3832.00 3866.19 62.00
4145 26.9640 3742.00 3862.13 61.00
4146 26.9700 3815.00 3864.25 62.00
4147 26.9760 3680.00 3868.16 61.00
4148 26.9820 3690.00 3875.94 61.00
4149 26.9880 3662.00 3893.36 61.00
4150 26.9940 3755.00 3932.91 61.00
4151 27.0000 3940.00 4011.84 63.00
4152 27.0060 4016.00 4136.73 63.00
4153 27.0120 4177.00 4273.62 65.00
4154 27.0180 4110.00 4323.52 64.00
4155 27.0240 4066.00 4230.47 64.00
4156 27.0300 3955.00 4087.48 63.00
4157 27.0360 3894.00 3974.28 62.00
4158 27.0420 3873.00 3907.77 62.00
4159 27.0480 3811.00 3875.50 62.00
4160 27.0540 3856.00 3860.98 62.00
4161 27.0600 3804.00 3854.32 62.00
4162 27.0660 3752.00 3851.82 61.00
4163 27.0720 3779.00 3853.41 61.00
4164 27.0780 3725.00 3862.46 61.00
4165 27.0840 3824.00 3887.40 62.00
4166 27.0900 3849.00 3940.67 62.00
4167 27.0960 3904.00 4028.27 62.00
4168 27.1020 4064.00 4128.98 64.00
4169 27.1080 3964.00 4173.68 63.00
4170 27.1140 3773.00 4111.88 61.00
4171 27.1200 3673.00 4005.27 61.00
4172 27.1260 3661.00 3917.05 61.00
4173 27.1320 3551.00 3874.63 60.00
4174 27.1380 3529.00 3847.68 59.00
4175 27.1440 3482.00 3848.28 59.00
4176 27.1500 3517.00 3841.97 59.00
4177 27.1560 3600.00 3838.21 60.00
4178 27.1620 3525.00 3835.77 59.00
4179 27.1680 3569.00 3834.21 60.00
4180 27.1740 3611.00 3833.33 60.00
4181 27.1800 3519.00 3833.01 59.00
4182 27.1860 3545.00 3833.21 60.00
4183 27.1920 3489.00 3833.90 59.00
4184 27.1980 3523.00 3835.08 59.00
4185 27.2040 3598.00 3836.80 60.00
4186 27.2100 3562.00 3839.09 60.00
4187 27.2160 3545.00 3842.03 60.00
4188 27.2220 3536.00 3845.71 59.00
4189 27.2280 3547.00 3850.26 60.00
4190 27.2340 3504.00 3854.92 59.00
4191 27.2400 3559.00 3861.77 60.00
4192 27.2460 3567.00 3870.11 60.00
4193 27.2520 3606.00 3880.29 60.00
4194 27.2580 3609.00 3892.76 60.00
4195 27.2640 3599.00 3908.15 60.00
4196 27.2700 3638.00 3927.29 60.00
4197 27.2760 3645.00 3951.34 60.00
4198 27.2820 3704.00 3981.97 61.00
4199 27.2880 3732.00 4021.57 61.00
4200 27.2940 3728.00 4073.84 61.00
4201 27.3000 3870.00 4144.72 62.00
4202 27.3060 4153.00 4246.23 64.00
4203 27.3120 4423.00 4408.12 67.00
4204 27.3180 4805.00 4708.92 69.00
4205 27.3240 5605.00 5322.58 75.00
4206 27.3300 7017.00 6530.88 84.00
4207 27.3360 8947.00 8586.41 95.00
4208 27.3420 11113.00 11359.50 105.00
4209 27.3480 13161.00 13832.00 115.00
4210 27.3540 14351.00 14843.30 120.00
4211 27.3600 13404.00 14121.50 116.00
4212 27.3660 10733.00 11635.70 104.00
4213 27.3720 7989.00 8749.65 89.00
4214 27.3780 6145.00 6607.94 78.00
4215 27.3840 4991.00 5348.01 71.00
4216 27.3900 4471.00 4712.57 67.00
4217 27.3960 4183.00 4411.66 65.00
4218 27.4020 3976.00 4244.97 63.00
4219 27.4080 3876.00 4139.67 62.00
4220 27.4140 3805.00 4065.57 62.00
4221 27.4200 3786.00 4010.59 62.00
4222 27.4260 3726.00 3968.72 61.00
4223 27.4320 3593.00 3936.07 60.00
4224 27.4380 3551.00 3910.28 60.00
4225 27.4440 3495.00 3889.72 59.00
4226 27.4500 3524.00 3873.22 59.00
4227 27.4560 3572.00 3859.99 60.00
4228 27.4620 3566.00 3849.44 60.00
4229 27.4680 3543.00 3841.17 60.00
4230 27.4740 3510.00 3834.90 59.00
4231 27.4800 3481.00 3830.48 59.00
4232 27.4860 3468.00 3827.82 59.00
4233 27.4920 3506.00 3826.91 59.00
4234 27.4980 3524.00 3827.85 59.00
4235 27.5040 3541.00 3830.81 60.00
4236 27.5100 3521.00 3836.10 59.00
4237 27.5160 3541.00 3844.18 60.00
4238 27.5220 3590.00 3855.71 60.00
4239 27.5280 3512.00 3871.70 59.00
4240 27.5340 3501.00 3893.63 59.00
4241 27.5400 3596.00 3923.81 60.00
4242 27.5460 3626.00 3966.21 60.00
4243 27.5520 3690.00 4029.37 61.00
4244 27.5580 3843.00 4135.60 62.00
4245 27.5640 4053.00 4330.64 64.00
4246 27.5700 4567.00 4753.41 68.00
4247 27.5760 5211.00 5543.98 72.00
4248 27.5820 6234.00 6759.94 79.00
4249 27.5880 7302.00 8205.13 85.00
4250 27.5940 8189.00 9190.03 90.00
4251 27.6000 8927.00 9434.00 94.00
4252 27.6060 9455.00 9508.92 97.00
4253 27.6120 9102.00 9279.75 95.00
4254 27.6180 7676.00 8170.16 88.00
4255 27.6240 5982.00 6671.44 77.00
4256 27.6300 4884.00 5461.82 70.00
4257 27.6360 4350.00 4714.65 66.00
4258 27.6420 3995.00 4324.50 63.00
4259 27.6480 3835.00 4123.02 62.00
4260 27.6540 3680.00 4002.57 61.00
4261 27.6600 3635.00 3921.51 60.00
4262 27.6660 3611.00 3864.66 60.00
4263 27.6720 3649.00 3824.08 60.00
4264 27.6780 3637.00 3794.19 60.00
4265 27.6840 3708.00 3771.18 61.00
4266 27.6900 3803.00 3752.77 62.00
4267 27.6960 4042.00 3737.63 64.00
4268 27.7020 4151.00 3724.94 64.00
4269 27.7080 4093.00 3714.13 64.00
4270 27.7140 3969.00 3704.79 63.00
4271 27.7200 3723.00 3696.63 61.00
4272 27.7260 3555.00 3689.41 60.00
4273 27.7320 3541.00 3682.96 60.00
4274 27.7380 3488.00 3677.14 59.00
4275 27.7440 3377.00 3671.85 58.00
4276 27.7500 3392.00 3703.20 58.00
4277 27.7560 3425.00 3700.79 59.00
4278 27.7620 3360.00 3698.87 58.00
4279 27.7680 3368.00 3697.43 58.00
4280 27.7740 3355.00 3696.44 58.00
4281 27.7800 3306.00 3695.92 57.00
4282 27.7860 3319.00 3695.86 58.00
4283 27.7920 3404.00 3696.29 58.00
4284 27.7980 3478.00 3697.23 59.00
4285 27.8040 3451.00 3698.73 59.00
4286 27.8100 3436.00 3700.82 59.00
4287 27.8160 3465.00 3696.08 59.00
4288 27.8220 3475.00 3699.99 59.00
4289 27.8280 3501.00 3709.35 59.00
4290 27.8340 3551.00 3707.18 60.00
4291 27.8400 3513.00 3714.74 59.00
4292 27.8460 3471.00 3732.81 59.00
4293 27.8520 3430.00 3743.85 59.00
4294 27.8580 3451.00 3756.88 59.00
4295 27.8640 3434.00 3772.32 59.00
4296 27.8700 3489.00 3790.90 59.00
4297 27.8760 3528.00 3813.31 59.00
4298 27.8820 3549.00 3840.58 60.00
4299 27.8880 3620.00 3874.14 60.00
4300 27.8940 3687.00 3915.92 61.00
4301 27.9000 3716.00 3968.75 61.00
4302 27.9060 3716.00 4036.66 61.00
4303 27.9120 3896.00 4125.81 62.00
4304 27.9180 4066.00 4246.21 64.00
4305 27.9240 4219.00 4417.58 65.00
4306 27.9300 4498.00 4689.06 67.00
4307 27.9360 5010.00 5196.00 71.00
4308 27.9420 5817.00 6258.92 76.00
4309 27.9480 8071.00 8425.51 90.00
4310 27.9540 13252.00 12196.80 115.00
4311 27.9600 20442.00 17289.70 143.00
4312 27.9660 24407.00 21568.60 156.00
4313 27.9720 22220.00 21444.70 149.00
4314 27.9780 17035.00 17058.30 131.00
4315 27.9840 12205.00 12021.20 110.00
4316 27.9900 8686.00 8358.29 93.00
4317 27.9960 6731.00 6291.76 82.00
4318 28.0020 5735.00 5308.21 76.00
4319 28.0080 5097.00 4878.02 71.00
4320 28.0140 4794.00 4714.20 69.00
4321 28.0200 4700.00 4738.68 69.00
4322 28.0260 5014.00 4985.55 71.00
4323 28.0320 5704.00 5511.45 76.00
4324 28.0380 6557.00 6294.85 81.00
4325 28.0440 7127.00 7118.28 84.00
4326 28.0500 7897.00 7698.49 89.00
4327 28.0560 8827.00 8250.65 94.00
4328 28.0620 9543.00 8922.48 98.00
4329 28.0680 9157.00 9035.13 96.00
4330 28.0740 7707.00 8013.15 88.00
4331 28.0800 6120.00 6545.81 78.00
4332 28.0860 4958.00 5347.11 70.00
4333 28.0920 4389.00 4599.71 66.00
4334 28.0980 4043.00 4207.31 64.00
4335 28.1040 3911.00 4013.16 63.00
4336 28.1100 3776.00 3908.45 61.00
4337 28.1160 3647.00 3842.37 60.00
4338 28.1220 3639.00 3795.61 60.00
4339 28.1280 3601.00 3760.84 60.00
4340 28.1340 3570.00 3734.69 60.00
4341 28.1400 3468.00 3715.40 59.00
4342 28.1460 3443.00 3702.45 59.00
4343 28.1520 3481.00 3697.14 59.00
4344 28.1580 3543.00 3704.45 60.00
4345 28.1640 3579.00 3735.37 60.00
4346 28.1700 3746.00 3806.24 61.00
4347 28.1760 3636.00 3929.90 60.00
4348 28.1820 3739.00 4093.57 61.00
4349 28.1880 3834.00 4235.11 62.00
4350 28.1940 3915.00 4257.86 63.00
4351 28.2000 3955.00 4196.01 63.00
4352 28.2060 3776.00 4023.28 61.00
4353 28.2120 3508.00 3838.89 59.00
4354 28.2180 3552.00 3704.46 60.00
4355 28.2240 3544.00 3624.97 60.00
4356 28.2300 3453.00 3583.22 59.00
4357 28.2360 3434.00 3561.10 59.00
4358 28.2420 3386.00 3547.70 58.00
4359 28.2480 3465.00 3538.17 59.00
4360 28.2540 3402.00 3530.69 58.00
4361 28.2600 3386.00 3524.50 58.00
4362 28.2660 3435.00 3519.21 59.00
4363 28.2720 3473.00 3510.31 59.00
4364 28.2780 3404.00 3506.38 58.00
4365 28.2840 3375.00 3502.82 58.00
4366 28.2900 3332.00 3490.48 58.00
4367 28.2960 3384.00 3487.90 58.00
4368 28.3020 3315.00 3485.47 58.00
4369 28.3080 3381.00 3483.16 58.00
4370 28.3140 3314.00 3480.95 58.00
4371 28.3200 3277.00 3478.81 57.00
4372 28.3260 3301.00 3476.74 57.00
4373 28.3320 3425.00 3474.72 59.00
4374 28.3380 3417.00 3472.75 58.00
4375 28.3440 3288.00 3470.81 57.00
4376 28.3500 3338.00 3470.68 58.00
4377 28.3560 3384.00 3470.58 58.00
4378 28.3620 3171.00 3470.51 56.00
4379 28.3680 3314.00 3470.46 58.00
4380 28.3740 3424.00 3470.42 59.00
4381 28.3800 3440.00 3470.40 59.00
4382 28.3860 3440.00 3470.39 59.00
4383 28.3920 3425.00 3470.40 59.00
4384 28.3980 3440.00 3470.41 59.00
4385 28.4040 3457.00 3470.44 59.00
4386 28.4100 3478.00 3469.87 59.00
4387 28.4160 3444.00 3474.50 59.00
4388 28.4220 3466.00 3477.26 59.00
4389 28.4280 3335.00 3477.86 58.00
4390 28.4340 3379.00 3478.49 58.00
4391 28.4400 3321.00 3488.66 58.00
4392 28.4460 3411.00 3489.92 58.00
4393 28.4520 3345.00 3491.29 58.00
4394 28.4580 3416.00 3492.78 58.00
4395 28.4640 3334.00 3500.00 58.00
4396 28.4700 3378.00 3502.08 58.00
4397 28.4760 3526.00 3519.05 59.00
4398 28.4820 3413.00 3522.37 58.00
4399 28.4880 3396.00 3526.02 58.00
4400 28.4940 3436.00 3530.05 59.00
4401 28.5000 3469.00 3534.51 59.00
4402 28.5060 3426.00 3539.48 59.00
4403 28.5120 3382.00 3545.02 58.00
4404 28.5180 3493.00 3551.25 59.00
4405 28.5240 3558.00 3558.28 60.00
4406 28.5300 3451.00 3572.83 59.00
4407 28.5360 3486.00 3582.33 59.00
4408 28.5420 3532.00 3593.25 59.00
4409 28.5480 3441.00 3605.89 59.00
4410 28.5540 3538.00 3620.66 59.00
4411 28.5600 3560.00 3638.10 60.00
4412 28.5660 3615.00 3661.73 60.00
4413 28.5720 3742.00 3687.08 61.00
4414 28.5780 3592.00 3718.20 60.00
4415 28.5840 3721.00 3757.16 61.00
4416 28.5900 3785.00 3807.25 62.00
4417 28.5960 3789.00 3874.91 62.00
4418 28.6020 4034.00 3975.23 64.00
4419 28.6080 4133.00 4144.54 64.00
4420 28.6140 4389.00 4456.20 66.00
4421 28.6200 4846.00 5018.46 70.00
4422 28.6260 5980.00 5923.70 77.00
4423 28.6320 8033.00 7136.79 90.00
4424 28.6380 9599.00 8357.37 98.00
4425 28.6440 9160.00 9277.06 96.00
4426 28.6500 8677.00 9956.84 93.00
4427 28.6560 8278.00 10506.40 91.00
4428 28.6620 8249.00 10648.90 91.00
4429 28.6680 8864.00 10131.40 94.00
4430 28.6740 10386.00 9758.93 102.00
4431 28.6800 12888.00 10238.70 114.00
4432 28.6860 14049.00 11393.00 119.00
4433 28.6920 13440.00 12588.90 116.00
4434 28.6980 12490.00 13092.00 112.00
4435 28.7040 11810.00 11903.90 109.00
4436 28.7100 10058.00 9557.40 100.00
4437 28.7160 8459.00 7399.22 92.00
4438 28.7220 7242.00 6015.29 85.00
4439 28.7280 6685.00 5442.18 82.00
4440 28.7340 6400.00 5536.56 80.00
4441 28.7400 6332.00 6120.17 80.00
4442 28.7460 6213.00 6895.95 79.00
4443 28.7520 6023.00 7280.04 78.00
4444 28.7580 5904.00 6828.75 77.00
4445 28.7640 5760.00 5985.43 76.00
4446 28.7700 5772.00 5333.25 76.00
4447 28.7760 5721.00 5085.39 76.00
4448 28.7820 5505.00 5169.34 74.00
4449 28.7880 4992.00 5303.15 71.00
4450 28.7940 4651.00 5153.93 68.00
4451 28.8000 4589.00 4746.91 68.00
4452 28.8060 4324.00 4332.49 66.00
4453 28.8120 4022.00 4034.24 63.00
4454 28.8180 3883.00 3858.73 62.00
4455 28.8240 3859.00 3766.04 62.00
4456 28.8300 3815.00 3717.93 62.00
4457 28.8360 3821.00 3688.88 62.00
4458 28.8420 3655.00 3670.62 60.00
4459 28.8480 3732.00 3660.33 61.00
4460 28.8540 3861.00 3659.06 62.00
4461 28.8600 4048.00 3673.21 64.00
4462 28.8660 4150.00 3713.31 64.00
4463 28.8720 4228.00 3810.15 65.00
4464 28.8780 4321.00 3969.71 66.00
4465 28.8840 4634.00 4173.28 68.00
4466 28.8900 4630.00 4305.57 68.00
4467 28.8960 4369.00 4254.35 66.00
4468 28.9020 4148.00 4058.87 64.00
4469 28.9080 4013.00 3858.48 63.00
4470 28.9140 3827.00 3711.78 62.00
4471 28.9200 3733.00 3632.40 61.00
4472 28.9260 3611.00 3594.36 60.00
4473 28.9320 3639.00 3564.78 60.00
4474 28.9380 3629.00 3562.29 60.00
4475 28.9440 3712.00 3571.75 61.00
4476 28.9500 3728.00 3596.28 61.00
4477 28.9560 3792.00 3644.52 62.00
4478 28.9620 3640.00 3692.39 60.00
4479 28.9680 3699.00 3733.32 61.00
4480 28.9740 3753.00 3730.02 61.00
4481 28.9800 3713.00 3707.05 61.00
4482 28.9860 3810.00 3692.34 62.00
4483 28.9920 3807.00 3683.10 62.00
4484 28.9980 3847.00 3697.55 62.00
4485 29.0040 3817.00 3756.97 62.00
4486 29.0100 3801.00 3865.73 62.00
4487 29.0160 3984.00 3993.68 63.00
4488 29.0220 3913.00 4059.15 63.00
4489 29.0280 3917.00 4016.87 63.00
4490 29.0340 4030.00 3942.97 63.00
4491 29.0400 4114.00 3932.80 64.00
4492 29.0460 4127.00 4022.49 64.00
4493 29.0520 4328.00 4180.56 66.00
4494 29.0580 4397.00 4293.92 66.00
4495 29.0640 4322.00 4235.58 66.00
4496 29.0700 4146.00 4053.81 64.00
4497 29.0760 3907.00 3873.64 63.00
4498 29.0820 3719.00 3750.52 61.00
4499 29.0880 3606.00 3686.81 60.00
4500 29.0940 3606.00 3661.40 60.00
4501 29.1000 3601.00 3657.24 60.00
4502 29.1060 3637.00 3664.51 60.00
4503 29.1120 3607.00 3679.76 60.00
4504 29.1180 3566.00 3702.79 60.00
4505 29.1240 3656.00 3733.64 60.00
4506 29.1300 3635.00 3778.25 60.00
4507 29.1360 3757.00 3841.30 61.00
4508 29.1420 3859.00 3937.04 62.00
4509 29.1480 4031.00 4101.59 63.00
4510 29.1540 4358.00 4417.80 66.00
4511 29.1600 5027.00 5035.91 71.00
4512 29.1660 5943.00 6144.88 77.00
4513 29.1720 7327.00 7842.95 86.00
4514 29.1780 9284.00 9864.42 96.00
4515 29.1840 10884.00 11414.20 104.00
4516 29.1900 11621.00 11833.30 108.00
4517 29.1960 10297.00 10816.10 101.00
4518 29.2020 7844.00 8779.25 89.00
4519 29.2080 6046.00 6802.64 78.00
4520 29.2140 4979.00 5412.58 71.00
4521 29.2200 4344.00 4607.64 66.00
4522 29.2260 4113.00 4194.93 64.00
4523 29.2320 3979.00 3987.02 63.00
4524 29.2380 3832.00 3872.32 62.00
4525 29.2440 3735.00 3798.50 61.00
4526 29.2500 3697.00 3746.60 61.00
4527 29.2560 3576.00 3707.71 60.00
4528 29.2620 3595.00 3679.67 60.00
4529 29.2680 3599.00 3659.32 60.00
4530 29.2740 3648.00 3646.09 60.00
4531 29.2800 3694.00 3640.73 61.00
4532 29.2860 3700.00 3648.50 61.00
4533 29.2920 3776.00 3678.99 61.00
4534 29.2980 3819.00 3749.31 62.00
4535 29.3040 3973.00 3863.93 63.00
4536 29.3100 4220.00 3999.55 65.00
4537 29.3160 4198.00 4080.27 65.00
4538 29.3220 4068.00 4024.94 64.00
4539 29.3280 3908.00 3885.33 63.00
4540 29.3340 3809.00 3750.25 62.00
4541 29.3400 3676.00 3656.17 61.00
4542 29.3460 3773.00 3607.17 61.00
4543 29.3520 3706.00 3580.03 61.00
4544 29.3580 3612.00 3566.14 60.00
4545 29.3640 3629.00 3562.06 60.00
4546 29.3700 3686.00 3557.12 61.00
4547 29.3760 3709.00 3553.87 61.00
4548 29.3820 3698.00 3551.83 61.00
4549 29.3880 3644.00 3550.80 60.00
4550 29.3940 3671.00 3550.68 61.00
4551 29.4000 3714.00 3551.46 61.00
4552 29.4060 3687.00 3555.27 61.00
4553 29.4120 3743.00 3564.37 61.00
4554 29.4180 3869.00 3567.93 62.00
4555 29.4240 3847.00 3585.25 62.00
4556 29.4300 3863.00 3593.56 62.00
4557 29.4360 3861.00 3622.85 62.00
4558 29.4420 3903.00 3673.12 62.00
4559 29.4480 3966.00 3756.99 63.00
4560 29.4540 4026.00 3879.07 63.00
4561 29.4600 4026.00 4011.91 63.00
4562 29.4660 4017.00 4086.99 63.00
4563 29.4720 4018.00 4049.11 63.00
4564 29.4780 4064.00 3954.28 64.00
4565 29.4840 3963.00 3878.05 63.00
4566 29.4900 3974.00 3849.28 63.00
4567 29.4960 3946.00 3862.46 63.00
4568 29.5020 3975.00 3892.70 63.00
4569 29.5080 3940.00 3918.41 63.00
4570 29.5140 3978.00 3956.06 63.00
4571 29.5200 4110.00 4049.96 64.00
4572 29.5260 4279.00 4249.04 65.00
4573 29.5320 4734.00 4587.22 69.00
4574 29.5380 5583.00 5040.15 75.00
4575 29.5440 6258.00 5476.33 79.00
4576 29.5500 6114.00 5707.81 78.00
4577 29.5560 5746.00 5739.46 76.00
4578 29.5620 5670.00 5853.89 75.00
4579 29.5680 6131.00 6235.14 78.00
4580 29.5740 6630.00 6744.31 81.00
4581 29.5800 6940.00 6998.73 83.00
4582 29.5860 7070.00 6936.92 84.00
4583 29.5920 7032.00 6823.93 84.00
4584 29.5980 6715.00 6595.25 82.00
4585 29.6040 6104.00 6048.60 78.00
4586 29.6100 5441.00 5375.57 74.00
4587 29.6160 5106.00 4840.40 71.00
4588 29.6220 5009.00 4538.64 71.00
4589 29.6280 5156.00 4480.99 72.00
4590 29.6340 5238.00 4659.23 72.00
4591 29.6400 5167.00 5052.18 72.00
4592 29.6460 5237.00 5565.01 72.00
4593 29.6520 5283.00 5932.84 73.00
4594 29.6580 5284.00 5839.55 73.00
4595 29.6640 5285.00 5408.51 73.00
4596 29.6700 5148.00 5002.20 72.00
4597 29.6760 5065.00 4794.42 71.00
4598 29.6820 4833.00 4768.25 70.00
4599 29.6880 4737.00 4757.22 69.00
4600 29.6940 4653.00 4620.99 68.00
4601 29.7000 4387.00 4404.68 66.00
4602 29.7060 4151.00 4211.06 64.00
4603 29.7120 3959.00 4078.71 63.00
4604 29.7180 3957.00 4015.64 63.00
4605 29.7240 4020.00 3978.40 63.00
4606 29.7300 3945.00 3960.46 63.00
4607 29.7360 3937.00 3951.61 63.00
4608 29.7420 3966.00 3947.19 63.00
4609 29.7480 4037.00 3945.78 64.00
4610 29.7540 3987.00 3946.34 63.00
4611 29.7600 3932.00 3948.41 63.00
4612 29.7660 4001.00 3951.72 63.00
4613 29.7720 4008.00 3956.04 63.00
4614 29.7780 4002.00 3960.55 63.00
4615 29.7840 3998.00 3964.28 63.00
4616 29.7900 3930.00 3971.27 63.00
4617 29.7960 3936.00 3979.02 63.00
4618 29.8020 4037.00 3987.58 64.00
4619 29.8080 4096.00 3996.98 64.00
4620 29.8140 4119.00 4002.89 64.00
4621 29.8200 4117.00 4014.55 64.00
4622 29.8260 4069.00 4027.46 64.00
4623 29.8320 4083.00 4041.90 64.00
4624 29.8380 4055.00 4054.51 64.00
4625 29.8440 4065.00 4076.27 64.00
4626 29.8500 4090.00 4098.38 64.00
4627 29.8560 4074.00 4124.61 64.00
4628 29.8620 4042.00 4156.53 64.00
4629 29.8680 4101.00 4196.97 64.00
4630 29.8740 4213.00 4252.21 65.00
4631 29.8800 4309.00 4344.56 66.00
4632 29.8860 4506.00 4496.49 67.00
4633 29.8920 4801.00 4773.23 69.00
4634 29.8980 5134.00 5252.96 72.00
4635 29.9040 5484.00 5948.15 74.00
4636 29.9100 5841.00 6724.39 76.00
4637 29.9160 6244.00 7226.89 79.00
4638 29.9220 6841.00 7251.89 83.00
4639 29.9280 7770.00 7255.40 88.00
4640 29.9340 8585.00 7774.96 93.00
4641 29.9400 9392.00 8903.32 97.00
4642 29.9460 10249.00 10123.80 101.00
4643 29.9520 10452.00 10355.10 102.00
4644 29.9580 9451.00 9202.87 97.00
4645 29.9640 7750.00 7583.17 88.00
4646 29.9700 6512.00 6224.46 81.00
4647 29.9760 5633.00 5351.43 75.00
4648 29.9820 5129.00 4881.48 72.00
4649 29.9880 4915.00 4651.72 70.00
4650 29.9940 4600.00 4537.72 68.00
4651 30.0000 4390.00 4475.23 66.00
4652 30.0060 4375.00 4438.04 66.00
4653 30.0120 4421.00 4416.23 66.00
4654 30.0180 4422.00 4405.69 66.00
4655 30.0240 4314.00 4404.71 66.00
4656 30.0300 4352.00 4406.21 66.00
4657 30.0360 4442.00 4418.08 67.00
4658 30.0420 4498.00 4449.49 67.00
4659 30.0480 4563.00 4519.34 68.00
4660 30.0540 4673.00 4661.57 68.00
4661 30.0600 4891.00 4914.84 70.00
4662 30.0660 5080.00 5288.44 71.00
4663 30.0720 5318.00 5708.83 73.00
4664 30.0780 5615.00 5976.74 75.00
4665 30.0840 5795.00 5973.44 76.00
4666 30.0900 6138.00 5900.48 78.00
4667 30.0960 6634.00 6098.03 81.00
4668 30.1020 7205.00 6658.04 85.00
4669 30.1080 7856.00 7421.40 89.00
4670 30.1140 8249.00 7892.43 91.00
4671 30.1200 7823.00 7569.59 88.00
4672 30.1260 6911.00 6705.73 83.00
4673 30.1320 6122.00 5869.39 78.00
4674 30.1380 5574.00 5291.00 75.00
4675 30.1440 5242.00 4994.41 72.00
4676 30.1500 5082.00 4868.41 71.00
4677 30.1560 5190.00 4850.44 72.00
4678 30.1620 5157.00 4924.06 72.00
4679 30.1680 5148.00 5119.93 72.00
4680 30.1740 5492.00 5550.10 74.00
4681 30.1800 6346.00 6392.35 80.00
4682 30.1860 8149.00 7790.53 90.00
4683 30.1920 10648.00 9630.04 103.00
4684 30.1980 12445.00 11287.40 112.00
4685 30.2040 11977.00 11586.40 109.00
4686 30.2100 9957.00 10260.50 100.00
4687 30.2160 8127.00 8400.26 90.00
4688 30.2220 6794.00 6870.61 82.00
4689 30.2280 5934.00 5892.46 77.00
4690 30.2340 5520.00 5385.04 74.00
4691 30.2400 5330.00 5161.77 73.00
4692 30.2460 5507.00 5082.85 74.00
4693 30.2520 5753.00 5076.61 76.00
4694 30.2580 5667.00 5116.37 75.00
4695 30.2640 5559.00 5196.65 75.00
4696 30.2700 5709.00 5322.83 76.00
4697 30.2760 5834.00 5513.51 76.00
4698 30.2820 6182.00 5817.17 79.00
4699 30.2880 6904.00 6345.51 83.00
4700 30.2940 7978.00 7309.87 89.00
4701 30.3000 10017.00 9001.22 100.00
4702 30.3060 13261.00 11651.80 115.00
4703 30.3120 17278.00 15127.40 131.00
4704 30.3180 21050.00 18600.90 145.00
4705 30.3240 23949.00 21118.50 155.00
4706 30.3300 24298.00 23080.50 156.00
4707 30.3360 23267.00 25564.90 153.00
4708 30.3420 23878.00 29480.80 155.00
4709 30.3480 28764.00 33876.70 170.00
4710 30.3540 37368.00 36231.30 193.00
4711 30.3600 39159.00 35046.80 198.00
4712 30.3660 31368.00 30466.80 177.00
4713 30.3720 23753.00 25320.00 154.00
4714 30.3780 19729.00 21479.70 140.00
4715 30.3840 16942.00 18209.70 130.00
4716 30.3900 13767.00 14653.00 117.00
4717 30.3960 10840.00 11390.30 104.00
4718 30.4020 8749.00 8971.88 94.00
4719 30.4080 7570.00 7448.41 87.00
4720 30.4140 6814.00 6621.42 83.00
4721 30.4200 6424.00 6254.94 80.00
4722 30.4260 6473.00 6234.80 80.00
4723 30.4320 6946.00 6606.90 83.00
4724 30.4380 7998.00 7547.53 89.00
4725 30.4440 9731.00 9194.21 99.00
4726 30.4500 11855.00 11427.60 109.00
4727 30.4560 13015.00 13441.30 114.00
4728 30.4620 12516.00 13899.40 112.00
4729 30.4680 11359.00 12412.80 107.00
4730 30.4740 9772.00 10126.20 99.00
4731 30.4800 8216.00 8054.15 91.00
4732 30.4860 7210.00 6577.29 85.00
4733 30.4920 6391.00 5692.38 80.00
4734 30.4980 6016.00 5217.34 78.00
4735 30.5040 5788.00 4977.80 76.00
4736 30.5100 5581.00 4875.16 75.00
4737 30.5160 5487.00 4885.03 74.00
4738 30.5220 5674.00 5038.75 75.00
4739 30.5280 6053.00 5390.14 78.00
4740 30.5340 6678.00 5950.05 82.00
4741 30.5400 7189.00 6591.68 85.00
4742 30.5460 7218.00 6957.47 85.00
4743 30.5520 6726.00 6700.78 82.00
4744 30.5580 6113.00 6031.73 78.00
4745 30.5640 5503.00 5344.32 74.00
4746 30.5700 4994.00 4853.63 71.00
4747 30.5760 4623.00 4548.86 68.00
4748 30.5820 4384.00 4392.57 66.00
4749 30.5880 4327.00 4311.21 66.00
4750 30.5940 4379.00 4241.06 66.00
4751 30.6000 4340.00 4213.93 66.00
4752 30.6060 4326.00 4166.50 66.00
4753 30.6120 4355.00 4161.83 66.00
4754 30.6180 4312.00 4169.95 66.00
4755 30.6240 4250.00 4185.22 65.00
4756 30.6300 4308.00 4261.79 66.00
4757 30.6360 4420.00 4415.86 66.00
4758 30.6420 4698.00 4676.46 69.00
4759 30.6480 5314.00 5031.69 73.00
4760 30.6540 5713.00 5377.38 76.00
4761 30.6600 5553.00 5523.94 75.00
4762 30.6660 5158.00 5384.44 72.00
4763 30.6720 4816.00 5045.71 69.00
4764 30.6780 4550.00 4678.51 67.00
4765 30.6840 4276.00 4396.26 65.00
4766 30.6900 4031.00 4218.60 63.00
4767 30.6960 4007.00 4120.05 63.00
4768 30.7020 3992.00 4068.81 63.00
4769 30.7080 3968.00 4028.04 63.00
4770 30.7140 3934.00 4010.39 63.00
4771 30.7200 3877.00 3997.05 62.00
4772 30.7260 3870.00 3988.03 62.00
4773 30.7320 3824.00 3981.31 62.00
4774 30.7380 3853.00 3984.76 62.00
4775 30.7440 3880.00 3982.33 62.00
4776 30.7500 3967.00 3981.46 63.00
4777 30.7560 3923.00 3982.36 63.00
4778 30.7620 3927.00 3985.81 63.00
4779 30.7680 3916.00 3993.84 63.00
4780 30.7740 4022.00 4010.63 63.00
4781 30.7800 4098.00 4042.37 64.00
4782 30.7860 4105.00 4094.02 64.00
4783 30.7920 4141.00 4157.88 64.00
4784 30.7980 4188.00 4223.97 65.00
4785 30.8040 4202.00 4250.02 65.00
4786 30.8100 4228.00 4228.85 65.00
4787 30.8160 4323.00 4207.01 66.00
4788 30.8220 4408.00 4236.07 66.00
4789 30.8280 4585.00 4352.15 68.00
4790 30.8340 4753.00 4570.87 69.00
4791 30.8400 4711.00 4858.67 69.00
4792 30.8460 4549.00 5096.38 67.00
4793 30.8520 4520.00 5107.36 67.00
4794 30.8580 4435.00 4892.51 67.00
4795 30.8640 4406.00 4631.64 66.00
4796 30.8700 4280.00 4443.92 65.00
4797 30.8760 4234.00 4353.15 65.00
4798 30.8820 4096.00 4323.95 64.00
4799 30.8880 4025.00 4301.90 63.00
4800 30.8940 3993.00 4270.99 63.00
4801 30.9000 4159.00 4252.44 64.00
4802 30.9060 4153.00 4276.46 64.00
4803 30.9120 4317.00 4372.98 66.00
4804 30.9180 4649.00 4598.49 68.00
4805 30.9240 5110.00 5022.45 71.00
4806 30.9300 5481.00 5685.65 74.00
4807 30.9360 5794.00 6514.25 76.00
4808 30.9420 6095.00 7217.44 78.00
4809 30.9480 6526.00 7397.23 81.00
4810 30.9540 6936.00 7177.89 83.00
4811 30.9600 7303.00 7116.50 85.00
4812 30.9660 7568.00 7502.40 87.00
4813 30.9720 8204.00 8158.14 91.00
4814 30.9780 8378.00 8445.91 92.00
4815 30.9840 7672.00 7849.68 88.00
4816 30.9900 6409.00 6747.21 80.00
4817 30.9960 5412.00 5708.02 74.00
4818 31.0020 4833.00 4969.17 70.00
4819 31.0080 4371.00 4531.78 66.00
4820 31.0140 4174.00 4301.10 65.00
4821 31.0200 4064.00 4182.22 64.00
4822 31.0260 3961.00 4117.43 63.00
4823 31.0320 3935.00 4082.24 63.00
4824 31.0380 3922.00 4071.33 63.00
4825 31.0440 3898.00 4087.19 62.00
4826 31.0500 3936.00 4130.14 63.00
4827 31.0560 4063.00 4189.96 64.00
4828 31.0620 4146.00 4231.65 64.00
4829 31.0680 4038.00 4210.85 64.00
4830 31.0740 3831.00 4135.31 62.00
4831 31.0800 3727.00 4050.73 61.00
4832 31.0860 3709.00 3983.89 61.00
4833 31.0920 3737.00 3940.18 61.00
4834 31.0980 3659.00 3912.40 60.00
4835 31.1040 3585.00 3898.47 60.00
4836 31.1100 3625.00 3891.84 60.00
4837 31.1160 3651.00 3887.98 60.00
4838 31.1220 3613.00 3885.76 60.00
4839 31.1280 3662.00 3884.74 61.00
4840 31.1340 3720.00 3884.43 61.00
4841 31.1400 3669.00 3885.47 61.00
4842 31.1460 3681.00 3887.56 61.00
4843 31.1520 3639.00 3890.85 60.00
4844 31.1580 3779.00 3895.63 61.00
4845 31.1640 3755.00 3902.41 61.00
4846 31.1700 3894.00 3912.28 62.00
4847 31.1760 3794.00 3927.59 62.00
4848 31.1820 3835.00 3953.52 62.00
4849 31.1880 3877.00 4000.60 62.00
4850 31.1940 3981.00 4081.72 63.00
4851 31.2000 4205.00 4232.40 65.00
4852 31.2060 4412.00 4461.73 66.00
4853 31.2120 4697.00 4751.56 69.00
4854 31.2180 4846.00 5027.62 70.00
4855 31.2240 4777.00 5121.94 69.00
4856 31.2300 4772.00 4949.61 69.00
4857 31.2360 4391.00 4637.36 66.00
4858 31.2420 4260.00 4347.84 65.00
4859 31.2480 4186.00 4144.65 65.00
4860 31.2540 4129.00 4026.04 64.00
4861 31.2600 4015.00 3976.07 63.00
4862 31.2660 4108.00 3961.35 64.00
4863 31.2720 3995.00 3945.94 63.00
4864 31.2780 3859.00 3937.05 62.00
4865 31.2840 3841.00 3931.60 62.00
4866 31.2900 3805.00 3928.33 62.00
4867 31.2960 3788.00 3926.60 62.00
4868 31.3020 3798.00 3926.04 62.00
4869 31.3080 3684.00 3926.42 61.00
4870 31.3140 3716.00 3927.01 61.00
4871 31.3200 3819.00 3928.85 62.00
4872 31.3260 3631.00 3931.29 60.00
4873 31.3320 3723.00 3934.30 61.00
4874 31.3380 3629.00 3942.58 60.00
4875 31.3440 3679.00 3944.39 61.00
4876 31.3500 3661.00 3953.96 61.00
4877 31.3560 3778.00 3957.38 61.00
4878 31.3620 3725.00 3961.54 61.00
4879 31.3680 3632.00 3966.54 60.00
4880 31.3740 3667.00 3972.47 61.00
4881 31.3800 3653.00 3982.38 60.00
4882 31.3860 3721.00 3990.81 61.00
4883 31.3920 3694.00 4000.74 61.00
4884 31.3980 3656.00 4012.47 60.00
4885 31.4040 3717.00 4026.36 61.00
4886 31.4100 3702.00 4042.91 61.00
4887 31.4160 3740.00 4062.73 61.00
4888 31.4220 3759.00 4086.66 61.00
4889 31.4280 3752.00 4115.78 61.00
4890 31.4340 3802.00 4151.66 62.00
4891 31.4400 3834.00 4196.42 62.00
4892 31.4460 3829.00 4253.37 62.00
4893 31.4520 4011.00 4326.72 63.00
4894 31.4580 4072.00 4424.65 64.00
4895 31.4640 4327.00 4564.58 66.00
4896 31.4700 4486.00 4787.19 67.00
4897 31.4760 4678.00 5186.65 68.00
4898 31.4820 5231.00 5959.15 72.00
4899 31.4880 6449.00 7384.25 80.00
4900 31.4940 9046.00 9716.24 95.00
4901 31.5000 15186.00 12895.40 123.00
4902 31.5060 21857.00 16120.80 148.00
4903 31.5120 22293.00 17766.10 149.00
4904 31.5180 17489.00 16686.70 132.00
4905 31.5240 12394.00 13646.80 111.00
4906 31.5300 8762.00 10391.90 94.00
4907 31.5360 6862.00 7920.23 83.00
4908 31.5420 5741.00 6403.98 76.00
4909 31.5480 5257.00 5639.77 73.00
4910 31.5540 5076.00 5391.11 71.00
4911 31.5600 5207.00 5493.04 72.00
4912 31.5660 5706.00 5958.05 76.00
4913 31.5720 6728.00 6828.12 82.00
4914 31.5780 8101.00 8044.43 90.00
4915 31.5840 10041.00 9273.20 100.00
4916 31.5900 10922.00 9979.88 105.00
4917 31.5960 10470.00 9843.66 102.00
4918 31.6020 8480.00 8900.99 92.00
4919 31.6080 6806.00 7712.70 82.00
4920 31.6140 6162.00 6829.62 78.00
4921 31.6200 5809.00 6387.24 76.00
4922 31.6260 5681.00 6191.70 75.00
4923 31.6320 5470.00 5915.97 74.00
4924 31.6380 5019.00 5471.90 71.00
4925 31.6440 4528.00 5014.05 67.00
4926 31.6500 4251.00 4655.10 65.00
4927 31.6560 4053.00 4419.88 64.00
4928 31.6620 3942.00 4285.55 63.00
4929 31.6680 3929.00 4217.44 63.00
4930 31.6740 3865.00 4190.01 62.00
4931 31.6800 3924.00 4190.06 63.00
4932 31.6860 3977.00 4209.51 63.00
4933 31.6920 3938.00 4237.50 63.00
4934 31.6980 3917.00 4258.51 63.00
4935 31.7040 4037.00 4272.26 64.00
4936 31.7100 4079.00 4302.36 64.00
4937 31.7160 4074.00 4366.56 64.00
4938 31.7220 4185.00 4460.14 65.00
4939 31.7280 4396.00 4554.80 66.00
4940 31.7340 4521.00 4634.40 67.00
4941 31.7400 4758.00 4761.15 69.00
4942 31.7460 4967.00 5038.42 70.00
4943 31.7520 5366.00 5532.30 73.00
4944 31.7580 5779.00 6215.04 76.00
4945 31.7640 6051.00 6892.54 78.00
4946 31.7700 6504.00 7270.06 81.00
4947 31.7760 6845.00 7393.98 83.00
4948 31.7820 7630.00 7759.47 87.00
4949 31.7880 8808.00 8769.62 94.00
4950 31.7940 10313.00 10386.50 102.00
4951 31.8000 11411.00 11882.90 107.00
4952 31.8060 10931.00 12086.90 105.00
4953 31.8120 9429.00 10691.20 97.00
4954 31.8180 7662.00 8647.21 88.00
4955 31.8240 6148.00 6862.80 78.00
4956 31.8300 5254.00 5639.40 72.00
4957 31.8360 4584.00 4928.02 68.00
4958 31.8420 4368.00 4548.49 66.00
4959 31.8480 4110.00 4345.21 64.00
4960 31.8540 4141.00 4232.39 64.00
4961 31.8600 3947.00 4158.82 63.00
4962 31.8660 3817.00 4112.06 62.00
4963 31.8720 3854.00 4073.49 62.00
4964 31.8780 3678.00 4044.53 61.00
4965 31.8840 3783.00 4020.05 62.00
4966 31.8900 3810.00 4015.07 62.00
4967 31.8960 3793.00 4004.25 62.00
4968 31.9020 3775.00 3997.31 61.00
4969 31.9080 3821.00 3993.81 62.00
4970 31.9140 3778.00 4007.21 61.00
4971 31.9200 3752.00 4010.51 61.00
4972 31.9260 3700.00 4016.85 61.00
4973 31.9320 3746.00 4026.35 61.00
4974 31.9380 3701.00 4039.27 61.00
4975 31.9440 3843.00 4056.02 62.00
4976 31.9500 3786.00 4076.91 62.00
4977 31.9560 3841.00 4103.26 62.00
4978 31.9620 3878.00 4135.89 62.00
4979 31.9680 3943.00 4183.53 63.00
4980 31.9740 3940.00 4234.17 63.00
4981 31.9800 4108.00 4297.62 64.00
4982 31.9860 3958.00 4377.58 63.00
4983 31.9920 4240.00 4486.88 65.00
4984 31.9980 4418.00 4627.96 66.00
4985 32.0040 4551.00 4833.54 67.00
4986 32.0100 4828.00 5166.83 69.00
4987 32.0160 5293.00 5760.04 73.00
4988 32.0220 5945.00 6828.49 77.00
4989 32.0280 7593.00 8652.43 87.00
4990 32.0340 11063.00 11414.70 105.00
4991 32.0400 16018.00 14967.20 127.00
4992 32.0460 20234.00 18479.80 142.00
4993 32.0520 23185.00 20895.10 152.00
4994 32.0580 24503.00 22040.40 157.00
4995 32.0640 22768.00 21469.50 151.00
4996 32.0700 17538.00 18533.90 132.00
4997 32.0760 12700.00 14494.00 113.00
4998 32.0820 9093.00 10967.40 95.00
4999 32.0880 7328.00 8608.75 86.00
5000 32.0940 6915.00 7437.52 83.00
5001 32.1000 6995.00 7222.28 84.00
5002 32.1060 7783.00 7691.53 88.00
5003 32.1120 9593.00 8572.05 98.00
5004 32.1180 10375.00 9516.28 102.00
5005 32.1240 9951.00 10313.10 100.00
5006 32.1300 9377.00 11137.80 97.00
5007 32.1360 9538.00 11970.50 98.00
5008 32.1420 10022.00 12352.70 100.00
5009 32.1480 10928.00 12302.40 105.00
5010 32.1540 12061.00 12426.60 110.00
5011 32.1600 12800.00 12773.10 113.00
5012 32.1660 12377.00 12540.10 111.00
5013 32.1720 10927.00 11149.30 105.00
5014 32.1780 9299.00 9225.05 96.00
5015 32.1840 8128.00 7557.50 90.00
5016 32.1900 7515.00 6493.37 87.00
5017 32.1960 7260.00 6095.15 85.00
5018 32.2020 7481.00 6298.84 86.00
5019 32.2080 7755.00 6959.12 88.00
5020 32.2140 7952.00 7834.67 89.00
5021 32.2200 8113.00 8481.78 90.00
5022 32.2260 8310.00 8507.56 91.00
5023 32.2320 8521.00 8148.34 92.00
5024 32.2380 8728.00 7830.29 93.00
5025 32.2440 8404.00 7572.80 92.00
5026 32.2500 7463.00 7082.58 86.00
5027 32.2560 6535.00 6315.30 81.00
5028 32.2620 5598.00 5536.05 75.00
5029 32.2680 4960.00 4924.55 70.00
5030 32.2740 4487.00 4517.03 67.00
5031 32.2800 4261.00 4274.23 65.00
5032 32.2860 4035.00 4140.18 64.00
5033 32.2920 4036.00 4057.84 64.00
5034 32.2980 4026.00 4003.20 63.00
5035 32.3040 3919.00 3946.64 63.00
5036 32.3100 3988.00 3916.08 63.00
5037 32.3160 3855.00 3891.61 62.00
5038 32.3220 3910.00 3847.50 63.00
5039 32.3280 3861.00 3832.32 62.00
5040 32.3340 3789.00 3820.02 62.00
5041 32.3400 3721.00 3813.59 61.00
5042 32.3460 3697.00 3806.01 61.00
5043 32.3520 3679.00 3800.37 61.00
5044 32.3580 3689.00 3796.58 61.00
5045 32.3640 3701.00 3794.64 61.00
5046 32.3700 3840.00 3801.57 62.00
5047 32.3760 3657.00 3798.74 60.00
5048 32.3820 3652.00 3803.94 60.00
5049 32.3880 3770.00 3812.17 61.00
5050 32.3940 3655.00 3824.24 60.00
5051 32.4000 3681.00 3831.46 61.00
5052 32.4060 3618.00 3857.06 60.00
5053 32.4120 3670.00 3896.67 61.00
5054 32.4180 3798.00 3964.76 62.00
5055 32.4240 3879.00 4079.44 62.00
5056 32.4300 4145.00 4320.39 64.00
5057 32.4360 4648.00 4737.29 68.00
5058 32.4420 5231.00 5361.72 72.00
5059 32.4480 6415.00 6122.80 80.00
5060 32.4540 6752.00 6762.87 82.00
5061 32.4600 6407.00 6914.39 80.00
5062 32.4660 5900.00 6529.41 77.00
5063 32.4720 5345.00 5934.36 73.00
5064 32.4780 5127.00 5425.48 72.00
5065 32.4840 5036.00 5116.75 71.00
5066 32.4900 4756.00 4919.46 69.00
5067 32.4960 4726.00 4722.61 69.00
5068 32.5020 4496.00 4540.45 67.00
5069 32.5080 4356.00 4446.29 66.00
5070 32.5140 4599.00 4514.42 68.00
5071 32.5200 4905.00 4777.11 70.00
5072 32.5260 5706.00 5216.78 76.00
5073 32.5320 6525.00 5714.86 81.00
5074 32.5380 6499.00 6008.23 81.00
5075 32.5440 5890.00 5859.89 77.00
5076 32.5500 5423.00 5402.77 74.00
5077 32.5560 4865.00 4932.01 70.00
5078 32.5620 4560.00 4621.09 68.00
5079 32.5680 4374.00 4534.41 66.00
5080 32.5740 4479.00 4676.37 67.00
5081 32.5800 4624.00 5016.50 68.00
5082 32.5860 4936.00 5472.57 70.00
5083 32.5920 5210.00 5879.36 72.00
5084 32.5980 5423.00 6072.48 74.00
5085 32.6040 5946.00 6165.27 77.00
5086 32.6100 6401.00 6431.87 80.00
5087 32.6160 6870.00 6941.33 83.00
5088 32.6220 7113.00 7439.71 84.00
5089 32.6280 6816.00 7431.17 83.00
5090 32.6340 6350.00 6768.92 80.00
5091 32.6400 5683.00 5857.00 75.00
5092 32.6460 5259.00 5056.85 73.00
5093 32.6520 4572.00 4496.70 68.00
5094 32.6580 4298.00 4161.35 66.00
5095 32.6640 4140.00 3979.24 64.00
5096 32.6700 4038.00 3881.72 64.00
5097 32.6760 3993.00 3825.57 63.00
5098 32.6820 4112.00 3790.25 64.00
5099 32.6880 4111.00 3768.66 64.00
5100 32.6940 4004.00 3758.88 63.00
5101 32.7000 3961.00 3764.91 63.00
5102 32.7060 3876.00 3798.24 62.00
5103 32.7120 3816.00 3853.35 62.00
5104 32.7180 3960.00 3931.36 63.00
5105 32.7240 4120.00 4009.21 64.00
5106 32.7300 4068.00 4047.60 64.00
5107 32.7360 3823.00 4012.06 62.00
5108 32.7420 3886.00 3923.77 62.00
5109 32.7480 3772.00 3830.30 61.00
5110 32.7540 3801.00 3756.71 62.00
5111 32.7600 3752.00 3710.89 61.00
5112 32.7660 3709.00 3686.46 61.00
5113 32.7720 3758.00 3676.08 61.00
5114 32.7780 3635.00 3674.69 60.00
5115 32.7840 3570.00 3681.12 60.00
5116 32.7900 3649.00 3698.52 60.00
5117 32.7960 3698.00 3734.51 61.00
5118 32.8020 3769.00 3795.40 61.00
5119 32.8080 3825.00 3896.19 62.00
5120 32.8140 3863.00 4026.05 62.00
5121 32.8200 3889.00 4152.47 62.00
5122 32.8260 4039.00 4219.30 64.00
5123 32.8320 4134.00 4216.41 64.00
5124 32.8380 4298.00 4217.52 66.00
5125 32.8440 4544.00 4291.40 67.00
5126 32.8500 4794.00 4448.70 69.00
5127 32.8560 4990.00 4626.12 71.00
5128 32.8620 5031.00 4721.43 71.00
5129 32.8680 4957.00 4670.93 70.00
5130 32.8740 4839.00 4515.28 70.00
5131 32.8800 4460.00 4351.54 67.00
5132 32.8860 4242.00 4228.22 65.00
5133 32.8920 4163.00 4144.02 65.00
5134 32.8980 3989.00 4058.33 63.00
5135 32.9040 3941.00 3977.80 63.00
5136 32.9100 3724.00 3926.05 61.00
5137 32.9160 3625.00 3918.10 60.00
5138 32.9220 3797.00 3964.12 62.00
5139 32.9280 3859.00 4076.89 62.00
5140 32.9340 4115.00 4280.10 64.00
5141 32.9400 4444.00 4613.32 67.00
5142 32.9460 4851.00 5126.91 70.00
5143 32.9520 5580.00 5881.67 75.00
5144 32.9580 6798.00 6888.18 82.00
5145 32.9640 8060.00 7945.08 90.00
5146 32.9700 8973.00 8603.76 95.00
5147 32.9760 8768.00 8536.42 94.00
5148 32.9820 7367.00 7763.66 86.00
5149 32.9880 5758.00 6625.59 76.00
5150 32.9940 4672.00 5561.95 68.00
5151 33.0000 4250.00 4781.08 65.00
5152 33.0060 3967.00 4299.02 63.00
5153 33.0120 3843.00 4020.99 62.00
5154 33.0180 3755.00 3869.65 61.00
5155 33.0240 3635.00 3783.61 60.00
5156 33.0300 3564.00 3729.16 60.00
5157 33.0360 3572.00 3690.85 60.00
5158 33.0420 3651.00 3661.95 60.00
5159 33.0480 3647.00 3639.33 60.00
5160 33.0540 3462.00 3621.20 59.00
5161 33.0600 3447.00 3606.46 59.00
5162 33.0660 3485.00 3594.32 59.00
5163 33.0720 3473.00 3584.23 59.00
5164 33.0780 3495.00 3575.77 59.00
5165 33.0840 3478.00 3568.65 59.00
5166 33.0900 3488.00 3561.73 59.00
5167 33.0960 3424.00 3556.72 59.00
5168 33.1020 3500.00 3552.53 59.00
5169 33.1080 3552.00 3549.07 60.00
5170 33.1140 3467.00 3546.28 59.00
5171 33.1200 3424.00 3543.10 59.00
5172 33.1260 3478.00 3541.50 59.00
5173 33.1320 3500.00 3539.54 59.00
5174 33.1380 3490.00 3539.21 59.00
5175 33.1440 3525.00 3539.55 59.00
5176 33.1500 3539.00 3540.64 59.00
5177 33.1560 3561.00 3553.65 60.00
5178 33.1620 3519.00 3560.73 59.00
5179 33.1680 3512.00 3565.59 59.00
5180 33.1740 3517.00 3571.93 59.00
5181 33.1800 3488.00 3580.08 59.00
5182 33.1860 3411.00 3596.21 58.00
5183 33.1920 3422.00 3609.88 58.00
5184 33.1980 3395.00 3627.48 58.00
5185 33.2040 3433.00 3650.42 59.00
5186 33.2100 3542.00 3680.68 60.00
5187 33.2160 3598.00 3724.25 60.00
5188 33.2220 3668.00 3792.33 61.00
5189 33.2280 3716.00 3912.15 61.00
5190 33.2340 3742.00 4133.17 61.00
5191 33.2400 4050.00 4550.77 64.00
5192 33.2460 4797.00 5241.08 69.00
5193 33.2520 6017.00 6231.28 78.00
5194 33.2580 7354.00 7356.74 86.00
5195 33.2640 8042.00 8178.77 90.00
5196 33.2700 7444.00 8121.87 86.00
5197 33.2760 6170.00 7236.30 79.00
5198 33.2820 5263.00 6117.28 73.00
5199 33.2880 4636.00 5172.08 68.00
5200 33.2940 4136.00 4527.05 64.00
5201 33.3000 3899.00 4150.87 62.00
5202 33.3060 3798.00 3953.90 62.00
5203 33.3120 3690.00 3855.08 61.00
5204 33.3180 3651.00 3804.60 60.00
5205 33.3240 3691.00 3778.63 61.00
5206 33.3300 3633.00 3767.42 60.00
5207 33.3360 3636.00 3767.36 60.00
5208 33.3420 3676.00 3777.36 61.00
5209 33.3480 3627.00 3797.70 60.00
5210 33.3540 3634.00 3829.86 60.00
5211 33.3600 3747.00 3887.86 61.00
5212 33.3660 3792.00 3958.04 62.00
5213 33.3720 3927.00 4067.91 63.00
5214 33.3780 4189.00 4257.23 65.00
5215 33.3840 4487.00 4606.76 67.00
5216 33.3900 5124.00 5250.58 72.00
5217 33.3960 6299.00 6319.27 79.00
5218 33.4020 7955.00 7874.28 89.00
5219 33.4080 9695.00 9733.95 98.00
5220 33.4140 10543.00 11301.70 103.00
5221 33.4200 10325.00 11765.60 102.00
5222 33.4260 9497.00 11046.20 97.00
5223 33.4320 8528.00 9902.33 92.00
5224 33.4380 8009.00 8986.38 89.00
5225 33.4440 7667.00 8375.89 88.00
5226 33.4500 7168.00 7726.78 85.00
5227 33.4560 6264.00 6865.16 79.00
5228 33.4620 5475.00 5998.38 74.00
5229 33.4680 4873.00 5312.31 70.00
5230 33.4740 4451.00 4872.46 67.00
5231 33.4800 4326.00 4658.79 66.00
5232 33.4860 4306.00 4641.62 66.00
5233 33.4920 4559.00 4829.94 68.00
5234 33.4980 4797.00 5313.09 69.00
5235 33.5040 5422.00 6259.20 74.00
5236 33.5100 6868.00 7839.73 83.00
5237 33.5160 10183.00 10070.50 101.00
5238 33.5220 14730.00 12568.30 121.00
5239 33.5280 16664.00 14354.90 129.00
5240 33.5340 14900.00 14341.00 122.00
5241 33.5400 11426.00 12553.40 107.00
5242 33.5460 8624.00 10051.10 93.00
5243 33.5520 6722.00 7810.58 82.00
5244 33.5580 5662.00 6210.27 75.00
5245 33.5640 5149.00 5241.23 72.00
5246 33.5700 4835.00 4725.20 70.00
5247 33.5760 4662.00 4481.01 68.00
5248 33.5820 4769.00 4395.08 69.00
5249 33.5880 4922.00 4431.24 70.00
5250 33.5940 5487.00 4621.07 74.00
5251 33.6000 6249.00 5049.24 79.00
5252 33.6060 7137.00 5816.90 84.00
5253 33.6120 8048.00 6960.92 90.00
5254 33.6180 8897.00 8340.90 94.00
5255 33.6240 9082.00 9508.62 95.00
5256 33.6300 8759.00 9824.73 94.00
5257 33.6360 8703.00 9256.97 93.00
5258 33.6420 8465.00 8482.24 92.00
5259 33.6480 8133.00 7980.15 90.00
5260 33.6540 7975.00 7731.62 89.00
5261 33.6600 7301.00 7362.24 85.00
5262 33.6660 6192.00 6651.78 79.00
5263 33.6720 5303.00 5811.06 73.00
5264 33.6780 4671.00 5088.04 68.00
5265 33.6840 4399.00 4577.30 66.00
5266 33.6900 4131.00 4300.52 64.00
5267 33.6960 4239.00 4229.43 65.00
5268 33.7020 4276.00 4342.03 65.00
5269 33.7080 4490.00 4634.45 67.00
5270 33.7140 5065.00 5088.60 71.00
5271 33.7200 5797.00 5613.32 76.00
5272 33.7260 6221.00 6020.74 79.00
5273 33.7320 6219.00 6127.85 79.00
5274 33.7380 6057.00 5971.01 78.00
5275 33.7440 5452.00 5611.93 74.00
5276 33.7500 4715.00 5100.75 69.00
5277 33.7560 4298.00 4583.75 66.00
5278 33.7620 4013.00 4172.33 63.00
5279 33.7680 3760.00 3890.33 61.00
5280 33.7740 3630.00 3716.05 60.00
5281 33.7800 3576.00 3613.94 60.00
5282 33.7860 3661.00 3553.59 61.00
5283 33.7920 3671.00 3515.04 61.00
5284 33.7980 3539.00 3476.62 59.00
5285 33.8040 3523.00 3446.78 59.00
5286 33.8100 3506.00 3430.85 59.00
5287 33.8160 3459.00 3417.84 59.00
5288 33.8220 3558.00 3407.07 60.00
5289 33.8280 3513.00 3398.06 59.00
5290 33.8340 3386.00 3390.50 58.00
5291 33.8400 3510.00 3384.16 59.00
5292 33.8460 3407.00 3378.90 58.00
5293 33.8520 3406.00 3374.62 58.00
5294 33.8580 3444.00 3373.96 59.00
5295 33.8640 3471.00 3371.70 59.00
5296 33.8700 3381.00 3370.45 58.00
5297 33.8760 3365.00 3370.36 58.00
5298 33.8820 3340.00 3372.92 58.00
5299 33.8880 3406.00 3376.00 58.00
5300 33.8940 3441.00 3381.55 59.00
5301 33.9000 3511.00 3380.79 59.00
5302 33.9060 3574.00 3398.52 60.00
5303 33.9120 3555.00 3432.20 60.00
5304 33.9180 3581.00 3497.29 60.00
5305 33.9240 3645.00 3615.94 60.00
5306 33.9300 3812.00 3802.45 62.00
5307 33.9360 4195.00 4066.56 65.00
5308 33.9420 4864.00 4353.44 70.00
5309 33.9480 5170.00 4541.60 72.00
5310 33.9540 4666.00 4499.06 68.00
5311 33.9600 4097.00 4258.83 64.00
5312 33.9660 3787.00 3967.61 62.00
5313 33.9720 3565.00 3722.49 60.00
5314 33.9780 3460.00 3553.71 59.00
5315 33.9840 3514.00 3453.57 59.00
5316 33.9900 3433.00 3399.90 59.00
5317 33.9960 3382.00 3369.03 58.00
5318 34.0020 3358.00 3355.16 58.00
5319 34.0080 3328.00 3348.65 58.00
5320 34.0140 3347.00 3345.42 58.00
5321 34.0200 3359.00 3350.75 58.00
5322 34.0260 3381.00 3362.16 58.00
5323 34.0320 3364.00 3376.66 58.00
5324 34.0380 3418.00 3386.71 58.00
5325 34.0440 3426.00 3384.16 59.00
5326 34.0500 3369.00 3370.99 58.00
5327 34.0560 3419.00 3356.34 58.00
5328 34.0620 3508.00 3346.53 59.00
5329 34.0680 3465.00 3344.10 59.00
5330 34.0740 3475.00 3350.08 59.00
5331 34.0800 3539.00 3366.49 59.00
5332 34.0860 3558.00 3399.76 60.00
5333 34.0920 3830.00 3464.18 62.00
5334 34.0980 4158.00 3582.82 64.00
5335 34.1040 4367.00 3780.92 66.00
5336 34.1100 4726.00 4068.89 69.00
5337 34.1160 4792.00 4417.26 69.00
5338 34.1220 5012.00 4726.60 71.00
5339 34.1280 5046.00 4848.22 71.00
5340 34.1340 5152.00 4759.81 72.00
5341 34.1400 5033.00 4593.43 71.00
5342 34.1460 4900.00 4428.92 70.00
5343 34.1520 4559.00 4240.43 68.00
5344 34.1580 4170.00 4011.39 65.00
5345 34.1640 3878.00 3782.88 62.00
5346 34.1700 3674.00 3598.84 61.00
5347 34.1760 3447.00 3469.47 59.00
5348 34.1820 3500.00 3387.80 59.00
5349 34.1880 3403.00 3339.20 58.00
5350 34.1940 3279.00 3310.42 57.00
5351 34.2000 3323.00 3292.04 58.00
5352 34.2060 3236.00 3279.10 57.00
5353 34.2120 3367.00 3269.18 58.00
5354 34.2180 3326.00 3261.19 58.00
5355 34.2240 3326.00 3252.29 58.00
5356 34.2300 3242.00 3246.76 57.00
5357 34.2360 3228.00 3242.03 57.00
5358 34.2420 3150.00 3237.92 56.00
5359 34.2480 3271.00 3234.33 57.00
5360 34.2540 3324.00 3231.15 58.00
5361 34.2600 3255.00 3228.33 57.00
5362 34.2660 3176.00 3225.81 56.00
5363 34.2720 3211.00 3223.57 57.00
5364 34.2780 3272.00 3221.58 57.00
5365 34.2840 3178.00 3220.82 56.00
5366 34.2900 3261.00 3221.30 57.00
5367 34.2960 3112.00 3222.01 56.00
5368 34.3020 3136.00 3222.95 56.00
5369 34.3080 3277.00 3224.14 57.00
5370 34.3140 3114.00 3225.47 56.00
5371 34.3200 3212.00 3227.26 57.00
5372 34.3260 3201.00 3229.41 57.00
5373 34.3320 3142.00 3232.00 56.00
5374 34.3380 3155.00 3235.11 56.00
5375 34.3440 3240.00 3238.87 57.00
5376 34.3500 3158.00 3243.47 56.00
5377 34.3560 3221.00 3249.15 57.00
5378 34.3620 3220.00 3256.29 57.00
5379 34.3680 3216.00 3265.50 57.00
5380 34.3740 3301.00 3277.94 57.00
5381 34.3800 3282.00 3296.24 57.00
5382 34.3860 3309.00 3326.41 58.00
5383 34.3920 3350.00 3380.78 58.00
5384 34.3980 3411.00 3480.15 58.00
5385 34.4040 3629.00 3647.35 60.00
5386 34.4100 3846.00 3903.41 62.00
5387 34.4160 4250.00 4228.31 65.00
5388 34.4220 4657.00 4542.25 68.00
5389 34.4280 4609.00 4690.48 68.00
5390 34.4340 4348.00 4576.75 66.00
5391 34.4400 4022.00 4301.15 63.00
5392 34.4460 3966.00 4017.43 63.00
5393 34.4520 3803.00 3791.48 62.00
5394 34.4580 3747.00 3634.77 61.00
5395 34.4640 3535.00 3523.46 59.00
5396 34.4700 3497.00 3440.22 59.00
5397 34.4760 3307.00 3380.51 58.00
5398 34.4820 3396.00 3339.21 58.00
5399 34.4880 3162.00 3311.93 56.00
5400 34.4940 3271.00 3294.62 57.00
5401 34.5000 3198.00 3283.77 57.00
5402 34.5060 3281.00 3276.85 57.00
5403 34.5120 3201.00 3274.88 57.00
5404 34.5180 3251.00 3271.94 57.00
5405 34.5240 3312.00 3270.04 58.00
5406 34.5300 3271.00 3268.94 57.00
5407 34.5360 3351.00 3268.49 58.00
5408 34.5420 3369.00 3273.48 58.00
5409 34.5480 3348.00 3274.29 58.00
5410 34.5540 3275.00 3276.85 57.00
5411 34.5600 3385.00 3278.61 58.00
5412 34.5660 3392.00 3283.46 58.00
5413 34.5720 3238.00 3286.23 57.00
5414 34.5780 3306.00 3289.49 57.00
5415 34.5840 3414.00 3293.25 58.00
5416 34.5900 3431.00 3297.57 59.00
5417 34.5960 3385.00 3302.53 58.00
5418 34.6020 3374.00 3308.20 58.00
5419 34.6080 3316.00 3314.70 58.00
5420 34.6140 3297.00 3322.17 57.00
5421 34.6200 3267.00 3330.78 57.00
5422 34.6260 3238.00 3340.79 57.00
5423 34.6320 3327.00 3352.48 58.00
5424 34.6380 3295.00 3366.26 57.00
5425 34.6440 3341.00 3382.65 58.00
5426 34.6500 3290.00 3402.39 57.00
5427 34.6560 3388.00 3426.47 58.00
5428 34.6620 3302.00 3456.45 57.00
5429 34.6680 3299.00 3494.94 57.00
5430 34.6740 3492.00 3546.96 59.00
5431 34.6800 3588.00 3623.00 60.00
5432 34.6860 3696.00 3744.27 61.00
5433 34.6920 3754.00 3956.00 61.00
5434 34.6980 4043.00 4306.97 64.00
5435 34.7040 4744.00 4876.80 69.00
5436 34.7100 6025.00 5732.33 78.00
5437 34.7160 7710.00 6854.62 88.00
5438 34.7220 9373.00 8057.90 97.00
5439 34.7280 10302.00 9057.41 101.00
5440 34.7340 9965.00 9446.14 100.00
5441 34.7400 8861.00 8937.46 94.00
5442 34.7460 7227.00 7796.39 85.00
5443 34.7520 6006.00 6577.00 77.00
5444 34.7580 5230.00 5648.22 72.00
5445 34.7640 4914.00 5131.61 70.00
5446 34.7700 5052.00 4996.19 71.00
5447 34.7760 5267.00 5131.00 73.00
5448 34.7820 5351.00 5380.87 73.00
5449 34.7880 5649.00 5587.38 75.00
5450 34.7940 5954.00 5734.60 77.00
5451 34.8000 6317.00 5966.34 79.00
5452 34.8060 6789.00 6366.56 82.00
5453 34.8120 7195.00 6831.14 85.00
5454 34.8180 7331.00 7105.12 86.00
5455 34.8240 7193.00 7076.43 85.00
5456 34.8300 6985.00 6865.67 84.00
5457 34.8360 6288.00 6524.80 79.00
5458 34.8420 5484.00 6015.40 74.00
5459 34.8480 4885.00 5387.81 70.00
5460 34.8540 4409.00 4790.08 66.00
5461 34.8600 3927.00 4321.70 63.00
5462 34.8660 3834.00 4001.30 62.00
5463 34.8720 3664.00 3804.36 61.00
5464 34.8780 3657.00 3692.81 60.00
5465 34.8840 3598.00 3632.69 60.00
5466 34.8900 3488.00 3601.77 59.00
5467 34.8960 3455.00 3588.31 59.00
5468 34.9020 3474.00 3587.42 59.00
5469 34.9080 3527.00 3598.05 59.00
5470 34.9140 3507.00 3622.05 59.00
5471 34.9200 3630.00 3665.57 60.00
5472 34.9260 3792.00 3743.44 62.00
5473 34.9320 4028.00 3885.58 63.00
5474 34.9380 4361.00 4141.37 66.00
5475 34.9440 4772.00 4572.28 69.00
5476 34.9500 5223.00 5225.66 72.00
5477 34.9560 5764.00 6092.39 76.00
5478 34.9620 6445.00 7047.85 80.00
5479 34.9680 7197.00 7820.56 85.00
5480 34.9740 7787.00 8231.23 88.00
5481 34.9800 8571.00 8436.68 93.00
5482 34.9860 8783.00 8546.69 94.00
5483 34.9920 8316.00 8326.23 91.00
5484 34.9980 7146.00 7560.45 85.00
5485 35.0040 5838.00 6495.47 76.00
5486 35.0100 4924.00 5486.71 70.00
5487 35.0160 4274.00 4705.88 65.00
5488 35.0220 4004.00 4190.48 63.00
5489 35.0280 3812.00 3883.90 62.00
5490 35.0340 3640.00 3708.68 60.00
5491 35.0400 3327.00 3607.72 58.00
5492 35.0460 3206.00 3544.58 57.00
5493 35.0520 3325.00 3500.88 58.00
5494 35.0580 3366.00 3469.08 58.00
5495 35.0640 3269.00 3443.63 57.00
5496 35.0700 3192.00 3420.88 56.00
5497 35.0760 3228.00 3404.47 57.00
5498 35.0820 3273.00 3391.02 57.00
5499 35.0880 3182.00 3379.88 56.00
5500 35.0940 3146.00 3370.58 56.00
5501 35.1000 3192.00 3358.22 56.00
5502 35.1060 3222.00 3351.83 57.00
5503 35.1120 3187.00 3345.16 56.00
5504 35.1180 3260.00 3340.66 57.00
5505 35.1240 3177.00 3334.41 56.00
5506 35.1300 3180.00 3331.33 56.00
5507 35.1360 3149.00 3328.76 56.00
5508 35.1420 3164.00 3326.66 56.00
5509 35.1480 3183.00 3324.97 56.00
5510 35.1540 3118.00 3323.66 56.00
5511 35.1600 3117.00 3322.69 56.00
5512 35.1660 3133.00 3322.05 56.00
5513 35.1720 3121.00 3321.73 56.00
5514 35.1780 3183.00 3321.73 56.00
5515 35.1840 3224.00 3322.05 57.00
5516 35.1900 3138.00 3322.72 56.00
5517 35.1960 3140.00 3323.75 56.00
5518 35.2020 3225.00 3326.55 57.00
5519 35.2080 3221.00 3328.52 57.00
5520 35.2140 3133.00 3331.82 56.00
5521 35.2200 3175.00 3335.88 56.00
5522 35.2260 3177.00 3340.00 56.00
5523 35.2320 3185.00 3345.17 56.00
5524 35.2380 3212.00 3351.74 57.00
5525 35.2440 3207.00 3360.26 57.00
5526 35.2500 3291.00 3365.83 57.00
5527 35.2560 3382.00 3382.78 58.00
5528 35.2620 3493.00 3409.97 59.00
5529 35.2680 3541.00 3457.60 60.00
5530 35.2740 3647.00 3535.26 60.00
5531 35.2800 3859.00 3679.60 62.00
5532 35.2860 4107.00 3897.90 64.00
5533 35.2920 4324.00 4182.07 66.00
5534 35.2980 4400.00 4477.92 66.00
5535 35.3040 4479.00 4669.31 67.00
5536 35.3100 4537.00 4654.92 67.00
5537 35.3160 4379.00 4482.85 66.00
5538 35.3220 4203.00 4285.58 65.00
5539 35.3280 4030.00 4140.34 63.00
5540 35.3340 3845.00 4040.46 62.00
5541 35.3400 3708.00 3935.36 61.00
5542 35.3460 3535.00 3804.51 59.00
5543 35.3520 3345.00 3673.03 58.00
5544 35.3580 3323.00 3564.56 58.00
5545 35.3640 3337.00 3486.98 58.00
5546 35.3700 3317.00 3437.59 58.00
5547 35.3760 3253.00 3408.93 57.00
5548 35.3820 3171.00 3393.19 56.00
5549 35.3880 3219.00 3384.77 57.00
5550 35.3940 3238.00 3380.50 57.00
5551 35.4000 3236.00 3378.88 57.00
5552 35.4060 3270.00 3379.31 57.00
5553 35.4120 3222.00 3381.61 57.00
5554 35.4180 3197.00 3385.83 57.00
5555 35.4240 3218.00 3392.28 57.00
5556 35.4300 3230.00 3401.67 57.00
5557 35.4360 3228.00 3415.60 57.00
5558 35.4420 3255.00 3437.67 57.00
5559 35.4480 3315.00 3475.14 58.00
5560 35.4540 3345.00 3540.54 58.00
5561 35.4600 3476.00 3651.32 59.00
5562 35.4660 3768.00 3824.49 61.00
5563 35.4720 4176.00 4065.42 65.00
5564 35.4780 4619.00 4349.35 68.00
5565 35.4840 4892.00 4603.98 70.00
5566 35.4900 4912.00 4743.36 70.00
5567 35.4960 4699.00 4732.48 69.00
5568 35.5020 4352.00 4571.86 66.00
5569 35.5080 4070.00 4312.91 64.00
5570 35.5140 3745.00 4047.74 61.00
5571 35.5200 3520.00 3837.75 59.00
5572 35.5260 3435.00 3699.65 59.00
5573 35.5320 3379.00 3625.75 58.00
5574 35.5380 3364.00 3601.00 58.00
5575 35.5440 3420.00 3613.50 58.00
5576 35.5500 3495.00 3660.51 59.00
5577 35.5560 3652.00 3752.25 60.00
5578 35.5620 3869.00 3915.04 62.00
5579 35.5680 3945.00 4193.33 63.00
5580 35.5740 4274.00 4640.91 65.00
5581 35.5800 5311.00 5282.04 73.00
5582 35.5860 6865.00 6051.16 83.00
5583 35.5920 7819.00 6731.66 88.00
5584 35.5980 7468.00 6995.86 86.00
5585 35.6040 6261.00 6672.56 79.00
5586 35.6100 5175.00 5956.50 72.00
5587 35.6160 4524.00 5175.38 67.00
5588 35.6220 3960.00 4530.35 63.00
5589 35.6280 3690.00 4082.38 61.00
5590 35.6340 3537.00 3806.79 59.00
5591 35.6400 3416.00 3650.34 58.00
5592 35.6460 3400.00 3563.02 58.00
5593 35.6520 3351.00 3511.50 58.00
5594 35.6580 3216.00 3479.15 57.00
5595 35.6640 3252.00 3455.17 57.00
5596 35.6700 3243.00 3436.99 57.00
5597 35.6760 3220.00 3423.98 57.00
5598 35.6820 3288.00 3412.63 57.00
5599 35.6880 3352.00 3403.46 58.00
5600 35.6940 3250.00 3395.98 57.00
5601 35.7000 3184.00 3389.82 56.00
5602 35.7060 3161.00 3384.73 56.00
5603 35.7120 3154.00 3380.49 56.00
5604 35.7180 3107.00 3376.96 56.00
5605 35.7240 3114.00 3374.01 56.00
5606 35.7300 3167.00 3371.56 56.00
5607 35.7360 3159.00 3369.52 56.00
5608 35.7420 3178.00 3367.84 56.00
5609 35.7480 3198.00 3366.49 57.00
5610 35.7540 3114.00 3365.40 56.00
5611 35.7600 3139.00 3364.62 56.00
5612 35.7660 3207.00 3364.01 57.00
5613 35.7720 3194.00 3365.77 57.00
5614 35.7780 3189.00 3365.79 56.00
5615 35.7840 3187.00 3365.27 56.00
5616 35.7900 3243.00 3364.99 57.00
5617 35.7960 3192.00 3365.77 56.00
5618 35.8020 3260.00 3370.03 57.00
5619 35.8080 3255.00 3371.90 57.00
5620 35.8140 3233.00 3374.73 57.00
5621 35.8200 3289.00 3379.02 57.00
5622 35.8260 3340.00 3385.20 58.00
5623 35.8320 3377.00 3393.97 58.00
5624 35.8380 3454.00 3403.03 59.00
5625 35.8440 3470.00 3410.68 59.00
5626 35.8500 3414.00 3415.12 58.00
5627 35.8560 3412.00 3413.75 58.00
5628 35.8620 3406.00 3411.93 58.00
5629 35.8680 3426.00 3410.20 59.00
5630 35.8740 3417.00 3411.02 58.00
5631 35.8800 3454.00 3415.23 59.00
5632 35.8860 3433.00 3419.03 59.00
5633 35.8920 3408.00 3427.41 58.00
5634 35.8980 3488.00 3445.93 59.00
5635 35.9040 3455.00 3476.71 59.00
5636 35.9100 3508.00 3528.82 59.00
5637 35.9160 3692.00 3613.54 61.00
5638 35.9220 3755.00 3739.87 61.00
5639 35.9280 3904.00 3907.15 62.00
5640 35.9340 3907.00 4094.67 63.00
5641 35.9400 4020.00 4253.85 63.00
5642 35.9460 4154.00 4340.10 64.00
5643 35.9520 4213.00 4369.63 65.00
5644 35.9580 4216.00 4371.88 65.00
5645 35.9640 4124.00 4324.28 64.00
5646 35.9700 4032.00 4195.34 63.00
5647 35.9760 3738.00 4017.79 61.00
5648 35.9820 3597.00 3849.57 60.00
5649 35.9880 3532.00 3721.04 59.00
5650 35.9940 3416.00 3639.17 58.00
5651 36.0000 3415.00 3598.08 58.00
5652 36.0060 3456.00 3590.60 59.00
5653 36.0120 3513.00 3607.87 59.00
5654 36.0180 3592.00 3655.22 60.00
5655 36.0240 3669.00 3747.21 61.00
5656 36.0300 4009.00 3908.50 63.00
5657 36.0360 4301.00 4165.26 66.00
5658 36.0420 4619.00 4528.73 68.00
5659 36.0480 4987.00 4974.42 71.00
5660 36.0540 5233.00 5412.50 72.00
5661 36.0600 5466.00 5692.10 74.00
5662 36.0660 5678.00 5741.19 75.00
5663 36.0720 5747.00 5681.28 76.00
5664 36.0780 5869.00 5654.80 77.00
5665 36.0840 5784.00 5659.63 76.00
5666 36.0900 5595.00 5563.59 75.00
5667 36.0960 5345.00 5307.08 73.00
5668 36.1020 4917.00 4995.24 70.00
5669 36.1080 4700.00 4759.10 69.00
5670 36.1140 4693.00 4651.68 69.00
5671 36.1200 4769.00 4656.89 69.00
5672 36.1260 4944.00 4730.77 70.00
5673 36.1320 4990.00 4833.06 71.00
5674 36.1380 5095.00 4902.82 71.00
5675 36.1440 5085.00 4885.76 71.00
5676 36.1500 4999.00 4775.01 71.00
5677 36.1560 4751.00 4584.56 69.00
5678 36.1620 4351.00 4358.97 66.00
5679 36.1680 4158.00 4143.59 64.00
5680 36.1740 3919.00 3954.99 63.00
5681 36.1800 3878.00 3802.79 62.00
5682 36.1860 3682.00 3691.77 61.00
5683 36.1920 3552.00 3617.11 60.00
5684 36.1980 3522.00 3569.84 59.00
5685 36.2040 3450.00 3541.29 59.00
5686 36.2100 3417.00 3524.71 58.00
5687 36.2160 3459.00 3515.67 59.00
5688 36.2220 3460.00 3511.01 59.00
5689 36.2280 3502.00 3510.19 59.00
5690 36.2340 3518.00 3511.88 59.00
5691 36.2400 3543.00 3519.21 60.00
5692 36.2460 3417.00 3533.27 58.00
5693 36.2520 3449.00 3559.29 59.00
5694 36.2580 3534.00 3605.69 59.00
5695 36.2640 3720.00 3688.95 61.00
5696 36.2700 3846.00 3822.21 62.00
5697 36.2760 4158.00 4010.40 64.00
5698 36.2820 4465.00 4236.08 67.00
5699 36.2880 4684.00 4447.69 68.00
5700 36.2940 4696.00 4544.02 69.00
5701 36.3000 4482.00 4481.49 67.00
5702 36.3060 4361.00 4334.37 66.00
5703 36.3120 4352.00 4201.91 66.00
5704 36.3180 4291.00 4155.44 66.00
5705 36.3240 4281.00 4226.91 65.00
5706 36.3300 4253.00 4421.03 65.00
5707 36.3360 4428.00 4715.35 67.00
5708 36.3420 4644.00 5065.44 68.00
5709 36.3480 4981.00 5438.54 71.00
5710 36.3540 5230.00 5803.00 72.00
5711 36.3600 5651.00 6089.72 75.00
5712 36.3660 5863.00 6232.01 77.00
5713 36.3720 5820.00 6203.77 76.00
5714 36.3780 5595.00 6009.64 75.00
5715 36.3840 5326.00 5708.79 73.00
5716 36.3900 5160.00 5332.78 72.00
5717 36.3960 4991.00 4896.90 71.00
5718 36.4020 4545.00 4478.48 67.00
5719 36.4080 4252.00 4141.00 65.00
5720 36.4140 3964.00 3908.89 63.00
5721 36.4200 3899.00 3752.52 62.00
5722 36.4260 3792.00 3657.08 62.00
5723 36.4320 3765.00 3608.57 61.00
5724 36.4380 3602.00 3574.58 60.00
5725 36.4440 3561.00 3567.17 60.00
5726 36.4500 3578.00 3553.18 60.00
5727 36.4560 3589.00 3543.76 60.00
5728 36.4620 3577.00 3540.79 60.00
5729 36.4680 3683.00 3537.57 61.00
5730 36.4740 3602.00 3536.71 60.00
5731 36.4800 3606.00 3538.03 60.00
5732 36.4860 3708.00 3541.48 61.00
5733 36.4920 3678.00 3551.25 61.00
5734 36.4980 3622.00 3559.45 60.00
5735 36.5040 3596.00 3570.37 60.00
5736 36.5100 3687.00 3584.55 61.00
5737 36.5160 3650.00 3602.84 60.00
5738 36.5220 3643.00 3628.80 60.00
5739 36.5280 3730.00 3661.29 61.00
5740 36.5340 3764.00 3708.57 61.00
5741 36.5400 3871.00 3789.25 62.00
5742 36.5460 4037.00 3916.37 64.00
5743 36.5520 4165.00 4131.91 65.00
5744 36.5580 4500.00 4479.09 67.00
5745 36.5640 5115.00 4991.11 72.00
5746 36.5700 5958.00 5649.76 77.00
5747 36.5760 7263.00 6357.28 85.00
5748 36.5820 7737.00 6901.78 88.00
5749 36.5880 7530.00 7101.23 87.00
5750 36.5940 6884.00 6983.31 83.00
5751 36.6000 6100.00 6612.04 78.00
5752 36.6060 5498.00 6039.25 74.00
5753 36.6120 4989.00 5417.76 71.00
5754 36.6180 4640.00 4890.62 68.00
5755 36.6240 4392.00 4514.98 66.00
5756 36.6300 4289.00 4284.84 65.00
5757 36.6360 4454.00 4168.03 67.00
5758 36.6420 4342.00 4132.59 66.00
5759 36.6480 4411.00 4153.15 66.00
5760 36.6540 4712.00 4218.32 69.00
5761 36.6600 5146.00 4340.58 72.00
5762 36.6660 5357.00 4546.24 73.00
5763 36.6720 5953.00 4900.75 77.00
5764 36.6780 6628.00 5493.39 81.00
5765 36.6840 7588.00 6431.11 87.00
5766 36.6900 8978.00 7807.15 95.00
5767 36.6960 10390.00 9623.88 102.00
5768 36.7020 12304.00 11709.50 111.00
5769 36.7080 13882.00 13709.00 118.00
5770 36.7140 15904.00 15385.30 126.00
5771 36.7200 17373.00 16703.10 132.00
5772 36.7260 18789.00 17522.30 137.00
5773 36.7320 18611.00 17685.60 136.00
5774 36.7380 17534.00 16963.10 132.00
5775 36.7440 15113.00 15295.50 123.00
5776 36.7500 12725.00 13134.90 113.00
5777 36.7560 10361.00 11006.00 102.00
5778 36.7620 8664.00 9254.21 93.00
5779 36.7680 7639.00 8085.83 87.00
5780 36.7740 7036.00 7507.36 84.00
5781 36.7800 6657.00 7345.07 82.00
5782 36.7860 6575.00 7314.66 81.00
5783 36.7920 6859.00 7184.72 83.00
5784 36.7980 7258.00 6987.32 85.00
5785 36.8040 8141.00 6895.64 90.00
5786 36.8100 8650.00 6990.74 93.00
5787 36.8160 8842.00 7225.08 94.00
5788 36.8220 8746.00 7516.91 94.00
5789 36.8280 8681.00 7760.33 93.00
5790 36.8340 8430.00 7755.60 92.00
5791 36.8400 7743.00 7417.30 88.00
5792 36.8460 7220.00 6930.06 85.00
5793 36.8520 6577.00 6479.67 81.00
5794 36.8580 5966.00 6078.58 77.00
5795 36.8640 5570.00 5653.62 75.00
5796 36.8700 5446.00 5215.76 74.00
5797 36.8760 5186.00 4849.59 72.00
5798 36.8820 5073.00 4606.65 71.00
5799 36.8880 4899.00 4504.84 70.00
5800 36.8940 4972.00 4509.55 71.00
5801 36.9000 4915.00 4549.57 70.00
5802 36.9060 4899.00 4537.81 70.00
5803 36.9120 4576.00 4421.52 68.00
5804 36.9180 4337.00 4238.60 66.00
5805 36.9240 4183.00 4054.54 65.00
5806 36.9300 4228.00 3908.54 65.00
5807 36.9360 3997.00 3807.34 63.00
5808 36.9420 3883.00 3752.75 62.00
5809 36.9480 3774.00 3731.98 61.00
5810 36.9540 3880.00 3740.63 62.00
5811 36.9600 3984.00 3775.76 63.00
5812 36.9660 3878.00 3830.01 62.00
5813 36.9720 3908.00 3896.58 63.00
5814 36.9780 4070.00 3962.30 64.00
5815 36.9840 4164.00 4021.91 65.00
5816 36.9900 4131.00 4102.02 64.00
5817 36.9960 4316.00 4260.82 66.00
5818 37.0020 4685.00 4561.01 68.00
5819 37.0080 5399.00 5054.10 73.00
5820 37.0140 6270.00 5733.66 79.00
5821 37.0200 7376.00 6472.89 86.00
5822 37.0260 7918.00 7032.16 89.00
5823 37.0320 7420.00 7077.43 86.00
5824 37.0380 6470.00 6579.81 80.00
5825 37.0440 5552.00 5833.51 75.00
5826 37.0500 4824.00 5109.95 69.00
5827 37.0560 4435.00 4550.62 67.00
5828 37.0620 4203.00 4176.88 65.00
5829 37.0680 3915.00 3954.00 63.00
5830 37.0740 3739.00 3827.06 61.00
5831 37.0800 3899.00 3747.95 62.00
5832 37.0860 3628.00 3687.51 60.00
5833 37.0920 3624.00 3648.19 60.00
5834 37.0980 3700.00 3626.06 61.00
5835 37.1040 3748.00 3620.54 61.00
5836 37.1100 3604.00 3627.71 60.00
5837 37.1160 3624.00 3636.78 60.00
5838 37.1220 3607.00 3638.67 60.00
5839 37.1280 3656.00 3623.85 60.00
5840 37.1340 3546.00 3594.45 60.00
5841 37.1400 3535.00 3570.47 59.00
5842 37.1460 3503.00 3553.55 59.00
5843 37.1520 3622.00 3546.61 60.00
5844 37.1580 3475.00 3547.97 59.00
5845 37.1640 3455.00 3563.55 59.00
5846 37.1700 3729.00 3594.27 61.00
5847 37.1760 3629.00 3648.11 60.00
5848 37.1820 3964.00 3739.05 63.00
5849 37.1880 3936.00 3883.35 63.00
5850 37.1940 4009.00 4099.92 63.00
5851 37.2000 4331.00 4399.73 66.00
5852 37.2060 4550.00 4770.84 67.00
5853 37.2120 5004.00 5177.72 71.00
5854 37.2180 5240.00 5583.02 72.00
5855 37.2240 5775.00 5952.71 76.00
5856 37.2300 6034.00 6208.46 78.00
5857 37.2360 6119.00 6288.51 78.00
5858 37.2420 5746.00 6178.32 76.00
5859 37.2480 5573.00 5902.48 75.00
5860 37.2540 5298.00 5536.78 73.00
5861 37.2600 4939.00 5127.24 70.00
5862 37.2660 4530.00 4706.27 67.00
5863 37.2720 4225.00 4333.30 65.00
5864 37.2780 3950.00 4046.88 63.00
5865 37.2840 3684.00 3852.32 61.00
5866 37.2900 3583.00 3735.04 60.00
5867 37.2960 3596.00 3675.18 60.00
5868 37.3020 3674.00 3651.94 61.00
5869 37.3080 3471.00 3645.24 59.00
5870 37.3140 3594.00 3635.53 60.00
5871 37.3200 3611.00 3610.94 60.00
5872 37.3260 3523.00 3575.18 59.00
5873 37.3320 3491.00 3531.58 59.00
5874 37.3380 3550.00 3499.97 60.00
5875 37.3440 3313.00 3476.16 58.00
5876 37.3500 3352.00 3460.05 58.00
5877 37.3560 3491.00 3450.07 59.00
5878 37.3620 3291.00 3444.48 57.00
5879 37.3680 3445.00 3442.12 59.00
5880 37.3740 3336.00 3442.38 58.00
5881 37.3800 3527.00 3445.37 59.00
5882 37.3860 3523.00 3452.73 59.00
5883 37.3920 3540.00 3467.48 59.00
5884 37.3980 3618.00 3498.06 60.00
5885 37.4040 3699.00 3553.62 61.00
5886 37.4100 3816.00 3637.68 62.00
5887 37.4160 3859.00 3754.56 62.00
5888 37.4220 3789.00 3899.00 62.00
5889 37.4280 4048.00 4042.62 64.00
5890 37.4340 4087.00 4131.03 64.00
5891 37.4400 3920.00 4118.89 63.00
5892 37.4460 3888.00 4026.79 62.00
5893 37.4520 3829.00 3926.04 62.00
5894 37.4580 3752.00 3849.42 61.00
5895 37.4640 3758.00 3821.07 61.00
5896 37.4700 3658.00 3831.14 60.00
5897 37.4760 3578.00 3848.45 60.00
5898 37.4820 3683.00 3833.60 61.00
5899 37.4880 3668.00 3773.30 61.00
5900 37.4940 3483.00 3690.33 59.00
5901 37.5000 3362.00 3612.20 58.00
5902 37.5060 3345.00 3549.49 58.00
5903 37.5120 3351.00 3505.28 58.00
5904 37.5180 3601.00 3478.89 60.00
5905 37.5240 3370.00 3464.11 58.00
5906 37.5300 3386.00 3454.07 58.00
5907 37.5360 3385.00 3450.40 58.00
5908 37.5420 3368.00 3446.58 58.00
5909 37.5480 3429.00 3446.87 59.00
5910 37.5540 3487.00 3448.26 59.00
5911 37.5600 3568.00 3449.22 60.00
5912 37.5660 3519.00 3452.75 59.00
5913 37.5720 3547.00 3457.14 60.00
5914 37.5780 3591.00 3462.69 60.00
5915 37.5840 3480.00 3469.24 59.00
5916 37.5900 3447.00 3477.08 59.00
5917 37.5960 3497.00 3486.48 59.00
5918 37.6020 3487.00 3497.54 59.00
5919 37.6080 3386.00 3510.69 58.00
5920 37.6140 3560.00 3526.41 60.00
5921 37.6200 3509.00 3545.11 59.00
5922 37.6260 3584.00 3570.81 60.00
5923 37.6320 3557.00 3599.27 60.00
5924 37.6380 3496.00 3635.11 59.00
5925 37.6440 3554.00 3682.02 60.00
5926 37.6500 3638.00 3747.48 60.00
5927 37.6560 3779.00 3846.78 61.00
5928 37.6620 3774.00 4009.46 61.00
5929 37.6680 4084.00 4284.43 64.00
5930 37.6740 4329.00 4742.43 66.00
5931 37.6800 4984.00 5440.73 71.00
5932 37.6860 6357.00 6407.18 80.00
5933 37.6920 8620.00 7563.97 93.00
5934 37.6980 10721.00 8673.93 104.00
5935 37.7040 10969.00 9368.95 105.00
5936 37.7100 9552.00 9364.02 98.00
5937 37.7160 7790.00 8730.43 88.00
5938 37.7220 6427.00 7899.95 80.00
5939 37.7280 6114.00 7297.21 78.00
5940 37.7340 6694.00 7126.14 82.00
5941 37.7400 7578.00 7364.69 87.00
5942 37.7460 8312.00 7786.15 91.00
5943 37.7520 8306.00 7993.33 91.00
5944 37.7580 7246.00 7672.15 85.00
5945 37.7640 6142.00 6923.79 78.00
5946 37.7700 5275.00 6077.11 73.00
5947 37.7760 4844.00 5368.06 70.00
5948 37.7820 4475.00 4892.01 67.00
5949 37.7880 4546.00 4644.04 67.00
5950 37.7940 4701.00 4557.43 69.00
5951 37.8000 4708.00 4528.17 69.00
5952 37.8060 4473.00 4454.66 67.00
5953 37.8120 4229.00 4305.07 65.00
5954 37.8180 3977.00 4121.89 63.00
5955 37.8240 3732.00 3953.12 61.00
5956 37.8300 3670.00 3823.04 61.00
5957 37.8360 3696.00 3737.06 61.00
5958 37.8420 3553.00 3689.30 60.00
5959 37.8480 3526.00 3669.45 59.00
5960 37.8540 3493.00 3667.22 59.00
5961 37.8600 3600.00 3675.43 60.00
5962 37.8660 3542.00 3696.12 60.00
5963 37.8720 3639.00 3711.94 60.00
5964 37.8780 3578.00 3727.71 60.00
5965 37.8840 3732.00 3746.02 61.00
5966 37.8900 3723.00 3775.72 61.00
5967 37.8960 3833.00 3833.18 62.00
5968 37.9020 3898.00 3939.62 62.00
5969 37.9080 3936.00 4111.48 63.00
5970 37.9140 4122.00 4358.41 64.00
5971 37.9200 4191.00 4658.58 65.00
5972 37.9260 4190.00 4943.51 65.00
5973 37.9320 4316.00 5102.77 66.00
5974 37.9380 4577.00 5079.03 68.00
5975 37.9440 4710.00 4959.08 69.00
5976 37.9500 4909.00 4894.27 70.00
5977 37.9560 5164.00 4977.16 72.00
5978 37.9620 5494.00 5220.26 74.00
5979 37.9680 5677.00 5539.91 75.00
5980 37.9740 5896.00 5763.93 77.00
5981 37.9800 5580.00 5705.41 75.00
5982 37.9860 5244.00 5359.81 72.00
5983 37.9920 4739.00 4893.56 69.00
5984 37.9980 4389.00 4453.72 66.00
5985 38.0040 4131.00 4106.87 64.00
5986 38.0100 3970.00 3868.97 63.00
5987 38.0160 3728.00 3716.40 61.00
5988 38.0220 3644.00 3631.64 60.00
5989 38.0280 3606.00 3583.10 60.00
5990 38.0340 3491.00 3554.22 59.00
5991 38.0400 3484.00 3535.94 59.00
5992 38.0460 3527.00 3523.89 59.00
5993 38.0520 3452.00 3516.05 59.00
5994 38.0580 3415.00 3511.46 58.00
5995 38.0640 3474.00 3502.49 59.00
5996 38.0700 3546.00 3503.54 60.00
5997 38.0760 3358.00 3507.12 58.00
5998 38.0820 3439.00 3513.35 59.00
5999 38.0880 3491.00 3522.55 59.00
6000 38.0940 3433.00 3535.24 59.00
6001 38.1000 3417.00 3552.33 58.00
6002 38.1060 3553.00 3575.46 60.00
6003 38.1120 3620.00 3606.66 60.00
6004 38.1180 3617.00 3655.74 60.00
6005 38.1240 3676.00 3735.90 61.00
6006 38.1300 3751.00 3873.59 61.00
6007 38.1360 4009.00 4108.08 63.00
6008 38.1420 4307.00 4483.78 66.00
6009 38.1480 4786.00 5029.36 69.00
6010 38.1540 5837.00 5724.08 76.00
6011 38.1600 7086.00 6458.86 84.00
6012 38.1660 7633.00 7001.99 87.00
6013 38.1720 7044.00 7087.55 84.00
6014 38.1780 6176.00 6705.96 79.00
6015 38.1840 5258.00 6129.75 73.00
6016 38.1900 4908.00 5613.74 70.00
6017 38.1960 4963.00 5278.02 70.00
6018 38.2020 5024.00 5123.71 71.00
6019 38.2080 5058.00 5084.96 71.00
6020 38.2140 5182.00 5107.16 72.00
6021 38.2200 5502.00 5207.85 74.00
6022 38.2260 5831.00 5427.51 76.00
6023 38.2320 6291.00 5747.71 79.00
6024 38.2380 6473.00 6067.63 80.00
6025 38.2440 6589.00 6235.63 81.00
6026 38.2500 6578.00 6175.44 81.00
6027 38.2560 6408.00 5951.64 80.00
6028 38.2620 6081.00 5658.74 78.00
6029 38.2680 5669.00 5316.88 75.00
6030 38.2740 4955.00 4925.42 70.00
6031 38.2800 4436.00 4535.82 67.00
6032 38.2860 4107.00 4201.91 64.00
6033 38.2920 3832.00 3952.68 62.00
6034 38.2980 3715.00 3780.82 61.00
6035 38.3040 3670.00 3668.19 61.00
6036 38.3100 3618.00 3597.50 60.00
6037 38.3160 3434.00 3553.58 59.00
6038 38.3220 3507.00 3524.02 59.00
6039 38.3280 3487.00 3504.41 59.00
6040 38.3340 3393.00 3488.51 58.00
6041 38.3400 3397.00 3478.74 58.00
6042 38.3460 3486.00 3468.73 59.00
6043 38.3520 3435.00 3460.60 59.00
6044 38.3580 3448.00 3455.18 59.00
6045 38.3640 3428.00 3449.87 59.00
6046 38.3700 3401.00 3445.61 58.00
6047 38.3760 3414.00 3442.29 58.00
6048 38.3820 3435.00 3439.79 59.00
6049 38.3880 3413.00 3438.06 58.00
6050 38.3940 3378.00 3437.04 58.00
6051 38.4000 3363.00 3436.74 58.00
6052 38.4060 3341.00 3437.16 58.00
6053 38.4120 3375.00 3438.34 58.00
6054 38.4180 3405.00 3440.34 58.00
6055 38.4240 3387.00 3443.27 58.00
6056 38.4300 3304.00 3447.30 57.00
6057 38.4360 3369.00 3452.68 58.00
6058 38.4420 3407.00 3459.79 58.00
6059 38.4480 3386.00 3469.42 58.00
6060 38.4540 3406.00 3483.06 58.00
6061 38.4600 3438.00 3503.77 59.00
6062 38.4660 3464.00 3537.11 59.00
6063 38.4720 3543.00 3591.92 60.00
6064 38.4780 3682.00 3679.67 61.00
6065 38.4840 3913.00 3805.11 63.00
6066 38.4900 4335.00 3985.43 66.00
6067 38.4960 4768.00 4203.05 69.00
6068 38.5020 5074.00 4420.66 71.00
6069 38.5080 5372.00 4579.48 73.00
6070 38.5140 5274.00 4646.66 73.00
6071 38.5200 5076.00 4629.86 71.00
6072 38.5260 5000.00 4549.97 71.00
6073 38.5320 4948.00 4450.06 70.00
6074 38.5380 4907.00 4398.76 70.00
6075 38.5440 4810.00 4439.13 69.00
6076 38.5500 4751.00 4566.62 69.00
6077 38.5560 4851.00 4727.41 70.00
6078 38.5620 4824.00 4828.99 69.00
6079 38.5680 4572.00 4788.12 68.00
6080 38.5740 4633.00 4635.48 68.00
6081 38.5800 4564.00 4470.04 68.00
6082 38.5860 4529.00 4373.71 67.00
6083 38.5920 4540.00 4377.57 67.00
6084 38.5980 4627.00 4475.46 68.00
6085 38.6040 4609.00 4627.08 68.00
6086 38.6100 4574.00 4782.41 68.00
6087 38.6160 4539.00 4933.53 67.00
6088 38.6220 4658.00 5112.69 68.00
6089 38.6280 4926.00 5340.72 70.00
6090 38.6340 5261.00 5612.53 73.00
6091 38.6400 5446.00 5876.85 74.00
6092 38.6460 5551.00 6041.03 75.00
6093 38.6520 5543.00 6026.69 74.00
6094 38.6580 5337.00 5821.14 73.00
6095 38.6640 5029.00 5491.63 71.00
6096 38.6700 4819.00 5107.46 69.00
6097 38.6760 4586.00 4709.28 68.00
6098 38.6820 4289.00 4345.93 65.00
6099 38.6880 4005.00 4054.93 63.00
6100 38.6940 3802.00 3844.60 62.00
6101 38.7000 3736.00 3701.64 61.00
6102 38.7060 3643.00 3609.51 60.00
6103 38.7120 3560.00 3551.22 60.00
6104 38.7180 3553.00 3513.68 60.00
6105 38.7240 3506.00 3488.14 59.00
6106 38.7300 3483.00 3470.19 59.00
6107 38.7360 3402.00 3455.86 58.00
6108 38.7420 3393.00 3444.34 58.00
6109 38.7480 3457.00 3434.85 59.00
6110 38.7540 3479.00 3426.91 59.00
6111 38.7600 3403.00 3420.20 58.00
6112 38.7660 3463.00 3414.47 59.00
6113 38.7720 3565.00 3409.55 60.00
6114 38.7780 3597.00 3405.30 60.00
6115 38.7840 3614.00 3401.60 60.00
6116 38.7900 3589.00 3398.38 60.00
6117 38.7960 3538.00 3395.56 59.00
6118 38.8020 3533.00 3393.10 59.00
6119 38.8080 3516.00 3390.94 59.00
6120 38.8140 3417.00 3389.06 58.00
6121 38.8200 3430.00 3386.16 59.00
6122 38.8260 3433.00 3384.81 59.00
6123 38.8320 3363.00 3383.67 58.00
6124 38.8380 3378.00 3381.63 58.00
6125 38.8440 3421.00 3383.25 58.00
6126 38.8500 3445.00 3382.14 59.00
6127 38.8560 3348.00 3383.74 58.00
6128 38.8620 3368.00 3383.36 58.00
6129 38.8680 3424.00 3383.55 59.00
6130 38.8740 3354.00 3384.65 58.00
6131 38.8800 3369.00 3385.00 58.00
6132 38.8860 3427.00 3389.61 59.00
6133 38.8920 3510.00 3397.59 59.00
6134 38.8980 3524.00 3408.61 59.00
6135 38.9040 3571.00 3422.20 60.00
6136 38.9100 3624.00 3432.84 60.00
6137 38.9160 3588.00 3440.00 60.00
6138 38.9220 3581.00 3441.99 60.00
6139 38.9280 3675.00 3443.64 61.00
6140 38.9340 3772.00 3447.11 61.00
6141 38.9400 3710.00 3446.49 61.00
6142 38.9460 3653.00 3443.53 60.00
6143 38.9520 3649.00 3439.30 60.00
6144 38.9580 3665.00 3436.73 61.00
6145 38.9640 3638.00 3442.31 60.00
6146 38.9700 3698.00 3460.35 61.00
6147 38.9760 3764.00 3498.72 61.00
6148 38.9820 3819.00 3560.33 62.00
6149 38.9880 3871.00 3644.59 62.00
6150 38.9940 3870.00 3746.13 62.00
6151 39.0000 3863.00 3842.89 62.00
6152 39.0060 3872.00 3905.64 62.00
6153 39.0120 3859.00 3904.45 62.00
6154 39.0180 3855.00 3863.60 62.00
6155 39.0240 3971.00 3821.95 63.00
6156 39.0300 4074.00 3802.53 64.00
6157 39.0360 4115.00 3804.54 64.00
6158 39.0420 4084.00 3806.52 64.00
6159 39.0480 3937.00 3785.87 63.00
6160 39.0540 3777.00 3727.69 61.00
6161 39.0600 3721.00 3656.52 61.00
6162 39.0660 3650.00 3591.54 60.00
6163 39.0720 3566.00 3542.40 60.00
6164 39.0780 3586.00 3511.28 60.00
6165 39.0840 3521.00 3496.19 59.00
6166 39.0900 3507.00 3493.58 59.00
6167 39.0960 3652.00 3500.45 60.00
6168 39.1020 3618.00 3515.61 60.00
6169 39.1080 3560.00 3540.45 60.00
6170 39.1140 3595.00 3580.17 60.00
6171 39.1200 3632.00 3651.75 60.00
6172 39.1260 3733.00 3762.42 61.00
6173 39.1320 3880.00 3949.41 62.00
6174 39.1380 4214.00 4229.24 65.00
6175 39.1440 4775.00 4621.27 69.00
6176 39.1500 5806.00 5106.52 76.00
6177 39.1560 6586.00 5608.61 81.00
6178 39.1620 6757.00 5985.82 82.00
6179 39.1680 6339.00 6096.73 80.00
6180 39.1740 5683.00 5930.42 75.00
6181 39.1800 5175.00 5633.09 72.00
6182 39.1860 4930.00 5390.34 70.00
6183 39.1920 4837.00 5320.31 70.00
6184 39.1980 5134.00 5453.72 72.00
6185 39.2040 5523.00 5728.68 74.00
6186 39.2100 5806.00 6020.45 76.00
6187 39.2160 5838.00 6194.12 76.00
6188 39.2220 5744.00 6164.51 76.00
6189 39.2280 5504.00 5965.48 74.00
6190 39.2340 5353.00 5709.43 73.00
6191 39.2400 5267.00 5494.71 73.00
6192 39.2460 5060.00 5325.83 71.00
6193 39.2520 4980.00 5139.92 71.00
6194 39.2580 4818.00 4898.59 69.00
6195 39.2640 4568.00 4621.93 68.00
6196 39.2700 4415.00 4378.02 66.00
6197 39.2760 4284.00 4212.56 65.00
6198 39.2820 4359.00 4138.74 66.00
6199 39.2880 4469.00 4177.87 67.00
6200 39.2940 4631.00 4343.69 68.00
6201 39.3000 4880.00 4644.23 70.00
6202 39.3060 4973.00 5062.32 71.00
6203 39.3120 5105.00 5545.34 71.00
6204 39.3180 5222.00 5977.54 72.00
6205 39.3240 5362.00 6201.47 73.00
6206 39.3300 5596.00 6166.43 75.00
6207 39.3360 5819.00 6016.55 76.00
6208 39.3420 6087.00 5942.62 78.00
6209 39.3480 6378.00 6045.35 80.00
6210 39.3540 6728.00 6312.91 82.00
6211 39.3600 7066.00 6618.81 84.00
6212 39.3660 7060.00 6741.19 84.00
6213 39.3720 6637.00 6523.82 81.00
6214 39.3780 5964.00 6047.29 77.00
6215 39.3840 5401.00 5511.76 73.00
6216 39.3900 5002.00 5067.39 71.00
6217 39.3960 4685.00 4794.49 68.00
6218 39.4020 4610.00 4735.10 68.00
6219 39.4080 4816.00 4919.18 69.00
6220 39.4140 5256.00 5375.98 72.00
6221 39.4200 6134.00 6119.38 78.00
6222 39.4260 7660.00 7117.24 88.00
6223 39.4320 9916.00 8228.35 100.00
6224 39.4380 11548.00 9164.32 107.00
6225 39.4440 11208.00 9570.61 106.00
6226 39.4500 9455.00 9276.93 97.00
6227 39.4560 7568.00 8425.14 87.00
6228 39.4620 6369.00 7355.21 80.00
6229 39.4680 5726.00 6370.82 76.00
6230 39.4740 5465.00 5628.23 74.00
6231 39.4800 5450.00 5169.55 74.00
6232 39.4860 5552.00 4978.64 75.00
6233 39.4920 5843.00 5030.07 76.00
6234 39.4980 6346.00 5308.79 80.00
6235 39.5040 7038.00 5815.25 84.00
6236 39.5100 7865.00 6555.84 89.00
6237 39.5160 9094.00 7522.58 95.00
6238 39.5220 10107.00 8688.35 101.00
6239 39.5280 11592.00 10043.20 108.00
6240 39.5340 13400.00 11557.60 116.00
6241 39.5400 14582.00 13103.90 121.00
6242 39.5460 14922.00 14525.20 122.00
6243 39.5520 14997.00 15578.50 122.00
6244 39.5580 14888.00 15975.00 122.00
6245 39.5640 14910.00 15681.30 122.00
6246 39.5700 14709.00 15014.20 121.00
6247 39.5760 14416.00 14251.20 120.00
6248 39.5820 13475.00 13370.80 116.00
6249 39.5880 11717.00 12261.80 108.00
6250 39.5940 9964.00 10939.50 100.00
6251 39.6000 8350.00 9520.72 91.00
6252 39.6060 7502.00 8203.36 87.00
6253 39.6120 6978.00 7136.96 84.00
6254 39.6180 6694.00 6330.33 82.00
6255 39.6240 5816.00 5701.00 76.00
6256 39.6300 5136.00 5179.59 72.00
6257 39.6360 4635.00 4751.05 68.00
6258 39.6420 4411.00 4414.59 66.00
6259 39.6480 4171.00 4157.20 65.00
6260 39.6540 3949.00 3973.73 63.00
6261 39.6600 3934.00 3844.21 63.00
6262 39.6660 3747.00 3753.20 61.00
6263 39.6720 3729.00 3687.67 61.00
6264 39.6780 3658.00 3638.71 60.00
6265 39.6840 3534.00 3600.46 59.00
6266 39.6900 3571.00 3564.51 60.00
6267 39.6960 3664.00 3539.26 61.00
6268 39.7020 3604.00 3518.39 60.00
6269 39.7080 3559.00 3502.79 60.00
6270 39.7140 3488.00 3493.06 59.00
6271 39.7200 3432.00 3482.25 59.00
6272 39.7260 3641.00 3474.28 60.00
6273 39.7320 3654.00 3469.23 60.00
6274 39.7380 3460.00 3467.54 59.00
6275 39.7440 3435.00 3472.07 59.00
6276 39.7500 3429.00 3481.32 59.00
6277 39.7560 3627.00 3500.65 60.00
6278 39.7620 3569.00 3529.44 60.00
6279 39.7680 3664.00 3585.79 61.00
6280 39.7740 3797.00 3663.98 62.00
6281 39.7800 3973.00 3776.12 63.00
6282 39.7860 4134.00 3910.85 64.00
6283 39.7920 4248.00 4049.83 65.00
6284 39.7980 4509.00 4169.91 67.00
6285 39.8040 4504.00 4266.06 67.00
6286 39.8100 4384.00 4350.31 66.00
6287 39.8160 4478.00 4435.67 67.00
6288 39.8220 4389.00 4547.73 66.00
6289 39.8280 4479.00 4729.96 67.00
6290 39.8340 4993.00 5025.35 71.00
6291 39.8400 5855.00 5443.00 77.00
6292 39.8460 7212.00 5917.94 85.00
6293 39.8520 7315.00 6298.23 86.00
6294 39.8580 6661.00 6380.02 82.00
6295 39.8640 6019.00 6094.18 78.00
6296 39.8700 5166.00 5561.34 72.00
6297 39.8760 4394.00 4970.41 66.00
6298 39.8820 4018.00 4446.06 63.00
6299 39.8880 3806.00 4055.83 62.00
6300 39.8940 3639.00 3791.80 60.00
6301 39.9000 3527.00 3626.97 59.00
6302 39.9060 3641.00 3522.00 60.00
6303 39.9120 3482.00 3464.86 59.00
6304 39.9180 3449.00 3425.33 59.00
6305 39.9240 3426.00 3404.84 59.00
6306 39.9300 3333.00 3390.83 58.00
6307 39.9360 3363.00 3382.18 58.00
6308 39.9420 3262.00 3377.85 57.00
6309 39.9480 3395.00 3375.94 58.00
6310 39.9540 3442.00 3379.52 59.00
6311 39.9600 3469.00 3387.42 59.00
6312 39.9660 3352.00 3400.63 58.00
6313 39.9720 3326.00 3421.36 58.00
6314 39.9780 3442.00 3454.27 59.00
6315 39.9840 3603.00 3508.83 60.00
6316 39.9900 3583.00 3601.94 60.00
6317 39.9960 3823.00 3759.75 62.00
6318 40.0020 4000.00 4015.03 63.00
6319 40.0080 4384.00 4396.09 66.00
6320 40.0140 5031.00 4908.64 71.00
6321 40.0200 5634.00 5512.04 75.00
6322 40.0260 6419.00 6093.52 80.00
6323 40.0320 6450.00 6467.98 80.00
6324 40.0380 6292.00 6485.52 79.00
6325 40.0440 5857.00 6192.75 77.00
6326 40.0500 5445.00 5782.85 74.00
6327 40.0560 5080.00 5408.08 71.00
6328 40.0620 4861.00 5108.33 70.00
6329 40.0680 4522.00 4838.07 67.00
6330 40.0740 4229.00 4548.53 65.00
6331 40.0800 4012.00 4251.19 63.00
6332 40.0860 3806.00 3983.45 62.00
6333 40.0920 3625.00 3767.02 60.00
6334 40.0980 3487.00 3606.83 59.00
6335 40.1040 3437.00 3496.81 59.00
6336 40.1100 3448.00 3425.41 59.00
6337 40.1160 3356.00 3380.31 58.00
6338 40.1220 3286.00 3350.91 57.00
6339 40.1280 3279.00 3332.07 57.00
6340 40.1340 3432.00 3319.41 59.00
6341 40.1400 3262.00 3310.61 57.00
6342 40.1460 3313.00 3306.47 58.00
6343 40.1520 3292.00 3307.96 57.00
6344 40.1580 3278.00 3315.75 57.00
6345 40.1640 3309.00 3333.97 58.00
6346 40.1700 3454.00 3368.86 59.00
6347 40.1760 3499.00 3430.94 59.00
6348 40.1820 3509.00 3515.67 59.00
6349 40.1880 3588.00 3626.49 60.00
6350 40.1940 3637.00 3755.28 60.00
6351 40.2000 3674.00 3870.23 61.00
6352 40.2060 3710.00 3931.94 61.00
6353 40.2120 3795.00 3922.04 62.00
6354 40.2180 3806.00 3875.14 62.00
6355 40.2240 3881.00 3837.76 62.00
6356 40.2300 3883.00 3841.00 62.00
6357 40.2360 3962.00 3881.80 63.00
6358 40.2420 3953.00 3932.36 63.00
6359 40.2480 3979.00 3943.37 63.00
6360 40.2540 3874.00 3878.86 62.00
6361 40.2600 3675.00 3757.20 61.00
6362 40.2660 3444.00 3619.84 59.00
6363 40.2720 3339.00 3496.73 58.00
6364 40.2780 3312.00 3400.91 58.00
6365 40.2840 3247.00 3333.99 57.00
6366 40.2900 3204.00 3290.90 57.00
6367 40.2960 3213.00 3264.46 57.00
6368 40.3020 3248.00 3248.39 57.00
6369 40.3080 3193.00 3238.14 57.00
6370 40.3140 3260.00 3231.20 57.00
6371 40.3200 3186.00 3225.40 56.00
6372 40.3260 3164.00 3220.76 56.00
6373 40.3320 3205.00 3217.11 57.00
6374 40.3380 3135.00 3214.38 56.00
6375 40.3440 3182.00 3212.29 56.00
6376 40.3500 3127.00 3210.86 56.00
6377 40.3560 3201.00 3210.07 57.00
6378 40.3620 3057.00 3208.40 55.00
6379 40.3680 3098.00 3205.08 56.00
6380 40.3740 3151.00 3206.52 56.00
6381 40.3800 3150.00 3208.76 56.00
6382 40.3860 3153.00 3211.91 56.00
6383 40.3920 3196.00 3216.15 57.00
6384 40.3980 3114.00 3219.94 56.00
6385 40.4040 3204.00 3227.17 57.00
6386 40.4100 3188.00 3236.55 56.00
6387 40.4160 3229.00 3248.93 57.00
6388 40.4220 3288.00 3265.93 57.00
6389 40.4280 3315.00 3290.58 58.00
6390 40.4340 3320.00 3328.19 58.00
6391 40.4400 3441.00 3387.28 59.00
6392 40.4460 3564.00 3479.45 60.00
6393 40.4520 3597.00 3618.04 60.00
6394 40.4580 3727.00 3814.93 61.00
6395 40.4640 4232.00 4075.46 65.00
6396 40.4700 4444.00 4389.91 67.00
6397 40.4760 4779.00 4725.70 69.00
6398 40.4820 5355.00 5043.59 73.00
6399 40.4880 5844.00 5329.73 76.00
6400 40.4940 6106.00 5572.79 78.00
6401 40.5000 6088.00 5714.09 78.00
6402 40.5060 5864.00 5670.01 77.00
6403 40.5120 5464.00 5450.15 74.00
6404 40.5180 4842.00 5176.23 70.00
6405 40.5240 4566.00 4963.85 68.00
6406 40.5300 4569.00 4860.90 68.00
6407 40.5360 4808.00 4860.10 69.00
6408 40.5420 4683.00 4929.87 68.00
6409 40.5480 4934.00 5013.67 70.00
6410 40.5540 5078.00 5050.36 71.00
6411 40.5600 4974.00 5001.96 71.00
6412 40.5660 4733.00 4860.37 69.00
6413 40.5720 4484.00 4647.27 67.00
6414 40.5780 4258.00 4386.96 65.00
6415 40.5840 3971.00 4109.16 63.00
6416 40.5900 3827.00 3850.46 62.00
6417 40.5960 3688.00 3638.66 61.00
6418 40.6020 3567.00 3481.52 60.00
6419 40.6080 3542.00 3373.83 60.00
6420 40.6140 3554.00 3304.93 60.00
6421 40.6200 3447.00 3263.07 59.00
6422 40.6260 3519.00 3237.87 59.00
6423 40.6320 3377.00 3220.97 58.00
6424 40.6380 3551.00 3208.99 60.00
6425 40.6440 3337.00 3196.41 58.00
6426 40.6500 3323.00 3186.50 58.00
6427 40.6560 3338.00 3181.80 58.00
6428 40.6620 3275.00 3177.67 57.00
6429 40.6680 3235.00 3172.69 57.00
6430 40.6740 3307.00 3166.23 58.00
6431 40.6800 3151.00 3152.19 56.00
6432 40.6860 3250.00 3136.21 57.00
6433 40.6920 3187.00 3120.87 56.00
6434 40.6980 3203.00 3107.76 57.00
6435 40.7040 3164.00 3097.31 56.00
6436 40.7100 3134.00 3089.26 56.00
6437 40.7160 3159.00 3083.07 56.00
6438 40.7220 3147.00 3078.17 56.00
6439 40.7280 3039.00 3074.10 55.00
6440 40.7340 3040.00 3070.56 55.00
6441 40.7400 2982.00 3069.35 55.00
6442 40.7460 3120.00 3066.54 56.00
6443 40.7520 3119.00 3063.96 56.00
6444 40.7580 3163.00 3061.59 56.00
6445 40.7640 3048.00 3059.41 55.00
6446 40.7700 3049.00 3057.40 55.00
6447 40.7760 3099.00 3055.57 56.00
6448 40.7820 2988.00 3053.91 55.00
6449 40.7880 3049.00 3052.41 55.00
6450 40.7940 3026.00 3051.44 55.00
6451 40.8000 3057.00 3051.35 55.00
6452 40.8060 3114.00 3051.45 56.00
6453 40.8120 3123.00 3050.47 56.00
6454 40.8180 3085.00 3050.70 56.00
6455 40.8240 3007.00 3053.00 55.00
6456 40.8300 3141.00 3054.74 56.00
6457 40.8360 2963.00 3053.35 54.00
6458 40.8420 3077.00 3055.30 55.00
6459 40.8480 3077.00 3057.63 55.00
6460 40.8540 3081.00 3060.42 56.00
6461 40.8600 2941.00 3063.74 54.00
6462 40.8660 3178.00 3067.11 56.00
6463 40.8720 3168.00 3071.93 56.00
6464 40.8780 3197.00 3077.59 57.00
6465 40.8840 3190.00 3083.17 56.00
6466 40.8900 3262.00 3091.43 57.00
6467 40.8960 3184.00 3100.15 56.00
6468 40.9020 3304.00 3112.81 57.00
6469 40.9080 3339.00 3129.20 58.00
6470 40.9140 3349.00 3152.44 58.00
6471 40.9200 3440.00 3185.19 59.00
6472 40.9260 3365.00 3237.39 58.00
6473 40.9320 3432.00 3316.92 59.00
6474 40.9380 3595.00 3440.17 60.00
6475 40.9440 3786.00 3621.04 62.00
6476 40.9500 4127.00 3868.94 64.00
6477 40.9560 4517.00 4180.08 67.00
6478 40.9620 4793.00 4527.54 69.00
6479 40.9680 5002.00 4856.08 71.00
6480 40.9740 5225.00 5116.87 72.00
6481 40.9800 5560.00 5317.62 75.00
6482 40.9860 5587.00 5486.87 75.00
6483 40.9920 5396.00 5611.35 73.00
6484 40.9980 5094.00 5659.49 71.00
6485 41.0040 4751.00 5602.67 69.00
6486 41.0100 4609.00 5398.38 68.00
6487 41.0160 4370.00 5049.20 66.00
6488 41.0220 4208.00 4639.44 65.00
6489 41.0280 4081.00 4263.22 64.00
6490 41.0340 3970.00 3975.83 63.00
6491 41.0400 4013.00 3804.28 63.00
6492 41.0460 4107.00 3749.53 64.00
6493 41.0520 4095.00 3800.37 64.00
6494 41.0580 4421.00 3926.77 66.00
6495 41.0640 4590.00 4086.70 68.00
6496 41.0700 4505.00 4210.43 67.00
6497 41.0760 4315.00 4225.99 66.00
6498 41.0820 4268.00 4112.67 65.00
6499 41.0880 4161.00 3922.35 65.00
6500 41.0940 3867.00 3720.98 62.00
6501 41.1000 3617.00 3550.28 60.00
6502 41.1060 3548.00 3428.65 60.00
6503 41.1120 3555.00 3361.13 60.00
6504 41.1180 3510.00 3347.45 59.00
6505 41.1240 3421.00 3388.57 58.00
6506 41.1300 3405.00 3488.67 58.00
6507 41.1360 3465.00 3651.76 59.00
6508 41.1420 3992.00 3873.93 63.00
6509 41.1480 4471.00 4133.15 67.00
6510 41.1540 5052.00 4377.17 71.00
6511 41.1600 5222.00 4528.08 72.00
6512 41.1660 4790.00 4530.31 69.00
6513 41.1720 4405.00 4395.10 66.00
6514 41.1780 4073.00 4176.15 64.00
6515 41.1840 3838.00 3936.14 62.00
6516 41.1900 3677.00 3725.41 61.00
6517 41.1960 3443.00 3569.93 59.00
6518 41.2020 3459.00 3475.10 59.00
6519 41.2080 3505.00 3438.51 59.00
6520 41.2140 3479.00 3461.51 59.00
6521 41.2200 3456.00 3552.78 59.00
6522 41.2260 3665.00 3723.35 61.00
6523 41.2320 4019.00 3977.15 63.00
6524 41.2380 4684.00 4299.59 68.00
6525 41.2440 5600.00 4642.05 75.00
6526 41.2500 6084.00 4915.60 78.00
6527 41.2560 5732.00 5023.15 76.00
6528 41.2620 5158.00 4925.25 72.00
6529 41.2680 4407.00 4664.65 66.00
6530 41.2740 3947.00 4329.66 63.00
6531 41.2800 3648.00 3997.95 60.00
6532 41.2860 3418.00 3717.95 58.00
6533 41.2920 3282.00 3508.94 57.00
6534 41.2980 3217.00 3368.01 57.00
6535 41.3040 3205.00 3282.09 57.00
6536 41.3100 3224.00 3234.89 57.00
6537 41.3160 3284.00 3221.20 57.00
6538 41.3220 3140.00 3233.44 56.00
6539 41.3280 3278.00 3274.21 57.00
6540 41.3340 3337.00 3350.70 58.00
6541 41.3400 3433.00 3472.45 59.00
6542 41.3460 3481.00 3642.47 59.00
6543 41.3520 3690.00 3862.86 61.00
6544 41.3580 3899.00 4117.58 62.00
6545 41.3640 4270.00 4375.82 65.00
6546 41.3700 4726.00 4615.26 69.00
6547 41.3760 5084.00 4815.80 71.00
6548 41.3820 4998.00 4937.28 71.00
6549 41.3880 4727.00 4937.11 69.00
6550 41.3940 4612.00 4805.96 68.00
6551 41.4000 4335.00 4564.67 66.00
6552 41.4060 3947.00 4255.95 63.00
6553 41.4120 3642.00 3938.26 60.00
6554 41.4180 3497.00 3664.50 59.00
6555 41.4240 3417.00 3453.18 58.00
6556 41.4300 3324.00 3304.15 58.00
6557 41.4360 3228.00 3206.38 57.00
6558 41.4420 3222.00 3145.76 57.00
6559 41.4480 3131.00 3109.39 56.00
6560 41.4540 3024.00 3087.38 55.00
6561 41.4600 2909.00 3072.78 54.00
6562 41.4660 2888.00 3061.34 54.00
6563 41.4720 2928.00 3051.36 54.00
6564 41.4780 2961.00 3042.70 54.00
6565 41.4840 3057.00 3035.12 55.00
6566 41.4900 3042.00 3027.91 55.00
6567 41.4960 3008.00 3020.55 55.00
6568 41.5020 3028.00 3011.37 55.00
6569 41.5080 2997.00 3005.18 55.00
6570 41.5140 3047.00 2999.62 55.00
6571 41.5200 3033.00 2996.62 55.00
6572 41.5260 3062.00 2995.41 55.00
6573 41.5320 3061.00 2998.74 55.00
6574 41.5380 3035.00 3000.32 55.00
6575 41.5440 3085.00 3003.25 56.00
6576 41.5500 3036.00 3008.11 55.00
6577 41.5560 3078.00 3015.58 55.00
6578 41.5620 3133.00 3026.86 56.00
6579 41.5680 3195.00 3043.37 57.00
6580 41.5740 3204.00 3066.31 57.00
6581 41.5800 3174.00 3095.95 56.00
6582 41.5860 3255.00 3130.75 57.00
6583 41.5920 3292.00 3164.84 57.00
6584 41.5980 3250.00 3194.93 57.00
6585 41.6040 3273.00 3212.62 57.00
6586 41.6100 3337.00 3226.03 58.00
6587 41.6160 3434.00 3247.12 59.00
6588 41.6220 3549.00 3292.79 60.00
6589 41.6280 3644.00 3378.78 60.00
6590 41.6340 3750.00 3520.91 61.00
6591 41.6400 3823.00 3732.96 62.00
6592 41.6460 4089.00 4022.06 64.00
6593 41.6520 4554.00 4381.15 67.00
6594 41.6580 4985.00 4787.56 71.00
6595 41.6640 5491.00 5209.81 74.00
6596 41.6700 5954.00 5598.13 77.00
6597 41.6760 6287.00 5881.17 79.00
6598 41.6820 6343.00 5983.89 80.00
6599 41.6880 5957.00 5850.68 77.00
6600 41.6940 5292.00 5500.16 73.00
6601 41.7000 4724.00 5025.54 69.00
6602 41.7060 4302.00 4529.44 66.00
6603 41.7120 3944.00 4091.67 63.00
6604 41.7180 3665.00 3746.59 61.00
6605 41.7240 3507.00 3497.89 59.00
6606 41.7300 3353.00 3330.95 58.00
6607 41.7360 3331.00 3225.43 58.00
6608 41.7420 3273.00 3158.39 57.00
6609 41.7480 3197.00 3117.06 57.00
6610 41.7540 3246.00 3090.12 57.00
6611 41.7600 3173.00 3071.79 56.00
6612 41.7660 3086.00 3058.91 56.00
6613 41.7720 3165.00 3049.90 56.00
6614 41.7780 3150.00 3048.35 56.00
6615 41.7840 3122.00 3045.22 56.00
6616 41.7900 3135.00 3044.65 56.00
6617 41.7960 3149.00 3046.77 56.00
6618 41.8020 3154.00 3055.49 56.00
6619 41.8080 3134.00 3065.40 56.00
6620 41.8140 3176.00 3082.48 56.00
6621 41.8200 3259.00 3111.92 57.00
6622 41.8260 3239.00 3162.71 57.00
6623 41.8320 3252.00 3248.13 57.00
6624 41.8380 3353.00 3384.11 58.00
6625 41.8440 3627.00 3583.88 60.00
6626 41.8500 4033.00 3848.73 64.00
6627 41.8560 4645.00 4159.59 68.00
6628 41.8620 5365.00 4464.93 73.00
6629 41.8680 5556.00 4665.48 75.00
6630 41.8740 5176.00 4670.68 72.00
6631 41.8800 4483.00 4477.60 67.00
6632 41.8860 3915.00 4177.26 63.00
6633 41.8920 3617.00 3865.04 60.00
6634 41.8980 3403.00 3598.67 58.00
6635 41.9040 3288.00 3395.14 57.00
6636 41.9100 3243.00 3255.66 57.00
6637 41.9160 3131.00 3167.40 56.00
6638 41.9220 3092.00 3114.47 56.00
6639 41.9280 3155.00 3083.33 56.00
6640 41.9340 3175.00 3064.75 56.00
6641 41.9400 3098.00 3053.28 56.00
6642 41.9460 3035.00 3045.90 55.00
6643 41.9520 3119.00 3041.72 56.00
6644 41.9580 3125.00 3039.87 56.00
6645 41.9640 3132.00 3041.26 56.00
6646 41.9700 3188.00 3045.46 56.00
6647 41.9760 3124.00 3050.10 56.00
6648 41.9820 3071.00 3057.64 55.00
6649 41.9880 3092.00 3069.39 56.00
6650 41.9940 3189.00 3087.84 56.00
6651 42.0000 3202.00 3118.32 57.00
6652 42.0060 3189.00 3164.88 56.00
6653 42.0120 3273.00 3234.78 57.00
6654 42.0180 3264.00 3333.93 57.00
6655 42.0240 3307.00 3468.26 58.00
6656 42.0300 3508.00 3628.36 59.00
6657 42.0360 3619.00 3799.49 60.00
6658 42.0420 3668.00 3945.06 61.00
6659 42.0480 3700.00 4034.17 61.00
6660 42.0540 3649.00 4047.20 60.00
6661 42.0600 3555.00 3984.59 60.00
6662 42.0660 3534.00 3874.69 59.00
6663 42.0720 3619.00 3769.89 60.00
6664 42.0780 3639.00 3716.95 60.00
6665 42.0840 3703.00 3751.44 61.00
6666 42.0900 3912.00 3900.17 63.00
6667 42.0960 4252.00 4180.05 65.00
6668 42.1020 4840.00 4591.49 70.00
6669 42.1080 5585.00 5107.25 75.00
6670 42.1140 6129.00 5655.48 78.00
6671 42.1200 6560.00 6113.57 81.00
6672 42.1260 6746.00 6362.40 82.00
6673 42.1320 6730.00 6401.80 82.00
6674 42.1380 6503.00 6312.32 81.00
6675 42.1440 6114.00 6126.04 78.00
6676 42.1500 5557.00 5810.50 75.00
6677 42.1560 5099.00 5378.78 71.00
6678 42.1620 4712.00 4923.17 69.00
6679 42.1680 4471.00 4541.92 67.00
6680 42.1740 4417.00 4292.40 66.00
6681 42.1800 4482.00 4198.40 67.00
6682 42.1860 4696.00 4258.07 69.00
6683 42.1920 4822.00 4442.29 69.00
6684 42.1980 4878.00 4698.98 70.00
6685 42.2040 4938.00 4944.79 70.00
6686 42.2100 5077.00 5084.41 71.00
6687 42.2160 5174.00 5078.35 72.00
6688 42.2220 5299.00 4994.42 73.00
6689 42.2280 5344.00 4913.56 73.00
6690 42.2340 5289.00 4869.55 73.00
6691 42.2400 5248.00 4832.45 72.00
6692 42.2460 5060.00 4734.47 71.00
6693 42.2520 4737.00 4541.12 69.00
6694 42.2580 4371.00 4292.01 66.00
6695 42.2640 4239.00 4053.48 65.00
6696 42.2700 4054.00 3875.24 64.00
6697 42.2760 4088.00 3787.57 64.00
6698 42.2820 4285.00 3807.36 65.00
6699 42.2880 4471.00 3940.52 67.00
6700 42.2940 4538.00 4178.13 67.00
6701 42.3000 4714.00 4496.00 69.00
6702 42.3060 4970.00 4842.94 70.00
6703 42.3120 4929.00 5137.11 70.00
6704 42.3180 4996.00 5301.54 71.00
6705 42.3240 5155.00 5335.02 72.00
6706 42.3300 5335.00 5305.03 73.00
6707 42.3360 5334.00 5260.27 73.00
6708 42.3420 5206.00 5188.03 72.00
6709 42.3480 5050.00 5052.35 71.00
6710 42.3540 4915.00 4857.34 70.00
6711 42.3600 4715.00 4648.54 69.00
6712 42.3660 4497.00 4473.39 67.00
6713 42.3720 4476.00 4352.82 67.00
6714 42.3780 4494.00 4272.90 67.00
6715 42.3840 4409.00 4203.00 66.00
6716 42.3900 4446.00 4130.24 67.00
6717 42.3960 4618.00 4062.74 68.00
6718 42.4020 4525.00 3997.52 67.00
6719 42.4080 4379.00 3912.07 66.00
6720 42.4140 4122.00 3794.53 64.00
6721 42.4200 3940.00 3659.94 63.00
6722 42.4260 3736.00 3537.26 61.00
6723 42.4320 3668.00 3448.78 61.00
6724 42.4380 3608.00 3407.04 60.00
6725 42.4440 3649.00 3416.56 60.00
6726 42.4500 3753.00 3475.68 61.00
6727 42.4560 3942.00 3575.17 63.00
6728 42.4620 4100.00 3695.81 64.00
6729 42.4680 4236.00 3806.92 65.00
6730 42.4740 4382.00 3874.79 66.00
6731 42.4800 4329.00 3901.84 66.00
6732 42.4860 4356.00 3894.81 66.00
6733 42.4920 4206.00 3861.19 65.00
6734 42.4980 4005.00 3809.56 63.00
6735 42.5040 3975.00 3771.12 63.00
6736 42.5100 4050.00 3760.74 64.00
6737 42.5160 4159.00 3775.62 64.00
6738 42.5220 4159.00 3796.20 64.00
6739 42.5280 4044.00 3796.46 64.00
6740 42.5340 3806.00 3750.66 62.00
6741 42.5400 3686.00 3652.93 61.00
6742 42.5460 3558.00 3525.84 60.00
6743 42.5520 3498.00 3400.41 59.00
6744 42.5580 3320.00 3293.03 58.00
6745 42.5640 3289.00 3216.25 57.00
6746 42.5700 3202.00 3165.68 57.00
6747 42.5760 3274.00 3134.38 57.00
6748 42.5820 3161.00 3117.33 56.00
6749 42.5880 3228.00 3112.15 57.00
6750 42.5940 3354.00 3116.05 58.00
6751 42.6000 3373.00 3133.84 58.00
6752 42.6060 3448.00 3164.41 59.00
6753 42.6120 3542.00 3209.95 60.00
6754 42.6180 3703.00 3270.05 61.00
6755 42.6240 3870.00 3337.04 62.00
6756 42.6300 3958.00 3392.89 63.00
6757 42.6360 3778.00 3412.38 61.00
6758 42.6420 3736.00 3381.27 61.00
6759 42.6480 3596.00 3311.63 60.00
6760 42.6540 3417.00 3228.18 58.00
6761 42.6600 3325.00 3149.70 58.00
6762 42.6660 3203.00 3082.58 57.00
6763 42.6720 3202.00 3035.46 57.00
6764 42.6780 3113.00 3003.50 56.00
6765 42.6840 2967.00 2983.05 54.00
6766 42.6900 2925.00 2970.27 54.00
6767 42.6960 3031.00 2960.17 55.00
6768 42.7020 3034.00 2954.84 55.00
6769 42.7080 2922.00 2950.51 54.00
6770 42.7140 2952.00 2947.79 54.00
6771 42.7200 2952.00 2945.83 54.00
6772 42.7260 2901.00 2944.52 54.00
6773 42.7320 2961.00 2942.86 54.00
6774 42.7380 2931.00 2943.28 54.00
6775 42.7440 2922.00 2945.03 54.00
6776 42.7500 2932.00 2948.63 54.00
6777 42.7560 2973.00 2954.57 55.00
6778 42.7620 3007.00 2962.09 55.00
6779 42.7680 2991.00 2972.78 55.00
6780 42.7740 3024.00 2984.70 55.00
6781 42.7800 3103.00 2994.95 56.00
6782 42.7860 3104.00 2999.00 56.00
6783 42.7920 3095.00 2995.71 56.00
6784 42.7980 3027.00 2987.04 55.00
6785 42.8040 3052.00 2976.64 55.00
6786 42.8100 3040.00 2970.55 55.00
6787 42.8160 3014.00 2964.67 55.00
6788 42.8220 3055.00 2963.38 55.00
6789 42.8280 2993.00 2962.89 55.00
6790 42.8340 2924.00 2965.63 54.00
6791 42.8400 3022.00 2972.15 55.00
6792 42.8460 3065.00 2983.13 55.00
6793 42.8520 3050.00 3003.51 55.00
6794 42.8580 3136.00 3033.28 56.00
6795 42.8640 3139.00 3076.57 56.00
6796 42.8700 3377.00 3134.76 58.00
6797 42.8760 3438.00 3207.45 59.00
6798 42.8820 3391.00 3287.21 58.00
6799 42.8880 3614.00 3361.28 60.00
6800 42.8940 3657.00 3415.81 60.00
6801 42.9000 3683.00 3439.91 61.00
6802 42.9060 3591.00 3437.42 60.00
6803 42.9120 3642.00 3416.39 60.00
6804 42.9180 3509.00 3378.29 59.00
6805 42.9240 3333.00 3321.23 58.00
6806 42.9300 3299.00 3250.45 57.00
6807 42.9360 3165.00 3178.50 56.00
6808 42.9420 3127.00 3115.49 56.00
6809 42.9480 3005.00 3065.85 55.00
6810 42.9540 2972.00 3029.86 55.00
6811 42.9600 3087.00 3005.73 56.00
6812 42.9660 3040.00 2990.57 55.00
6813 42.9720 3065.00 2981.61 55.00
6814 42.9780 3034.00 2978.44 55.00
6815 42.9840 3025.00 2977.31 55.00
6816 42.9900 3018.00 2975.66 55.00
6817 42.9960 3078.00 2975.91 55.00
6818 43.0020 3004.00 2977.01 55.00
6819 43.0080 3041.00 2980.34 55.00
6820 43.0140 2886.00 2982.98 54.00
6821 43.0200 3024.00 2986.35 55.00
6822 43.0260 3013.00 2990.50 55.00
6823 43.0320 3012.00 2995.52 55.00
6824 43.0380 3037.00 3001.52 55.00
6825 43.0440 3007.00 3008.65 55.00
6826 43.0500 3087.00 3017.16 56.00
6827 43.0560 3016.00 3027.38 55.00
6828 43.0620 3039.00 3039.85 55.00
6829 43.0680 3051.00 3055.50 55.00
6830 43.0740 3068.00 3075.93 55.00
6831 43.0800 2932.00 3103.82 54.00
6832 43.0860 3130.00 3143.24 56.00
6833 43.0920 3117.00 3199.87 56.00
6834 43.0980 3235.00 3280.36 57.00
6835 43.1040 3262.00 3391.38 57.00
6836 43.1100 3405.00 3538.27 58.00
6837 43.1160 3667.00 3723.58 61.00
6838 43.1220 3877.00 3945.97 62.00
6839 43.1280 4178.00 4202.37 65.00
6840 43.1340 4286.00 4498.72 65.00
6841 43.1400 4462.00 4858.65 67.00
6842 43.1460 5120.00 5313.45 72.00
6843 43.1520 6432.00 5866.58 80.00
6844 43.1580 7750.00 6455.73 88.00
6845 43.1640 8148.00 6949.44 90.00
6846 43.1700 8089.00 7197.14 90.00
6847 43.1760 7150.00 7132.34 85.00
6848 43.1820 6263.00 6784.31 79.00
6849 43.1880 5469.00 6269.04 74.00
6850 43.1940 5197.00 5727.10 72.00
6851 43.2000 4896.00 5241.48 70.00
6852 43.2060 4601.00 4829.57 68.00
6853 43.2120 4212.00 4474.93 65.00
6854 43.2180 3959.00 4181.33 63.00
6855 43.2240 3881.00 3946.98 62.00
6856 43.2300 3662.00 3759.65 61.00
6857 43.2360 3556.00 3603.00 60.00
6858 43.2420 3368.00 3473.19 58.00
6859 43.2480 3268.00 3370.75 57.00
6860 43.2540 3328.00 3293.97 58.00
6861 43.2600 3155.00 3241.00 56.00
6862 43.2660 3190.00 3207.58 56.00
6863 43.2720 3198.00 3191.17 57.00
6864 43.2780 3095.00 3190.44 56.00
6865 43.2840 3139.00 3208.28 56.00
6866 43.2900 3220.00 3252.66 57.00
6867 43.2960 3265.00 3331.00 57.00
6868 43.3020 3446.00 3459.47 59.00
6869 43.3080 3615.00 3651.92 60.00
6870 43.3140 3827.00 3914.70 62.00
6871 43.3200 3982.00 4238.62 63.00
6872 43.3260 4344.00 4589.02 66.00
6873 43.3320 4387.00 4896.60 66.00
6874 43.3380 4322.00 5072.97 66.00
6875 43.3440 4402.00 5077.73 66.00
6876 43.3500 4320.00 4957.61 66.00
6877 43.3560 4370.00 4780.05 66.00
6878 43.3620 3915.00 4573.70 63.00
6879 43.3680 3799.00 4334.81 62.00
6880 43.3740 3697.00 4072.65 61.00
6881 43.3800 3636.00 3819.01 60.00
6882 43.3860 3386.00 3601.06 58.00
6883 43.3920 3213.00 3429.74 57.00
6884 43.3980 3210.00 3304.15 57.00
6885 43.4040 3201.00 3217.73 57.00
6886 43.4100 3202.00 3161.34 57.00
6887 43.4160 3148.00 3125.93 56.00
6888 43.4220 3140.00 3104.25 56.00
6889 43.4280 3175.00 3091.41 56.00
6890 43.4340 3104.00 3084.51 56.00
6891 43.4400 3209.00 3082.02 57.00
6892 43.4460 3032.00 3083.39 55.00
6893 43.4520 3150.00 3088.70 56.00
6894 43.4580 3184.00 3098.77 56.00
6895 43.4640 3160.00 3115.58 56.00
6896 43.4700 3219.00 3142.97 57.00
6897 43.4760 3215.00 3187.57 57.00
6898 43.4820 3314.00 3260.70 58.00
6899 43.4880 3324.00 3371.59 58.00
6900 43.4940 3497.00 3533.84 59.00
6901 43.5000 3796.00 3755.01 62.00
6902 43.5060 3891.00 4030.59 62.00
6903 43.5120 3971.00 4334.85 63.00
6904 43.5180 4178.00 4620.72 65.00
6905 43.5240 4395.00 4820.67 66.00
6906 43.5300 4528.00 4911.52 67.00
6907 43.5360 4719.00 4937.84 69.00
6908 43.5420 5008.00 4988.35 71.00
6909 43.5480 5313.00 5104.09 73.00
6910 43.5540 5558.00 5272.15 75.00
6911 43.5600 5592.00 5417.14 75.00
6912 43.5660 5511.00 5437.28 74.00
6913 43.5720 5285.00 5298.52 73.00
6914 43.5780 4577.00 5050.60 68.00
6915 43.5840 4293.00 4762.30 66.00
6916 43.5900 4032.00 4466.85 63.00
6917 43.5960 4024.00 4184.18 63.00
6918 43.6020 3818.00 3941.72 62.00
6919 43.6080 3853.00 3766.08 62.00
6920 43.6140 3903.00 3672.16 62.00
6921 43.6200 3979.00 3659.36 63.00
6922 43.6260 3862.00 3721.18 62.00
6923 43.6320 4038.00 3838.89 64.00
6924 43.6380 4085.00 3979.90 64.00
6925 43.6440 4014.00 4095.79 63.00
6926 43.6500 4170.00 4131.02 65.00
6927 43.6560 3971.00 4058.08 63.00
6928 43.6620 3961.00 3903.75 63.00
6929 43.6680 3745.00 3722.09 61.00
6930 43.6740 3574.00 3556.98 60.00
6931 43.6800 3438.00 3432.61 59.00
6932 43.6860 3434.00 3359.66 59.00
6933 43.6920 3384.00 3328.95 58.00
6934 43.6980 3322.00 3327.24 58.00
6935 43.7040 3409.00 3341.87 58.00
6936 43.7100 3355.00 3347.08 58.00
6937 43.7160 3221.00 3326.21 57.00
6938 43.7220 3152.00 3280.07 56.00
6939 43.7280 3148.00 3220.76 56.00
6940 43.7340 3180.00 3164.21 56.00
6941 43.7400 3156.00 3116.55 56.00
6942 43.7460 3088.00 3080.73 56.00
6943 43.7520 3108.00 3056.54 56.00
6944 43.7580 3095.00 3042.16 56.00
6945 43.7640 3055.00 3035.28 55.00
6946 43.7700 3041.00 3033.71 55.00
6947 43.7760 3179.00 3036.91 56.00
6948 43.7820 3051.00 3045.22 55.00
6949 43.7880 3108.00 3060.91 56.00
6950 43.7940 3218.00 3086.73 57.00
6951 43.8000 3078.00 3128.78 55.00
6952 43.8060 3244.00 3194.24 57.00
6953 43.8120 3306.00 3290.32 57.00
6954 43.8180 3347.00 3421.69 58.00
6955 43.8240 3806.00 3587.06 62.00
6956 43.8300 4083.00 3774.70 64.00
6957 43.8360 4323.00 3957.52 66.00
6958 43.8420 4316.00 4097.87 66.00
6959 43.8480 4526.00 4173.44 67.00
6960 43.8540 4470.00 4196.08 67.00
6961 43.8600 4531.00 4185.82 67.00
6962 43.8660 4631.00 4145.82 68.00
6963 43.8720 4346.00 4078.80 66.00
6964 43.8780 4134.00 4006.42 64.00
6965 43.8840 4229.00 3962.10 65.00
6966 43.8900 4137.00 3959.18 64.00
6967 43.8960 4235.00 3995.52 65.00
6968 43.9020 4426.00 4038.25 67.00
6969 43.9080 4417.00 4055.89 66.00
6970 43.9140 4494.00 4041.25 67.00
6971 43.9200 4587.00 4009.46 68.00
6972 43.9260 4316.00 3962.45 66.00
6973 43.9320 4303.00 3900.28 66.00
6974 43.9380 4000.00 3819.92 63.00
6975 43.9440 3887.00 3743.41 62.00
6976 43.9500 3851.00 3696.75 62.00
6977 43.9560 3837.00 3690.73 62.00
6978 43.9620 4004.00 3720.87 63.00
6979 43.9680 4160.00 3761.61 64.00
6980 43.9740 4023.00 3775.73 63.00
6981 43.9800 3818.00 3734.44 62.00
6982 43.9860 3523.00 3645.07 59.00
6983 43.9920 3408.00 3540.11 58.00
6984 43.9980 3195.00 3452.09 57.00
6985 44.0040 3260.00 3404.90 57.00
6986 44.0100 3465.00 3415.11 59.00
6987 44.0160 3521.00 3491.23 59.00
6988 44.0220 3782.00 3639.24 61.00
6989 44.0280 4206.00 3847.81 65.00
6990 44.0340 4380.00 4090.28 66.00
6991 44.0400 4663.00 4315.90 68.00
6992 44.0460 4646.00 4450.39 68.00
6993 44.0520 4444.00 4431.43 67.00
6994 44.0580 4183.00 4265.08 65.00
6995 44.0640 3870.00 4018.19 62.00
6996 44.0700 3603.00 3759.67 60.00
6997 44.0760 3390.00 3531.58 58.00
6998 44.0820 3337.00 3353.51 58.00
6999 44.0880 3169.00 3226.92 56.00
7000 44.0940 3248.00 3144.46 57.00
7001 44.1000 3158.00 3095.53 56.00
7002 44.1060 3155.00 3071.44 56.00
7003 44.1120 3141.00 3064.34 56.00
7004 44.1180 3064.00 3072.30 55.00
7005 44.1240 3167.00 3093.18 56.00
7006 44.1300 3252.00 3126.08 57.00
7007 44.1360 3319.00 3167.87 58.00
7008 44.1420 3359.00 3211.77 58.00
7009 44.1480 3337.00 3246.54 58.00
7010 44.1540 3182.00 3259.04 56.00
7011 44.1600 3263.00 3245.80 57.00
7012 44.1660 3340.00 3214.01 58.00
7013 44.1720 3218.00 3179.10 57.00
7014 44.1780 3139.00 3152.39 56.00
7015 44.1840 3166.00 3141.19 56.00
7016 44.1900 3370.00 3150.25 58.00
7017 44.1960 3360.00 3183.13 58.00
7018 44.2020 3462.00 3243.09 59.00
7019 44.2080 3569.00 3332.07 60.00
7020 44.2140 3832.00 3456.64 62.00
7021 44.2200 3911.00 3621.79 63.00
7022 44.2260 3962.00 3824.70 63.00
7023 44.2320 4132.00 4059.28 64.00
7024 44.2380 4454.00 4312.34 67.00
7025 44.2440 4922.00 4571.19 70.00
7026 44.2500 5437.00 4828.21 74.00
7027 44.2560 5788.00 5068.31 76.00
7028 44.2620 5754.00 5236.05 76.00
7029 44.2680 5417.00 5259.98 74.00
7030 44.2740 4962.00 5109.87 70.00
7031 44.2800 4508.00 4826.11 67.00
7032 44.2860 4126.00 4477.20 64.00
7033 44.2920 3831.00 4126.81 62.00
7034 44.2980 3655.00 3817.39 60.00
7035 44.3040 3392.00 3574.51 58.00
7036 44.3100 3342.00 3402.15 58.00
7037 44.3160 3298.00 3292.52 57.00
7038 44.3220 3349.00 3231.89 58.00
7039 44.3280 3244.00 3204.67 57.00
7040 44.3340 3201.00 3195.17 57.00
7041 44.3400 3096.00 3187.89 56.00
7042 44.3460 3148.00 3169.55 56.00
7043 44.3520 3060.00 3139.63 55.00
7044 44.3580 3053.00 3102.68 55.00
7045 44.3640 3079.00 3065.90 55.00
7046 44.3700 3084.00 3033.93 56.00
7047 44.3760 2996.00 3008.87 55.00
7048 44.3820 3011.00 2990.94 55.00
7049 44.3880 3004.00 2979.30 55.00
7050 44.3940 3055.00 2972.69 55.00
7051 44.4000 3045.00 2970.04 55.00
7052 44.4060 3110.00 2970.75 56.00
7053 44.4120 3161.00 2977.82 56.00
7054 44.4180 3095.00 2984.16 56.00
7055 44.4240 3053.00 2999.95 55.00
7056 44.4300 3151.00 3026.12 56.00
7057 44.4360 3282.00 3067.00 57.00
7058 44.4420 3228.00 3127.04 57.00
7059 44.4480 3208.00 3208.85 57.00
7060 44.4540 3161.00 3310.95 56.00
7061 44.4600 3250.00 3425.95 57.00
7062 44.4660 3304.00 3536.51 57.00
7063 44.4720 3407.00 3613.58 58.00
7064 44.4780 3509.00 3641.68 59.00
7065 44.4840 3587.00 3623.49 60.00
7066 44.4900 3537.00 3577.93 59.00
7067 44.4960 3516.00 3531.34 59.00
7068 44.5020 3574.00 3508.24 60.00
7069 44.5080 3700.00 3519.55 61.00
7070 44.5140 3740.00 3563.63 61.00
7071 44.5200 3812.00 3623.66 62.00
7072 44.5260 3821.00 3670.52 62.00
7073 44.5320 3891.00 3679.34 62.00
7074 44.5380 3820.00 3651.06 62.00
7075 44.5440 3778.00 3616.20 61.00
7076 44.5500 3691.00 3612.42 61.00
7077 44.5560 3764.00 3670.03 61.00
7078 44.5620 3833.00 3808.43 62.00
7079 44.5680 3950.00 4033.48 63.00
7080 44.5740 4063.00 4332.56 64.00
7081 44.5800 4197.00 4668.74 65.00
7082 44.5860 4448.00 4977.03 67.00
7083 44.5920 4717.00 5188.40 69.00
7084 44.5980 4858.00 5277.90 70.00
7085 44.6040 4990.00 5268.63 71.00
7086 44.6100 4870.00 5179.35 70.00
7087 44.6160 4691.00 5005.51 68.00
7088 44.6220 4415.00 4750.31 66.00
7089 44.6280 4132.00 4457.95 64.00
7090 44.6340 3966.00 4178.46 63.00
7091 44.6400 3819.00 3938.73 62.00
7092 44.6460 3684.00 3737.68 61.00
7093 44.6520 3596.00 3566.96 60.00
7094 44.6580 3512.00 3421.94 59.00
7095 44.6640 3415.00 3304.79 58.00
7096 44.6700 3167.00 3214.14 56.00
7097 44.6760 3172.00 3146.80 56.00
7098 44.6820 3286.00 3098.74 57.00
7099 44.6880 3300.00 3066.54 57.00
7100 44.6940 3216.00 3046.61 57.00
7101 44.7000 3171.00 3035.12 56.00
7102 44.7060 3229.00 3031.00 57.00
7103 44.7120 3323.00 3033.58 58.00
7104 44.7180 3344.00 3043.40 58.00
7105 44.7240 3461.00 3063.94 59.00
7106 44.7300 3602.00 3100.45 60.00
7107 44.7360 3629.00 3161.60 60.00
7108 44.7420 3649.00 3258.57 60.00
7109 44.7480 3765.00 3402.67 61.00
7110 44.7540 3852.00 3600.84 62.00
7111 44.7600 3954.00 3849.60 63.00
7112 44.7660 4071.00 4129.42 64.00
7113 44.7720 4170.00 4395.73 65.00
7114 44.7780 4094.00 4581.04 64.00
7115 44.7840 4091.00 4625.86 64.00
7116 44.7900 4216.00 4537.84 65.00
7117 44.7960 4313.00 4393.50 66.00
7118 44.8020 4384.00 4278.42 66.00
7119 44.8080 4513.00 4249.11 67.00
7120 44.8140 4590.00 4327.06 68.00
7121 44.8200 4634.00 4498.32 68.00
7122 44.8260 4750.00 4712.44 69.00
7123 44.8320 4702.00 4885.08 69.00
7124 44.8380 4598.00 4929.83 68.00
7125 44.8440 4528.00 4815.57 67.00
7126 44.8500 4414.00 4592.70 66.00
7127 44.8560 4205.00 4338.38 65.00
7128 44.8620 3964.00 4100.09 63.00
7129 44.8680 3844.00 3893.31 62.00
7130 44.8740 3631.00 3709.98 60.00
7131 44.8800 3455.00 3542.73 59.00
7132 44.8860 3366.00 3394.54 58.00
7133 44.8920 3327.00 3271.51 58.00
7134 44.8980 3290.00 3173.03 57.00
7135 44.9040 3196.00 3097.24 57.00
7136 44.9100 3195.00 3042.82 57.00
7137 44.9160 3151.00 3004.61 56.00
7138 44.9220 3084.00 2978.41 56.00
7139 44.9280 3005.00 2960.59 55.00
7140 44.9340 2998.00 2948.40 55.00
7141 44.9400 3004.00 2940.05 55.00
7142 44.9460 3064.00 2934.59 55.00
7143 44.9520 3082.00 2931.70 56.00
7144 44.9580 3038.00 2931.62 55.00
7145 44.9640 3068.00 2932.74 55.00
7146 44.9700 3048.00 2940.81 55.00
7147 44.9760 3074.00 2955.74 55.00
7148 44.9820 3113.00 2978.59 56.00
7149 44.9880 3121.00 3007.88 56.00
7150 44.9940 3162.00 3047.57 56.00
7151 45.0000 3289.00 3092.46 57.00
7152 45.0060 3341.00 3136.72 58.00
7153 45.0120 3326.00 3173.70 58.00
7154 45.0180 3262.00 3199.82 57.00
7155 45.0240 3238.00 3222.57 57.00
7156 45.0300 3220.00 3254.85 57.00
7157 45.0360 3170.00 3304.34 56.00
7158 45.0420 3382.00 3371.41 58.00
7159 45.0480 3604.00 3452.56 60.00
7160 45.0540 3764.00 3535.60 61.00
7161 45.0600 3908.00 3597.56 63.00
7162 45.0660 3716.00 3611.93 61.00
7163 45.0720 3426.00 3565.77 59.00
7164 45.0780 3266.00 3471.09 57.00
7165 45.0840 3186.00 3355.67 56.00
7166 45.0900 3143.00 3244.80 56.00
7167 45.0960 3130.00 3153.76 56.00
7168 45.1020 3092.00 3089.15 56.00
7169 45.1080 3085.00 3051.62 56.00
7170 45.1140 3104.00 3038.16 56.00
7171 45.1200 3146.00 3043.72 56.00
7172 45.1260 3125.00 3062.05 56.00
7173 45.1320 3150.00 3085.68 56.00
7174 45.1380 3117.00 3105.91 56.00
7175 45.1440 3050.00 3115.44 55.00
7176 45.1500 3121.00 3114.34 56.00
7177 45.1560 3196.00 3108.46 57.00
7178 45.1620 3214.00 3115.37 57.00
7179 45.1680 3259.00 3143.92 57.00
7180 45.1740 3315.00 3205.22 58.00
7181 45.1800 3292.00 3309.43 57.00
7182 45.1860 3357.00 3464.13 58.00
7183 45.1920 3470.00 3671.02 59.00
7184 45.1980 3647.00 3921.59 60.00
7185 45.2040 4057.00 4193.65 64.00
7186 45.2100 4677.00 4451.05 68.00
7187 45.2160 4914.00 4650.91 70.00
7188 45.2220 4968.00 4762.85 70.00
7189 45.2280 4884.00 4767.92 70.00
7190 45.2340 4593.00 4667.94 68.00
7191 45.2400 4238.00 4488.68 65.00
7192 45.2460 4020.00 4278.95 63.00
7193 45.2520 3858.00 4084.53 62.00
7194 45.2580 3714.00 3925.75 61.00
7195 45.2640 3687.00 3791.55 61.00
7196 45.2700 3603.00 3659.07 60.00
7197 45.2760 3431.00 3519.92 59.00
7198 45.2820 3288.00 3382.02 57.00
7199 45.2880 3180.00 3257.49 56.00
7200 45.2940 3071.00 3153.84 55.00
7201 45.3000 3009.00 3073.42 55.00
7202 45.3060 3052.00 3014.78 55.00
7203 45.3120 2936.00 2974.48 54.00
7204 45.3180 2801.00 2948.38 53.00
7205 45.3240 2823.00 2932.79 53.00
7206 45.3300 2803.00 2925.29 53.00
7207 45.3360 2914.00 2925.07 54.00
7208 45.3420 3158.00 2932.58 56.00
7209 45.3480 3189.00 2949.84 56.00
7210 45.3540 3189.00 2979.73 56.00
7211 45.3600 3132.00 3024.09 56.00
7212 45.3660 3117.00 3084.30 56.00
7213 45.3720 3175.00 3158.70 56.00
7214 45.3780 3284.00 3240.91 57.00
7215 45.3840 3342.00 3318.57 58.00
7216 45.3900 3333.00 3377.04 58.00
7217 45.3960 3400.00 3410.99 58.00
7218 45.4020 3536.00 3422.83 59.00
7219 45.4080 3525.00 3412.51 59.00
7220 45.4140 3417.00 3374.12 58.00
7221 45.4200 3271.00 3307.23 57.00
7222 45.4260 3129.00 3224.27 56.00
7223 45.4320 3079.00 3141.46 55.00
7224 45.4380 3009.00 3066.95 55.00
7225 45.4440 3032.00 3006.70 55.00
7226 45.4500 2936.00 2958.10 54.00
7227 45.4560 2898.00 2922.31 54.00
7228 45.4620 2909.00 2896.62 54.00
7229 45.4680 2876.00 2878.73 54.00
7230 45.4740 2771.00 2866.45 53.00
7231 45.4800 2786.00 2858.08 53.00
7232 45.4860 2781.00 2853.18 53.00
7233 45.4920 2876.00 2849.44 54.00
7234 45.4980 2902.00 2847.06 54.00
7235 45.5040 2787.00 2845.71 53.00
7236 45.5100 2838.00 2845.19 53.00
7237 45.5160 2816.00 2846.60 53.00
7238 45.5220 2796.00 2849.02 53.00
7239 45.5280 2798.00 2852.62 53.00
7240 45.5340 2863.00 2856.90 54.00
7241 45.5400 2840.00 2862.05 53.00
7242 45.5460 2821.00 2868.31 53.00
7243 45.5520 2913.00 2876.01 54.00
7244 45.5580 2913.00 2885.77 54.00
7245 45.5640 2894.00 2898.63 54.00
7246 45.5700 2864.00 2916.38 54.00
7247 45.5760 2940.00 2941.87 54.00
7248 45.5820 2961.00 2979.17 54.00
7249 45.5880 2935.00 3034.33 54.00
7250 45.5940 3076.00 3113.09 55.00
7251 45.6000 3206.00 3222.54 57.00
7252 45.6060 3310.00 3368.68 58.00
7253 45.6120 3381.00 3547.76 58.00
7254 45.6180 3640.00 3753.61 60.00
7255 45.6240 3976.00 3966.30 63.00
7256 45.6300 4190.00 4161.27 65.00
7257 45.6360 4457.00 4310.86 67.00
7258 45.6420 4555.00 4392.00 67.00
7259 45.6480 4453.00 4390.61 67.00
7260 45.6540 4264.00 4305.19 65.00
7261 45.6600 4027.00 4144.43 63.00
7262 45.6660 3736.00 3934.31 61.00
7263 45.6720 3634.00 3712.35 60.00
7264 45.6780 3308.00 3511.54 58.00
7265 45.6840 3267.00 3350.59 57.00
7266 45.6900 3077.00 3234.99 55.00
7267 45.6960 3038.00 3162.27 55.00
7268 45.7020 3041.00 3126.75 55.00
7269 45.7080 2999.00 3116.20 55.00
7270 45.7140 3083.00 3121.87 56.00
7271 45.7200 3075.00 3134.37 55.00
7272 45.7260 3056.00 3146.07 55.00
7273 45.7320 3060.00 3151.32 55.00
7274 45.7380 3038.00 3143.17 55.00
7275 45.7440 2978.00 3123.64 55.00
7276 45.7500 3002.00 3101.06 55.00
7277 45.7560 3056.00 3079.85 55.00
7278 45.7620 3033.00 3068.47 55.00
7279 45.7680 3054.00 3069.60 55.00
7280 45.7740 3102.00 3090.82 56.00
7281 45.7800 3185.00 3136.39 56.00
7282 45.7860 3131.00 3209.42 56.00
7283 45.7920 3373.00 3309.44 58.00
7284 45.7980 3414.00 3429.73 58.00
7285 45.8040 3496.00 3556.33 59.00
7286 45.8100 3540.00 3665.46 59.00
7287 45.8160 3675.00 3730.00 61.00
7288 45.8220 3807.00 3737.18 62.00
7289 45.8280 3689.00 3691.39 61.00
7290 45.8340 3692.00 3614.95 61.00
7291 45.8400 3533.00 3537.55 59.00
7292 45.8460 3627.00 3481.55 60.00
7293 45.8520 3454.00 3454.17 59.00
7294 45.8580 3502.00 3449.89 59.00
7295 45.8640 3423.00 3451.17 59.00
7296 45.8700 3519.00 3437.22 59.00
7297 45.8760 3334.00 3395.96 58.00
7298 45.8820 3461.00 3336.41 59.00
7299 45.8880 3380.00 3273.44 58.00
7300 45.8940 3170.00 3218.33 56.00
7301 45.9000 3110.00 3175.13 56.00
7302 45.9060 3206.00 3141.92 57.00
7303 45.9120 3144.00 3113.46 56.00
7304 45.9180 3088.00 3085.68 56.00
7305 45.9240 2922.00 3058.28 54.00
7306 45.9300 3005.00 3033.05 55.00
7307 45.9360 3050.00 3011.66 55.00
7308 45.9420 3062.00 2995.02 55.00
7309 45.9480 2957.00 2982.90 54.00
7310 45.9540 2916.00 2975.00 54.00
7311 45.9600 2904.00 2970.56 54.00
7312 45.9660 2935.00 2968.80 54.00
7313 45.9720 2976.00 2969.02 55.00
7314 45.9780 3001.00 2970.74 55.00
7315 45.9840 2884.00 2973.68 54.00
7316 45.9900 2952.00 2977.90 54.00
7317 45.9960 2975.00 2983.05 55.00
7318 46.0020 2996.00 2988.92 55.00
7319 46.0080 2894.00 2994.92 54.00
7320 46.0140 2905.00 3003.15 54.00
7321 46.0200 3125.00 3014.02 56.00
7322 46.0260 3127.00 3030.55 56.00
7323 46.0320 3175.00 3054.68 56.00
7324 46.0380 3213.00 3090.90 57.00
7325 46.0440 3265.00 3145.20 57.00
7326 46.0500 3243.00 3224.44 57.00
7327 46.0560 3449.00 3333.17 59.00
7328 46.0620 3506.00 3473.26 59.00
7329 46.0680 3560.00 3640.67 60.00
7330 46.0740 3695.00 3822.37 61.00
7331 46.0800 3785.00 3994.20 62.00
7332 46.0860 4055.00 4128.61 64.00
7333 46.0920 4166.00 4219.04 65.00
7334 46.0980 4526.00 4286.99 67.00
7335 46.1040 4841.00 4361.80 70.00
7336 46.1100 4956.00 4453.38 70.00
7337 46.1160 4987.00 4552.95 71.00
7338 46.1220 4969.00 4648.76 70.00
7339 46.1280 4773.00 4727.71 69.00
7340 46.1340 4513.00 4763.24 67.00
7341 46.1400 4335.00 4712.85 66.00
7342 46.1460 4280.00 4568.78 65.00
7343 46.1520 4075.00 4358.45 64.00
7344 46.1580 3914.00 4130.61 63.00
7345 46.1640 3894.00 3930.34 62.00
7346 46.1700 3816.00 3784.43 62.00
7347 46.1760 3811.00 3700.08 62.00
7348 46.1820 3761.00 3668.87 61.00
7349 46.1880 3651.00 3669.53 60.00
7350 46.1940 3738.00 3673.20 61.00
7351 46.2000 3646.00 3656.49 60.00
7352 46.2060 3546.00 3620.16 60.00
7353 46.2120 3462.00 3579.65 59.00
7354 46.2180 3621.00 3554.49 60.00
7355 46.2240 3585.00 3552.52 60.00
7356 46.2300 3495.00 3572.06 59.00
7357 46.2360 3685.00 3605.02 61.00
7358 46.2420 3993.00 3641.49 63.00
7359 46.2480 4129.00 3669.30 64.00
7360 46.2540 3939.00 3670.74 63.00
7361 46.2600 3607.00 3635.74 60.00
7362 46.2660 3491.00 3567.01 59.00
7363 46.2720 3378.00 3478.25 58.00
7364 46.2780 3232.00 3383.97 57.00
7365 46.2840 3227.00 3297.14 57.00
7366 46.2900 3159.00 3226.27 56.00
7367 46.2960 3207.00 3174.39 57.00
7368 46.3020 3118.00 3140.82 56.00
7369 46.3080 3119.00 3122.23 56.00
7370 46.3140 3178.00 3113.87 56.00
7371 46.3200 3094.00 3109.67 56.00
7372 46.3260 2998.00 3103.73 55.00
7373 46.3320 2917.00 3093.79 54.00
7374 46.3380 2907.00 3081.23 54.00
7375 46.3440 2951.00 3071.11 54.00
7376 46.3500 2976.00 3065.79 55.00
7377 46.3560 2877.00 3067.22 54.00
7378 46.3620 2965.00 3075.00 54.00
7379 46.3680 3053.00 3087.01 55.00
7380 46.3740 3020.00 3100.01 55.00
7381 46.3800 3039.00 3112.24 55.00
7382 46.3860 3113.00 3124.88 56.00
7383 46.3920 3129.00 3143.18 56.00
7384 46.3980 3021.00 3170.23 55.00
7385 46.4040 3021.00 3206.46 55.00
7386 46.4100 3001.00 3247.49 55.00
7387 46.4160 3026.00 3284.05 55.00
7388 46.4220 3135.00 3304.71 56.00
7389 46.4280 3198.00 3304.36 57.00
7390 46.4340 3233.00 3290.39 57.00
7391 46.4400 3213.00 3276.99 57.00
7392 46.4460 3158.00 3276.85 56.00
7393 46.4520 3279.00 3297.78 57.00
7394 46.4580 3281.00 3342.50 57.00
7395 46.4640 3408.00 3409.01 58.00
7396 46.4700 3373.00 3490.98 58.00
7397 46.4760 3535.00 3579.18 59.00
7398 46.4820 3584.00 3675.87 60.00
7399 46.4880 3673.00 3793.39 61.00
7400 46.4940 3958.00 3951.39 63.00
7401 46.5000 4312.00 4155.79 66.00
7402 46.5060 4805.00 4391.52 69.00
7403 46.5120 5060.00 4617.68 71.00
7404 46.5180 5083.00 4765.53 71.00
7405 46.5240 4907.00 4766.81 70.00
7406 46.5300 4277.00 4612.92 65.00
7407 46.5360 3949.00 4351.96 63.00
7408 46.5420 3608.00 4056.46 60.00
7409 46.5480 3521.00 3778.65 59.00
7410 46.5540 3310.00 3548.23 58.00
7411 46.5600 3194.00 3374.34 57.00
7412 46.5660 3176.00 3255.17 56.00
7413 46.5720 3069.00 3182.00 55.00
7414 46.5780 3101.00 3141.15 56.00
7415 46.5840 3027.00 3121.44 55.00
7416 46.5900 3116.00 3111.59 56.00
7417 46.5960 3013.00 3105.82 55.00
7418 46.6020 3014.00 3100.15 55.00
7419 46.6080 3178.00 3095.43 56.00
7420 46.6140 2978.00 3093.25 55.00
7421 46.6200 3119.00 3093.65 56.00
7422 46.6260 3144.00 3094.90 56.00
7423 46.6320 3034.00 3096.64 55.00
7424 46.6380 3097.00 3098.77 56.00
7425 46.6440 3148.00 3102.22 56.00
7426 46.6500 3163.00 3103.83 56.00
7427 46.6560 3265.00 3102.89 57.00
7428 46.6620 3240.00 3099.87 57.00
7429 46.6680 3197.00 3096.89 57.00
7430 46.6740 3198.00 3095.10 57.00
7431 46.6800 3134.00 3095.84 56.00
7432 46.6860 3160.00 3102.72 56.00
7433 46.6920 3165.00 3120.94 56.00
7434 46.6980 3280.00 3155.03 57.00
7435 46.7040 3347.00 3204.61 58.00
7436 46.7100 3597.00 3267.13 60.00
7437 46.7160 3622.00 3334.08 60.00
7438 46.7220 3705.00 3393.21 61.00
7439 46.7280 3596.00 3433.75 60.00
7440 46.7340 3540.00 3447.38 59.00
7441 46.7400 3482.00 3438.45 59.00
7442 46.7460 3419.00 3412.08 58.00
7443 46.7520 3476.00 3386.29 59.00
7444 46.7580 3437.00 3366.26 59.00
7445 46.7640 3543.00 3355.25 60.00
7446 46.7700 3374.00 3344.29 58.00
7447 46.7760 3394.00 3326.03 58.00
7448 46.7820 3412.00 3295.14 58.00
7449 46.7880 3462.00 3251.15 59.00
7450 46.7940 3263.00 3198.83 57.00
7451 46.8000 3173.00 3147.58 56.00
7452 46.8060 3140.00 3101.19 56.00
7453 46.8120 3154.00 3064.72 56.00
7454 46.8180 3001.00 3038.94 55.00
7455 46.8240 2995.00 3024.84 55.00
7456 46.8300 2933.00 3021.62 54.00
7457 46.8360 2897.00 3029.57 54.00
7458 46.8420 3057.00 3049.93 55.00
7459 46.8480 3070.00 3086.90 55.00
7460 46.8540 3013.00 3142.30 55.00
7461 46.8600 3263.00 3215.15 57.00
7462 46.8660 3346.00 3304.15 58.00
7463 46.8720 3662.00 3406.02 61.00
7464 46.8780 3702.00 3511.24 61.00
7465 46.8840 3790.00 3603.27 62.00
7466 46.8900 3803.00 3669.35 62.00
7467 46.8960 3824.00 3709.14 62.00
7468 46.9020 3753.00 3728.58 61.00
7469 46.9080 3749.00 3728.75 61.00
7470 46.9140 3693.00 3708.34 61.00
7471 46.9200 3494.00 3677.35 59.00
7472 46.9260 3466.00 3656.45 59.00
7473 46.9320 3453.00 3656.82 59.00
7474 46.9380 3377.00 3679.70 58.00
7475 46.9440 3482.00 3711.66 59.00
7476 46.9500 3499.00 3733.41 59.00
7477 46.9560 3510.00 3728.43 59.00
7478 46.9620 3474.00 3689.98 59.00
7479 46.9680 3465.00 3622.54 59.00
7480 46.9740 3335.00 3542.03 58.00
7481 46.9800 3181.00 3469.76 56.00
7482 46.9860 3206.00 3424.34 57.00
7483 46.9920 3193.00 3420.65 57.00
7484 46.9980 3388.00 3469.92 58.00
7485 47.0040 3429.00 3580.29 59.00
7486 47.0100 3715.00 3754.98 61.00
7487 47.0160 3893.00 3989.40 62.00
7488 47.0220 4219.00 4265.77 65.00
7489 47.0280 4496.00 4548.33 67.00
7490 47.0340 4594.00 4781.55 68.00
7491 47.0400 4537.00 4909.20 67.00
7492 47.0460 4666.00 4908.73 68.00
7493 47.0520 4608.00 4802.06 68.00
7494 47.0580 4264.00 4630.78 65.00
7495 47.0640 4117.00 4443.13 64.00
7496 47.0700 3961.00 4283.12 63.00
7497 47.0760 3936.00 4181.89 63.00
7498 47.0820 4020.00 4154.46 63.00
7499 47.0880 4169.00 4201.32 65.00
7500 47.0940 4331.00 4316.43 66.00
7501 47.1000 4454.00 4499.50 67.00
7502 47.1060 4826.00 4754.78 69.00
7503 47.1120 5185.00 5075.77 72.00
7504 47.1180 5774.00 5430.83 76.00
7505 47.1240 6424.00 5772.48 80.00
7506 47.1300 7008.00 6043.63 84.00
7507 47.1360 7082.00 6190.71 84.00
7508 47.1420 6744.00 6178.70 82.00
7509 47.1480 6108.00 6011.98 78.00
7510 47.1540 5693.00 5733.61 75.00
7511 47.1600 5192.00 5405.57 72.00
7512 47.1660 4874.00 5087.53 70.00
7513 47.1720 4582.00 4828.58 68.00
7514 47.1780 4280.00 4653.99 65.00
7515 47.1840 4260.00 4565.37 65.00
7516 47.1900 4476.00 4540.88 67.00
7517 47.1960 4408.00 4551.31 66.00
7518 47.2020 4495.00 4585.80 67.00
7519 47.2080 4785.00 4669.06 69.00
7520 47.2140 5065.00 4844.42 71.00
7521 47.2200 5403.00 5144.43 74.00
7522 47.2260 5973.00 5573.00 77.00
7523 47.2320 6593.00 6092.17 81.00
7524 47.2380 7026.00 6615.26 84.00
7525 47.2440 7125.00 7008.15 84.00
7526 47.2500 6953.00 7140.28 83.00
7527 47.2560 6548.00 6962.17 81.00
7528 47.2620 6160.00 6526.69 78.00
7529 47.2680 5583.00 5951.44 75.00
7530 47.2740 5100.00 5358.32 71.00
7531 47.2800 4656.00 4836.52 68.00
7532 47.2860 4470.00 4431.05 67.00
7533 47.2920 4312.00 4152.24 66.00
7534 47.2980 4211.00 3982.93 65.00
7535 47.3040 4127.00 3890.39 64.00
7536 47.3100 4202.00 3836.96 65.00
7537 47.3160 4233.00 3795.95 65.00
7538 47.3220 4200.00 3750.67 65.00
7539 47.3280 3981.00 3691.58 63.00
7540 47.3340 3807.00 3612.67 62.00
7541 47.3400 3706.00 3515.76 61.00
7542 47.3460 3496.00 3411.01 59.00
7543 47.3520 3336.00 3312.19 58.00
7544 47.3580 3227.00 3226.94 57.00
7545 47.3640 3171.00 3157.99 56.00
7546 47.3700 3109.00 3106.38 56.00
7547 47.3760 3009.00 3069.59 55.00
7548 47.3820 3032.00 3045.02 55.00
7549 47.3880 3079.00 3030.33 55.00
7550 47.3940 3062.00 3024.07 55.00
7551 47.4000 2998.00 3025.98 55.00
7552 47.4060 2981.00 3036.97 55.00
7553 47.4120 3032.00 3058.78 55.00
7554 47.4180 3138.00 3093.30 56.00
7555 47.4240 3243.00 3141.74 57.00
7556 47.4300 3321.00 3203.55 58.00
7557 47.4360 3500.00 3273.12 59.00
7558 47.4420 3667.00 3345.62 61.00
7559 47.4480 3691.00 3407.95 61.00
7560 47.4540 3665.00 3451.36 61.00
7561 47.4600 3626.00 3473.91 60.00
7562 47.4660 3509.00 3480.98 59.00
7563 47.4720 3512.00 3477.32 59.00
7564 47.4780 3542.00 3468.84 60.00
7565 47.4840 3475.00 3460.84 59.00
7566 47.4900 3495.00 3454.78 59.00
7567 47.4960 3519.00 3450.45 59.00
7568 47.5020 3470.00 3440.78 59.00
7569 47.5080 3502.00 3415.13 59.00
7570 47.5140 3434.00 3367.49 59.00
7571 47.5200 3277.00 3303.06 57.00
7572 47.5260 3269.00 3237.66 57.00
7573 47.5320 3304.00 3180.02 57.00
7574 47.5380 3267.00 3141.84 57.00
7575 47.5440 3207.00 3121.81 57.00
7576 47.5500 3206.00 3123.39 57.00
7577 47.5560 3226.00 3140.49 57.00
7578 47.5620 3230.00 3164.99 57.00
7579 47.5680 3212.00 3188.52 57.00
7580 47.5740 3201.00 3199.76 57.00
7581 47.5800 3230.00 3194.69 57.00
7582 47.5860 3248.00 3179.16 57.00
7583 47.5920 3316.00 3163.72 58.00
7584 47.5980 3342.00 3155.75 58.00
7585 47.6040 3326.00 3162.90 58.00
7586 47.6100 3277.00 3184.43 57.00
7587 47.6160 3256.00 3217.31 57.00
7588 47.6220 3312.00 3256.04 58.00
7589 47.6280 3355.00 3297.69 58.00
7590 47.6340 3355.00 3343.39 58.00
7591 47.6400 3335.00 3397.75 58.00
7592 47.6460 3389.00 3457.53 58.00
7593 47.6520 3475.00 3513.26 59.00
7594 47.6580 3466.00 3550.76 59.00
7595 47.6640 3336.00 3556.88 58.00
7596 47.6700 3310.00 3522.33 58.00
7597 47.6760 3373.00 3452.46 58.00
7598 47.6820 3292.00 3360.11 57.00
7599 47.6880 3199.00 3265.48 57.00
7600 47.6940 3112.00 3178.92 56.00
7601 47.7000 3023.00 3108.95 55.00
7602 47.7060 2891.00 3056.53 54.00
7603 47.7120 2777.00 3018.03 53.00
7604 47.7180 2832.00 2989.73 53.00
7605 47.7240 2900.00 2967.22 54.00
7606 47.7300 2856.00 2947.66 53.00
7607 47.7360 2848.00 2930.52 53.00
7608 47.7420 2874.00 2916.70 54.00
7609 47.7480 2838.00 2905.34 53.00
7610 47.7540 2898.00 2895.94 54.00
7611 47.7600 2962.00 2888.02 54.00
7612 47.7660 2854.00 2881.33 53.00
7613 47.7720 2814.00 2875.73 53.00
7614 47.7780 2877.00 2871.17 54.00
7615 47.7840 2827.00 2867.46 53.00
7616 47.7900 2864.00 2864.50 54.00
7617 47.7960 2955.00 2862.13 54.00
7618 47.8020 2950.00 2860.26 54.00
7619 47.8080 2882.00 2858.77 54.00
7620 47.8140 2795.00 2858.56 53.00
7621 47.8200 2820.00 2858.53 53.00
7622 47.8260 2887.00 2858.88 54.00
7623 47.8320 2908.00 2858.38 54.00
7624 47.8380 2899.00 2858.01 54.00
7625 47.8440 2808.00 2857.78 53.00
7626 47.8500 2815.00 2857.99 53.00
7627 47.8560 2866.00 2857.49 54.00
7628 47.8620 2874.00 2858.70 54.00
7629 47.8680 2828.00 2859.01 53.00
7630 47.8740 2855.00 2859.10 53.00
7631 47.8800 2844.00 2859.69 53.00
7632 47.8860 2839.00 2860.41 53.00
7633 47.8920 2768.00 2861.07 53.00
7634 47.8980 2786.00 2862.12 53.00
7635 47.9040 2802.00 2863.64 53.00
7636 47.9100 2755.00 2864.44 52.00
7637 47.9160 2821.00 2866.14 53.00
7638 47.9220 2811.00 2868.11 53.00
7639 47.9280 2811.00 2870.38 53.00
7640 47.9340 2821.00 2873.02 53.00
7641 47.9400 2850.00 2876.08 53.00
7642 47.9460 2852.00 2879.67 53.00
7643 47.9520 2801.00 2883.93 53.00
7644 47.9580 2803.00 2889.08 53.00
7645 47.9640 2838.00 2895.51 53.00
7646 47.9700 2779.00 2903.84 53.00
7647 47.9760 2875.00 2914.61 54.00
7648 47.9820 2943.00 2930.17 54.00
7649 47.9880 2905.00 2952.01 54.00
7650 47.9940 2976.00 2982.39 55.00
7651 48.0000 3025.00 3023.62 55.00
7652 48.0060 3060.00 3077.46 55.00
7653 48.0120 3143.00 3146.13 56.00
7654 48.0180 3184.00 3226.04 56.00
7655 48.0240 3217.00 3315.36 57.00
7656 48.0300 3345.00 3408.57 58.00
7657 48.0360 3439.00 3504.72 59.00
7658 48.0420 3516.00 3605.63 59.00
7659 48.0480 3597.00 3724.27 60.00
7660 48.0540 3808.00 3867.70 62.00
7661 48.0600 4034.00 4030.25 64.00
7662 48.0660 4226.00 4194.31 65.00
7663 48.0720 4527.00 4335.88 67.00
7664 48.0780 4879.00 4433.98 70.00
7665 48.0840 5052.00 4469.14 71.00
7666 48.0900 4777.00 4424.67 69.00
7667 48.0960 4398.00 4304.17 66.00
7668 48.1020 4034.00 4138.75 64.00
7669 48.1080 3749.00 3968.79 61.00
7670 48.1140 3700.00 3822.26 61.00
7671 48.1200 3672.00 3708.26 61.00
7672 48.1260 3637.00 3619.27 60.00
7673 48.1320 3549.00 3540.39 60.00
7674 48.1380 3531.00 3460.33 59.00
7675 48.1440 3352.00 3379.93 58.00
7676 48.1500 3263.00 3307.47 57.00
7677 48.1560 3230.00 3251.31 57.00
7678 48.1620 3201.00 3218.09 57.00
7679 48.1680 3235.00 3213.84 57.00
7680 48.1740 3228.00 3244.44 57.00
7681 48.1800 3253.00 3315.79 57.00
7682 48.1860 3338.00 3432.93 58.00
7683 48.1920 3488.00 3598.26 59.00
7684 48.1980 3680.00 3808.47 61.00
7685 48.2040 3964.00 4050.41 63.00
7686 48.2100 4314.00 4297.47 66.00
7687 48.2160 4417.00 4508.04 66.00
7688 48.2220 4426.00 4637.72 67.00
7689 48.2280 4399.00 4662.80 66.00
7690 48.2340 4381.00 4595.91 66.00
7691 48.2400 4263.00 4477.34 65.00
7692 48.2460 4250.00 4348.99 65.00
7693 48.2520 4235.00 4232.97 65.00
7694 48.2580 4132.00 4128.09 64.00
7695 48.2640 4030.00 4018.77 63.00
7696 48.2700 3774.00 3891.68 61.00
7697 48.2760 3652.00 3749.51 60.00
7698 48.2820 3510.00 3608.07 59.00
7699 48.2880 3363.00 3483.66 58.00
7700 48.2940 3321.00 3383.30 58.00
7701 48.3000 3235.00 3308.72 57.00
7702 48.3060 3270.00 3252.65 57.00
7703 48.3120 3170.00 3207.44 56.00
7704 48.3180 3147.00 3164.47 56.00
7705 48.3240 3149.00 3123.11 56.00
7706 48.3300 3149.00 3084.80 56.00
7707 48.3360 3016.00 3052.36 55.00
7708 48.3420 3005.00 3027.41 55.00
7709 48.3480 3001.00 3010.96 55.00
7710 48.3540 3108.00 3003.78 56.00
7711 48.3600 3077.00 3006.92 55.00
7712 48.3660 3035.00 3022.33 55.00
7713 48.3720 3110.00 3053.29 56.00
7714 48.3780 3140.00 3104.42 56.00
7715 48.3840 3179.00 3181.29 56.00
7716 48.3900 3249.00 3288.94 57.00
7717 48.3960 3260.00 3430.24 57.00
7718 48.4020 3407.00 3603.33 58.00
7719 48.4080 3658.00 3799.26 60.00
7720 48.4140 3658.00 3996.65 60.00
7721 48.4200 3788.00 4168.29 62.00
7722 48.4260 3977.00 4292.96 63.00
7723 48.4320 4079.00 4370.88 64.00
7724 48.4380 4187.00 4406.50 65.00
7725 48.4440 4157.00 4398.71 64.00
7726 48.4500 4075.00 4346.89 64.00
7727 48.4560 3961.00 4264.63 63.00
7728 48.4620 4035.00 4174.12 64.00
7729 48.4680 4027.00 4085.38 63.00
7730 48.4740 3914.00 3988.99 63.00
7731 48.4800 3689.00 3872.08 61.00
7732 48.4860 3581.00 3731.05 60.00
7733 48.4920 3442.00 3583.73 59.00
7734 48.4980 3239.00 3445.58 57.00
7735 48.5040 3264.00 3332.78 57.00
7736 48.5100 3208.00 3248.07 57.00
7737 48.5160 3192.00 3189.79 56.00
7738 48.5220 3031.00 3151.71 55.00
7739 48.5280 3090.00 3124.32 56.00
7740 48.5340 3047.00 3097.99 55.00
7741 48.5400 2986.00 3066.92 55.00
7742 48.5460 2925.00 3033.16 54.00
7743 48.5520 2958.00 2999.47 54.00
7744 48.5580 2979.00 2969.01 55.00
7745 48.5640 2886.00 2943.11 54.00
7746 48.5700 2889.00 2922.59 54.00
7747 48.5760 2865.00 2907.24 54.00
7748 48.5820 2835.00 2896.37 53.00
7749 48.5880 2823.00 2889.03 53.00
7750 48.5940 2747.00 2884.33 52.00
7751 48.6000 2784.00 2881.62 53.00
7752 48.6060 2872.00 2880.62 54.00
7753 48.6120 2857.00 2880.63 53.00
7754 48.6180 2770.00 2881.84 53.00
7755 48.6240 2883.00 2884.33 54.00
7756 48.6300 2875.00 2887.44 54.00
7757 48.6360 2846.00 2892.85 53.00
7758 48.6420 2722.00 2901.30 52.00
7759 48.6480 2830.00 2916.26 53.00
7760 48.6540 2800.00 2938.01 53.00
7761 48.6600 2977.00 2970.51 55.00
7762 48.6660 3035.00 3017.89 55.00
7763 48.6720 3127.00 3084.16 56.00
7764 48.6780 3160.00 3172.97 56.00
7765 48.6840 3304.00 3286.56 57.00
7766 48.6900 3530.00 3419.79 59.00
7767 48.6960 3652.00 3563.32 60.00
7768 48.7020 4010.00 3701.95 63.00
7769 48.7080 4113.00 3816.21 64.00
7770 48.7140 4360.00 3887.82 66.00
7771 48.7200 4262.00 3903.35 65.00
7772 48.7260 3921.00 3859.81 63.00
7773 48.7320 3519.00 3767.39 59.00
7774 48.7380 3306.00 3643.17 57.00
7775 48.7440 3238.00 3506.50 57.00
7776 48.7500 3251.00 3375.33 57.00
7777 48.7560 3029.00 3262.72 55.00
7778 48.7620 3030.00 3176.45 55.00
7779 48.7680 3033.00 3119.36 55.00
7780 48.7740 2949.00 3091.78 54.00
7781 48.7800 2987.00 3093.31 55.00
7782 48.7860 2973.00 3123.88 55.00
7783 48.7920 3034.00 3183.71 55.00
7784 48.7980 3233.00 3272.40 57.00
7785 48.8040 3263.00 3387.15 57.00
7786 48.8100 3474.00 3520.52 59.00
7787 48.8160 3559.00 3659.09 60.00
7788 48.8220 3822.00 3785.60 62.00
7789 48.8280 3802.00 3883.96 62.00
7790 48.8340 3861.00 3939.67 62.00
7791 48.8400 3797.00 3940.78 62.00
7792 48.8460 3760.00 3883.75 61.00
7793 48.8520 3617.00 3785.76 60.00
7794 48.8580 3453.00 3672.87 59.00
7795 48.8640 3328.00 3577.39 58.00
7796 48.8700 3325.00 3513.62 58.00
7797 48.8760 3502.00 3486.56 59.00
7798 48.8820 3611.00 3488.24 60.00
7799 48.8880 3648.00 3503.18 60.00
7800 48.8940 3574.00 3510.50 60.00
7801 48.9000 3567.00 3496.80 60.00
7802 48.9060 3450.00 3452.40 59.00
7803 48.9120 3303.00 3380.80 57.00
7804 48.9180 3214.00 3295.37 57.00
7805 48.9240 3265.00 3210.18 57.00
7806 48.9300 2972.00 3136.79 55.00
7807 48.9360 2905.00 3080.98 54.00
7808 48.9420 3021.00 3044.25 55.00
7809 48.9480 2914.00 3024.67 54.00
7810 48.9540 3009.00 3018.90 55.00
7811 48.9600 2992.00 3021.22 55.00
7812 48.9660 3091.00 3025.43 56.00
7813 48.9720 2982.00 3026.40 55.00
7814 48.9780 3044.00 3022.81 55.00
7815 48.9840 2986.00 3018.11 55.00
7816 48.9900 3076.00 3015.31 55.00
7817 48.9960 3018.00 3018.03 55.00
7818 49.0020 2965.00 3027.64 54.00
7819 49.0080 3070.00 3043.62 55.00
7820 49.0140 3226.00 3062.41 57.00
7821 49.0200 3200.00 3082.52 57.00
7822 49.0260 3214.00 3104.58 57.00
7823 49.0320 3273.00 3132.79 57.00
7824 49.0380 3132.00 3172.07 56.00
7825 49.0440 3308.00 3225.31 58.00
7826 49.0500 3219.00 3292.21 57.00
7827 49.0560 3297.00 3369.28 57.00
7828 49.0620 3371.00 3447.00 58.00
7829 49.0680 3548.00 3523.83 60.00
7830 49.0740 3719.00 3603.99 61.00
7831 49.0800 3908.00 3692.52 63.00
7832 49.0860 4140.00 3787.51 64.00
7833 49.0920 4323.00 3871.39 66.00
7834 49.0980 4218.00 3924.93 65.00
7835 49.1040 4123.00 3933.23 64.00
7836 49.1100 3862.00 3893.41 62.00
7837 49.1160 3598.00 3810.94 60.00
7838 49.1220 3700.00 3697.47 61.00
7839 49.1280 3369.00 3568.11 58.00
7840 49.1340 3361.00 3442.28 58.00
7841 49.1400 3371.00 3332.62 58.00
7842 49.1460 3191.00 3248.18 56.00
7843 49.1520 3260.00 3186.33 57.00
7844 49.1580 3349.00 3144.24 58.00
7845 49.1640 3384.00 3109.89 58.00
7846 49.1700 3244.00 3080.15 57.00
7847 49.1760 3123.00 3053.73 56.00
7848 49.1820 3019.00 3032.46 55.00
7849 49.1880 3156.00 3019.10 56.00
7850 49.1940 3084.00 3016.72 56.00
7851 49.2000 3190.00 3030.34 56.00
7852 49.2060 3274.00 3062.79 57.00
7853 49.2120 3120.00 3117.36 56.00
7854 49.2180 3200.00 3199.90 57.00
7855 49.2240 3379.00 3313.56 58.00
7856 49.2300 3549.00 3458.54 60.00
7857 49.2360 3931.00 3627.91 63.00
7858 49.2420 4282.00 3807.68 65.00
7859 49.2480 4532.00 3975.18 67.00
7860 49.2540 4526.00 4105.32 67.00
7861 49.2600 4478.00 4183.51 67.00
7862 49.2660 4228.00 4207.76 65.00
7863 49.2720 4092.00 4178.78 64.00
7864 49.2780 3826.00 4107.90 62.00
7865 49.2840 3732.00 4014.86 61.00
7866 49.2900 3550.00 3917.07 60.00
7867 49.2960 3519.00 3824.75 59.00
7868 49.3020 3569.00 3744.02 60.00
7869 49.3080 3529.00 3678.73 59.00
7870 49.3140 3550.00 3629.32 60.00
7871 49.3200 3491.00 3588.48 59.00
7872 49.3260 3414.00 3546.79 58.00
7873 49.3320 3406.00 3498.56 58.00
7874 49.3380 3362.00 3439.64 58.00
7875 49.3440 3329.00 3372.95 58.00
7876 49.3500 3222.00 3308.19 57.00
7877 49.3560 3217.00 3256.52 57.00
7878 49.3620 3148.00 3226.69 56.00
7879 49.3680 3184.00 3224.03 56.00
7880 49.3740 3187.00 3251.25 56.00
7881 49.3800 3309.00 3306.86 58.00
7882 49.3860 3454.00 3386.74 59.00
7883 49.3920 3598.00 3481.51 60.00
7884 49.3980 3651.00 3578.37 60.00
7885 49.4040 3729.00 3664.23 61.00
7886 49.4100 3817.00 3732.03 62.00
7887 49.4160 3839.00 3778.04 62.00
7888 49.4220 3742.00 3797.44 61.00
7889 49.4280 3710.00 3790.41 61.00
7890 49.4340 3698.00 3771.72 61.00
7891 49.4400 3697.00 3766.10 61.00
7892 49.4460 3733.00 3796.06 61.00
7893 49.4520 3936.00 3872.57 63.00
7894 49.4580 4301.00 3993.92 66.00
7895 49.4640 4355.00 4144.46 66.00
7896 49.4700 4489.00 4294.46 67.00
7897 49.4760 4600.00 4408.16 68.00
7898 49.4820 4602.00 4463.40 68.00
7899 49.4880 4571.00 4467.69 68.00
7900 49.4940 4653.00 4441.15 68.00
7901 49.5000 4626.00 4395.93 68.00
7902 49.5060 4420.00 4328.88 66.00
7903 49.5120 4326.00 4234.92 66.00
7904 49.5180 4367.00 4128.71 66.00
7905 49.5240 4230.00 4040.67 65.00
7906 49.5300 4156.00 4005.64 64.00
7907 49.5360 4409.00 4047.24 66.00
7908 49.5420 4495.00 4179.08 67.00
7909 49.5480 4699.00 4399.87 69.00
7910 49.5540 5088.00 4691.67 71.00
7911 49.5600 5443.00 5015.63 74.00
7912 49.5660 5628.00 5314.14 75.00
7913 49.5720 5821.00 5526.72 76.00
7914 49.5780 5822.00 5613.94 76.00
7915 49.5840 5564.00 5573.45 75.00
7916 49.5900 5584.00 5447.35 75.00
7917 49.5960 5412.00 5301.01 74.00
7918 49.6020 5450.00 5186.30 74.00
7919 49.6080 5444.00 5122.61 74.00
7920 49.6140 5452.00 5091.57 74.00
7921 49.6200 5402.00 5046.78 73.00
7922 49.6260 5162.00 4941.05 72.00
7923 49.6320 4849.00 4759.89 70.00
7924 49.6380 4556.00 4525.88 67.00
7925 49.6440 4335.00 4272.83 66.00
7926 49.6500 4004.00 4024.47 63.00
7927 49.6560 3790.00 3793.13 62.00
7928 49.6620 3600.00 3586.61 60.00
7929 49.6680 3330.00 3411.60 58.00
7930 49.6740 3277.00 3269.61 57.00
7931 49.6800 3155.00 3160.77 56.00
7932 49.6860 3008.00 3079.13 55.00
7933 49.6920 3001.00 3018.01 55.00
7934 49.6980 2975.00 2974.43 55.00
7935 49.7040 2948.00 2942.69 54.00
7936 49.7100 2900.00 2919.68 54.00
7937 49.7160 2934.00 2902.23 54.00
7938 49.7220 2896.00 2888.04 54.00
7939 49.7280 2950.00 2876.82 54.00
7940 49.7340 2898.00 2868.54 54.00
7941 49.7400 2824.00 2862.90 53.00
7942 49.7460 2836.00 2861.18 53.00
7943 49.7520 2803.00 2863.80 53.00
7944 49.7580 2727.00 2871.14 52.00
7945 49.7640 2924.00 2884.85 54.00
7946 49.7700 2976.00 2904.43 55.00
7947 49.7760 3009.00 2928.66 55.00
7948 49.7820 3067.00 2954.82 55.00
7949 49.7880 3148.00 2978.03 56.00
7950 49.7940 3130.00 2991.63 56.00
7951 49.8000 3088.00 2989.64 56.00
7952 49.8060 2954.00 2971.18 54.00
7953 49.8120 2920.00 2941.21 54.00
7954 49.8180 2827.00 2906.56 53.00
7955 49.8240 2794.00 2872.04 53.00
7956 49.8300 2731.00 2842.03 52.00
7957 49.8360 2790.00 2817.41 53.00
7958 49.8420 2730.00 2798.37 52.00
7959 49.8480 2729.00 2783.33 52.00
7960 49.8540 2700.00 2773.29 52.00
7961 49.8600 2737.00 2766.19 52.00
7962 49.8660 2718.00 2761.13 52.00
7963 49.8720 2717.00 2757.40 52.00
7964 49.8780 2704.00 2754.57 52.00
7965 49.8840 2664.00 2752.42 52.00
7966 49.8900 2758.00 2750.94 53.00
7967 49.8960 2797.00 2749.97 53.00
7968 49.9020 2885.00 2748.74 54.00
7969 49.9080 2827.00 2750.57 53.00
7970 49.9140 2818.00 2754.69 53.00
7971 49.9200 2761.00 2762.26 53.00
7972 49.9260 2816.00 2775.17 53.00
7973 49.9320 2812.00 2794.32 53.00
7974 49.9380 2908.00 2825.74 54.00
7975 49.9440 2781.00 2870.64 53.00
7976 49.9500 2796.00 2931.42 53.00
7977 49.9560 2934.00 3008.00 54.00
7978 49.9620 3030.00 3097.82 55.00
7979 49.9680 3114.00 3193.25 56.00
7980 49.9740 3261.00 3281.88 57.00
7981 49.9800 3452.00 3347.62 59.00
7982 49.9860 3401.00 3378.09 58.00
7983 49.9920 3243.00 3369.37 57.00
7984 49.9980 3165.00 3333.00 56.00
7985 50.0040 3133.00 3281.10 56.00
7986 50.0100 2926.00 3225.99 54.00
7987 50.0160 2940.00 3166.42 54.00
7988 50.0220 2966.00 3100.22 54.00
7989 50.0280 2945.00 3028.31 54.00
7990 50.0340 2862.00 2956.12 53.00
7991 50.0400 2788.00 2889.61 53.00
7992 50.0460 2751.00 2830.92 52.00
7993 50.0520 2749.00 2783.28 52.00
7994 50.0580 2762.00 2746.25 53.00
7995 50.0640 2671.00 2718.67 52.00
7996 50.0700 2608.00 2698.39 51.00
7997 50.0760 2692.00 2683.69 52.00
7998 50.0820 2692.00 2672.56 52.00
7999 50.0880 2690.00 2664.74 52.00
8000 50.0940 2686.00 2658.97 52.00
8001 50.1000 2654.00 2654.76 52.00
8002 50.1060 2786.00 2651.87 53.00
8003 50.1120 2728.00 2651.42 52.00
8004 50.1180 2650.00 2650.83 51.00
8005 50.1240 2710.00 2651.08 52.00
8006 50.1300 2690.00 2651.79 52.00
8007 50.1360 2728.00 2652.75 52.00
8008 50.1420 2705.00 2652.76 52.00
8009 50.1480 2679.00 2650.67 52.00
8010 50.1540 2670.00 2646.90 52.00
8011 50.1600 2638.00 2642.15 51.00
8012 50.1660 2673.00 2637.30 52.00
8013 50.1720 2588.00 2632.99 51.00
8014 50.1780 2569.00 2629.48 51.00
8015 50.1840 2574.00 2626.70 51.00
8016 50.1900 2622.00 2624.23 51.00
8017 50.1960 2685.00 2621.50 52.00
8018 50.2020 2665.00 2618.03 52.00
8019 50.2080 2665.00 2613.81 52.00
8020 50.2140 2704.00 2609.18 52.00
8021 50.2200 2658.00 2604.56 52.00
8022 50.2260 2647.00 2599.89 51.00
8023 50.2320 2669.00 2596.06 52.00
8024 50.2380 2609.00 2592.76 51.00
8025 50.2440 2615.00 2589.98 51.00
8026 50.2500 2644.00 2587.67 51.00
8027 50.2560 2651.00 2585.77 51.00
8028 50.2620 2659.00 2584.22 52.00
8029 50.2680 2689.00 2582.98 52.00
8030 50.2740 2694.00 2583.62 52.00
8031 50.2800 2669.00 2585.40 52.00
8032 50.2860 2601.00 2587.60 51.00
8033 50.2920 2697.00 2590.39 52.00
8034 50.2980 2622.00 2594.00 51.00
8035 50.3040 2676.00 2598.83 52.00
8036 50.3100 2677.00 2605.44 52.00
8037 50.3160 2642.00 2614.55 51.00
8038 50.3220 2635.00 2627.35 51.00
8039 50.3280 2762.00 2644.15 53.00
8040 50.3340 2699.00 2666.04 52.00
8041 50.3400 2684.00 2693.46 52.00
8042 50.3460 2722.00 2726.10 52.00
8043 50.3520 2668.00 2763.32 52.00
8044 50.3580 2783.00 2802.01 53.00
8045 50.3640 2822.00 2840.36 53.00
8046 50.3700 2865.00 2876.32 54.00
8047 50.3760 2926.00 2909.00 54.00
8048 50.3820 2853.00 2938.35 53.00
8049 50.3880 2917.00 2966.87 54.00
8050 50.3940 3008.00 2997.21 55.00
8051 50.4000 3001.00 3031.42 55.00
8052 50.4060 2964.00 3067.39 54.00
8053 50.4120 2998.00 3099.54 55.00
8054 50.4180 2988.00 3118.75 55.00
8055 50.4240 3069.00 3117.06 55.00
8056 50.4300 3084.00 3090.12 56.00
8057 50.4360 3052.00 3040.54 55.00
8058 50.4420 2944.00 2976.90 54.00
8059 50.4480 2905.00 2909.56 54.00
8060 50.4540 2913.00 2848.36 54.00
8061 50.4600 2778.00 2798.09 53.00
8062 50.4660 2707.00 2761.18 52.00
8063 50.4720 2734.00 2738.17 52.00
8064 50.4780 2740.00 2728.83 52.00
8065 50.4840 2752.00 2733.02 52.00
8066 50.4900 2752.00 2752.28 52.00
8067 50.4960 2763.00 2787.09 53.00
8068 50.5020 2844.00 2841.03 53.00
8069 50.5080 2938.00 2916.58 54.00
8070 50.5140 3040.00 3014.61 55.00
8071 50.5200 3170.00 3132.21 56.00
8072 50.5260 3353.00 3262.32 58.00
8073 50.5320 3571.00 3389.82 60.00
8074 50.5380 3639.00 3494.68 60.00
8075 50.5440 3663.00 3558.49 61.00
8076 50.5500 3617.00 3576.52 60.00
8077 50.5560 3497.00 3558.35 59.00
8078 50.5620 3430.00 3514.53 59.00
8079 50.5680 3410.00 3448.49 58.00
8080 50.5740 3363.00 3358.31 58.00
8081 50.5800 3268.00 3248.99 57.00
8082 50.5860 3067.00 3132.15 55.00
8083 50.5920 2873.00 3020.22 54.00
8084 50.5980 2914.00 2922.41 54.00
8085 50.6040 2913.00 2841.49 54.00
8086 50.6100 2831.00 2778.39 53.00
8087 50.6160 2803.00 2731.46 53.00
8088 50.6220 2733.00 2697.95 52.00
8089 50.6280 2761.00 2674.79 53.00
8090 50.6340 2756.00 2659.14 52.00
8091 50.6400 2795.00 2648.66 53.00
8092 50.6460 2709.00 2641.66 52.00
8093 50.6520 2698.00 2636.99 52.00
8094 50.6580 2690.00 2633.99 52.00
8095 50.6640 2679.00 2632.63 52.00
8096 50.6700 2689.00 2632.04 52.00
8097 50.6760 2687.00 2632.55 52.00
8098 50.6820 2757.00 2634.51 53.00
8099 50.6880 2704.00 2637.52 52.00
8100 50.6940 2707.00 2642.19 52.00
8101 50.7000 2748.00 2649.96 52.00
8102 50.7060 2755.00 2659.89 52.00
8103 50.7120 2799.00 2673.23 53.00
8104 50.7180 2777.00 2691.35 53.00
8105 50.7240 2750.00 2715.64 52.00
8106 50.7300 2856.00 2747.25 53.00
8107 50.7360 2937.00 2786.81 54.00
8108 50.7420 2972.00 2833.83 55.00
8109 50.7480 3090.00 2886.84 56.00
8110 50.7540 3127.00 2941.35 56.00
8111 50.7600 3135.00 2992.52 56.00
8112 50.7660 3132.00 3039.92 56.00
8113 50.7720 3163.00 3084.60 56.00
8114 50.7780 3202.00 3126.06 57.00
8115 50.7840 3204.00 3159.94 57.00
8116 50.7900 3230.00 3181.04 57.00
8117 50.7960 3283.00 3188.92 57.00
8118 50.8020 3233.00 3187.21 57.00
8119 50.8080 3211.00 3179.26 57.00
8120 50.8140 3210.00 3165.45 57.00
8121 50.8200 3174.00 3146.32 56.00
8122 50.8260 3148.00 3121.10 56.00
8123 50.8320 3079.00 3087.18 55.00
8124 50.8380 3019.00 3042.59 55.00
8125 50.8440 2976.00 2987.36 55.00
8126 50.8500 2896.00 2928.90 54.00
8127 50.8560 2891.00 2875.48 54.00
8128 50.8620 2844.00 2832.14 53.00
8129 50.8680 2849.00 2801.87 53.00
8130 50.8740 2932.00 2787.65 54.00
8131 50.8800 2911.00 2790.34 54.00
8132 50.8860 2891.00 2810.67 54.00
8133 50.8920 2955.00 2848.52 54.00
8134 50.8980 3073.00 2902.78 55.00
8135 50.9040 3195.00 2970.52 57.00
8136 50.9100 3337.00 3046.16 58.00
8137 50.9160 3361.00 3120.52 58.00
8138 50.9220 3343.00 3181.62 58.00
8139 50.9280 3407.00 3220.38 58.00
8140 50.9340 3450.00 3235.64 59.00
8141 50.9400 3412.00 3234.43 58.00
8142 50.9460 3375.00 3223.44 58.00
8143 50.9520 3278.00 3206.42 57.00
8144 50.9580 3233.00 3182.29 57.00
8145 50.9640 3196.00 3153.71 57.00
8146 50.9700 3128.00 3127.04 56.00
8147 50.9760 3113.00 3108.87 56.00
8148 50.9820 3143.00 3106.64 56.00
8149 50.9880 3151.00 3118.99 56.00
8150 50.9940 3241.00 3140.49 57.00
8151 51.0000 3279.00 3161.93 57.00
8152 51.0060 3217.00 3174.75 57.00
8153 51.0120 3281.00 3177.15 57.00
8154 51.0180 3316.00 3171.96 58.00
8155 51.0240 3279.00 3159.63 57.00
8156 51.0300 3160.00 3136.87 56.00
8157 51.0360 3080.00 3100.35 55.00
8158 51.0420 3063.00 3052.27 55.00
8159 51.0480 2930.00 3000.85 54.00
8160 51.0540 2885.00 2955.60 54.00
8161 51.0600 2884.00 2923.99 54.00
8162 51.0660 2867.00 2910.99 54.00
8163 51.0720 2865.00 2919.68 54.00
8164 51.0780 2872.00 2951.51 54.00
8165 51.0840 2874.00 3006.30 54.00
8166 51.0900 3013.00 3081.78 55.00
8167 51.0960 3158.00 3172.98 56.00
8168 51.1020 3236.00 3272.33 57.00
8169 51.1080 3368.00 3371.75 58.00
8170 51.1140 3498.00 3464.74 59.00
8171 51.1200 3610.00 3546.48 60.00
8172 51.1260 3711.00 3610.84 61.00
8173 51.1320 3707.00 3649.90 61.00
8174 51.1380 3600.00 3655.72 60.00
8175 51.1440 3489.00 3628.75 59.00
8176 51.1500 3392.00 3582.84 58.00
8177 51.1560 3349.00 3539.18 58.00
8178 51.1620 3387.00 3515.42 58.00
8179 51.1680 3481.00 3519.32 59.00
8180 51.1740 3618.00 3546.85 60.00
8181 51.1800 3785.00 3582.56 62.00
8182 51.1860 3837.00 3602.97 62.00
8183 51.1920 3640.00 3585.10 60.00
8184 51.1980 3430.00 3520.05 59.00
8185 51.2040 3259.00 3418.12 57.00
8186 51.2100 3167.00 3299.12 56.00
8187 51.2160 3004.00 3183.04 55.00
8188 51.2220 2893.00 3085.11 54.00
8189 51.2280 2878.00 3012.47 54.00
8190 51.2340 2935.00 2972.34 54.00
8191 51.2400 2924.00 2963.42 54.00
8192 51.2460 3020.00 2984.55 55.00
8193 51.2520 3097.00 3030.82 56.00
8194 51.2580 3188.00 3095.01 56.00
8195 51.2640 3328.00 3165.48 58.00
8196 51.2700 3400.00 3226.57 58.00
8197 51.2760 3329.00 3259.77 58.00
8198 51.2820 3326.00 3253.38 58.00
8199 51.2880 3214.00 3208.56 57.00
8200 51.2940 3087.00 3139.50 56.00
8201 51.3000 3011.00 3063.23 55.00
8202 51.3060 2999.00 2993.34 55.00
8203 51.3120 2930.00 2938.77 54.00
8204 51.3180 2897.00 2905.18 54.00
8205 51.3240 2930.00 2895.98 54.00
8206 51.3300 2889.00 2913.31 54.00
8207 51.3360 2977.00 2958.32 55.00
8208 51.3420 3120.00 3031.02 56.00
8209 51.3480 3180.00 3129.12 56.00
8210 51.3540 3330.00 3246.66 58.00
8211 51.3600 3542.00 3372.23 60.00
8212 51.3660 3779.00 3487.63 61.00
8213 51.3720 3892.00 3574.27 62.00
8214 51.3780 3781.00 3617.04 61.00
8215 51.3840 3717.00 3609.04 61.00
8216 51.3900 3636.00 3554.34 60.00
8217 51.3960 3412.00 3460.53 58.00
8218 51.4020 3288.00 3341.98 57.00
8219 51.4080 3138.00 3213.72 56.00
8220 51.4140 2983.00 3091.89 55.00
8221 51.4200 2892.00 2987.31 54.00
8222 51.4260 2815.00 2902.70 53.00
8223 51.4320 2759.00 2839.15 53.00
8224 51.4380 2841.00 2794.33 53.00
8225 51.4440 2785.00 2765.40 53.00
8226 51.4500 2777.00 2747.22 53.00
8227 51.4560 2729.00 2735.27 52.00
8228 51.4620 2798.00 2726.89 53.00
8229 51.4680 2731.00 2718.49 52.00
8230 51.4740 2690.00 2709.10 52.00
8231 51.4800 2649.00 2700.12 51.00
8232 51.4860 2738.00 2692.41 52.00
8233 51.4920 2686.00 2685.69 52.00
8234 51.4980 2626.00 2681.19 51.00
8235 51.5040 2768.00 2679.24 53.00
8236 51.5100 2731.00 2680.69 52.00
8237 51.5160 2708.00 2685.21 52.00
8238 51.5220 2729.00 2693.90 52.00
8239 51.5280 2704.00 2705.52 52.00
8240 51.5340 2699.00 2720.16 52.00
8241 51.5400 2740.00 2737.04 52.00
8242 51.5460 2716.00 2753.24 52.00
8243 51.5520 2690.00 2767.03 52.00
8244 51.5580 2712.00 2774.78 52.00
8245 51.5640 2744.00 2775.66 52.00
8246 51.5700 2742.00 2770.83 52.00
8247 51.5760 2675.00 2763.55 52.00
8248 51.5820 2630.00 2757.86 51.00
8249 51.5880 2757.00 2757.06 53.00
8250 51.5940 2907.00 2763.40 54.00
8251 51.6000 2940.00 2778.42 54.00
8252 51.6060 2918.00 2803.37 54.00
8253 51.6120 2911.00 2839.16 54.00
8254 51.6180 2866.00 2886.23 54.00
8255 51.6240 2847.00 2944.40 53.00
8256 51.6300 3021.00 3012.43 55.00
8257 51.6360 3116.00 3091.08 56.00
8258 51.6420 3179.00 3181.89 56.00
8259 51.6480 3344.00 3282.76 58.00
8260 51.6540 3556.00 3386.36 60.00
8261 51.6600 3760.00 3478.52 61.00
8262 51.6660 3782.00 3539.75 61.00
8263 51.6720 3556.00 3553.81 60.00
8264 51.6780 3436.00 3513.97 59.00
8265 51.6840 3210.00 3427.99 57.00
8266 51.6900 3149.00 3314.16 56.00
8267 51.6960 2984.00 3192.87 55.00
8268 51.7020 2912.00 3079.49 54.00
8269 51.7080 2892.00 2982.79 54.00
8270 51.7140 2876.00 2906.33 54.00
8271 51.7200 2776.00 2849.47 53.00
8272 51.7260 2808.00 2810.36 53.00
8273 51.7320 2743.00 2785.98 52.00
8274 51.7380 2801.00 2772.49 53.00
8275 51.7440 2727.00 2767.36 52.00
8276 51.7500 2898.00 2768.97 54.00
8277 51.7560 2892.00 2776.79 54.00
8278 51.7620 2942.00 2791.52 54.00
8279 51.7680 3021.00 2815.17 55.00
8280 51.7740 3067.00 2851.27 55.00
8281 51.7800 3101.00 2904.08 56.00
8282 51.7860 3318.00 2979.28 58.00
8283 51.7920 3349.00 3082.51 58.00
8284 51.7980 3481.00 3218.30 59.00
8285 51.8040 3638.00 3388.32 60.00
8286 51.8100 3630.00 3589.21 60.00
8287 51.8160 3827.00 3809.39 62.00
8288 51.8220 3917.00 4031.53 63.00
8289 51.8280 3954.00 4231.24 63.00
8290 51.8340 4172.00 4388.54 65.00
8291 51.8400 4193.00 4490.02 65.00
8292 51.8460 4374.00 4535.65 66.00
8293 51.8520 4393.00 4538.41 66.00
8294 51.8580 4452.00 4520.19 67.00
8295 51.8640 4464.00 4499.88 67.00
8296 51.8700 4562.00 4488.70 68.00
8297 51.8760 4433.00 4491.76 67.00
8298 51.8820 4354.00 4504.16 66.00
8299 51.8880 4390.00 4507.65 66.00
8300 51.8940 4278.00 4479.31 65.00
8301 51.9000 4111.00 4407.26 64.00
8302 51.9060 4012.00 4297.81 63.00
8303 51.9120 3970.00 4169.22 63.00
8304 51.9180 3809.00 4042.75 62.00
8305 51.9240 3763.00 3933.51 61.00
8306 51.9300 3815.00 3846.54 62.00
8307 51.9360 3792.00 3779.27 62.00
8308 51.9420 3757.00 3727.34 61.00
8309 51.9480 3511.00 3686.01 59.00
8310 51.9540 3670.00 3649.64 61.00
8311 51.9600 3582.00 3611.33 60.00
8312 51.9660 3753.00 3565.05 61.00
8313 51.9720 3650.00 3507.78 60.00
8314 51.9780 3608.00 3441.74 60.00
8315 51.9840 3522.00 3371.34 59.00
8316 51.9900 3509.00 3301.21 59.00
8317 51.9960 3319.00 3235.76 58.00
8318 52.0020 3271.00 3179.56 57.00
8319 52.0080 3178.00 3135.22 56.00
8320 52.0140 3216.00 3101.44 57.00
8321 52.0200 3179.00 3073.15 56.00
8322 52.0260 3138.00 3044.53 56.00
8323 52.0320 3002.00 3012.51 55.00
8324 52.0380 3074.00 2977.96 55.00
8325 52.0440 2865.00 2944.49 54.00
8326 52.0500 2935.00 2916.80 54.00
8327 52.0560 2863.00 2898.97 54.00
8328 52.0620 2954.00 2893.32 54.00
8329 52.0680 2906.00 2900.04 54.00
8330 52.0740 2880.00 2917.00 54.00
8331 52.0800 2962.00 2939.61 54.00
8332 52.0860 2987.00 2962.30 55.00
8333 52.0920 3030.00 2978.96 55.00
8334 52.0980 2936.00 2985.25 54.00
8335 52.1040 2902.00 2979.16 54.00
8336 52.1100 3026.00 2960.72 55.00
8337 52.1160 2971.00 2930.97 55.00
8338 52.1220 2853.00 2894.28 53.00
8339 52.1280 2781.00 2853.33 53.00
8340 52.1340 2978.00 2814.25 55.00
8341 52.1400 2854.00 2779.86 53.00
8342 52.1460 2856.00 2751.15 53.00
8343 52.1520 2832.00 2728.84 53.00
8344 52.1580 2794.00 2712.41 53.00
8345 52.1640 2821.00 2701.42 53.00
8346 52.1700 2727.00 2695.44 52.00
8347 52.1760 2728.00 2693.96 52.00
8348 52.1820 2789.00 2697.48 53.00
8349 52.1880 2848.00 2703.52 53.00
8350 52.1940 2799.00 2711.90 53.00
8351 52.2000 2782.00 2721.56 53.00
8352 52.2060 2722.00 2731.65 52.00
8353 52.2120 2758.00 2740.16 53.00
8354 52.2180 2796.00 2745.47 53.00
8355 52.2240 2687.00 2743.71 52.00
8356 52.2300 2748.00 2736.11 52.00
8357 52.2360 2763.00 2725.58 53.00
8358 52.2420 2795.00 2714.69 53.00
8359 52.2480 2732.00 2706.39 52.00
8360 52.2540 2826.00 2702.50 53.00
8361 52.2600 2756.00 2703.90 52.00
8362 52.2660 2800.00 2710.54 53.00
8363 52.2720 2771.00 2721.48 53.00
8364 52.2780 2733.00 2733.99 52.00
8365 52.2840 2828.00 2746.12 53.00
8366 52.2900 2887.00 2754.72 54.00
8367 52.2960 2736.00 2755.60 52.00
8368 52.3020 2664.00 2751.00 52.00
8369 52.3080 2737.00 2741.43 52.00
8370 52.3140 2786.00 2728.29 53.00
8371 52.3200 2831.00 2715.42 53.00
8372 52.3260 2774.00 2702.68 53.00
8373 52.3320 2824.00 2691.52 53.00
8374 52.3380 2785.00 2682.50 53.00
8375 52.3440 2707.00 2674.88 52.00
8376 52.3500 2737.00 2671.29 52.00
8377 52.3560 2749.00 2672.58 52.00
8378 52.3620 2697.00 2677.38 52.00
8379 52.3680 2738.00 2686.15 52.00
8380 52.3740 2703.00 2698.45 52.00
8381 52.3800 2743.00 2713.32 52.00
8382 52.3860 2771.00 2729.12 53.00
8383 52.3920 2780.00 2744.06 53.00
8384 52.3980 2873.00 2756.89 54.00
8385 52.4040 2828.00 2767.10 53.00
8386 52.4100 2908.00 2776.00 54.00
8387 52.4160 2796.00 2783.22 53.00
8388 52.4220 2897.00 2786.91 54.00
8389 52.4280 2960.00 2786.86 54.00
8390 52.4340 2887.00 2782.18 54.00
8391 52.4400 2778.00 2773.86 53.00
8392 52.4460 2823.00 2764.46 53.00
8393 52.4520 2842.00 2754.66 53.00
8394 52.4580 2714.00 2744.16 52.00
8395 52.4640 2699.00 2732.13 52.00
8396 52.4700 2724.00 2718.47 52.00
8397 52.4760 2681.00 2703.92 52.00
8398 52.4820 2769.00 2690.51 53.00
8399 52.4880 2713.00 2678.95 52.00
8400 52.4940 2733.00 2669.97 52.00
8401 52.5000 2731.00 2663.63 52.00
8402 52.5060 2625.00 2659.96 51.00
8403 52.5120 2678.00 2658.86 52.00
8404 52.5180 2709.00 2660.25 52.00
8405 52.5240 2694.00 2664.20 52.00
8406 52.5300 2658.00 2671.03 52.00
8407 52.5360 2711.00 2681.80 52.00
8408 52.5420 2721.00 2696.42 52.00
8409 52.5480 2733.00 2716.59 52.00
8410 52.5540 2796.00 2743.65 53.00
8411 52.5600 2842.00 2778.39 53.00
8412 52.5660 2819.00 2822.49 53.00
8413 52.5720 2847.00 2874.68 53.00
8414 52.5780 2831.00 2935.46 53.00
8415 52.5840 2951.00 3003.86 54.00
8416 52.5900 3021.00 3077.17 55.00
8417 52.5960 3044.00 3156.84 55.00
8418 52.6020 3129.00 3245.48 56.00
8419 52.6080 3311.00 3349.47 58.00
8420 52.6140 3547.00 3472.83 60.00
8421 52.6200 3804.00 3614.84 62.00
8422 52.6260 3936.00 3764.92 63.00
8423 52.6320 3961.00 3904.71 63.00
8424 52.6380 4151.00 4011.25 64.00
8425 52.6440 4181.00 4069.12 65.00
8426 52.6500 4040.00 4079.40 64.00
8427 52.6560 4033.00 4053.34 64.00
8428 52.6620 3936.00 4003.19 63.00
8429 52.6680 3874.00 3932.61 62.00
8430 52.6740 3765.00 3839.00 61.00
8431 52.6800 3669.00 3722.63 61.00
8432 52.6860 3408.00 3589.42 58.00
8433 52.6920 3286.00 3448.57 57.00
8434 52.6980 3161.00 3309.88 56.00
8435 52.7040 3047.00 3182.68 55.00
8436 52.7100 3001.00 3073.84 55.00
8437 52.7160 3012.00 2987.29 55.00
8438 52.7220 3005.00 2924.18 55.00
8439 52.7280 2917.00 2884.14 54.00
8440 52.7340 2938.00 2865.95 54.00
8441 52.7400 2868.00 2867.70 54.00
8442 52.7460 2938.00 2887.57 54.00
8443 52.7520 2961.00 2924.10 54.00
8444 52.7580 2997.00 2974.84 55.00
8445 52.7640 3003.00 3036.42 55.00
8446 52.7700 2997.00 3103.97 55.00
8447 52.7760 2998.00 3172.35 55.00
8448 52.7820 3126.00 3238.86 56.00
8449 52.7880 3284.00 3304.05 57.00
8450 52.7940 3304.00 3368.78 57.00
8451 52.8000 3362.00 3428.83 58.00
8452 52.8060 3359.00 3474.51 58.00
8453 52.8120 3573.00 3494.18 60.00
8454 52.8180 3431.00 3485.17 59.00
8455 52.8240 3413.00 3455.22 58.00
8456 52.8300 3342.00 3415.05 58.00
8457 52.8360 3324.00 3370.64 58.00
8458 52.8420 3207.00 3319.84 57.00
8459 52.8480 3266.00 3259.03 57.00
8460 52.8540 3267.00 3187.55 57.00
8461 52.8600 3149.00 3109.88 56.00
8462 52.8660 3066.00 3032.66 55.00
8463 52.8720 2974.00 2961.26 55.00
8464 52.8780 2959.00 2898.00 54.00
8465 52.8840 2911.00 2844.63 54.00
8466 52.8900 2964.00 2802.28 54.00
8467 52.8960 2776.00 2770.94 53.00
8468 52.9020 2829.00 2749.99 53.00
8469 52.9080 2821.00 2738.48 53.00
8470 52.9140 2832.00 2735.00 53.00
8471 52.9200 2887.00 2738.44 54.00
8472 52.9260 2834.00 2747.63 53.00
8473 52.9320 2809.00 2761.40 53.00
8474 52.9380 2819.00 2779.01 53.00
8475 52.9440 2880.00 2798.40 54.00
8476 52.9500 2943.00 2819.79 54.00
8477 52.9560 3043.00 2844.57 55.00
8478 52.9620 3063.00 2876.06 55.00
8479 52.9680 3221.00 2915.79 57.00
8480 52.9740 3075.00 2966.03 55.00
8481 52.9800 3151.00 3026.37 56.00
8482 52.9860 3237.00 3093.98 57.00
8483 52.9920 3199.00 3164.21 57.00
8484 52.9980 3193.00 3233.45 57.00
8485 53.0040 3358.00 3302.25 58.00
8486 53.0100 3406.00 3373.78 58.00
8487 53.0160 3515.00 3449.21 59.00
8488 53.0220 3468.00 3523.58 59.00
8489 53.0280 3678.00 3587.98 61.00
8490 53.0340 3655.00 3635.25 60.00
8491 53.0400 3738.00 3658.19 61.00
8492 53.0460 3742.00 3656.07 61.00
8493 53.0520 3663.00 3629.60 61.00
8494 53.0580 3484.00 3583.42 59.00
8495 53.0640 3475.00 3524.68 59.00
8496 53.0700 3416.00 3462.16 58.00
8497 53.0760 3363.00 3401.00 58.00
8498 53.0820 3339.00 3341.99 58.00
8499 53.0880 3348.00 3285.08 58.00
8500 53.0940 3287.00 3230.04 57.00
8501 53.1000 3334.00 3178.29 58.00
8502 53.1060 3187.00 3126.14 56.00
8503 53.1120 3164.00 3069.20 56.00
8504 53.1180 3126.00 3006.98 56.00
8505 53.1240 2966.00 2943.35 54.00
8506 53.1300 2961.00 2882.52 54.00
8507 53.1360 2903.00 2830.32 54.00
8508 53.1420 2834.00 2787.89 53.00
8509 53.1480 2867.00 2755.99 54.00
8510 53.1540 2760.00 2734.08 53.00
8511 53.1600 2771.00 2721.43 53.00
8512 53.1660 2763.00 2716.51 53.00
8513 53.1720 2725.00 2717.59 52.00
8514 53.1780 2926.00 2722.72 54.00
8515 53.1840 2907.00 2729.72 54.00
8516 53.1900 2882.00 2736.38 54.00
8517 53.1960 2777.00 2741.14 53.00
8518 53.2020 2916.00 2744.14 54.00
8519 53.2080 2827.00 2747.53 53.00
8520 53.2140 2889.00 2753.98 54.00
8521 53.2200 2889.00 2766.25 54.00
8522 53.2260 2795.00 2786.14 53.00
8523 53.2320 2976.00 2814.30 55.00
8524 53.2380 3080.00 2849.73 55.00
8525 53.2440 2948.00 2891.45 54.00
8526 53.2500 2978.00 2936.33 55.00
8527 53.2560 3026.00 2980.74 55.00
8528 53.2620 3113.00 3020.22 56.00
8529 53.2680 3139.00 3051.29 56.00
8530 53.2740 3133.00 3073.79 56.00
8531 53.2800 3231.00 3092.07 57.00
8532 53.2860 3191.00 3109.72 56.00
8533 53.2920 3263.00 3127.69 57.00
8534 53.2980 3303.00 3143.78 57.00
8535 53.3040 3320.00 3155.08 58.00
8536 53.3100 3402.00 3161.21 58.00
8537 53.3160 3306.00 3162.95 57.00
8538 53.3220 3380.00 3160.15 58.00
8539 53.3280 3370.00 3150.75 58.00
8540 53.3340 3118.00 3132.55 56.00
8541 53.3400 3063.00 3106.50 55.00
8542 53.3460 3066.00 3078.28 55.00
8543 53.3520 2995.00 3055.14 55.00
8544 53.3580 2977.00 3042.61 55.00
8545 53.3640 3090.00 3043.40 56.00
8546 53.3700 3120.00 3058.24 56.00
8547 53.3760 3135.00 3085.41 56.00
8548 53.3820 3129.00 3122.84 56.00
8549 53.3880 3273.00 3166.55 57.00
8550 53.3940 3341.00 3211.21 58.00
8551 53.4000 3484.00 3247.84 59.00
8552 53.4060 3442.00 3270.01 59.00
8553 53.4120 3424.00 3274.01 59.00
8554 53.4180 3314.00 3257.45 58.00
8555 53.4240 3177.00 3221.21 56.00
8556 53.4300 3132.00 3167.16 56.00
8557 53.4360 3093.00 3106.15 56.00
8558 53.4420 2940.00 3050.49 54.00
8559 53.4480 2903.00 3009.86 54.00
8560 53.4540 3002.00 2991.99 55.00
8561 53.4600 2999.00 3000.10 55.00
8562 53.4660 3018.00 3034.12 55.00
8563 53.4720 3117.00 3090.71 56.00
8564 53.4780 3472.00 3163.19 59.00
8565 53.4840 3628.00 3237.71 60.00
8566 53.4900 3624.00 3298.36 60.00
8567 53.4960 3626.00 3328.92 60.00
8568 53.5020 3473.00 3318.47 59.00
8569 53.5080 3387.00 3271.13 58.00
8570 53.5140 3273.00 3200.17 57.00
8571 53.5200 3022.00 3120.84 55.00
8572 53.5260 3028.00 3048.00 55.00
8573 53.5320 3087.00 2987.76 56.00
8574 53.5380 3077.00 2945.08 55.00
8575 53.5440 3127.00 2920.48 56.00
8576 53.5500 3084.00 2912.58 56.00
8577 53.5560 3067.00 2917.80 55.00
8578 53.5620 3001.00 2931.23 55.00
8579 53.5680 3136.00 2947.02 56.00
8580 53.5740 3015.00 2960.56 55.00
8581 53.5800 3087.00 2969.19 56.00
8582 53.5860 3051.00 2974.72 55.00
8583 53.5920 3080.00 2979.06 55.00
8584 53.5980 3075.00 2981.78 55.00
8585 53.6040 3171.00 2979.38 56.00
8586 53.6100 3126.00 2967.25 56.00
8587 53.6160 2974.00 2942.41 55.00
8588 53.6220 2971.00 2907.66 55.00
8589 53.6280 2931.00 2868.88 54.00
8590 53.6340 2884.00 2832.59 54.00
8591 53.6400 2897.00 2801.19 54.00
8592 53.6460 2827.00 2777.51 53.00
8593 53.6520 2880.00 2762.03 54.00
8594 53.6580 2841.00 2753.87 53.00
8595 53.6640 2742.00 2751.55 52.00
8596 53.6700 2749.00 2752.78 52.00
8597 53.6760 2798.00 2755.90 53.00
8598 53.6820 2857.00 2760.95 53.00
8599 53.6880 2804.00 2769.94 53.00
8600 53.6940 2824.00 2785.92 53.00
8601 53.7000 2815.00 2811.84 53.00
8602 53.7060 2905.00 2849.72 54.00
8603 53.7120 2989.00 2900.12 55.00
8604 53.7180 3170.00 2961.78 56.00
8605 53.7240 3217.00 3030.81 57.00
8606 53.7300 3266.00 3099.79 57.00
8607 53.7360 3213.00 3159.40 57.00
8608 53.7420 3127.00 3199.87 56.00
8609 53.7480 3091.00 3217.40 56.00
8610 53.7540 3124.00 3216.08 56.00
8611 53.7600 3119.00 3203.31 56.00
8612 53.7660 3117.00 3184.01 56.00
8613 53.7720 3059.00 3160.20 55.00
8614 53.7780 3037.00 3132.48 55.00
8615 53.7840 3042.00 3104.03 55.00
8616 53.7900 3053.00 3079.73 55.00
8617 53.7960 3165.00 3063.49 56.00
8618 53.8020 3209.00 3058.49 57.00
8619 53.8080 3171.00 3068.11 56.00
8620 53.8140 3186.00 3094.05 56.00
8621 53.8200 3198.00 3137.94 57.00
8622 53.8260 3195.00 3199.92 57.00
8623 53.8320 3286.00 3277.70 57.00
8624 53.8380 3347.00 3368.80 58.00
8625 53.8440 3413.00 3471.10 58.00
8626 53.8500 3540.00 3583.65 59.00
8627 53.8560 3654.00 3705.00 60.00
8628 53.8620 3717.00 3833.09 61.00
8629 53.8680 3786.00 3968.01 62.00
8630 53.8740 3992.00 4111.34 63.00
8631 53.8800 4346.00 4258.13 66.00
8632 53.8860 4571.00 4395.56 68.00
8633 53.8920 4694.00 4505.23 69.00
8634 53.8980 4642.00 4574.78 68.00
8635 53.9040 4529.00 4599.84 67.00
8636 53.9100 4400.00 4586.07 66.00
8637 53.9160 4304.00 4541.00 66.00
8638 53.9220 4227.00 4470.60 65.00
8639 53.9280 4233.00 4380.23 65.00
8640 53.9340 4120.00 4275.18 64.00
8641 53.9400 4061.00 4160.79 64.00
8642 53.9460 3924.00 4039.56 63.00
8643 53.9520 3876.00 3914.64 62.00
8644 53.9580 3791.00 3794.99 62.00
8645 53.9640 3706.00 3691.99 61.00
8646 53.9700 3680.00 3615.88 61.00
8647 53.9760 3676.00 3571.50 61.00
8648 53.9820 3658.00 3555.64 60.00
8649 53.9880 3653.00 3557.85 60.00
8650 53.9940 3652.00 3565.04 60.00
8651 54.0000 3626.00 3566.03 60.00
8652 54.0060 3431.00 3557.26 59.00
8653 54.0120 3396.00 3540.51 58.00
8654 54.0180 3383.00 3520.49 58.00
8655 54.0240 3290.00 3500.50 57.00
8656 54.0300 3218.00 3480.49 57.00
8657 54.0360 3234.00 3456.01 57.00
8658 54.0420 3199.00 3420.89 57.00
8659 54.0480 3145.00 3375.21 56.00
8660 54.0540 3147.00 3325.83 56.00
8661 54.0600 3227.00 3283.19 57.00
8662 54.0660 3202.00 3255.02 57.00
8663 54.0720 3244.00 3243.79 57.00
8664 54.0780 3299.00 3246.48 57.00
8665 54.0840 3274.00 3257.34 57.00
8666 54.0900 3269.00 3268.23 57.00
8667 54.0960 3241.00 3270.19 57.00
8668 54.1020 3165.00 3253.62 56.00
8669 54.1080 3072.00 3212.12 55.00
8670 54.1140 3049.00 3147.68 55.00
8671 54.1200 2995.00 3068.82 55.00
8672 54.1260 2971.00 2986.51 55.00
8673 54.1320 2922.00 2909.02 54.00
8674 54.1380 2859.00 2841.30 53.00
8675 54.1440 2861.00 2785.70 53.00
8676 54.1500 2746.00 2742.32 52.00
8677 54.1560 2748.00 2710.35 52.00
8678 54.1620 2774.00 2687.97 53.00
8679 54.1680 2757.00 2673.53 53.00
8680 54.1740 2747.00 2665.53 52.00
8681 54.1800 2762.00 2662.96 53.00
8682 54.1860 2821.00 2665.37 53.00
8683 54.1920 2770.00 2672.74 53.00
8684 54.1980 2758.00 2685.36 53.00
8685 54.2040 2837.00 2703.58 53.00
8686 54.2100 2828.00 2727.31 53.00
8687 54.2160 2809.00 2756.82 53.00
8688 54.2220 2842.00 2791.66 53.00
8689 54.2280 2923.00 2829.78 54.00
8690 54.2340 3021.00 2868.92 55.00
8691 54.2400 3107.00 2907.38 56.00
8692 54.2460 3229.00 2944.35 57.00
8693 54.2520 3291.00 2980.09 57.00
8694 54.2580 3274.00 3012.94 57.00
8695 54.2640 3240.00 3040.01 57.00
8696 54.2700 3248.00 3058.35 57.00
8697 54.2760 3226.00 3064.74 57.00
8698 54.2820 3191.00 3056.53 56.00
8699 54.2880 3141.00 3033.07 56.00
8700 54.2940 3076.00 2997.71 55.00
8701 54.3000 3043.00 2955.82 55.00
8702 54.3060 2946.00 2911.65 54.00
8703 54.3120 2866.00 2869.06 54.00
8704 54.3180 2870.00 2829.75 54.00
8705 54.3240 2834.00 2797.06 53.00
8706 54.3300 2795.00 2772.29 53.00
8707 54.3360 2812.00 2758.77 53.00
8708 54.3420 2884.00 2756.20 54.00
8709 54.3480 2948.00 2764.48 54.00
8710 54.3540 2938.00 2783.28 54.00
8711 54.3600 2890.00 2810.80 54.00
8712 54.3660 2947.00 2844.82 54.00
8713 54.3720 3001.00 2883.72 55.00
8714 54.3780 3084.00 2926.17 56.00
8715 54.3840 3117.00 2970.79 56.00
8716 54.3900 3152.00 3018.24 56.00
8717 54.3960 3211.00 3066.75 57.00
8718 54.4020 3249.00 3111.50 57.00
8719 54.4080 3239.00 3148.24 57.00
8720 54.4140 3154.00 3171.40 56.00
8721 54.4200 3132.00 3177.41 56.00
8722 54.4260 3174.00 3169.91 56.00
8723 54.4320 3174.00 3153.88 56.00
8724 54.4380 3158.00 3135.74 56.00
8725 54.4440 3180.00 3117.78 56.00
8726 54.4500 3132.00 3098.33 56.00
8727 54.4560 3077.00 3074.23 55.00
8728 54.4620 3088.00 3044.11 56.00
8729 54.4680 3021.00 3008.26 55.00
8730 54.4740 2955.00 2968.58 54.00
8731 54.4800 2912.00 2925.11 54.00
8732 54.4860 2883.00 2877.83 54.00
8733 54.4920 2814.00 2831.32 53.00
8734 54.4980 2794.00 2788.49 53.00
8735 54.5040 2742.00 2752.90 52.00
8736 54.5100 2754.00 2726.86 52.00
8737 54.5160 2752.00 2709.40 52.00
8738 54.5220 2732.00 2702.48 52.00
8739 54.5280 2703.00 2704.40 52.00
8740 54.5340 2658.00 2713.69 52.00
8741 54.5400 2738.00 2728.23 52.00
8742 54.5460 2799.00 2745.54 53.00
8743 54.5520 2821.00 2761.93 53.00
8744 54.5580 2806.00 2775.19 53.00
8745 54.5640 2745.00 2785.70 52.00
8746 54.5700 2811.00 2793.96 53.00
8747 54.5760 2908.00 2801.07 54.00
8748 54.5820 2852.00 2805.81 53.00
8749 54.5880 2823.00 2808.28 53.00
8750 54.5940 2813.00 2806.77 53.00
8751 54.6000 2829.00 2801.88 53.00
8752 54.6060 2806.00 2794.81 53.00
8753 54.6120 2800.00 2785.81 53.00
8754 54.6180 2764.00 2773.63 53.00
8755 54.6240 2720.00 2756.67 52.00
8756 54.6300 2742.00 2734.72 52.00
8757 54.6360 2763.00 2709.70 53.00
8758 54.6420 2669.00 2683.84 52.00
8759 54.6480 2662.00 2659.54 52.00
8760 54.6540 2660.00 2638.18 52.00
8761 54.6600 2616.00 2620.44 51.00
8762 54.6660 2666.00 2606.40 52.00
8763 54.6720 2649.00 2595.82 51.00
8764 54.6780 2606.00 2588.22 51.00
8765 54.6840 2606.00 2583.05 51.00
8766 54.6900 2553.00 2579.77 51.00
8767 54.6960 2554.00 2577.96 51.00
8768 54.7020 2582.00 2577.33 51.00
8769 54.7080 2531.00 2577.74 50.00
8770 54.7140 2551.00 2579.07 51.00
8771 54.7200 2596.00 2581.99 51.00
8772 54.7260 2557.00 2586.67 51.00
8773 54.7320 2525.00 2593.81 50.00
8774 54.7380 2525.00 2604.10 50.00
8775 54.7440 2610.00 2619.14 51.00
8776 54.7500 2629.00 2639.86 51.00
8777 54.7560 2639.00 2666.97 51.00
8778 54.7620 2661.00 2701.34 52.00
8779 54.7680 2614.00 2742.73 51.00
8780 54.7740 2642.00 2789.19 51.00
8781 54.7800 2772.00 2837.33 53.00
8782 54.7860 2815.00 2881.64 53.00
8783 54.7920 2768.00 2916.12 53.00
8784 54.7980 2836.00 2935.26 53.00
8785 54.8040 2936.00 2936.26 54.00
8786 54.8100 2830.00 2919.69 53.00
8787 54.8160 2753.00 2889.34 52.00
8788 54.8220 2769.00 2851.20 53.00
8789 54.8280 2699.00 2811.61 52.00
8790 54.8340 2625.00 2775.79 51.00
8791 54.8400 2596.00 2747.38 51.00
8792 54.8460 2655.00 2727.22 52.00
8793 54.8520 2686.00 2715.57 52.00
8794 54.8580 2687.00 2712.13 52.00
8795 54.8640 2721.00 2715.55 52.00
8796 54.8700 2694.00 2723.11 52.00
8797 54.8760 2701.00 2732.56 52.00
8798 54.8820 2723.00 2741.06 52.00
8799 54.8880 2813.00 2748.19 53.00
8800 54.8940 2769.00 2754.61 53.00
8801 54.9000 2772.00 2763.78 53.00
8802 54.9060 2812.00 2779.20 53.00
8803 54.9120 2788.00 2804.77 53.00
8804 54.9180 2884.00 2843.61 54.00
8805 54.9240 2927.00 2897.39 54.00
8806 54.9300 2983.00 2965.21 55.00
8807 54.9360 3098.00 3044.65 56.00
8808 54.9420 3158.00 3128.86 56.00
8809 54.9480 3233.00 3209.20 57.00
8810 54.9540 3252.00 3275.34 57.00
8811 54.9600 3231.00 3319.47 57.00
8812 54.9660 3244.00 3337.80 57.00
8813 54.9720 3178.00 3330.13 56.00
8814 54.9780 3175.00 3300.16 56.00
8815 54.9840 3109.00 3253.33 56.00
8816 54.9900 3072.00 3196.03 55.00
8817 54.9960 3044.00 3135.38 55.00
8818 55.0020 2982.00 3078.90 55.00
8819 55.0080 2961.00 3032.33 54.00
8820 55.0140 3037.00 2997.35 55.00
8821 55.0200 3077.00 2971.72 55.00
8822 55.0260 3062.00 2950.28 55.00
8823 55.0320 3032.00 2927.49 55.00
8824 55.0380 2948.00 2900.34 54.00
8825 55.0440 2843.00 2867.57 53.00
8826 55.0500 2849.00 2830.58 53.00
8827 55.0560 2739.00 2791.69 52.00
8828 55.0620 2609.00 2754.52 51.00
8829 55.0680 2627.00 2721.91 51.00
8830 55.0740 2772.00 2696.25 53.00
8831 55.0800 2716.00 2678.31 52.00
8832 55.0860 2639.00 2668.03 51.00
8833 55.0920 2644.00 2664.57 51.00
8834 55.0980 2750.00 2666.42 52.00
8835 55.1040 2714.00 2671.20 52.00
8836 55.1100 2745.00 2676.52 52.00
8837 55.1160 2700.00 2679.16 52.00
8838 55.1220 2648.00 2676.61 51.00
8839 55.1280 2667.00 2668.21 52.00
8840 55.1340 2621.00 2655.26 51.00
8841 55.1400 2660.00 2639.99 52.00
8842 55.1460 2660.00 2624.44 52.00
8843 55.1520 2650.00 2610.02 51.00
8844 55.1580 2626.00 2597.78 51.00
8845 55.1640 2549.00 2587.64 50.00
8846 55.1700 2595.00 2580.02 51.00
8847 55.1760 2613.00 2574.25 51.00
8848 55.1820 2581.00 2570.20 51.00
8849 55.1880 2639.00 2567.58 51.00
8850 55.1940 2565.00 2565.88 51.00
8851 55.2000 2558.00 2564.93 51.00
8852 55.2060 2583.00 2564.54 51.00
8853 55.2120 2602.00 2564.62 51.00
8854 55.2180 2547.00 2565.10 50.00
8855 55.2240 2459.00 2566.07 50.00
8856 55.2300 2503.00 2567.33 50.00
8857 55.2360 2580.00 2569.07 51.00
8858 55.2420 2503.00 2571.47 50.00
8859 55.2480 2542.00 2574.89 50.00
8860 55.2540 2574.00 2579.47 51.00
8861 55.2600 2577.00 2586.14 51.00
8862 55.2660 2518.00 2595.15 50.00
8863 55.2720 2681.00 2607.74 52.00
8864 55.2780 2668.00 2625.01 52.00
8865 55.2840 2709.00 2648.02 52.00
8866 55.2900 2834.00 2678.16 53.00
8867 55.2960 2794.00 2715.57 53.00
8868 55.3020 2892.00 2760.52 54.00
8869 55.3080 3016.00 2811.88 55.00
8870 55.3140 3069.00 2866.89 55.00
8871 55.3200 3004.00 2921.43 55.00
8872 55.3260 3184.00 2970.97 56.00
8873 55.3320 3242.00 3012.42 57.00
8874 55.3380 3251.00 3044.62 57.00
8875 55.3440 3278.00 3066.70 57.00
8876 55.3500 3181.00 3077.59 56.00
8877 55.3560 3148.00 3077.15 56.00
8878 55.3620 3065.00 3066.87 55.00
8879 55.3680 2900.00 3049.08 54.00
8880 55.3740 2930.00 3026.24 54.00
8881 55.3800 2926.00 2999.11 54.00
8882 55.3860 2860.00 2968.49 53.00
8883 55.3920 2941.00 2936.49 54.00
8884 55.3980 2824.00 2907.54 53.00
8885 55.4040 2882.00 2884.78 54.00
8886 55.4100 2855.00 2869.99 53.00
8887 55.4160 2838.00 2862.32 53.00
8888 55.4220 2958.00 2859.66 54.00
8889 55.4280 2899.00 2858.08 54.00
8890 55.4340 2865.00 2853.86 54.00
8891 55.4400 2788.00 2846.68 53.00
8892 55.4460 2783.00 2837.84 53.00
8893 55.4520 2780.00 2830.66 53.00
8894 55.4580 2794.00 2827.34 53.00
8895 55.4640 2813.00 2827.45 53.00
8896 55.4700 2819.00 2828.65 53.00
8897 55.4760 2811.00 2828.76 53.00
8898 55.4820 2808.00 2824.85 53.00
8899 55.4880 2820.00 2816.53 53.00
8900 55.4940 2798.00 2805.59 53.00
8901 55.5000 2836.00 2794.54 53.00
8902 55.5060 2773.00 2785.20 53.00
8903 55.5120 2772.00 2777.90 53.00
8904 55.5180 2790.00 2772.71 53.00
8905 55.5240 2786.00 2767.84 53.00
8906 55.5300 2673.00 2761.06 52.00
8907 55.5360 2652.00 2751.45 51.00
8908 55.5420 2618.00 2736.45 51.00
8909 55.5480 2589.00 2717.28 51.00
8910 55.5540 2596.00 2695.94 51.00
8911 55.5600 2675.00 2674.80 52.00
8912 55.5660 2677.00 2655.96 52.00
8913 55.5720 2740.00 2640.36 52.00
8914 55.5780 2645.00 2629.01 51.00
8915 55.5840 2718.00 2622.46 52.00
8916 55.5900 2597.00 2621.13 51.00
8917 55.5960 2605.00 2625.41 51.00
8918 55.6020 2690.00 2635.70 52.00
8919 55.6080 2738.00 2652.21 52.00
8920 55.6140 2607.00 2676.19 51.00
8921 55.6200 2677.00 2705.89 52.00
8922 55.6260 2781.00 2741.76 53.00
8923 55.6320 2914.00 2780.44 54.00
8924 55.6380 3014.00 2819.35 55.00
8925 55.6440 2942.00 2854.13 54.00
8926 55.6500 3004.00 2880.41 55.00
8927 55.6560 3011.00 2895.27 55.00
8928 55.6620 2928.00 2898.15 54.00
8929 55.6680 2937.00 2891.36 54.00
8930 55.6740 2888.00 2877.77 54.00
8931 55.6800 2851.00 2862.61 53.00
8932 55.6860 2811.00 2850.66 53.00
8933 55.6920 2716.00 2845.13 52.00
8934 55.6980 2770.00 2848.15 53.00
8935 55.7040 2853.00 2859.92 53.00
8936 55.7100 2876.00 2879.88 54.00
8937 55.7160 2834.00 2907.17 53.00
8938 55.7220 2887.00 2941.02 54.00
8939 55.7280 2955.00 2980.45 54.00
8940 55.7340 3266.00 3021.40 57.00
8941 55.7400 3217.00 3059.61 57.00
8942 55.7460 3311.00 3089.23 58.00
8943 55.7520 3219.00 3105.03 57.00
8944 55.7580 3092.00 3103.13 56.00
8945 55.7640 2935.00 3083.32 54.00
8946 55.7700 2926.00 3047.81 54.00
8947 55.7760 2900.00 3000.25 54.00
8948 55.7820 2718.00 2945.70 52.00
8949 55.7880 2753.00 2889.08 52.00
8950 55.7940 2677.00 2835.49 52.00
8951 55.8000 2662.00 2788.76 52.00
8952 55.8060 2708.00 2751.82 52.00
8953 55.8120 2672.00 2724.60 52.00
8954 55.8180 2697.00 2708.67 52.00
8955 55.8240 2664.00 2704.44 52.00
8956 55.8300 2619.00 2712.85 51.00
8957 55.8360 2707.00 2735.08 52.00
8958 55.8420 2686.00 2773.70 52.00
8959 55.8480 2719.00 2830.28 52.00
8960 55.8540 2899.00 2906.09 54.00
8961 55.8600 3005.00 3001.25 55.00
8962 55.8660 3115.00 3112.37 56.00
8963 55.8720 3334.00 3232.53 58.00
8964 55.8780 3497.00 3351.15 59.00
8965 55.8840 3568.00 3451.53 60.00
8966 55.8900 3691.00 3515.23 61.00
8967 55.8960 3634.00 3528.32 60.00
8968 55.9020 3436.00 3488.18 59.00
8969 55.9080 3183.00 3404.36 56.00
8970 55.9140 2996.00 3293.63 55.00
8971 55.9200 2963.00 3173.06 54.00
8972 55.9260 2820.00 3056.96 53.00
8973 55.9320 2742.00 2953.75 52.00
8974 55.9380 2731.00 2868.14 52.00
8975 55.9440 2677.00 2801.54 52.00
8976 55.9500 2724.00 2753.29 52.00
8977 55.9560 2581.00 2721.63 51.00
8978 55.9620 2625.00 2704.49 51.00
8979 55.9680 2542.00 2700.03 50.00
8980 55.9740 2704.00 2707.32 52.00
8981 55.9800 2756.00 2725.89 52.00
8982 55.9860 2588.00 2755.22 51.00
8983 55.9920 2740.00 2794.69 52.00
8984 55.9980 2801.00 2843.00 53.00
8985 56.0040 2830.00 2897.49 53.00
8986 56.0100 3075.00 2953.63 55.00
8987 56.0160 3186.00 3004.81 56.00
8988 56.0220 3172.00 3043.31 56.00
8989 56.0280 3139.00 3062.87 56.00
8990 56.0340 3058.00 3063.49 55.00
8991 56.0400 2958.00 3050.25 54.00
8992 56.0460 2919.00 3030.59 54.00
8993 56.0520 2901.00 3011.09 54.00
8994 56.0580 2850.00 2997.22 53.00
8995 56.0640 2846.00 2994.36 53.00
8996 56.0700 3059.00 3007.76 55.00
8997 56.0760 3013.00 3041.32 55.00
8998 56.0820 3189.00 3096.19 56.00
8999 56.0880 3241.00 3170.12 57.00
9000 56.0940 3525.00 3256.90 59.00
9001 56.1000 3713.00 3346.13 61.00
9002 56.1060 3745.00 3424.37 61.00
9003 56.1120 3734.00 3478.19 61.00
9004 56.1180 3637.00 3499.29 60.00
9005 56.1240 3530.00 3487.50 59.00
9006 56.1300 3422.00 3450.55 58.00
9007 56.1360 3254.00 3400.32 57.00
9008 56.1420 3118.00 3347.87 56.00
9009 56.1480 3146.00 3299.51 56.00
9010 56.1540 3075.00 3255.94 55.00
9011 56.1600 3150.00 3215.88 56.00
9012 56.1660 3165.00 3178.11 56.00
9013 56.1720 3272.00 3144.26 57.00
9014 56.1780 3101.00 3116.96 56.00
9015 56.1840 3106.00 3098.86 56.00
9016 56.1900 3094.00 3092.38 56.00
9017 56.1960 3154.00 3099.32 56.00
9018 56.2020 3142.00 3120.19 56.00
9019 56.2080 3177.00 3152.65 56.00
9020 56.2140 3117.00 3191.83 56.00
9021 56.2200 3287.00 3230.36 57.00
9022 56.2260 3235.00 3261.78 57.00
9023 56.2320 3226.00 3281.95 57.00
9024 56.2380 3232.00 3289.47 57.00
9025 56.2440 3193.00 3283.92 57.00
9026 56.2500 3191.00 3268.05 56.00
9027 56.2560 3274.00 3247.43 57.00
9028 56.2620 3358.00 3227.84 58.00
9029 56.2680 3209.00 3212.66 57.00
9030 56.2740 3294.00 3202.89 57.00
9031 56.2800 3358.00 3197.32 58.00
9032 56.2860 3132.00 3193.01 56.00
9033 56.2920 3057.00 3185.31 55.00
9034 56.2980 3164.00 3168.36 56.00
9035 56.3040 3055.00 3137.89 55.00
9036 56.3100 2985.00 3094.28 55.00
9037 56.3160 2961.00 3042.60 54.00
9038 56.3220 2991.00 2989.73 55.00
9039 56.3280 2983.00 2941.39 55.00
9040 56.3340 2964.00 2900.90 54.00
9041 56.3400 2925.00 2868.82 54.00
9042 56.3460 2905.00 2843.40 54.00
9043 56.3520 2885.00 2821.64 54.00
9044 56.3580 2921.00 2800.74 54.00
9045 56.3640 2743.00 2779.27 52.00
9046 56.3700 2762.00 2756.93 53.00
9047 56.3760 2751.00 2734.12 52.00
9048 56.3820 2777.00 2711.74 53.00
9049 56.3880 2724.00 2689.94 52.00
9050 56.3940 2738.00 2672.17 52.00
9051 56.4000 2640.00 2657.66 51.00
9052 56.4060 2723.00 2646.67 52.00
9053 56.4120 2694.00 2638.23 52.00
9054 56.4180 2658.00 2631.14 52.00
9055 56.4240 2700.00 2624.22 52.00
9056 56.4300 2620.00 2616.79 51.00
9057 56.4360 2602.00 2609.34 51.00
9058 56.4420 2566.00 2601.91 51.00
9059 56.4480 2555.00 2594.25 51.00
9060 56.4540 2536.00 2586.97 50.00
9061 56.4600 2616.00 2580.30 51.00
9062 56.4660 2588.00 2575.01 51.00
9063 56.4720 2542.00 2570.10 50.00
9064 56.4780 2517.00 2566.14 50.00
9065 56.4840 2542.00 2563.11 50.00
9066 56.4900 2584.00 2560.87 51.00
9067 56.4960 2604.00 2559.42 51.00
9068 56.5020 2593.00 2558.00 51.00
9069 56.5080 2566.00 2556.56 51.00
9070 56.5140 2561.00 2554.98 51.00
9071 56.5200 2556.00 2552.75 51.00
9072 56.5260 2514.00 2550.54 50.00
9073 56.5320 2532.00 2548.62 50.00
9074 56.5380 2582.00 2546.83 51.00
9075 56.5440 2546.00 2545.24 50.00
9076 56.5500 2592.00 2543.69 51.00
9077 56.5560 2597.00 2542.58 51.00
9078 56.5620 2634.00 2541.71 51.00
9079 56.5680 2662.00 2541.50 52.00
9080 56.5740 2633.00 2541.30 51.00
9081 56.5800 2534.00 2541.50 50.00
9082 56.5860 2466.00 2541.31 50.00
9083 56.5920 2474.00 2541.41 50.00
9084 56.5980 2480.00 2541.43 50.00
9085 56.6040 2517.00 2541.53 50.00
9086 56.6100 2542.00 2541.15 50.00
9087 56.6160 2492.00 2541.14 50.00
9088 56.6220 2592.00 2540.58 51.00
9089 56.6280 2652.00 2541.16 51.00
9090 56.6340 2547.00 2541.68 50.00
9091 56.6400 2549.00 2542.52 50.00
9092 56.6460 2672.00 2543.77 52.00
9093 56.6520 2540.00 2545.60 50.00
9094 56.6580 2476.00 2547.72 50.00
9095 56.6640 2553.00 2551.25 51.00
9096 56.6700 2547.00 2555.89 50.00
9097 56.6760 2531.00 2561.60 50.00
9098 56.6820 2590.00 2568.75 51.00
9099 56.6880 2617.00 2577.04 51.00
9100 56.6940 2693.00 2586.35 52.00
9101 56.7000 2540.00 2596.21 50.00
9102 56.7060 2589.00 2606.04 51.00
9103 56.7120 2601.00 2615.31 51.00
9104 56.7180 2611.00 2623.44 51.00
9105 56.7240 2537.00 2632.28 50.00
9106 56.7300 2622.00 2641.15 51.00
9107 56.7360 2623.00 2651.13 51.00
9108 56.7420 2703.00 2661.59 52.00
9109 56.7480 2670.00 2672.36 52.00
9110 56.7540 2658.00 2681.39 52.00
9111 56.7600 2605.00 2685.36 51.00
9112 56.7660 2660.00 2683.00 52.00
9113 56.7720 2593.00 2674.37 51.00
9114 56.7780 2596.00 2660.72 51.00
9115 56.7840 2550.00 2644.71 50.00
9116 56.7900 2541.00 2628.87 50.00
9117 56.7960 2561.00 2613.58 51.00
9118 56.8020 2538.00 2600.50 50.00
9119 56.8080 2563.00 2590.73 51.00
9120 56.8140 2558.00 2583.89 51.00
9121 56.8200 2505.00 2580.06 50.00
9122 56.8260 2534.00 2579.14 50.00
9123 56.8320 2560.00 2581.34 51.00
9124 56.8380 2556.00 2586.25 51.00
9125 56.8440 2596.00 2594.43 51.00
9126 56.8500 2612.00 2606.39 51.00
9127 56.8560 2622.00 2622.62 51.00
9128 56.8620 2512.00 2644.31 50.00
9129 56.8680 2577.00 2672.09 51.00
9130 56.8740 2671.00 2706.69 52.00
9131 56.8800 2765.00 2748.87 53.00
9132 56.8860 2767.00 2798.81 53.00
9133 56.8920 2787.00 2856.11 53.00
9134 56.8980 2847.00 2919.98 53.00
9135 56.9040 2938.00 2989.76 54.00
9136 56.9100 3003.00 3065.92 55.00
9137 56.9160 3105.00 3149.54 56.00
9138 56.9220 3194.00 3240.07 57.00
9139 56.9280 3356.00 3333.41 58.00
9140 56.9340 3455.00 3420.61 59.00
9141 56.9400 3574.00 3490.05 60.00
9142 56.9460 3660.00 3531.57 60.00
9143 56.9520 3654.00 3541.18 60.00
9144 56.9580 3585.00 3521.26 60.00
9145 56.9640 3505.00 3476.57 59.00
9146 56.9700 3350.00 3412.41 58.00
9147 56.9760 3238.00 3335.34 57.00
9148 56.9820 3152.00 3253.65 56.00
9149 56.9880 3052.00 3174.81 55.00
9150 56.9940 3017.00 3103.46 55.00
9151 57.0000 2961.00 3041.49 54.00
9152 57.0060 2858.00 2988.97 53.00
9153 57.0120 2848.00 2947.75 53.00
9154 57.0180 2844.00 2919.81 53.00
9155 57.0240 2775.00 2908.20 53.00
9156 57.0300 2793.00 2915.73 53.00
9157 57.0360 2920.00 2943.56 54.00
9158 57.0420 2901.00 2992.18 54.00
9159 57.0480 2987.00 3059.77 55.00
9160 57.0540 3062.00 3141.85 55.00
9161 57.0600 3254.00 3230.73 57.00
9162 57.0660 3326.00 3315.73 58.00
9163 57.0720 3395.00 3384.88 58.00
9164 57.0780 3366.00 3428.35 58.00
9165 57.0840 3304.00 3441.11 57.00
9166 57.0900 3219.00 3423.21 57.00
9167 57.0960 3161.00 3380.64 56.00
9168 57.1020 3159.00 3322.22 56.00
9169 57.1080 3061.00 3256.50 55.00
9170 57.1140 2994.00 3188.70 55.00
9171 57.1200 3009.00 3121.26 55.00
9172 57.1260 2912.00 3054.79 54.00
9173 57.1320 2924.00 2989.25 54.00
9174 57.1380 2856.00 2925.49 53.00
9175 57.1440 2751.00 2865.52 52.00
9176 57.1500 2727.00 2812.03 52.00
9177 57.1560 2763.00 2766.99 53.00
9178 57.1620 2737.00 2732.13 52.00
9179 57.1680 2654.00 2708.08 52.00
9180 57.1740 2706.00 2694.98 52.00
9181 57.1800 2705.00 2693.58 52.00
9182 57.1860 2770.00 2703.58 53.00
9183 57.1920 2778.00 2724.95 53.00
9184 57.1980 2803.00 2757.07 53.00
9185 57.2040 2773.00 2798.70 53.00
9186 57.2100 2792.00 2847.76 53.00
9187 57.2160 2876.00 2900.86 54.00
9188 57.2220 2905.00 2953.21 54.00
9189 57.2280 2910.00 2999.93 54.00
9190 57.2340 2905.00 3037.96 54.00
9191 57.2400 2870.00 3068.09 54.00
9192 57.2460 2995.00 3092.94 55.00
9193 57.2520 3097.00 3114.18 56.00
9194 57.2580 3100.00 3131.80 56.00
9195 57.2640 3129.00 3144.50 56.00
9196 57.2700 3151.00 3152.81 56.00
9197 57.2760 3063.00 3158.36 55.00
9198 57.2820 3145.00 3162.42 56.00
9199 57.2880 3226.00 3163.22 57.00
9200 57.2940 3203.00 3156.96 57.00
9201 57.3000 3167.00 3140.35 56.00
9202 57.3060 3196.00 3113.14 57.00
9203 57.3120 3206.00 3076.62 57.00
9204 57.3180 3131.00 3033.86 56.00
9205 57.3240 3068.00 2987.64 55.00
9206 57.3300 3038.00 2940.39 55.00
9207 57.3360 2971.00 2892.25 55.00
9208 57.3420 2912.00 2843.37 54.00
9209 57.3480 2933.00 2794.55 54.00
9210 57.3540 2884.00 2747.76 54.00
9211 57.3600 2793.00 2704.73 53.00
9212 57.3660 2706.00 2667.23 52.00
9213 57.3720 2647.00 2635.62 51.00
9214 57.3780 2626.00 2609.97 51.00
9215 57.3840 2595.00 2589.81 51.00
9216 57.3900 2622.00 2574.70 51.00
9217 57.3960 2576.00 2563.78 51.00
9218 57.4020 2542.00 2556.46 50.00
9219 57.4080 2591.00 2551.94 51.00
9220 57.4140 2609.00 2550.37 51.00
9221 57.4200 2606.00 2551.25 51.00
9222 57.4260 2594.00 2554.52 51.00
9223 57.4320 2603.00 2560.23 51.00
9224 57.4380 2589.00 2568.51 51.00
9225 57.4440 2606.00 2579.13 51.00
9226 57.4500 2626.00 2593.18 51.00
9227 57.4560 2687.00 2609.73 52.00
9228 57.4620 2722.00 2630.28 52.00
9229 57.4680 2742.00 2654.07 52.00
9230 57.4740 2751.00 2680.61 52.00
9231 57.4800 2807.00 2712.09 53.00
9232 57.4860 2881.00 2748.12 54.00
9233 57.4920 2905.00 2788.38 54.00
9234 57.4980 2960.00 2830.94 54.00
9235 57.5040 3048.00 2871.89 55.00
9236 57.5100 3117.00 2906.38 56.00
9237 57.5160 3160.00 2930.02 56.00
9238 57.5220 3122.00 2940.08 56.00
9239 57.5280 2985.00 2936.76 55.00
9240 57.5340 2887.00 2921.36 54.00
9241 57.5400 2884.00 2897.11 54.00
9242 57.5460 2849.00 2867.03 53.00
9243 57.5520 2708.00 2835.73 52.00
9244 57.5580 2682.00 2807.81 52.00
9245 57.5640 2826.00 2786.98 53.00
9246 57.5700 2925.00 2775.29 54.00
9247 57.5760 2905.00 2772.44 54.00
9248 57.5820 2869.00 2777.78 54.00
9249 57.5880 2879.00 2788.06 54.00
9250 57.5940 2898.00 2798.93 54.00
9251 57.6000 2882.00 2808.87 54.00
9252 57.6060 2883.00 2816.30 54.00
9253 57.6120 2878.00 2822.33 54.00
9254 57.6180 2831.00 2828.59 53.00
9255 57.6240 2858.00 2837.27 53.00
9256 57.6300 2857.00 2851.64 53.00
9257 57.6360 2848.00 2872.96 53.00
9258 57.6420 2917.00 2902.20 54.00
9259 57.6480 2939.00 2937.96 54.00
9260 57.6540 2993.00 2977.12 55.00
9261 57.6600 3142.00 3014.78 56.00
9262 57.6660 3220.00 3044.40 57.00
9263 57.6720 3195.00 3060.65 57.00
9264 57.6780 3127.00 3058.42 56.00
9265 57.6840 3049.00 3037.55 55.00
9266 57.6900 2895.00 3001.00 54.00
9267 57.6960 2780.00 2954.50 53.00
9268 57.7020 2795.00 2905.01 53.00
9269 57.7080 2801.00 2859.78 53.00
9270 57.7140 2775.00 2823.11 53.00
9271 57.7200 2724.00 2798.60 52.00
9272 57.7260 2754.00 2787.24 52.00
9273 57.7320 2852.00 2787.84 53.00
9274 57.7380 2939.00 2797.00 54.00
9275 57.7440 2959.00 2811.10 54.00
9276 57.7500 2994.00 2824.06 55.00
9277 57.7560 3013.00 2830.60 55.00
9278 57.7620 2925.00 2827.97 54.00
9279 57.7680 2886.00 2817.76 54.00
9280 57.7740 2913.00 2802.28 54.00
9281 57.7800 2853.00 2788.29 53.00
9282 57.7860 2785.00 2778.13 53.00
9283 57.7920 2753.00 2775.21 52.00
9284 57.7980 2744.00 2779.27 52.00
9285 57.8040 2759.00 2788.71 53.00
9286 57.8100 2770.00 2802.36 53.00
9287 57.8160 2843.00 2817.75 53.00
9288 57.8220 2888.00 2833.33 54.00
9289 57.8280 2948.00 2848.77 54.00
9290 57.8340 2981.00 2863.78 55.00
9291 57.8400 2964.00 2877.94 54.00
9292 57.8460 2955.00 2890.83 54.00
9293 57.8520 3047.00 2902.25 55.00
9294 57.8580 3071.00 2911.59 55.00
9295 57.8640 3075.00 2916.66 55.00
9296 57.8700 3031.00 2914.33 55.00
9297 57.8760 2947.00 2902.15 54.00
9298 57.8820 3017.00 2879.80 55.00
9299 57.8880 2954.00 2849.26 54.00
9300 57.8940 2880.00 2813.57 54.00
9301 57.9000 2793.00 2776.11 53.00
9302 57.9060 2775.00 2739.94 53.00
9303 57.9120 2772.00 2707.90 53.00
9304 57.9180 2791.00 2682.69 53.00
9305 57.9240 2773.00 2666.38 53.00
9306 57.9300 2717.00 2660.50 52.00
9307 57.9360 2748.00 2665.80 52.00
9308 57.9420 2731.00 2682.58 52.00
9309 57.9480 2788.00 2709.83 53.00
9310 57.9540 2795.00 2746.24 53.00
9311 57.9600 2856.00 2789.27 53.00
9312 57.9660 3028.00 2834.95 55.00
9313 57.9720 2996.00 2878.50 55.00
9314 57.9780 3039.00 2914.62 55.00
9315 57.9840 3107.00 2939.80 56.00
9316 57.9900 2972.00 2952.83 55.00
9317 57.9960 2961.00 2955.23 54.00
9318 58.0020 3008.00 2950.47 55.00
9319 58.0080 3011.00 2942.57 55.00
9320 58.0140 2938.00 2934.53 54.00
9321 58.0200 2991.00 2927.57 55.00
9322 58.0260 2997.00 2920.76 55.00
9323 58.0320 2900.00 2913.70 54.00
9324 58.0380 2913.00 2904.76 54.00
9325 58.0440 2942.00 2893.61 54.00
9326 58.0500 2950.00 2879.80 54.00
9327 58.0560 2796.00 2863.90 53.00
9328 58.0620 2781.00 2848.50 53.00
9329 58.0680 2872.00 2836.27 54.00
9330 58.0740 2906.00 2830.13 54.00
9331 58.0800 2794.00 2831.95 53.00
9332 58.0860 2816.00 2841.94 53.00
9333 58.0920 2860.00 2858.58 53.00
9334 58.0980 2799.00 2878.79 53.00
9335 58.1040 2862.00 2899.14 53.00
9336 58.1100 2937.00 2917.41 54.00
9337 58.1160 2952.00 2935.45 54.00
9338 58.1220 3060.00 2955.87 55.00
9339 58.1280 3083.00 2982.06 56.00
9340 58.1340 3146.00 3015.96 56.00
9341 58.1400 3178.00 3056.17 56.00
9342 58.1460 3213.00 3099.50 57.00
9343 58.1520 3296.00 3141.59 57.00
9344 58.1580 3343.00 3179.15 58.00
9345 58.1640 3381.00 3209.91 58.00
9346 58.1700 3473.00 3233.47 59.00
9347 58.1760 3471.00 3249.80 59.00
9348 58.1820 3396.00 3258.30 58.00
9349 58.1880 3328.00 3257.14 58.00
9350 58.1940 3320.00 3246.62 58.00
9351 58.2000 3350.00 3229.63 58.00
9352 58.2060 3399.00 3209.39 58.00
9353 58.2120 3319.00 3188.58 58.00
9354 58.2180 3334.00 3167.09 58.00
9355 58.2240 3274.00 3143.94 57.00
9356 58.2300 3194.00 3120.15 57.00
9357 58.2360 3235.00 3100.17 57.00
9358 58.2420 3127.00 3091.44 56.00
9359 58.2480 3194.00 3101.95 57.00
9360 58.2540 3204.00 3138.22 57.00
9361 58.2600 3259.00 3203.99 57.00
9362 58.2660 3377.00 3299.68 58.00
9363 58.2720 3445.00 3421.01 59.00
9364 58.2780 3559.00 3559.61 60.00
9365 58.2840 3724.00 3702.03 61.00
9366 58.2900 3827.00 3832.32 62.00
9367 58.2960 3962.00 3935.07 63.00
9368 58.3020 3900.00 3997.85 62.00
9369 58.3080 3964.00 4011.99 63.00
9370 58.3140 3907.00 3973.45 63.00
9371 58.3200 3853.00 3885.50 62.00
9372 58.3260 3744.00 3759.74 61.00
9373 58.3320 3477.00 3611.66 59.00
9374 58.3380 3343.00 3457.28 58.00
9375 58.3440 3228.00 3307.95 57.00
9376 58.3500 3178.00 3172.09 56.00
9377 58.3560 3088.00 3053.73 56.00
9378 58.3620 2957.00 2954.18 54.00
9379 58.3680 2882.00 2871.59 54.00
9380 58.3740 2839.00 2802.63 53.00
9381 58.3800 2864.00 2744.61 54.00
9382 58.3860 2874.00 2695.66 54.00
9383 58.3920 2730.00 2655.13 52.00
9384 58.3980 2673.00 2622.61 52.00
9385 58.4040 2656.00 2597.38 52.00
9386 58.4100 2631.00 2579.08 51.00
9387 58.4160 2517.00 2567.26 50.00
9388 58.4220 2741.00 2561.34 52.00
9389 58.4280 2718.00 2560.99 52.00
9390 58.4340 2651.00 2565.56 51.00
9391 58.4400 2692.00 2574.04 52.00
9392 58.4460 2727.00 2585.36 52.00
9393 58.4520 2700.00 2598.11 52.00
9394 58.4580 2657.00 2610.63 52.00
9395 58.4640 2668.00 2621.74 52.00
9396 58.4700 2660.00 2630.97 52.00
9397 58.4760 2753.00 2638.92 52.00
9398 58.4820 2772.00 2645.98 53.00
9399 58.4880 2768.00 2652.03 53.00
9400 58.4940 2659.00 2655.90 52.00
9401 58.5000 2816.00 2656.43 53.00
9402 58.5060 2708.00 2652.58 52.00
9403 58.5120 2765.00 2643.73 53.00
9404 58.5180 2756.00 2631.28 52.00
9405 58.5240 2578.00 2616.38 51.00
9406 58.5300 2700.00 2600.24 52.00
9407 58.5360 2712.00 2583.51 52.00
9408 58.5420 2640.00 2566.32 51.00
9409 58.5480 2691.00 2549.66 52.00
9410 58.5540 2630.00 2534.20 51.00
9411 58.5600 2612.00 2520.76 51.00
9412 58.5660 2524.00 2510.58 50.00
9413 58.5720 2607.00 2504.15 51.00
9414 58.5780 2570.00 2501.90 51.00
9415 58.5840 2574.00 2504.86 51.00
9416 58.5900 2645.00 2513.54 51.00
9417 58.5960 2542.00 2528.69 50.00
9418 58.6020 2657.00 2550.94 52.00
9419 58.6080 2677.00 2580.72 52.00
9420 58.6140 2650.00 2617.87 51.00
9421 58.6200 2716.00 2661.49 52.00
9422 58.6260 2690.00 2709.12 52.00
9423 58.6320 2630.00 2758.04 51.00
9424 58.6380 2778.00 2803.64 53.00
9425 58.6440 2759.00 2840.30 53.00
9426 58.6500 2819.00 2864.02 53.00
9427 58.6560 2759.00 2871.82 53.00
9428 58.6620 2784.00 2861.68 53.00
9429 58.6680 2763.00 2834.87 53.00
9430 58.6740 2714.00 2796.01 52.00
9431 58.6800 2671.00 2750.54 52.00
9432 58.6860 2692.00 2705.42 52.00
9433 58.6920 2656.00 2665.51 52.00
9434 58.6980 2605.00 2634.36 51.00
9435 58.7040 2675.00 2614.64 52.00
9436 58.7100 2690.00 2606.89 52.00
9437 58.7160 2646.00 2612.36 51.00
9438 58.7220 2632.00 2629.68 51.00
9439 58.7280 2750.00 2657.03 52.00
9440 58.7340 2888.00 2691.33 54.00
9441 58.7400 2812.00 2728.69 53.00
9442 58.7460 2920.00 2762.54 54.00
9443 58.7520 2886.00 2787.80 54.00
9444 58.7580 2895.00 2798.51 54.00
9445 58.7640 2829.00 2792.54 53.00
9446 58.7700 2759.00 2771.57 53.00
9447 58.7760 2876.00 2740.41 54.00
9448 58.7820 2692.00 2704.47 52.00
9449 58.7880 2592.00 2668.41 51.00
9450 58.7940 2622.00 2635.55 51.00
9451 58.8000 2616.00 2607.65 51.00
9452 58.8060 2589.00 2585.11 51.00
9453 58.8120 2673.00 2566.48 52.00
9454 58.8180 2570.00 2550.79 51.00
9455 58.8240 2601.00 2536.70 51.00
9456 58.8300 2607.00 2522.01 51.00
9457 58.8360 2637.00 2506.18 51.00
9458 58.8420 2593.00 2491.33 51.00
9459 58.8480 2560.00 2477.36 51.00
9460 58.8540 2523.00 2464.30 50.00
9461 58.8600 2503.00 2452.59 50.00
9462 58.8660 2506.00 2442.46 50.00
9463 58.8720 2527.00 2434.13 50.00
9464 58.8780 2544.00 2427.57 50.00
9465 58.8840 2499.00 2422.68 50.00
9466 58.8900 2419.00 2419.35 49.00
9467 58.8960 2482.00 2417.32 50.00
9468 58.9020 2434.00 2417.06 49.00
9469 58.9080 2428.00 2418.31 49.00
9470 58.9140 2482.00 2421.04 50.00
9471 58.9200 2553.00 2425.27 51.00
9472 58.9260 2497.00 2431.03 50.00
9473 58.9320 2413.00 2438.29 49.00
9474 58.9380 2492.00 2446.85 50.00
9475 58.9440 2473.00 2456.46 50.00
9476 58.9500 2524.00 2466.49 50.00
9477 58.9560 2503.00 2476.00 50.00
9478 58.9620 2451.00 2484.39 50.00
9479 58.9680 2550.00 2491.30 50.00
9480 58.9740 2580.00 2496.99 51.00
9481 58.9800 2563.00 2501.70 51.00
9482 58.9860 2439.00 2505.50 49.00
9483 58.9920 2505.00 2508.55 50.00
9484 58.9980 2453.00 2510.33 50.00
9485 59.0040 2529.00 2510.66 50.00
9486 59.0100 2590.00 2509.31 51.00
9487 59.0160 2544.00 2506.16 50.00
9488 59.0220 2557.00 2501.04 51.00
9489 59.0280 2485.00 2493.78 50.00
9490 59.0340 2585.00 2484.30 51.00
9491 59.0400 2516.00 2473.56 50.00
9492 59.0460 2541.00 2462.52 50.00
9493 59.0520 2533.00 2452.16 50.00
9494 59.0580 2431.00 2443.13 49.00
9495 59.0640 2541.00 2435.97 50.00
9496 59.0700 2519.00 2430.65 50.00
9497 59.0760 2573.00 2427.35 51.00
9498 59.0820 2393.00 2426.11 49.00
9499 59.0880 2427.00 2426.98 49.00
9500 59.0940 2536.00 2430.08 50.00
9501 59.1000 2465.00 2435.68 50.00
9502 59.1060 2507.00 2444.17 50.00
9503 59.1120 2481.00 2456.07 50.00
9504 59.1180 2525.00 2472.19 50.00
9505 59.1240 2480.00 2492.94 50.00
9506 59.1300 2521.00 2519.07 50.00
9507 59.1360 2620.00 2550.33 51.00
9508 59.1420 2657.00 2586.23 52.00
9509 59.1480 2713.00 2625.23 52.00
9510 59.1540 2711.00 2664.34 52.00
9511 59.1600 2798.00 2699.50 53.00
9512 59.1660 2839.00 2726.03 53.00
9513 59.1720 2817.00 2740.22 53.00
9514 59.1780 2826.00 2739.68 53.00
9515 59.1840 2746.00 2725.20 52.00
9516 59.1900 2652.00 2698.42 51.00
9517 59.1960 2559.00 2664.22 51.00
9518 59.2020 2662.00 2627.73 52.00
9519 59.2080 2576.00 2592.98 51.00
9520 59.2140 2639.00 2563.40 51.00
9521 59.2200 2626.00 2540.29 51.00
9522 59.2260 2543.00 2524.89 50.00
9523 59.2320 2636.00 2517.34 51.00
9524 59.2380 2550.00 2517.12 50.00
9525 59.2440 2589.00 2523.26 51.00
9526 59.2500 2638.00 2534.31 51.00
9527 59.2560 2579.00 2548.42 51.00
9528 59.2620 2661.00 2563.43 52.00
9529 59.2680 2681.00 2577.40 52.00
9530 59.2740 2677.00 2588.69 52.00
9531 59.2800 2678.00 2597.16 52.00
9532 59.2860 2755.00 2603.13 52.00
9533 59.2920 2734.00 2608.07 52.00
9534 59.2980 2726.00 2612.89 52.00
9535 59.3040 2743.00 2619.49 52.00
9536 59.3100 2734.00 2629.37 52.00
9537 59.3160 2713.00 2643.70 52.00
9538 59.3220 2795.00 2663.18 53.00
9539 59.3280 2786.00 2687.57 53.00
9540 59.3340 2820.00 2715.41 53.00
9541 59.3400 2784.00 2744.02 53.00
9542 59.3460 2805.00 2769.75 53.00
9543 59.3520 2895.00 2789.25 54.00
9544 59.3580 2974.00 2801.13 55.00
9545 59.3640 2822.00 2805.47 53.00
9546 59.3700 2821.00 2803.24 53.00
9547 59.3760 2875.00 2794.74 54.00
9548 59.3820 2923.00 2780.14 54.00
9549 59.3880 2921.00 2760.08 54.00
9550 59.3940 2844.00 2735.94 53.00
9551 59.4000 2755.00 2709.82 52.00
9552 59.4060 2697.00 2684.00 52.00
9553 59.4120 2656.00 2660.30 52.00
9554 59.4180 2632.00 2639.66 51.00
9555 59.4240 2665.00 2622.15 52.00
9556 59.4300 2697.00 2607.21 52.00
9557 59.4360 2693.00 2594.36 52.00
9558 59.4420 2685.00 2583.91 52.00
9559 59.4480 2721.00 2576.55 52.00
9560 59.4540 2714.00 2572.49 52.00
9561 59.4600 2584.00 2571.52 51.00
9562 59.4660 2553.00 2572.62 51.00
9563 59.4720 2596.00 2574.31 51.00
9564 59.4780 2639.00 2575.10 51.00
9565 59.4840 2683.00 2574.23 52.00
9566 59.4900 2674.00 2572.21 52.00
9567 59.4960 2677.00 2569.97 52.00
9568 59.5020 2712.00 2568.43 52.00
9569 59.5080 2681.00 2568.18 52.00
9570 59.5140 2691.00 2570.42 52.00
9571 59.5200 2711.00 2575.93 52.00
9572 59.5260 2706.00 2584.67 52.00
9573 59.5320 2694.00 2596.61 52.00
9574 59.5380 2733.00 2610.30 52.00
9575 59.5440 2738.00 2624.20 52.00
9576 59.5500 2773.00 2636.77 53.00
9577 59.5560 2772.00 2646.27 53.00
9578 59.5620 2668.00 2651.97 52.00
9579 59.5680 2741.00 2653.96 52.00
9580 59.5740 2790.00 2653.35 53.00
9581 59.5800 2805.00 2651.38 53.00
9582 59.5860 2782.00 2648.08 53.00
9583 59.5920 2699.00 2643.40 52.00
9584 59.5980 2669.00 2637.62 52.00
9585 59.6040 2626.00 2631.55 51.00
9586 59.6100 2702.00 2627.74 52.00
9587 59.6160 2756.00 2627.88 52.00
9588 59.6220 2730.00 2633.28 52.00
9589 59.6280 2769.00 2644.36 53.00
9590 59.6340 2781.00 2660.31 53.00
9591 59.6400 2872.00 2679.63 54.00
9592 59.6460 2947.00 2699.45 54.00
9593 59.6520 2938.00 2717.44 54.00
9594 59.6580 2872.00 2731.47 54.00
9595 59.6640 2882.00 2740.46 54.00
9596 59.6700 2834.00 2744.14 53.00
9597 59.6760 2784.00 2743.70 53.00
9598 59.6820 2809.00 2741.10 53.00
9599 59.6880 2770.00 2737.75 53.00
9600 59.6940 2770.00 2735.46 53.00
9601 59.7000 2777.00 2734.55 53.00
9602 59.7060 2756.00 2735.46 52.00
9603 59.7120 2697.00 2736.78 52.00
9604 59.7180 2680.00 2736.54 52.00
9605 59.7240 2731.00 2733.96 52.00
9606 59.7300 2733.00 2728.15 52.00
9607 59.7360 2753.00 2718.94 52.00
9608 59.7420 2739.00 2706.33 52.00
9609 59.7480 2704.00 2689.69 52.00
9610 59.7540 2610.00 2670.20 51.00
9611 59.7600 2590.00 2650.21 51.00
9612 59.7660 2615.00 2632.97 51.00
9613 59.7720 2618.00 2620.35 51.00
9614 59.7780 2626.00 2613.46 51.00
9615 59.7840 2714.00 2612.81 52.00
9616 59.7900 2833.00 2616.81 53.00
9617 59.7960 2785.00 2623.11 53.00
9618 59.8020 2750.00 2629.15 52.00
9619 59.8080 2773.00 2632.71 53.00
9620 59.8140 2762.00 2631.60 53.00
9621 59.8200 2663.00 2624.66 52.00
9622 59.8260 2645.00 2611.76 51.00
9623 59.8320 2638.00 2593.55 51.00
9624 59.8380 2684.00 2572.69 52.00
9625 59.8440 2691.00 2551.84 52.00
9626 59.8500 2612.00 2532.22 51.00
9627 59.8560 2555.00 2515.66 51.00
9628 59.8620 2581.00 2502.95 51.00
9629 59.8680 2588.00 2494.33 51.00
9630 59.8740 2517.00 2489.80 50.00
9631 59.8800 2526.00 2488.88 50.00
9632 59.8860 2550.00 2490.83 50.00
9633 59.8920 2557.00 2495.30 51.00
9634 59.8980 2575.00 2500.74 51.00
9635 59.9040 2564.00 2506.16 51.00
9636 59.9100 2532.00 2510.77 50.00
9637 59.9160 2592.00 2513.90 51.00
9638 59.9220 2568.00 2516.13 51.00
9639 59.9280 2545.00 2517.60 50.00
9640 59.9340 2568.00 2518.96 51.00
9641 59.9400 2597.00 2521.54 51.00
9642 59.9460 2597.00 2526.28 51.00
9643 59.9520 2660.00 2534.10 52.00
9644 59.9580 2678.00 2545.70 52.00
9645 59.9640 2723.00 2561.55 52.00
9646 59.9700 2736.00 2582.45 52.00
9647 59.9760 2793.00 2609.32 53.00
9648 59.9820 2691.00 2643.56 52.00
9649 59.9880 2610.00 2686.80 51.00
9650 59.9940 2605.00 2740.03 51.00
9651 60.0000 2833.00 2804.21 53.00
9652 60.0060 3012.00 2878.80 55.00
9653 60.0120 3104.00 2961.52 56.00
9654 60.0180 3180.00 3047.49 56.00
9655 60.0240 3182.00 3129.58 56.00
9656 60.0300 3229.00 3199.17 57.00
9657 60.0360 3342.00 3248.39 58.00
9658 60.0420 3351.00 3273.05 58.00
9659 60.0480 3310.00 3273.47 58.00
9660 60.0540 3286.00 3253.19 57.00
9661 60.0600 3177.00 3216.76 56.00
9662 60.0660 3184.00 3168.28 56.00
9663 60.0720 3057.00 3111.55 55.00
9664 60.0780 2989.00 3050.79 55.00
9665 60.0840 2932.00 2991.50 54.00
9666 60.0900 2899.00 2939.61 54.00
9667 60.0960 2936.00 2899.56 54.00
9668 60.1020 2896.00 2874.29 54.00
9669 60.1080 2897.00 2864.03 54.00
9670 60.1140 2917.00 2866.83 54.00
9671 60.1200 2924.00 2879.95 54.00
9672 60.1260 2998.00 2899.96 55.00
9673 60.1320 3010.00 2923.22 55.00
9674 60.1380 3055.00 2946.05 55.00
9675 60.1440 3119.00 2964.42 56.00
9676 60.1500 3090.00 2975.26 56.00
9677 60.1560 3168.00 2977.30 56.00
9678 60.1620 3158.00 2971.34 56.00
9679 60.1680 3072.00 2959.62 55.00
9680 60.1740 3008.00 2944.53 55.00
9681 60.1800 3028.00 2927.10 55.00
9682 60.1860 2941.00 2908.26 54.00
9683 60.1920 2868.00 2888.88 54.00
9684 60.1980 2901.00 2869.81 54.00
9685 60.2040 2877.00 2851.26 54.00
9686 60.2100 2906.00 2833.26 54.00
9687 60.2160 2869.00 2814.89 54.00
9688 60.2220 2842.00 2796.38 53.00
9689 60.2280 2834.00 2778.53 53.00
9690 60.2340 2935.00 2763.68 54.00
9691 60.2400 2948.00 2755.15 54.00
9692 60.2460 2949.00 2756.36 54.00
9693 60.2520 3018.00 2769.94 55.00
9694 60.2580 3003.00 2798.12 55.00
9695 60.2640 3004.00 2842.54 55.00
9696 60.2700 3114.00 2902.33 56.00
9697 60.2760 3137.00 2975.51 56.00
9698 60.2820 3148.00 3058.21 56.00
9699 60.2880 3287.00 3145.61 57.00
9700 60.2940 3364.00 3233.40 58.00
9701 60.3000 3376.00 3315.73 58.00
9702 60.3060 3423.00 3386.74 59.00
9703 60.3120 3583.00 3440.25 60.00
9704 60.3180 3581.00 3471.84 60.00
9705 60.3240 3587.00 3479.86 60.00
9706 60.3300 3582.00 3466.49 60.00
9707 60.3360 3539.00 3437.97 59.00
9708 60.3420 3591.00 3402.44 60.00
9709 60.3480 3553.00 3367.48 60.00
9710 60.3540 3455.00 3336.81 59.00
9711 60.3600 3470.00 3309.61 59.00
9712 60.3660 3352.00 3282.65 58.00
9713 60.3720 3278.00 3250.89 57.00
9714 60.3780 3283.00 3210.79 57.00
9715 60.3840 3202.00 3160.58 57.00
9716 60.3900 3169.00 3100.74 56.00
9717 60.3960 3077.00 3033.47 55.00
9718 60.4020 2971.00 2962.80 55.00
9719 60.4080 3085.00 2892.86 56.00
9720 60.4140 2826.00 2827.15 53.00
9721 60.4200 2944.00 2767.46 54.00
9722 60.4260 2784.00 2714.16 53.00
9723 60.4320 2753.00 2667.04 52.00
9724 60.4380 2763.00 2625.58 53.00
9725 60.4440 2815.00 2590.01 53.00
9726 60.4500 2653.00 2560.12 52.00
9727 60.4560 2724.00 2536.53 52.00
9728 60.4620 2603.00 2519.01 51.00
9729 60.4680 2570.00 2507.37 51.00
9730 60.4740 2548.00 2501.35 50.00
9731 60.4800 2646.00 2500.33 51.00
9732 60.4860 2642.00 2503.55 51.00
9733 60.4920 2679.00 2510.02 52.00
9734 60.4980 2602.00 2518.35 51.00
9735 60.5040 2644.00 2527.27 51.00
9736 60.5100 2714.00 2535.24 52.00
9737 60.5160 2702.00 2541.45 52.00
9738 60.5220 2616.00 2545.56 51.00
9739 60.5280 2703.00 2547.40 52.00
9740 60.5340 2592.00 2546.25 51.00
9741 60.5400 2673.00 2542.26 52.00
9742 60.5460 2630.00 2535.66 51.00
9743 60.5520 2597.00 2527.03 51.00
9744 60.5580 2504.00 2517.07 50.00
9745 60.5640 2624.00 2506.65 51.00
9746 60.5700 2580.00 2496.28 51.00
9747 60.5760 2519.00 2487.42 50.00
9748 60.5820 2516.00 2479.91 50.00
9749 60.5880 2483.00 2474.37 50.00
9750 60.5940 2582.00 2471.23 51.00
9751 60.6000 2542.00 2469.66 50.00
9752 60.6060 2584.00 2470.24 51.00
9753 60.6120 2493.00 2472.97 50.00
9754 60.6180 2578.00 2478.86 51.00
9755 60.6240 2494.00 2488.38 50.00
9756 60.6300 2615.00 2501.40 51.00
9757 60.6360 2645.00 2517.55 51.00
9758 60.6420 2565.00 2535.81 51.00
9759 60.6480 2573.00 2554.71 51.00
9760 60.6540 2640.00 2572.50 51.00
9761 60.6600 2714.00 2587.56 52.00
9762 60.6660 2538.00 2598.79 50.00
9763 60.6720 2587.00 2606.07 51.00
9764 60.6780 2745.00 2609.53 52.00
9765 60.6840 2603.00 2609.65 51.00
9766 60.6900 2661.00 2608.45 52.00
9767 60.6960 2644.00 2607.33 51.00
9768 60.7020 2635.00 2607.65 51.00
9769 60.7080 2671.00 2609.88 52.00
9770 60.7140 2597.00 2613.32 51.00
9771 60.7200 2662.00 2617.09 52.00
9772 60.7260 2700.00 2620.27 52.00
9773 60.7320 2815.00 2623.35 53.00
9774 60.7380 2670.00 2626.56 52.00
9775 60.7440 2650.00 2630.91 51.00
9776 60.7500 2746.00 2637.63 52.00
9777 60.7560 2694.00 2648.22 52.00
9778 60.7620 2790.00 2663.09 53.00
9779 60.7680 2881.00 2681.03 54.00
9780 60.7740 2737.00 2699.73 52.00
9781 60.7800 2763.00 2715.52 53.00
9782 60.7860 2817.00 2723.61 53.00
9783 60.7920 2750.00 2720.13 52.00
9784 60.7980 2808.00 2703.80 53.00
9785 60.8040 2716.00 2676.48 52.00
9786 60.8100 2723.00 2642.09 52.00
9787 60.8160 2636.00 2604.95 51.00
9788 60.8220 2530.00 2568.50 50.00
9789 60.8280 2491.00 2534.82 50.00
9790 60.8340 2500.00 2505.66 50.00
9791 60.8400 2450.00 2482.29 49.00
9792 60.8460 2449.00 2464.35 49.00
9793 60.8520 2454.00 2450.87 50.00
9794 60.8580 2452.00 2441.61 50.00
9795 60.8640 2436.00 2434.68 49.00
9796 60.8700 2441.00 2429.20 49.00
9797 60.8760 2454.00 2423.25 50.00
9798 60.8820 2505.00 2417.69 50.00
9799 60.8880 2431.00 2411.78 49.00
9800 60.8940 2478.00 2406.08 50.00
9801 60.9000 2463.00 2400.50 50.00
9802 60.9060 2440.00 2395.52 49.00
9803 60.9120 2406.00 2391.69 49.00
9804 60.9180 2518.00 2388.67 50.00
9805 60.9240 2388.00 2387.62 49.00
9806 60.9300 2412.00 2388.17 49.00
9807 60.9360 2517.00 2390.34 50.00
9808 60.9420 2418.00 2395.17 49.00
9809 60.9480 2592.00 2402.05 51.00
9810 60.9540 2589.00 2411.14 51.00
9811 60.9600 2500.00 2422.54 50.00
9812 60.9660 2542.00 2435.97 50.00
9813 60.9720 2498.00 2450.95 50.00
9814 60.9780 2624.00 2466.79 51.00
9815 60.9840 2488.00 2482.67 50.00
9816 60.9900 2431.00 2497.43 49.00
9817 60.9960 2537.00 2510.27 50.00
9818 61.0020 2589.00 2521.30 51.00
9819 61.0080 2564.00 2531.52 51.00
9820 61.0140 2609.00 2542.20 51.00
9821 61.0200 2615.00 2554.89 51.00
9822 61.0260 2562.00 2570.44 51.00
9823 61.0320 2733.00 2588.87 52.00
9824 61.0380 2648.00 2609.00 51.00
9825 61.0440 2707.00 2628.71 52.00
9826 61.0500 2796.00 2645.22 53.00
9827 61.0560 2838.00 2655.61 53.00
9828 61.0620 2724.00 2658.16 52.00
9829 61.0680 2663.00 2652.05 52.00
9830 61.0740 2660.00 2637.58 52.00
9831 61.0800 2571.00 2616.33 51.00
9832 61.0860 2520.00 2590.90 50.00
9833 61.0920 2543.00 2563.97 50.00
9834 61.0980 2554.00 2537.99 51.00
9835 61.1040 2506.00 2515.21 50.00
9836 61.1100 2528.00 2496.69 50.00
9837 61.1160 2600.00 2482.62 51.00
9838 61.1220 2520.00 2472.87 50.00
9839 61.1280 2468.00 2466.71 50.00
9840 61.1340 2520.00 2462.85 50.00
9841 61.1400 2565.00 2459.96 51.00
9842 61.1460 2507.00 2456.81 50.00
9843 61.1520 2449.00 2452.84 49.00
9844 61.1580 2540.00 2447.94 50.00
9845 61.1640 2524.00 2442.91 50.00
9846 61.1700 2539.00 2438.75 50.00
9847 61.1760 2588.00 2436.14 51.00
9848 61.1820 2553.00 2435.87 51.00
9849 61.1880 2591.00 2438.45 51.00
9850 61.1940 2567.00 2444.18 51.00
9851 61.2000 2522.00 2453.05 50.00
9852 61.2060 2481.00 2464.65 50.00
9853 61.2120 2561.00 2478.53 51.00
9854 61.2180 2584.00 2493.47 51.00
9855 61.2240 2625.00 2507.94 51.00
9856 61.2300 2698.00 2520.81 52.00
9857 61.2360 2820.00 2530.87 53.00
9858 61.2420 2739.00 2537.96 52.00
9859 61.2480 2723.00 2542.57 52.00
9860 61.2540 2743.00 2546.47 52.00
9861 61.2600 2682.00 2551.54 52.00
9862 61.2660 2645.00 2560.66 51.00
9863 61.2720 2584.00 2576.10 51.00
9864 61.2780 2709.00 2599.74 52.00
9865 61.2840 2742.00 2632.16 52.00
9866 61.2900 2793.00 2672.63 53.00
9867 61.2960 2811.00 2719.72 53.00
9868 61.3020 2944.00 2769.90 54.00
9869 61.3080 2957.00 2818.66 54.00
9870 61.3140 2956.00 2860.72 54.00
9871 61.3200 2925.00 2891.44 54.00
9872 61.3260 2916.00 2908.66 54.00
9873 61.3320 2918.00 2913.46 54.00
9874 61.3380 2926.00 2909.09 54.00
9875 61.3440 2806.00 2899.91 53.00
9876 61.3500 2896.00 2890.40 54.00
9877 61.3560 2854.00 2881.99 53.00
9878 61.3620 2840.00 2873.74 53.00
9879 61.3680 2800.00 2863.35 53.00
9880 61.3740 2825.00 2848.11 53.00
9881 61.3800 2829.00 2827.10 53.00
9882 61.3860 2819.00 2801.42 53.00
9883 61.3920 2749.00 2774.37 52.00
9884 61.3980 2727.00 2749.01 52.00
9885 61.4040 2761.00 2727.29 53.00
9886 61.4100 2703.00 2709.71 52.00
9887 61.4160 2755.00 2695.49 52.00
9888 61.4220 2679.00 2683.47 52.00
9889 61.4280 2665.00 2672.53 52.00
9890 61.4340 2763.00 2662.05 53.00
9891 61.4400 2726.00 2651.17 52.00
9892 61.4460 2644.00 2638.90 51.00
9893 61.4520 2659.00 2624.73 52.00
9894 61.4580 2632.00 2609.12 51.00
9895 61.4640 2616.00 2593.46 51.00
9896 61.4700 2609.00 2579.16 51.00
9897 61.4760 2631.00 2567.39 51.00
9898 61.4820 2667.00 2557.50 52.00
9899 61.4880 2595.00 2548.91 51.00
9900 61.4940 2585.00 2540.64 51.00
9901 61.5000 2591.00 2531.09 51.00
9902 61.5060 2574.00 2520.31 51.00
9903 61.5120 2522.00 2509.19 50.00
9904 61.5180 2514.00 2499.01 50.00
9905 61.5240 2563.00 2490.89 51.00
9906 61.5300 2559.00 2485.48 51.00
9907 61.5360 2530.00 2482.80 50.00
9908 61.5420 2520.00 2482.47 50.00
9909 61.5480 2519.00 2483.49 50.00
9910 61.5540 2514.00 2484.91 50.00
9911 61.5600 2547.00 2485.39 50.00
9912 61.5660 2546.00 2483.96 50.00
9913 61.5720 2538.00 2480.91 50.00
9914 61.5780 2537.00 2477.24 50.00
9915 61.5840 2537.00 2474.42 50.00
9916 61.5900 2539.00 2473.90 50.00
9917 61.5960 2461.00 2476.92 50.00
9918 61.6020 2599.00 2483.93 51.00
9919 61.6080 2567.00 2495.22 51.00
9920 61.6140 2584.00 2510.76 51.00
9921 61.6200 2580.00 2529.78 51.00
9922 61.6260 2644.00 2550.98 51.00
9923 61.6320 2611.00 2572.87 51.00
9924 61.6380 2632.00 2594.60 51.00
9925 61.6440 2737.00 2614.82 52.00
9926 61.6500 2730.00 2632.35 52.00
9927 61.6560 2821.00 2645.77 53.00
9928 61.6620 2700.00 2654.78 52.00
9929 61.6680 2732.00 2658.49 52.00
9930 61.6740 2753.00 2657.82 52.00
9931 61.6800 2711.00 2653.92 52.00
9932 61.6860 2674.00 2648.33 52.00
9933 61.6920 2655.00 2641.94 52.00
9934 61.6980 2724.00 2634.60 52.00
9935 61.7040 2709.00 2625.48 52.00
9936 61.7100 2674.00 2613.68 52.00
9937 61.7160 2701.00 2598.41 52.00
9938 61.7220 2706.00 2580.48 52.00
9939 61.7280 2604.00 2559.54 51.00
9940 61.7340 2608.00 2537.60 51.00
9941 61.7400 2588.00 2516.60 51.00
9942 61.7460 2511.00 2497.72 50.00
9943 61.7520 2561.00 2482.55 51.00
9944 61.7580 2437.00 2472.09 49.00
9945 61.7640 2481.00 2466.81 50.00
9946 61.7700 2511.00 2466.69 50.00
9947 61.7760 2560.00 2471.25 51.00
9948 61.7820 2590.00 2479.79 51.00
9949 61.7880 2523.00 2490.44 50.00
9950 61.7940 2536.00 2502.14 50.00
9951 61.8000 2589.00 2513.07 51.00
9952 61.8060 2567.00 2520.56 51.00
9953 61.8120 2596.00 2523.34 51.00
9954 61.8180 2612.00 2520.97 51.00
9955 61.8240 2536.00 2514.47 50.00
9956 61.8300 2529.00 2506.04 50.00
9957 61.8360 2531.00 2498.15 50.00
9958 61.8420 2523.00 2493.09 50.00
9959 61.8480 2599.00 2492.29 51.00
9960 61.8540 2616.00 2496.90 51.00
9961 61.8600 2620.00 2507.35 51.00
9962 61.8660 2636.00 2523.47 51.00
9963 61.8720 2622.00 2544.25 51.00
9964 61.8780 2670.00 2568.40 52.00
9965 61.8840 2718.00 2593.82 52.00
9966 61.8900 2762.00 2618.14 53.00
9967 61.8960 2762.00 2638.56 53.00
9968 61.9020 2753.00 2652.57 52.00
9969 61.9080 2732.00 2659.00 52.00
9970 61.9140 2742.00 2657.80 52.00
9971 61.9200 2785.00 2649.73 53.00
9972 61.9260 2709.00 2635.96 52.00
9973 61.9320 2647.00 2617.50 51.00
9974 61.9380 2684.00 2595.51 52.00
9975 61.9440 2617.00 2571.49 51.00
9976 61.9500 2565.00 2546.46 51.00
9977 61.9560 2600.00 2522.27 51.00
9978 61.9620 2602.00 2500.85 51.00
9979 61.9680 2528.00 2483.80 50.00
9980 61.9740 2492.00 2472.28 50.00
9981 61.9800 2486.00 2467.04 50.00
9982 61.9860 2479.00 2469.11 50.00
9983 61.9920 2508.00 2478.68 50.00
9984 61.9980 2546.00 2495.92 50.00
9985 62.0040 2561.00 2520.56 51.00
9986 62.0100 2594.00 2551.54 51.00
9987 62.0160 2624.00 2587.99 51.00
9988 62.0220 2689.00 2627.26 52.00
9989 62.0280 2700.00 2666.33 52.00
9990 62.0340 2752.00 2701.02 52.00
9991 62.0400 2845.00 2727.74 53.00
9992 62.0460 2772.00 2743.66 53.00
9993 62.0520 2773.00 2747.40 53.00
9994 62.0580 2753.00 2738.71 52.00
9995 62.0640 2705.00 2719.51 52.00
9996 62.0700 2650.00 2692.65 51.00
9997 62.0760 2555.00 2662.04 51.00
9998 62.0820 2576.00 2631.17 51.00
9999 62.0880 2537.00 2602.68 50.00
10000 62.0940 2564.00 2578.28 51.00
10001 62.1000 2567.00 2558.95 51.00
10002 62.1060 2545.00 2545.44 50.00
10003 62.1120 2653.00 2537.85 52.00
10004 62.1180 2682.00 2536.18 52.00
10005 62.1240 2574.00 2540.09 51.00
10006 62.1300 2555.00 2549.65 51.00
10007 62.1360 2624.00 2564.86 51.00
10008 62.1420 2660.00 2585.71 52.00
10009 62.1480 2671.00 2612.02 52.00
10010 62.1540 2705.00 2643.01 52.00
10011 62.1600 2859.00 2677.70 53.00
10012 62.1660 2937.00 2714.74 54.00
10013 62.1720 2967.00 2752.69 54.00
10014 62.1780 3002.00 2789.67 55.00
10015 62.1840 3020.00 2823.93 55.00
10016 62.1900 3036.00 2854.40 55.00
10017 62.1960 3052.00 2881.16 55.00
10018 62.2020 3065.00 2904.77 55.00
10019 62.2080 3042.00 2925.39 55.00
10020 62.2140 3078.00 2942.66 55.00
10021 62.2200 3068.00 2955.29 55.00
10022 62.2260 3054.00 2961.75 55.00
10023 62.2320 3089.00 2961.92 56.00
10024 62.2380 3055.00 2957.58 55.00
10025 62.2440 3062.00 2951.82 55.00
10026 62.2500 2997.00 2948.48 55.00
10027 62.2560 3002.00 2950.64 55.00
10028 62.2620 3015.00 2959.51 55.00
10029 62.2680 2999.00 2974.25 55.00
10030 62.2740 3055.00 2991.73 55.00
10031 62.2800 3107.00 3007.57 56.00
10032 62.2860 3070.00 3016.53 55.00
10033 62.2920 3026.00 3015.37 55.00
10034 62.2980 2989.00 3004.42 55.00
10035 62.3040 2948.00 2986.60 54.00
10036 62.3100 2931.00 2966.47 54.00
10037 62.3160 2995.00 2948.79 55.00
10038 62.3220 2993.00 2937.72 55.00
10039 62.3280 2981.00 2935.71 55.00
10040 62.3340 3062.00 2942.88 55.00
10041 62.3400 3109.00 2956.79 56.00
10042 62.3460 3170.00 2972.85 56.00
10043 62.3520 3201.00 2985.15 57.00
10044 62.3580 3155.00 2987.92 56.00
10045 62.3640 3061.00 2976.59 55.00
10046 62.3700 3024.00 2949.28 55.00
10047 62.3760 2977.00 2907.20 55.00
10048 62.3820 2846.00 2855.09 53.00
10049 62.3880 2723.00 2798.10 52.00
10050 62.3940 2674.00 2740.62 52.00
10051 62.4000 2681.00 2685.73 52.00
10052 62.4060 2677.00 2634.79 52.00
10053 62.4120 2647.00 2588.22 51.00
10054 62.4180 2595.00 2546.30 51.00
10055 62.4240 2566.00 2509.15 51.00
10056 62.4300 2510.00 2477.03 50.00
10057 62.4360 2467.00 2449.78 50.00
10058 62.4420 2422.00 2427.20 49.00
10059 62.4480 2438.00 2408.89 49.00
10060 62.4540 2457.00 2394.09 50.00
10061 62.4600 2381.00 2382.25 49.00
10062 62.4660 2386.00 2373.36 49.00
10063 62.4720 2423.00 2366.51 49.00
10064 62.4780 2431.00 2361.71 49.00
10065 62.4840 2408.00 2358.44 49.00
10066 62.4900 2436.00 2356.77 49.00
10067 62.4960 2466.00 2356.40 50.00
10068 62.5020 2443.00 2357.15 49.00
10069 62.5080 2440.00 2358.88 49.00
10070 62.5140 2406.00 2361.51 49.00
10071 62.5200 2415.00 2364.85 49.00
10072 62.5260 2411.00 2368.77 49.00
10073 62.5320 2362.00 2372.75 49.00
10074 62.5380 2415.00 2376.76 49.00
10075 62.5440 2451.00 2380.75 50.00
10076 62.5500 2411.00 2384.80 49.00
10077 62.5560 2429.00 2389.00 49.00
10078 62.5620 2403.00 2393.48 49.00
10079 62.5680 2432.00 2397.69 49.00
10080 62.5740 2496.00 2401.47 50.00
10081 62.5800 2467.00 2404.51 50.00
10082 62.5860 2496.00 2406.68 50.00
10083 62.5920 2468.00 2407.10 50.00
10084 62.5980 2405.00 2405.58 49.00
10085 62.6040 2463.00 2401.72 50.00
10086 62.6100 2493.00 2396.53 50.00
10087 62.6160 2421.00 2390.52 49.00
10088 62.6220 2399.00 2384.65 49.00
10089 62.6280 2438.00 2379.37 49.00
10090 62.6340 2449.00 2376.16 49.00
10091 62.6400 2469.00 2374.48 50.00
10092 62.6460 2439.00 2374.52 49.00
10093 62.6520 2396.00 2376.03 49.00
10094 62.6580 2456.00 2378.38 50.00
10095 62.6640 2462.00 2380.92 50.00
10096 62.6700 2408.00 2382.66 49.00
10097 62.6760 2456.00 2382.79 50.00
10098 62.6820 2448.00 2380.81 49.00
10099 62.6880 2431.00 2376.91 49.00
10100 62.6940 2438.00 2371.84 49.00
10101 62.7000 2457.00 2366.27 50.00
10102 62.7060 2471.00 2361.22 50.00
10103 62.7120 2393.00 2357.10 49.00
10104 62.7180 2347.00 2354.65 48.00
10105 62.7240 2365.00 2354.34 49.00
10106 62.7300 2434.00 2356.36 49.00
10107 62.7360 2411.00 2361.25 49.00
10108 62.7420 2410.00 2369.13 49.00
10109 62.7480 2414.00 2380.01 49.00
10110 62.7540 2441.00 2393.45 49.00
10111 62.7600 2453.00 2409.42 50.00
10112 62.7660 2501.00 2427.11 50.00
10113 62.7720 2527.00 2445.24 50.00
10114 62.7780 2518.00 2462.30 50.00
10115 62.7840 2570.00 2476.27 51.00
10116 62.7900 2536.00 2485.86 50.00
10117 62.7960 2547.00 2489.35 50.00
10118 62.8020 2509.00 2486.84 50.00
10119 62.8080 2520.00 2478.41 50.00
10120 62.8140 2473.00 2465.55 50.00
10121 62.8200 2482.00 2449.48 50.00
10122 62.8260 2485.00 2432.04 50.00
10123 62.8320 2454.00 2414.68 50.00
10124 62.8380 2450.00 2398.40 49.00
10125 62.8440 2410.00 2383.50 49.00
10126 62.8500 2380.00 2370.38 49.00
10127 62.8560 2345.00 2358.63 48.00
10128 62.8620 2412.00 2349.31 49.00
10129 62.8680 2381.00 2341.67 49.00
10130 62.8740 2382.00 2335.35 49.00
10131 62.8800 2429.00 2330.65 49.00
10132 62.8860 2414.00 2327.10 49.00
10133 62.8920 2416.00 2324.51 49.00
10134 62.8980 2425.00 2322.91 49.00
10135 62.9040 2424.00 2321.80 49.00
10136 62.9100 2373.00 2321.28 49.00
10137 62.9160 2367.00 2321.32 49.00
10138 62.9220 2365.00 2321.67 49.00
10139 62.9280 2319.00 2322.85 48.00
10140 62.9340 2397.00 2324.47 49.00
10141 62.9400 2451.00 2326.70 50.00
10142 62.9460 2463.00 2330.28 50.00
10143 62.9520 2466.00 2335.05 50.00
10144 62.9580 2443.00 2341.35 49.00
10145 62.9640 2433.00 2349.26 49.00
10146 62.9700 2395.00 2358.84 49.00
10147 62.9760 2398.00 2370.41 49.00
10148 62.9820 2449.00 2383.87 49.00
10149 62.9880 2445.00 2399.43 49.00
10150 62.9940 2511.00 2416.80 50.00
10151 63.0000 2462.00 2435.55 50.00
10152 63.0060 2468.00 2455.08 50.00
10153 63.0120 2509.00 2474.24 50.00
10154 63.0180 2541.00 2492.07 50.00
10155 63.0240 2638.00 2507.22 51.00
10156 63.0300 2616.00 2519.31 51.00
10157 63.0360 2553.00 2528.32 51.00
10158 63.0420 2589.00 2534.67 51.00
10159 63.0480 2603.00 2539.27 51.00
10160 63.0540 2635.00 2543.28 51.00
10161 63.0600 2660.00 2547.75 52.00
10162 63.0660 2604.00 2553.16 51.00
10163 63.0720 2612.00 2559.37 51.00
10164 63.0780 2578.00 2565.72 51.00
10165 63.0840 2632.00 2571.41 51.00
10166 63.0900 2678.00 2575.87 52.00
10167 63.0960 2619.00 2578.93 51.00
10168 63.1020 2548.00 2580.84 50.00
10169 63.1080 2588.00 2582.25 51.00
10170 63.1140 2540.00 2584.14 50.00
10171 63.1200 2555.00 2587.30 51.00
10172 63.1260 2573.00 2591.44 51.00
10173 63.1320 2656.00 2595.96 52.00
10174 63.1380 2648.00 2599.82 51.00
10175 63.1440 2701.00 2602.00 52.00
10176 63.1500 2696.00 2601.91 52.00
10177 63.1560 2652.00 2598.95 51.00
10178 63.1620 2581.00 2593.03 51.00
10179 63.1680 2588.00 2584.13 51.00
10180 63.1740 2614.00 2573.61 51.00
10181 63.1800 2575.00 2563.34 51.00
10182 63.1860 2595.00 2554.73 51.00
10183 63.1920 2554.00 2548.37 51.00
10184 63.1980 2545.00 2544.18 50.00
10185 63.2040 2537.00 2541.16 50.00
10186 63.2100 2549.00 2538.26 50.00
10187 63.2160 2526.00 2534.56 50.00
10188 63.2220 2572.00 2530.51 51.00
10189 63.2280 2614.00 2527.02 51.00
10190 63.2340 2567.00 2525.63 51.00
10191 63.2400 2607.00 2527.24 51.00
10192 63.2460 2551.00 2532.22 51.00
10193 63.2520 2540.00 2539.99 50.00
10194 63.2580 2590.00 2549.72 51.00
10195 63.2640 2624.00 2559.29 51.00
10196 63.2700 2652.00 2566.84 51.00
10197 63.2760 2600.00 2570.43 51.00
10198 63.2820 2616.00 2568.89 51.00
10199 63.2880 2614.00 2561.62 51.00
10200 63.2940 2640.00 2549.25 51.00
10201 63.3000 2559.00 2533.14 51.00
10202 63.3060 2389.00 2514.79 49.00
10203 63.3120 2472.00 2496.42 50.00
10204 63.3180 2422.00 2479.73 49.00
10205 63.3240 2424.00 2466.13 49.00
10206 63.3300 2437.00 2456.74 49.00
10207 63.3360 2535.00 2452.00 50.00
10208 63.3420 2581.00 2451.99 51.00
10209 63.3480 2511.00 2456.11 50.00
10210 63.3540 2464.00 2463.87 50.00
10211 63.3600 2565.00 2474.80 51.00
10212 63.3660 2589.00 2488.36 51.00
10213 63.3720 2595.00 2504.23 51.00
10214 63.3780 2561.00 2521.49 51.00
10215 63.3840 2603.00 2539.00 51.00
10216 63.3900 2558.00 2555.47 51.00
10217 63.3960 2606.00 2569.77 51.00
10218 63.4020 2591.00 2581.50 51.00
10219 63.4080 2711.00 2590.71 52.00
10220 63.4140 2628.00 2597.66 51.00
10221 63.4200 2709.00 2602.57 52.00
10222 63.4260 2676.00 2605.57 52.00
10223 63.4320 2630.00 2606.67 51.00
10224 63.4380 2652.00 2605.79 51.00
10225 63.4440 2725.00 2603.21 52.00
10226 63.4500 2751.00 2599.79 52.00
10227 63.4560 2701.00 2596.87 52.00
10228 63.4620 2686.00 2595.23 52.00
10229 63.4680 2663.00 2595.36 52.00
10230 63.4740 2738.00 2596.92 52.00
10231 63.4800 2687.00 2599.44 52.00
10232 63.4860 2611.00 2602.70 51.00
10233 63.4920 2820.00 2606.86 53.00
10234 63.4980 2799.00 2612.04 53.00
10235 63.5040 2715.00 2617.91 52.00
10236 63.5100 2735.00 2623.76 52.00
10237 63.5160 2777.00 2628.78 53.00
10238 63.5220 2604.00 2632.26 51.00
10239 63.5280 2653.00 2632.93 52.00
10240 63.5340 2676.00 2629.55 52.00
10241 63.5400 2719.00 2620.98 52.00
10242 63.5460 2613.00 2607.03 51.00
10243 63.5520 2620.00 2588.56 51.00
10244 63.5580 2568.00 2567.53 51.00
10245 63.5640 2507.00 2546.43 50.00
10246 63.5700 2567.00 2526.80 51.00
10247 63.5760 2520.00 2509.77 50.00
10248 63.5820 2526.00 2495.33 50.00
10249 63.5880 2551.00 2483.06 51.00
10250 63.5940 2555.00 2471.76 51.00
10251 63.6000 2473.00 2460.25 50.00
10252 63.6060 2485.00 2448.02 50.00
10253 63.6120 2473.00 2434.84 50.00
10254 63.6180 2388.00 2421.14 49.00
10255 63.6240 2446.00 2408.14 49.00
10256 63.6300 2427.00 2396.60 49.00
10257 63.6360 2385.00 2387.36 49.00
10258 63.6420 2370.00 2380.96 49.00
10259 63.6480 2478.00 2377.77 50.00
10260 63.6540 2436.00 2378.02 49.00
10261 63.6600 2410.00 2381.59 49.00
10262 63.6660 2515.00 2388.55 50.00
10263 63.6720 2455.00 2398.37 50.00
10264 63.6780 2511.00 2410.46 50.00
10265 63.6840 2413.00 2424.11 49.00
10266 63.6900 2600.00 2438.30 51.00
10267 63.6960 2481.00 2451.44 50.00
10268 63.7020 2503.00 2462.80 50.00
10269 63.7080 2540.00 2472.10 50.00
10270 63.7140 2573.00 2479.82 51.00
10271 63.7200 2604.00 2486.61 51.00
10272 63.7260 2577.00 2493.65 51.00
10273 63.7320 2619.00 2501.27 51.00
10274 63.7380 2563.00 2508.85 51.00
10275 63.7440 2510.00 2515.75 50.00
10276 63.7500 2535.00 2522.15 50.00
10277 63.7560 2583.00 2527.62 51.00
10278 63.7620 2530.00 2533.43 50.00
10279 63.7680 2502.00 2539.17 50.00
10280 63.7740 2579.00 2545.83 51.00
10281 63.7800 2630.00 2553.42 51.00
10282 63.7860 2658.00 2561.54 52.00
10283 63.7920 2705.00 2569.55 52.00
10284 63.7980 2668.00 2576.37 52.00
10285 63.8040 2555.00 2582.37 51.00
10286 63.8100 2614.00 2586.59 51.00
10287 63.8160 2594.00 2589.84 51.00
10288 63.8220 2585.00 2593.06 51.00
10289 63.8280 2737.00 2597.11 52.00
10290 63.8340 2614.00 2602.48 51.00
10291 63.8400 2734.00 2609.26 52.00
10292 63.8460 2622.00 2617.01 51.00
10293 63.8520 2612.00 2625.44 51.00
10294 63.8580 2587.00 2634.12 51.00
10295 63.8640 2704.00 2642.98 52.00
10296 63.8700 2734.00 2651.72 52.00
10297 63.8760 2821.00 2659.52 53.00
10298 63.8820 2762.00 2665.22 53.00
10299 63.8880 2742.00 2667.32 52.00
10300 63.8940 2682.00 2664.19 52.00
10301 63.9000 2757.00 2654.72 53.00
10302 63.9060 2641.00 2638.83 51.00
10303 63.9120 2641.00 2617.15 51.00
10304 63.9180 2575.00 2591.23 51.00
10305 63.9240 2591.00 2562.64 51.00
10306 63.9300 2607.00 2533.03 51.00
10307 63.9360 2464.00 2503.77 50.00
10308 63.9420 2470.00 2476.40 50.00
10309 63.9480 2521.00 2451.76 50.00
10310 63.9540 2571.00 2430.40 51.00
10311 63.9600 2392.00 2412.26 49.00
10312 63.9660 2559.00 2397.15 51.00
10313 63.9720 2451.00 2384.83 50.00
10314 63.9780 2416.00 2375.00 49.00
10315 63.9840 2387.00 2367.99 49.00
10316 63.9900 2410.00 2363.60 49.00
10317 63.9960 2467.00 2361.78 50.00
10318 64.0020 2338.00 2362.23 48.00
10319 64.0080 2452.00 2365.00 50.00
10320 64.0140 2457.00 2369.38 50.00
10321 64.0200 2482.00 2374.85 50.00
10322 64.0260 2409.00 2380.77 49.00
10323 64.0320 2400.00 2386.38 49.00
10324 64.0380 2444.00 2390.86 49.00
10325 64.0440 2490.00 2393.87 50.00
10326 64.0500 2355.00 2395.72 49.00
10327 64.0560 2414.00 2397.33 49.00
10328 64.0620 2316.00 2399.82 48.00
10329 64.0680 2475.00 2404.70 50.00
10330 64.0740 2552.00 2412.94 51.00
10331 64.0800 2486.00 2425.26 50.00
10332 64.0860 2458.00 2442.01 50.00
10333 64.0920 2530.00 2463.12 50.00
10334 64.0980 2583.00 2488.07 51.00
10335 64.1040 2526.00 2515.74 50.00
10336 64.1100 2518.00 2544.68 50.00
10337 64.1160 2709.00 2573.17 52.00
10338 64.1220 2695.00 2599.64 52.00
10339 64.1280 2823.00 2622.15 53.00
10340 64.1340 2733.00 2639.15 52.00
10341 64.1400 2714.00 2649.32 52.00
10342 64.1460 2736.00 2651.81 52.00
10343 64.1520 2602.00 2646.46 51.00
10344 64.1580 2644.00 2633.63 51.00
10345 64.1640 2690.00 2614.35 52.00
10346 64.1700 2630.00 2590.11 51.00
10347 64.1760 2661.00 2562.22 52.00
10348 64.1820 2495.00 2533.00 50.00
10349 64.1880 2491.00 2504.38 50.00
10350 64.1940 2500.00 2478.87 50.00
10351 64.2000 2464.00 2457.89 50.00
10352 64.2060 2525.00 2442.75 50.00
10353 64.2120 2463.00 2434.37 50.00
10354 64.2180 2480.00 2433.30 50.00
10355 64.2240 2547.00 2439.89 50.00
10356 64.2300 2486.00 2454.11 50.00
10357 64.2360 2522.00 2475.61 50.00
10358 64.2420 2512.00 2503.83 50.00
10359 64.2480 2594.00 2537.73 51.00
10360 64.2540 2677.00 2575.50 52.00
10361 64.2600 2663.00 2615.00 52.00
10362 64.2660 2642.00 2653.30 51.00
10363 64.2720 2700.00 2687.50 52.00
10364 64.2780 2719.00 2715.28 52.00
10365 64.2840 2666.00 2736.16 52.00
10366 64.2900 2666.00 2751.52 52.00
10367 64.2960 2708.00 2764.56 52.00
10368 64.3020 2802.00 2778.32 53.00
10369 64.3080 2837.00 2795.20 53.00
10370 64.3140 2933.00 2816.51 54.00
10371 64.3200 2981.00 2842.23 55.00
10372 64.3260 3105.00 2871.39 56.00
10373 64.3320 3016.00 2902.28 55.00
10374 64.3380 2994.00 2932.27 55.00
10375 64.3440 2975.00 2958.83 55.00
10376 64.3500 2997.00 2978.64 55.00
10377 64.3560 3052.00 2989.74 55.00
10378 64.3620 2977.00 2992.22 55.00
10379 64.3680 2990.00 2987.33 55.00
10380 64.3740 2954.00 2976.88 54.00
10381 64.3800 2922.00 2960.90 54.00
10382 64.3860 2939.00 2938.11 54.00
10383 64.3920 2910.00 2907.18 54.00
10384 64.3980 2875.00 2867.69 54.00
10385 64.4040 2843.00 2821.22 53.00
10386 64.4100 2726.00 2770.40 52.00
10387 64.4160 2708.00 2719.00 52.00
10388 64.4220 2587.00 2669.92 51.00
10389 64.4280 2642.00 2625.01 51.00
10390 64.4340 2574.00 2585.50 51.00
10391 64.4400 2627.00 2551.53 51.00
10392 64.4460 2647.00 2523.45 51.00
10393 64.4520 2605.00 2500.97 51.00
10394 64.4580 2613.00 2483.81 51.00
10395 64.4640 2600.00 2470.84 51.00
10396 64.4700 2566.00 2460.71 51.00
10397 64.4760 2547.00 2451.95 50.00
10398 64.4820 2595.00 2443.70 51.00
10399 64.4880 2586.00 2434.87 51.00
10400 64.4940 2539.00 2425.33 50.00
10401 64.5000 2501.00 2414.80 50.00
10402 64.5060 2463.00 2403.47 50.00
10403 64.5120 2407.00 2391.89 49.00
10404 64.5180 2454.00 2380.73 50.00
10405 64.5240 2488.00 2371.10 50.00
10406 64.5300 2429.00 2362.93 49.00
10407 64.5360 2416.00 2357.00 49.00
10408 64.5420 2472.00 2352.87 50.00
10409 64.5480 2459.00 2350.78 50.00
10410 64.5540 2417.00 2350.83 49.00
10411 64.5600 2429.00 2352.68 49.00
10412 64.5660 2452.00 2356.56 50.00
10413 64.5720 2532.00 2362.02 50.00
10414 64.5780 2505.00 2368.79 50.00
10415 64.5840 2440.00 2376.24 49.00
10416 64.5900 2419.00 2383.61 49.00
10417 64.5960 2463.00 2389.96 50.00
10418 64.6020 2480.00 2394.50 50.00
10419 64.6080 2448.00 2396.44 49.00
10420 64.6140 2424.00 2395.59 49.00
10421 64.6200 2361.00 2392.10 49.00
10422 64.6260 2303.00 2386.56 48.00
10423 64.6320 2381.00 2379.77 49.00
10424 64.6380 2431.00 2373.09 49.00
10425 64.6440 2378.00 2367.38 49.00
10426 64.6500 2369.00 2363.39 49.00
10427 64.6560 2401.00 2361.52 49.00
10428 64.6620 2392.00 2361.93 49.00
10429 64.6680 2415.00 2364.47 49.00
10430 64.6740 2406.00 2368.77 49.00
10431 64.6800 2413.00 2374.38 49.00
10432 64.6860 2454.00 2380.59 50.00
10433 64.6920 2438.00 2387.23 49.00
10434 64.6980 2458.00 2394.45 50.00
10435 64.7040 2471.00 2402.81 50.00
10436 64.7100 2395.00 2412.87 49.00
10437 64.7160 2433.00 2424.96 49.00
10438 64.7220 2525.00 2438.91 50.00
10439 64.7280 2578.00 2453.84 51.00
10440 64.7340 2565.00 2468.69 51.00
10441 64.7400 2554.00 2481.83 51.00
10442 64.7460 2503.00 2491.35 50.00
10443 64.7520 2522.00 2496.24 50.00
10444 64.7580 2541.00 2495.82 50.00
10445 64.7640 2502.00 2490.05 50.00
10446 64.7700 2508.00 2479.29 50.00
10447 64.7760 2495.00 2465.22 50.00
10448 64.7820 2448.00 2448.96 49.00
10449 64.7880 2464.00 2431.93 50.00
10450 64.7940 2473.00 2415.23 50.00
10451 64.8000 2405.00 2399.54 49.00
10452 64.8060 2357.00 2385.36 49.00
10453 64.8120 2386.00 2372.65 49.00
10454 64.8180 2410.00 2361.25 49.00
10455 64.8240 2434.00 2350.94 49.00
10456 64.8300 2458.00 2341.53 50.00
10457 64.8360 2477.00 2333.01 50.00
10458 64.8420 2388.00 2325.43 49.00
10459 64.8480 2343.00 2318.90 48.00
10460 64.8540 2369.00 2313.49 49.00
10461 64.8600 2340.00 2309.32 48.00
10462 64.8660 2349.00 2306.37 48.00
10463 64.8720 2375.00 2305.02 49.00
10464 64.8780 2371.00 2305.20 49.00
10465 64.8840 2361.00 2307.60 49.00
10466 64.8900 2317.00 2312.26 48.00
10467 64.8960 2291.00 2319.61 48.00
10468 64.9020 2388.00 2330.04 49.00
10469 64.9080 2406.00 2344.15 49.00
10470 64.9140 2447.00 2362.41 49.00
10471 64.9200 2470.00 2384.97 50.00
10472 64.9260 2468.00 2412.45 50.00
10473 64.9320 2444.00 2444.48 49.00
10474 64.9380 2489.00 2480.52 50.00
10475 64.9440 2534.00 2519.74 50.00
10476 64.9500 2532.00 2560.14 50.00
10477 64.9560 2494.00 2600.49 50.00
10478 64.9620 2548.00 2637.75 50.00
10479 64.9680 2547.00 2669.49 50.00
10480 64.9740 2567.00 2693.50 51.00
10481 64.9800 2660.00 2709.35 52.00
10482 64.9860 2731.00 2717.12 52.00
10483 64.9920 2730.00 2717.75 52.00
10484 64.9980 2805.00 2712.68 53.00
10485 65.0040 2793.00 2702.28 53.00
10486 65.0100 2724.00 2687.21 52.00
10487 65.0160 2645.00 2668.50 51.00
10488 65.0220 2610.00 2647.17 51.00
10489 65.0280 2581.00 2623.87 51.00
10490 65.0340 2525.00 2598.95 50.00
10491 65.0400 2575.00 2573.49 51.00
10492 65.0460 2552.00 2548.91 51.00
10493 65.0520 2517.00 2527.19 50.00
10494 65.0580 2481.00 2510.42 50.00
10495 65.0640 2558.00 2499.89 51.00
10496 65.0700 2543.00 2496.28 50.00
10497 65.0760 2604.00 2500.20 51.00
10498 65.0820 2586.00 2511.32 51.00
10499 65.0880 2511.00 2528.92 50.00
10500 65.0940 2577.00 2551.95 51.00
10501 65.1000 2539.00 2579.22 50.00
10502 65.1060 2579.00 2609.39 51.00
10503 65.1120 2629.00 2640.29 51.00
10504 65.1180 2689.00 2669.53 52.00
10505 65.1240 2651.00 2693.55 51.00
10506 65.1300 2727.00 2709.49 52.00
10507 65.1360 2749.00 2714.93 52.00
10508 65.1420 2692.00 2709.29 52.00
10509 65.1480 2649.00 2693.20 51.00
10510 65.1540 2594.00 2668.33 51.00
10511 65.1600 2584.00 2636.98 51.00
10512 65.1660 2602.00 2601.77 51.00
10513 65.1720 2537.00 2565.20 50.00
10514 65.1780 2552.00 2529.48 51.00
10515 65.1840 2493.00 2496.45 50.00
10516 65.1900 2474.00 2467.09 50.00
10517 65.1960 2493.00 2441.80 50.00
10518 65.2020 2491.00 2420.24 50.00
10519 65.2080 2390.00 2402.38 49.00
10520 65.2140 2402.00 2387.58 49.00
10521 65.2200 2444.00 2375.71 49.00
10522 65.2260 2400.00 2367.00 49.00
10523 65.2320 2378.00 2361.32 49.00
10524 65.2380 2379.00 2358.64 49.00
10525 65.2440 2424.00 2358.49 49.00
10526 65.2500 2421.00 2360.65 49.00
10527 65.2560 2357.00 2364.76 49.00
10528 65.2620 2366.00 2370.40 49.00
10529 65.2680 2362.00 2377.15 49.00
10530 65.2740 2401.00 2384.50 49.00
10531 65.2800 2444.00 2391.97 49.00
10532 65.2860 2410.00 2399.20 49.00
10533 65.2920 2407.00 2405.96 49.00
10534 65.2980 2431.00 2412.52 49.00
10535 65.3040 2475.00 2418.97 50.00
10536 65.3100 2504.00 2425.71 50.00
10537 65.3160 2522.00 2433.44 50.00
10538 65.3220 2483.00 2442.94 50.00
10539 65.3280 2455.00 2454.86 50.00
10540 65.3340 2471.00 2469.37 50.00
10541 65.3400 2565.00 2485.58 51.00
10542 65.3460 2615.00 2502.59 51.00
10543 65.3520 2569.00 2517.77 51.00
10544 65.3580 2619.00 2528.37 51.00
10545 65.3640 2609.00 2532.17 51.00
10546 65.3700 2561.00 2527.98 51.00
10547 65.3760 2466.00 2515.51 50.00
10548 65.3820 2398.00 2496.06 49.00
10549 65.3880 2422.00 2471.66 49.00
10550 65.3940 2416.00 2444.53 49.00
10551 65.4000 2390.00 2416.60 49.00
10552 65.4060 2368.00 2389.76 49.00
10553 65.4120 2366.00 2365.19 49.00
10554 65.4180 2344.00 2343.59 48.00
10555 65.4240 2398.00 2325.24 49.00
10556 65.4300 2410.00 2310.29 49.00
10557 65.4360 2384.00 2298.46 49.00
10558 65.4420 2349.00 2289.38 48.00
10559 65.4480 2337.00 2282.74 48.00
10560 65.4540 2284.00 2278.05 48.00
10561 65.4600 2283.00 2275.07 48.00
10562 65.4660 2296.00 2273.74 48.00
10563 65.4720 2335.00 2273.54 48.00
10564 65.4780 2328.00 2274.58 48.00
10565 65.4840 2323.00 2277.06 48.00
10566 65.4900 2346.00 2280.90 48.00
10567 65.4960 2388.00 2286.60 49.00
10568 65.5020 2401.00 2294.14 49.00
10569 65.5080 2456.00 2303.72 50.00
10570 65.5140 2481.00 2315.65 50.00
10571 65.5200 2444.00 2329.93 49.00
10572 65.5260 2399.00 2346.50 49.00
10573 65.5320 2369.00 2364.97 49.00
10574 65.5380 2463.00 2384.94 50.00
10575 65.5440 2524.00 2404.92 50.00
10576 65.5500 2514.00 2423.91 50.00
10577 65.5560 2508.00 2440.96 50.00
10578 65.5620 2521.00 2454.57 50.00
10579 65.5680 2501.00 2464.23 50.00
10580 65.5740 2471.00 2469.28 50.00
10581 65.5800 2522.00 2470.10 50.00
10582 65.5860 2527.00 2466.74 50.00
10583 65.5920 2457.00 2460.38 50.00
10584 65.5980 2527.00 2453.03 50.00
10585 65.6040 2492.00 2445.98 50.00
10586 65.6100 2470.00 2440.75 50.00
10587 65.6160 2475.00 2438.84 50.00
10588 65.6220 2403.00 2440.46 49.00
10589 65.6280 2491.00 2445.68 50.00
10590 65.6340 2456.00 2454.17 50.00
10591 65.6400 2479.00 2464.98 50.00
10592 65.6460 2564.00 2477.81 51.00
10593 65.6520 2585.00 2490.89 51.00
10594 65.6580 2573.00 2503.26 51.00
10595 65.6640 2551.00 2514.07 51.00
10596 65.6700 2538.00 2523.21 50.00
10597 65.6760 2485.00 2530.72 50.00
10598 65.6820 2429.00 2537.98 49.00
10599 65.6880 2420.00 2546.57 49.00
10600 65.6940 2528.00 2557.79 50.00
10601 65.7000 2581.00 2572.16 51.00
10602 65.7060 2577.00 2589.52 51.00
10603 65.7120 2720.00 2608.22 52.00
10604 65.7180 2770.00 2625.73 53.00
10605 65.7240 2761.00 2638.88 53.00
10606 65.7300 2766.00 2644.68 53.00
10607 65.7360 2678.00 2641.46 52.00
10608 65.7420 2584.00 2629.19 51.00
10609 65.7480 2607.00 2609.11 51.00
10610 65.7540 2571.00 2583.66 51.00
10611 65.7600 2557.00 2554.99 51.00
10612 65.7660 2489.00 2525.79 50.00
10613 65.7720 2460.00 2498.04 50.00
10614 65.7780 2497.00 2473.76 50.00
10615 65.7840 2426.00 2454.01 49.00
10616 65.7900 2544.00 2439.27 50.00
10617 65.7960 2501.00 2429.49 50.00
10618 65.8020 2458.00 2424.02 50.00
10619 65.8080 2510.00 2421.73 50.00
10620 65.8140 2493.00 2421.28 50.00
10621 65.8200 2442.00 2421.56 49.00
10622 65.8260 2444.00 2421.59 49.00
10623 65.8320 2507.00 2420.78 50.00
10624 65.8380 2415.00 2418.76 49.00
10625 65.8440 2441.00 2415.10 49.00
10626 65.8500 2423.00 2409.64 49.00
10627 65.8560 2390.00 2402.71 49.00
10628 65.8620 2487.00 2395.07 50.00
10629 65.8680 2379.00 2388.09 49.00
10630 65.8740 2348.00 2383.24 48.00
10631 65.8800 2463.00 2381.96 50.00
10632 65.8860 2457.00 2385.58 50.00
10633 65.8920 2376.00 2395.15 49.00
10634 65.8980 2429.00 2411.81 49.00
10635 65.9040 2348.00 2436.07 48.00
10636 65.9100 2390.00 2468.29 49.00
10637 65.9160 2504.00 2508.09 50.00
10638 65.9220 2546.00 2554.78 50.00
10639 65.9280 2641.00 2606.38 51.00
10640 65.9340 2750.00 2660.16 52.00
10641 65.9400 2853.00 2712.49 53.00
10642 65.9460 2966.00 2758.81 54.00
10643 65.9520 2910.00 2794.83 54.00
10644 65.9580 2856.00 2816.45 53.00
10645 65.9640 2877.00 2821.85 54.00
10646 65.9700 2693.00 2810.84 52.00
10647 65.9760 2712.00 2785.47 52.00
10648 65.9820 2644.00 2749.02 51.00
10649 65.9880 2631.00 2705.17 51.00
10650 65.9940 2493.00 2658.15 50.00
10651 66.0000 2515.00 2612.32 50.00
10652 66.0060 2438.00 2570.78 49.00
10653 66.0120 2570.00 2535.76 51.00
10654 66.0180 2470.00 2508.63 50.00
10655 66.0240 2455.00 2489.88 50.00
10656 66.0300 2401.00 2479.61 49.00
10657 66.0360 2514.00 2477.51 50.00
10658 66.0420 2460.00 2483.14 50.00
10659 66.0480 2630.00 2495.66 51.00
10660 66.0540 2661.00 2514.02 52.00
10661 66.0600 2590.00 2536.82 51.00
10662 66.0660 2620.00 2562.16 51.00
10663 66.0720 2642.00 2588.23 51.00
10664 66.0780 2576.00 2613.26 51.00
10665 66.0840 2648.00 2635.91 51.00
10666 66.0900 2721.00 2655.39 52.00
10667 66.0960 2685.00 2671.21 52.00
10668 66.1020 2672.00 2683.14 52.00
10669 66.1080 2688.00 2691.18 52.00
10670 66.1140 2638.00 2696.04 51.00
10671 66.1200 2704.00 2699.06 52.00
10672 66.1260 2718.00 2702.00 52.00
10673 66.1320 2710.00 2706.51 52.00
10674 66.1380 2717.00 2713.52 52.00
10675 66.1440 2731.00 2722.91 52.00
10676 66.1500 2790.00 2733.52 53.00
10677 66.1560 2788.00 2743.54 53.00
10678 66.1620 2833.00 2751.19 53.00
10679 66.1680 2833.00 2755.11 53.00
10680 66.1740 2775.00 2755.09 53.00
10681 66.1800 2656.00 2751.09 52.00
10682 66.1860 2713.00 2743.26 52.00
10683 66.1920 2641.00 2731.82 51.00
10684 66.1980 2673.00 2716.42 52.00
10685 66.2040 2559.00 2697.17 51.00
10686 66.2100 2576.00 2674.41 51.00
10687 66.2160 2642.00 2649.24 51.00
10688 66.2220 2642.00 2623.61 51.00
10689 66.2280 2622.00 2599.71 51.00
10690 66.2340 2638.00 2579.49 51.00
10691 66.2400 2608.00 2564.01 51.00
10692 66.2460 2623.00 2553.42 51.00
10693 66.2520 2625.00 2547.09 51.00
10694 66.2580 2580.00 2543.19 51.00
10695 66.2640 2608.00 2539.99 51.00
10696 66.2700 2526.00 2535.47 50.00
10697 66.2760 2526.00 2527.81 50.00
10698 66.2820 2460.00 2516.14 50.00
10699 66.2880 2547.00 2499.43 50.00
10700 66.2940 2520.00 2478.26 50.00
10701 66.3000 2451.00 2453.78 50.00
10702 66.3060 2437.00 2427.78 49.00
10703 66.3120 2434.00 2402.05 49.00
10704 66.3180 2360.00 2377.76 49.00
10705 66.3240 2372.00 2356.00 49.00
10706 66.3300 2378.00 2337.28 49.00
10707 66.3360 2416.00 2321.84 49.00
10708 66.3420 2349.00 2309.31 48.00
10709 66.3480 2399.00 2299.98 49.00
10710 66.3540 2346.00 2293.31 48.00
10711 66.3600 2313.00 2288.68 48.00
10712 66.3660 2330.00 2285.64 48.00
10713 66.3720 2249.00 2283.56 47.00
10714 66.3780 2285.00 2282.21 48.00
10715 66.3840 2276.00 2281.30 48.00
10716 66.3900 2283.00 2280.91 48.00
10717 66.3960 2290.00 2280.73 48.00
10718 66.4020 2309.00 2280.99 48.00
10719 66.4080 2287.00 2281.67 48.00
10720 66.4140 2387.00 2282.79 49.00
10721 66.4200 2348.00 2284.10 48.00
10722 66.4260 2350.00 2285.59 48.00
10723 66.4320 2302.00 2287.30 48.00
10724 66.4380 2349.00 2289.05 48.00
10725 66.4440 2342.00 2290.83 48.00
10726 66.4500 2304.00 2292.54 48.00
10727 66.4560 2355.00 2294.14 49.00
10728 66.4620 2444.00 2295.48 49.00
10729 66.4680 2423.00 2296.69 49.00
10730 66.4740 2333.00 2298.23 48.00
10731 66.4800 2287.00 2300.35 48.00
10732 66.4860 2332.00 2303.46 48.00
10733 66.4920 2315.00 2307.96 48.00
10734 66.4980 2279.00 2314.21 48.00
10735 66.5040 2360.00 2322.36 49.00
10736 66.5100 2410.00 2332.41 49.00
10737 66.5160 2395.00 2344.00 49.00
10738 66.5220 2456.00 2356.70 50.00
10739 66.5280 2341.00 2369.36 48.00
10740 66.5340 2349.00 2381.11 48.00
10741 66.5400 2340.00 2391.03 48.00
10742 66.5460 2429.00 2398.50 49.00
10743 66.5520 2336.00 2403.51 48.00
10744 66.5580 2449.00 2406.03 49.00
10745 66.5640 2458.00 2406.66 50.00
10746 66.5700 2508.00 2405.13 50.00
10747 66.5760 2509.00 2402.40 50.00
10748 66.5820 2393.00 2397.81 49.00
10749 66.5880 2406.00 2392.15 49.00
10750 66.5940 2494.00 2385.32 50.00
10751 66.6000 2458.00 2377.61 50.00
10752 66.6060 2480.00 2369.56 50.00
10753 66.6120 2445.00 2361.19 49.00
10754 66.6180 2455.00 2353.35 50.00
10755 66.6240 2504.00 2346.83 50.00
10756 66.6300 2417.00 2342.36 49.00
10757 66.6360 2300.00 2340.46 48.00
10758 66.6420 2312.00 2341.06 48.00
10759 66.6480 2386.00 2344.27 49.00
10760 66.6540 2327.00 2349.35 48.00
10761 66.6600 2353.00 2355.56 49.00
10762 66.6660 2402.00 2361.87 49.00
10763 66.6720 2432.00 2367.42 49.00
10764 66.6780 2362.00 2371.27 49.00
10765 66.6840 2384.00 2372.62 49.00
10766 66.6900 2373.00 2371.18 49.00
10767 66.6960 2358.00 2366.77 49.00
10768 66.7020 2345.00 2360.19 48.00
10769 66.7080 2418.00 2351.95 49.00
10770 66.7140 2450.00 2342.28 49.00
10771 66.7200 2452.00 2331.97 50.00
10772 66.7260 2379.00 2320.89 49.00
10773 66.7320 2316.00 2309.74 48.00
10774 66.7380 2287.00 2299.00 48.00
10775 66.7440 2322.00 2288.92 48.00
10776 66.7500 2256.00 2279.97 47.00
10777 66.7560 2257.00 2272.32 48.00
10778 66.7620 2213.00 2266.09 47.00
10779 66.7680 2252.00 2261.46 47.00
10780 66.7740 2346.00 2257.99 48.00
10781 66.7800 2308.00 2256.40 48.00
10782 66.7860 2290.00 2256.34 48.00
10783 66.7920 2272.00 2258.12 48.00
10784 66.7980 2248.00 2261.62 47.00
10785 66.8040 2346.00 2266.68 48.00
10786 66.8100 2364.00 2273.53 49.00
10787 66.8160 2367.00 2282.14 49.00
10788 66.8220 2365.00 2292.53 49.00
10789 66.8280 2411.00 2304.61 49.00
10790 66.8340 2417.00 2317.86 49.00
10791 66.8400 2365.00 2332.41 49.00
10792 66.8460 2403.00 2347.47 49.00
10793 66.8520 2401.00 2362.36 49.00
10794 66.8580 2429.00 2376.53 49.00
10795 66.8640 2412.00 2389.52 49.00
10796 66.8700 2444.00 2401.16 49.00
10797 66.8760 2520.00 2411.48 50.00
10798 66.8820 2483.00 2420.45 50.00
10799 66.8880 2533.00 2428.48 50.00
10800 66.8940 2514.00 2435.34 50.00
10801 66.9000 2479.00 2440.76 50.00
10802 66.9060 2490.00 2444.03 50.00
10803 66.9120 2442.00 2445.12 49.00
10804 66.9180 2529.00 2443.72 50.00
10805 66.9240 2503.00 2440.06 50.00
10806 66.9300 2457.00 2434.70 50.00
10807 66.9360 2473.00 2428.44 50.00
10808 66.9420 2466.00 2421.85 50.00
10809 66.9480 2503.00 2415.95 50.00
10810 66.9540 2417.00 2411.43 49.00
10811 66.9600 2436.00 2408.75 49.00
10812 66.9660 2447.00 2408.16 49.00
10813 66.9720 2488.00 2409.35 50.00
10814 66.9780 2421.00 2412.39 49.00
10815 66.9840 2411.00 2417.37 49.00
10816 66.9900 2429.00 2424.40 49.00
10817 66.9960 2454.00 2433.44 50.00
10818 67.0020 2496.00 2444.14 50.00
10819 67.0080 2473.00 2455.70 50.00
10820 67.0140 2443.00 2467.01 49.00
10821 67.0200 2435.00 2477.09 49.00
10822 67.0260 2472.00 2485.22 50.00
10823 67.0320 2504.00 2491.00 50.00
10824 67.0380 2458.00 2494.22 50.00
10825 67.0440 2483.00 2494.54 50.00
10826 67.0500 2502.00 2491.68 50.00
10827 67.0560 2464.00 2485.40 50.00
10828 67.0620 2401.00 2475.81 49.00
10829 67.0680 2453.00 2463.56 50.00
10830 67.0740 2410.00 2449.43 49.00
10831 67.0800 2408.00 2434.48 49.00
10832 67.0860 2398.00 2419.63 49.00
10833 67.0920 2354.00 2405.71 49.00
10834 67.0980 2407.00 2393.69 49.00
10835 67.1040 2413.00 2384.29 49.00
10836 67.1100 2350.00 2378.14 48.00
10837 67.1160 2352.00 2375.60 48.00
10838 67.1220 2381.00 2376.72 49.00
10839 67.1280 2381.00 2381.29 49.00
10840 67.1340 2396.00 2388.86 49.00
10841 67.1400 2470.00 2398.84 50.00
10842 67.1460 2460.00 2410.19 50.00
10843 67.1520 2457.00 2422.24 50.00
10844 67.1580 2529.00 2434.40 50.00
10845 67.1640 2546.00 2446.50 50.00
10846 67.1700 2513.00 2458.14 50.00
10847 67.1760 2554.00 2469.31 51.00
10848 67.1820 2613.00 2479.70 51.00
10849 67.1880 2525.00 2489.28 50.00
10850 67.1940 2490.00 2498.15 50.00
10851 67.2000 2482.00 2506.48 50.00
10852 67.2060 2498.00 2514.86 50.00
10853 67.2120 2521.00 2523.77 50.00
10854 67.2180 2549.00 2534.03 50.00
10855 67.2240 2543.00 2545.88 50.00
10856 67.2300 2567.00 2559.75 51.00
10857 67.2360 2568.00 2576.04 51.00
10858 67.2420 2616.00 2594.58 51.00
10859 67.2480 2695.00 2615.28 52.00
10860 67.2540 2719.00 2636.87 52.00
10861 67.2600 2729.00 2657.94 52.00
10862 67.2660 2772.00 2676.15 53.00
10863 67.2720 2714.00 2688.98 52.00
10864 67.2780 2664.00 2694.12 52.00
10865 67.2840 2729.00 2690.29 52.00
10866 67.2900 2691.00 2677.72 52.00
10867 67.2960 2653.00 2658.30 52.00
10868 67.3020 2666.00 2634.67 52.00
10869 67.3080 2608.00 2609.60 51.00
10870 67.3140 2575.00 2585.50 51.00
10871 67.3200 2565.00 2563.68 51.00
10872 67.3260 2560.00 2544.73 51.00
10873 67.3320 2617.00 2528.32 51.00
10874 67.3380 2512.00 2513.93 50.00
10875 67.3440 2473.00 2500.63 50.00
10876 67.3500 2532.00 2488.04 50.00
10877 67.3560 2492.00 2476.44 50.00
10878 67.3620 2506.00 2466.35 50.00
10879 67.3680 2526.00 2458.39 50.00
10880 67.3740 2484.00 2453.01 50.00
10881 67.3800 2441.00 2450.39 49.00
10882 67.3860 2491.00 2450.23 50.00
10883 67.3920 2528.00 2452.23 50.00
10884 67.3980 2489.00 2455.11 50.00
10885 67.4040 2535.00 2458.46 50.00
10886 67.4100 2514.00 2461.79 50.00
10887 67.4160 2507.00 2464.25 50.00
10888 67.4220 2520.00 2465.46 50.00
10889 67.4280 2505.00 2464.79 50.00
10890 67.4340 2501.00 2461.75 50.00
10891 67.4400 2480.00 2456.17 50.00
10892 67.4460 2493.00 2448.39 50.00
10893 67.4520 2447.00 2439.46 49.00
10894 67.4580 2453.00 2429.95 50.00
10895 67.4640 2456.00 2421.22 50.00
10896 67.4700 2430.00 2414.48 49.00
10897 67.4760 2476.00 2409.67 50.00
10898 67.4820 2461.00 2407.35 50.00
10899 67.4880 2429.00 2407.60 49.00
10900 67.4940 2482.00 2410.10 50.00
10901 67.5000 2517.00 2414.29 50.00
10902 67.5060 2530.00 2419.49 50.00
10903 67.5120 2488.00 2424.87 50.00
10904 67.5180 2460.00 2430.02 50.00
10905 67.5240 2475.00 2434.14 50.00
10906 67.5300 2489.00 2437.39 50.00
10907 67.5360 2429.00 2439.71 49.00
10908 67.5420 2364.00 2441.18 49.00
10909 67.5480 2421.00 2442.10 49.00
10910 67.5540 2438.00 2442.15 49.00
10911 67.5600 2367.00 2441.16 49.00
10912 67.5660 2383.00 2439.11 49.00
10913 67.5720 2394.00 2435.51 49.00
10914 67.5780 2390.00 2430.57 49.00
10915 67.5840 2423.00 2424.57 49.00
10916 67.5900 2470.00 2417.17 50.00
10917 67.5960 2397.00 2408.74 49.00
10918 67.6020 2347.00 2398.70 48.00
10919 67.6080 2403.00 2387.71 49.00
10920 67.6140 2372.00 2376.24 49.00
10921 67.6200 2332.00 2365.08 48.00
10922 67.6260 2322.00 2354.76 48.00
10923 67.6320 2317.00 2345.92 48.00
10924 67.6380 2319.00 2338.95 48.00
10925 67.6440 2358.00 2334.14 49.00
10926 67.6500 2336.00 2331.31 48.00
10927 67.6560 2262.00 2330.87 48.00
10928 67.6620 2275.00 2332.64 48.00
10929 67.6680 2302.00 2336.30 48.00
10930 67.6740 2393.00 2341.83 49.00
10931 67.6800 2426.00 2348.81 49.00
10932 67.6860 2412.00 2356.62 49.00
10933 67.6920 2378.00 2365.02 49.00
10934 67.6980 2324.00 2373.11 48.00
10935 67.7040 2316.00 2380.23 48.00
10936 67.7100 2310.00 2385.84 48.00
10937 67.7160 2303.00 2389.78 48.00
10938 67.7220 2328.00 2392.27 48.00
10939 67.7280 2332.00 2393.73 48.00
10940 67.7340 2334.00 2394.68 48.00
10941 67.7400 2309.00 2395.53 48.00
10942 67.7460 2342.00 2396.52 48.00
10943 67.7520 2352.00 2397.67 48.00
10944 67.7580 2389.00 2398.85 49.00
10945 67.7640 2386.00 2399.55 49.00
10946 67.7700 2375.00 2399.44 49.00
10947 67.7760 2439.00 2398.32 49.00
10948 67.7820 2418.00 2396.30 49.00
10949 67.7880 2405.00 2394.20 49.00
10950 67.7940 2359.00 2392.99 49.00
10951 67.8000 2309.00 2393.26 48.00
10952 67.8060 2326.00 2395.91 48.00
10953 67.8120 2341.00 2401.40 48.00
10954 67.8180 2333.00 2410.21 48.00
10955 67.8240 2369.00 2422.00 49.00
10956 67.8300 2425.00 2436.42 49.00
10957 67.8360 2487.00 2452.53 50.00
10958 67.8420 2464.00 2469.47 50.00
10959 67.8480 2427.00 2485.67 49.00
10960 67.8540 2510.00 2499.59 50.00
10961 67.8600 2490.00 2509.90 50.00
10962 67.8660 2485.00 2515.44 50.00
10963 67.8720 2447.00 2515.98 49.00
10964 67.8780 2319.00 2511.28 48.00
10965 67.8840 2369.00 2501.72 49.00
10966 67.8900 2416.00 2488.34 49.00
10967 67.8960 2358.00 2472.43 49.00
10968 67.9020 2346.00 2455.99 48.00
10969 67.9080 2323.00 2440.52 48.00
10970 67.9140 2327.00 2426.93 48.00
10971 67.9200 2339.00 2416.82 48.00
10972 67.9260 2315.00 2410.08 48.00
10973 67.9320 2318.00 2407.60 48.00
10974 67.9380 2372.00 2409.34 49.00
10975 67.9440 2384.00 2414.94 49.00
10976 67.9500 2425.00 2424.10 49.00
10977 67.9560 2437.00 2436.31 49.00
10978 67.9620 2424.00 2450.68 49.00
10979 67.9680 2421.00 2466.57 49.00
10980 67.9740 2438.00 2483.06 49.00
10981 67.9800 2488.00 2500.09 50.00
10982 67.9860 2500.00 2517.54 50.00
10983 67.9920 2531.00 2536.19 50.00
10984 67.9980 2549.00 2556.61 50.00
10985 68.0040 2634.00 2579.17 51.00
10986 68.0100 2582.00 2603.80 51.00
10987 68.0160 2573.00 2629.71 51.00
10988 68.0220 2579.00 2655.55 51.00
10989 68.0280 2631.00 2679.65 51.00
10990 68.0340 2650.00 2700.49 51.00
10991 68.0400 2716.00 2717.48 52.00
10992 68.0460 2634.00 2730.65 51.00
10993 68.0520 2590.00 2740.99 51.00
10994 68.0580 2681.00 2750.04 52.00
10995 68.0640 2731.00 2759.47 52.00
10996 68.0700 2736.00 2770.75 52.00
10997 68.0760 2689.00 2784.24 52.00
10998 68.0820 2761.00 2799.37 53.00
10999 68.0880 2861.00 2815.03 53.00
11000 68.0940 2842.00 2829.61 53.00
11001 68.1000 2824.00 2841.77 53.00
11002 68.1060 2848.00 2850.81 53.00
11003 68.1120 2822.00 2856.83 53.00
11004 68.1180 2795.00 2860.78 53.00
11005 68.1240 2826.00 2864.22 53.00
11006 68.1300 2886.00 2868.62 54.00
11007 68.1360 2870.00 2874.86 54.00
11008 68.1420 2840.00 2882.92 53.00
11009 68.1480 2952.00 2891.78 54.00
11010 68.1540 2935.00 2900.09 54.00
11011 68.1600 2884.00 2906.16 54.00
11012 68.1660 2912.00 2909.11 54.00
11013 68.1720 2873.00 2908.80 54.00
11014 68.1780 2842.00 2905.60 53.00
11015 68.1840 2770.00 2900.42 53.00
11016 68.1900 2779.00 2893.95 53.00
11017 68.1960 2833.00 2886.70 53.00
11018 68.2020 2867.00 2878.75 54.00
11019 68.2080 2869.00 2869.65 54.00
11020 68.2140 2954.00 2858.66 54.00
11021 68.2200 2822.00 2844.79 53.00
11022 68.2260 2776.00 2826.93 53.00
11023 68.2320 2784.00 2804.17 53.00
11024 68.2380 2662.00 2776.17 52.00
11025 68.2440 2686.00 2743.71 52.00
11026 68.2500 2630.00 2708.10 51.00
11027 68.2560 2562.00 2671.03 51.00
11028 68.2620 2502.00 2633.69 50.00
11029 68.2680 2455.00 2597.74 50.00
11030 68.2740 2487.00 2563.83 50.00
11031 68.2800 2438.00 2532.75 49.00
11032 68.2860 2462.00 2504.88 50.00
11033 68.2920 2402.00 2480.06 49.00
11034 68.2980 2424.00 2458.27 49.00
11035 68.3040 2427.00 2439.22 49.00
11036 68.3100 2415.00 2422.71 49.00
11037 68.3160 2391.00 2408.51 49.00
11038 68.3220 2430.00 2396.68 49.00
11039 68.3280 2407.00 2387.09 49.00
11040 68.3340 2346.00 2379.51 48.00
11041 68.3400 2362.00 2373.88 49.00
11042 68.3460 2476.00 2369.87 50.00
11043 68.3520 2389.00 2367.45 49.00
11044 68.3580 2316.00 2366.12 48.00
11045 68.3640 2336.00 2366.04 48.00
11046 68.3700 2423.00 2367.24 49.00
11047 68.3760 2394.00 2369.89 49.00
11048 68.3820 2344.00 2374.12 48.00
11049 68.3880 2313.00 2379.85 48.00
11050 68.3940 2333.00 2386.83 48.00
11051 68.4000 2415.00 2394.71 49.00
11052 68.4060 2408.00 2402.89 49.00
11053 68.4120 2466.00 2410.86 50.00
11054 68.4180 2465.00 2418.16 50.00
11055 68.4240 2396.00 2424.15 49.00
11056 68.4300 2360.00 2428.13 49.00
11057 68.4360 2368.00 2429.04 49.00
11058 68.4420 2435.00 2426.60 49.00
11059 68.4480 2414.00 2420.72 49.00
11060 68.4540 2472.00 2411.87 50.00
11061 68.4600 2489.00 2400.90 50.00
11062 68.4660 2439.00 2388.27 49.00
11063 68.4720 2420.00 2374.98 49.00
11064 68.4780 2330.00 2361.87 48.00
11065 68.4840 2313.00 2349.74 48.00
11066 68.4900 2296.00 2339.00 48.00
11067 68.4960 2288.00 2329.95 48.00
11068 68.5020 2292.00 2323.14 48.00
11069 68.5080 2338.00 2318.44 48.00
11070 68.5140 2251.00 2315.74 47.00
11071 68.5200 2234.00 2314.95 47.00
11072 68.5260 2301.00 2315.58 48.00
11073 68.5320 2355.00 2317.67 49.00
11074 68.5380 2277.00 2320.82 48.00
11075 68.5440 2293.00 2324.79 48.00
11076 68.5500 2380.00 2329.57 49.00
11077 68.5560 2340.00 2334.86 48.00
11078 68.5620 2397.00 2340.22 49.00
11079 68.5680 2351.00 2345.34 48.00
11080 68.5740 2313.00 2349.62 48.00
11081 68.5800 2371.00 2352.46 49.00
11082 68.5860 2290.00 2353.36 48.00
11083 68.5920 2313.00 2352.12 48.00
11084 68.5980 2328.00 2348.81 48.00
11085 68.6040 2312.00 2343.77 48.00
11086 68.6100 2214.00 2337.50 47.00
11087 68.6160 2338.00 2330.50 48.00
11088 68.6220 2348.00 2323.54 48.00
11089 68.6280 2313.00 2316.95 48.00
11090 68.6340 2302.00 2311.20 48.00
11091 68.6400 2295.00 2306.24 48.00
11092 68.6460 2277.00 2302.15 48.00
11093 68.6520 2160.00 2298.92 46.00
11094 68.6580 2272.00 2296.18 48.00
11095 68.6640 2286.00 2293.78 48.00
11096 68.6700 2228.00 2291.60 47.00
11097 68.6760 2206.00 2289.06 47.00
11098 68.6820 2262.00 2286.73 48.00
11099 68.6880 2238.00 2284.34 47.00
11100 68.6940 2280.00 2282.05 48.00
11101 68.7000 2238.00 2280.22 47.00
11102 68.7060 2267.00 2278.98 48.00
11103 68.7120 2289.00 2278.69 48.00
11104 68.7180 2286.00 2279.36 48.00
11105 68.7240 2282.00 2281.35 48.00
11106 68.7300 2223.00 2284.90 47.00
11107 68.7360 2351.00 2289.91 48.00
11108 68.7420 2234.00 2297.07 47.00
11109 68.7480 2316.00 2306.23 48.00
11110 68.7540 2282.00 2317.05 48.00
11111 68.7600 2398.00 2330.13 49.00
11112 68.7660 2318.00 2344.83 48.00
11113 68.7720 2330.00 2360.69 48.00
11114 68.7780 2356.00 2377.04 49.00
11115 68.7840 2406.00 2393.01 49.00
11116 68.7900 2429.00 2407.61 49.00
11117 68.7960 2400.00 2419.80 49.00
11118 68.8020 2439.00 2428.70 49.00
11119 68.8080 2377.00 2434.70 49.00
11120 68.8140 2274.00 2438.08 48.00
11121 68.8200 2391.00 2439.79 49.00
11122 68.8260 2461.00 2440.31 50.00
11123 68.8320 2468.00 2440.30 50.00
11124 68.8380 2476.00 2439.62 50.00
11125 68.8440 2336.00 2438.26 48.00
11126 68.8500 2454.00 2436.06 50.00
11127 68.8560 2430.00 2433.10 49.00
11128 68.8620 2424.00 2430.40 49.00
11129 68.8680 2366.00 2428.70 49.00
11130 68.8740 2459.00 2428.75 50.00
11131 68.8800 2387.00 2431.20 49.00
11132 68.8860 2388.00 2435.93 49.00
11133 68.8920 2346.00 2443.10 48.00
11134 68.8980 2408.00 2451.84 49.00
11135 68.9040 2458.00 2461.16 50.00
11136 68.9100 2502.00 2470.38 50.00
11137 68.9160 2494.00 2478.49 50.00
11138 68.9220 2463.00 2485.17 50.00
11139 68.9280 2394.00 2490.21 49.00
11140 68.9340 2396.00 2493.81 49.00
11141 68.9400 2450.00 2496.11 49.00
11142 68.9460 2403.00 2497.43 49.00
11143 68.9520 2482.00 2497.83 50.00
11144 68.9580 2444.00 2497.59 49.00
11145 68.9640 2534.00 2496.40 50.00
11146 68.9700 2428.00 2493.63 49.00
11147 68.9760 2440.00 2488.67 49.00
11148 68.9820 2538.00 2481.22 50.00
11149 68.9880 2562.00 2471.49 51.00
11150 68.9940 2486.00 2460.05 50.00
11151 69.0000 2492.00 2447.86 50.00
11152 69.0060 2458.00 2435.41 50.00
11153 69.0120 2350.00 2423.68 48.00
11154 69.0180 2348.00 2413.50 48.00
11155 69.0240 2305.00 2405.59 48.00
11156 69.0300 2341.00 2400.64 48.00
11157 69.0360 2342.00 2399.05 48.00
11158 69.0420 2401.00 2400.89 49.00
11159 69.0480 2321.00 2405.97 48.00
11160 69.0540 2361.00 2413.83 49.00
11161 69.0600 2329.00 2423.96 48.00
11162 69.0660 2365.00 2435.59 49.00
11163 69.0720 2443.00 2447.81 49.00
11164 69.0780 2395.00 2459.62 49.00
11165 69.0840 2369.00 2469.90 49.00
11166 69.0900 2477.00 2478.02 50.00
11167 69.0960 2430.00 2483.49 49.00
11168 69.1020 2472.00 2486.07 50.00
11169 69.1080 2396.00 2485.48 49.00
11170 69.1140 2395.00 2481.71 49.00
11171 69.1200 2471.00 2475.08 50.00
11172 69.1260 2440.00 2465.99 49.00
11173 69.1320 2456.00 2455.11 50.00
11174 69.1380 2424.00 2443.44 49.00
11175 69.1440 2396.00 2431.87 49.00
11176 69.1500 2334.00 2421.56 48.00
11177 69.1560 2436.00 2413.55 49.00
11178 69.1620 2400.00 2408.36 49.00
11179 69.1680 2314.00 2406.33 48.00
11180 69.1740 2402.00 2407.47 49.00
11181 69.1800 2448.00 2410.98 49.00
11182 69.1860 2461.00 2416.02 50.00
11183 69.1920 2410.00 2421.45 49.00
11184 69.1980 2359.00 2425.58 49.00
11185 69.2040 2356.00 2427.03 49.00
11186 69.2100 2404.00 2424.85 49.00
11187 69.2160 2373.00 2418.98 49.00
11188 69.2220 2334.00 2410.23 48.00
11189 69.2280 2353.00 2399.96 49.00
11190 69.2340 2273.00 2389.56 48.00
11191 69.2400 2380.00 2380.54 49.00
11192 69.2460 2402.00 2373.82 49.00
11193 69.2520 2308.00 2370.00 48.00
11194 69.2580 2179.00 2369.57 47.00
11195 69.2640 2296.00 2372.52 48.00
11196 69.2700 2274.00 2378.70 48.00
11197 69.2760 2320.00 2387.32 48.00
11198 69.2820 2380.00 2397.62 49.00
11199 69.2880 2416.00 2408.71 49.00
11200 69.2940 2397.00 2419.70 49.00
11201 69.3000 2456.00 2429.90 50.00
11202 69.3060 2376.00 2438.84 49.00
11203 69.3120 2407.00 2446.03 49.00
11204 69.3180 2394.00 2451.42 49.00
11205 69.3240 2410.00 2454.93 49.00
11206 69.3300 2368.00 2456.74 49.00
11207 69.3360 2428.00 2456.69 49.00
11208 69.3420 2455.00 2455.05 50.00
11209 69.3480 2482.00 2451.91 50.00
11210 69.3540 2414.00 2447.36 49.00
11211 69.3600 2454.00 2441.54 50.00
11212 69.3660 2432.00 2434.84 49.00
11213 69.3720 2359.00 2427.32 49.00
11214 69.3780 2320.00 2419.77 48.00
11215 69.3840 2362.00 2412.64 49.00
11216 69.3900 2447.00 2406.31 49.00
11217 69.3960 2348.00 2401.03 48.00
11218 69.4020 2387.00 2397.09 49.00
11219 69.4080 2244.00 2393.94 47.00
11220 69.4140 2405.00 2391.24 49.00
11221 69.4200 2337.00 2388.63 48.00
11222 69.4260 2402.00 2385.18 49.00
11223 69.4320 2390.00 2380.91 49.00
11224 69.4380 2354.00 2375.97 49.00
11225 69.4440 2280.00 2370.75 48.00
11226 69.4500 2387.00 2365.88 49.00
11227 69.4560 2357.00 2361.77 49.00
11228 69.4620 2316.00 2359.42 48.00
11229 69.4680 2351.00 2359.11 48.00
11230 69.4740 2233.00 2361.19 47.00
11231 69.4800 2342.00 2365.81 48.00
11232 69.4860 2350.00 2372.89 48.00
11233 69.4920 2312.00 2382.06 48.00
11234 69.4980 2420.00 2392.78 49.00
11235 69.5040 2507.00 2403.98 50.00
11236 69.5100 2438.00 2415.15 49.00
11237 69.5160 2457.00 2425.06 50.00
11238 69.5220 2459.00 2432.74 50.00
11239 69.5280 2504.00 2437.35 50.00
11240 69.5340 2459.00 2438.55 50.00
11241 69.5400 2435.00 2436.40 49.00
11242 69.5460 2453.00 2431.63 50.00
11243 69.5520 2382.00 2425.11 49.00
11244 69.5580 2411.00 2417.72 49.00
11245 69.5640 2344.00 2409.94 48.00
11246 69.5700 2414.00 2402.37 49.00
11247 69.5760 2372.00 2395.38 49.00
11248 69.5820 2383.00 2389.23 49.00
11249 69.5880 2323.00 2384.15 48.00
11250 69.5940 2349.00 2380.07 48.00
11251 69.6000 2334.00 2377.12 48.00
11252 69.6060 2413.00 2374.93 49.00
11253 69.6120 2312.00 2373.30 48.00
11254 69.6180 2324.00 2372.09 48.00
11255 69.6240 2293.00 2371.20 48.00
11256 69.6300 2296.00 2370.44 48.00
11257 69.6360 2457.00 2369.66 50.00
11258 69.6420 2346.00 2368.74 48.00
11259 69.6480 2357.00 2367.10 49.00
11260 69.6540 2481.00 2364.25 50.00
11261 69.6600 2389.00 2359.84 49.00
11262 69.6660 2357.00 2353.85 49.00
11263 69.6720 2299.00 2346.48 48.00
11264 69.6780 2332.00 2338.18 48.00
11265 69.6840 2328.00 2329.66 48.00
11266 69.6900 2430.00 2321.38 49.00
11267 69.6960 2335.00 2313.94 48.00
11268 69.7020 2393.00 2307.76 49.00
11269 69.7080 2371.00 2303.00 49.00
11270 69.7140 2386.00 2299.74 49.00
11271 69.7200 2257.00 2298.07 48.00
11272 69.7260 2265.00 2298.03 48.00
11273 69.7320 2320.00 2299.60 48.00
11274 69.7380 2270.00 2302.83 48.00
11275 69.7440 2304.00 2307.35 48.00
11276 69.7500 2319.00 2313.26 48.00
11277 69.7560 2325.00 2320.12 48.00
11278 69.7620 2367.00 2327.78 49.00
11279 69.7680 2383.00 2336.08 49.00
11280 69.7740 2387.00 2344.88 49.00
11281 69.7800 2420.00 2354.48 49.00
11282 69.7860 2313.00 2364.64 48.00
11283 69.7920 2405.00 2375.14 49.00
11284 69.7980 2405.00 2385.42 49.00
11285 69.8040 2415.00 2395.03 49.00
11286 69.8100 2355.00 2403.15 49.00
11287 69.8160 2387.00 2409.38 49.00
11288 69.8220 2394.00 2413.26 49.00
11289 69.8280 2383.00 2414.48 49.00
11290 69.8340 2382.00 2412.84 49.00
11291 69.8400 2364.00 2408.38 49.00
11292 69.8460 2349.00 2401.40 48.00
11293 69.8520 2342.00 2392.54 48.00
11294 69.8580 2424.00 2382.59 49.00
11295 69.8640 2427.00 2372.47 49.00
11296 69.8700 2414.00 2363.16 49.00
11297 69.8760 2410.00 2355.78 49.00
11298 69.8820 2359.00 2350.84 49.00
11299 69.8880 2396.00 2348.77 49.00
11300 69.8940 2361.00 2349.71 49.00
11301 69.9000 2389.00 2353.51 49.00
11302 69.9060 2439.00 2359.80 49.00
11303 69.9120 2434.00 2368.01 49.00
11304 69.9180 2501.00 2377.45 50.00
11305 69.9240 2468.00 2387.36 50.00
11306 69.9300 2487.00 2397.04 50.00
11307 69.9360 2501.00 2406.02 50.00
11308 69.9420 2484.00 2414.21 50.00
11309 69.9480 2440.00 2421.79 49.00
11310 69.9540 2468.00 2429.48 50.00
11311 69.9600 2382.00 2437.65 49.00
11312 69.9660 2350.00 2446.51 48.00
11313 69.9720 2424.00 2456.52 49.00
11314 69.9780 2388.00 2467.75 49.00
11315 69.9840 2436.00 2480.28 49.00
11316 69.9900 2452.00 2494.30 50.00
11317 69.9960 2480.00 2509.93 50.00
11318 70.0020 2486.00 2527.33 50.00
11319 70.0080 2525.00 2546.63 50.00
11320 70.0140 2525.00 2567.89 50.00
11321 70.0200 2601.00 2590.37 51.00
11322 70.0260 2605.00 2612.79 51.00
11323 70.0320 2708.00 2633.47 52.00
11324 70.0380 2655.00 2650.50 52.00
11325 70.0440 2647.00 2662.19 51.00
11326 70.0500 2673.00 2667.37 52.00
11327 70.0560 2687.00 2665.56 52.00
11328 70.0620 2653.00 2656.72 52.00
11329 70.0680 2649.00 2641.18 51.00
11330 70.0740 2630.00 2619.53 51.00
11331 70.0800 2521.00 2592.45 50.00
11332 70.0860 2536.00 2560.97 50.00
11333 70.0920 2528.00 2526.40 50.00
11334 70.0980 2470.00 2490.33 50.00
11335 70.1040 2401.00 2454.42 49.00
11336 70.1100 2338.00 2420.25 48.00
11337 70.1160 2245.00 2389.06 47.00
11338 70.1220 2314.00 2361.57 48.00
11339 70.1280 2301.00 2338.20 48.00
11340 70.1340 2307.00 2318.99 48.00
11341 70.1400 2289.00 2303.80 48.00
11342 70.1460 2247.00 2292.23 47.00
11343 70.1520 2280.00 2283.82 48.00
11344 70.1580 2286.00 2278.01 48.00
11345 70.1640 2299.00 2274.23 48.00
11346 70.1700 2300.00 2272.10 48.00
11347 70.1760 2320.00 2271.20 48.00
11348 70.1820 2387.00 2271.18 49.00
11349 70.1880 2321.00 2271.63 48.00
11350 70.1940 2341.00 2272.19 48.00
11351 70.2000 2239.00 2272.85 47.00
11352 70.2060 2259.00 2273.33 48.00
11353 70.2120 2303.00 2273.44 48.00
11354 70.2180 2241.00 2273.24 47.00
11355 70.2240 2249.00 2272.84 47.00
11356 70.2300 2219.00 2272.10 47.00
11357 70.2360 2202.00 2271.31 47.00
11358 70.2420 2271.00 2270.61 48.00
11359 70.2480 2267.00 2270.43 48.00
11360 70.2540 2258.00 2271.09 48.00
11361 70.2600 2255.00 2272.97 47.00
11362 70.2660 2220.00 2276.49 47.00
11363 70.2720 2227.00 2281.84 47.00
11364 70.2780 2289.00 2289.29 48.00
11365 70.2840 2310.00 2298.77 48.00
11366 70.2900 2314.00 2309.89 48.00
11367 70.2960 2271.00 2322.31 48.00
11368 70.3020 2254.00 2335.36 47.00
11369 70.3080 2295.00 2348.20 48.00
11370 70.3140 2330.00 2360.06 48.00
11371 70.3200 2376.00 2370.31 49.00
11372 70.3260 2377.00 2378.33 49.00
11373 70.3320 2379.00 2384.38 49.00
11374 70.3380 2387.00 2388.57 49.00
11375 70.3440 2383.00 2391.24 49.00
11376 70.3500 2361.00 2392.74 49.00
11377 70.3560 2351.00 2393.25 48.00
11378 70.3620 2331.00 2392.79 48.00
11379 70.3680 2346.00 2391.45 48.00
11380 70.3740 2439.00 2389.51 49.00
11381 70.3800 2386.00 2387.03 49.00
11382 70.3860 2216.00 2384.72 47.00
11383 70.3920 2262.00 2383.18 48.00
11384 70.3980 2330.00 2383.29 48.00
11385 70.4040 2290.00 2384.72 48.00
11386 70.4100 2293.00 2387.93 48.00
11387 70.4160 2342.00 2392.81 48.00
11388 70.4220 2362.00 2399.07 49.00
11389 70.4280 2342.00 2406.15 48.00
11390 70.4340 2315.00 2413.48 48.00
11391 70.4400 2450.00 2420.02 49.00
11392 70.4460 2546.00 2424.76 50.00
11393 70.4520 2490.00 2426.73 50.00
11394 70.4580 2485.00 2425.07 50.00
11395 70.4640 2453.00 2419.30 50.00
11396 70.4700 2382.00 2409.27 49.00
11397 70.4760 2333.00 2395.64 48.00
11398 70.4820 2328.00 2379.15 48.00
11399 70.4880 2281.00 2361.14 48.00
11400 70.4940 2252.00 2342.66 47.00
11401 70.5000 2293.00 2324.74 48.00
11402 70.5060 2272.00 2307.99 48.00
11403 70.5120 2215.00 2293.08 47.00
11404 70.5180 2201.00 2280.00 47.00
11405 70.5240 2270.00 2268.59 48.00
11406 70.5300 2301.00 2258.81 48.00
11407 70.5360 2221.00 2250.36 47.00
11408 70.5420 2202.00 2243.14 47.00
11409 70.5480 2222.00 2237.11 47.00
11410 70.5540 2176.00 2232.30 47.00
11411 70.5600 2175.00 2228.77 47.00
11412 70.5660 2245.00 2226.59 47.00
11413 70.5720 2230.00 2225.82 47.00
11414 70.5780 2194.00 2226.43 47.00
11415 70.5840 2230.00 2228.50 47.00
11416 70.5900 2282.00 2231.93 48.00
11417 70.5960 2239.00 2236.58 47.00
11418 70.6020 2215.00 2242.11 47.00
11419 70.6080 2207.00 2248.55 47.00
11420 70.6140 2216.00 2255.40 47.00
11421 70.6200 2225.00 2262.23 47.00
11422 70.6260 2252.00 2268.69 47.00
11423 70.6320 2275.00 2274.23 48.00
11424 70.6380 2272.00 2278.63 48.00
11425 70.6440 2292.00 2282.03 48.00
11426 70.6500 2268.00 2284.38 48.00
11427 70.6560 2274.00 2285.88 48.00
11428 70.6620 2283.00 2286.56 48.00
11429 70.6680 2269.00 2286.89 48.00
11430 70.6740 2236.00 2286.81 47.00
11431 70.6800 2230.00 2286.42 47.00
11432 70.6860 2224.00 2285.44 47.00
11433 70.6920 2250.00 2283.77 47.00
11434 70.6980 2281.00 2281.26 48.00
11435 70.7040 2212.00 2277.77 47.00
11436 70.7100 2209.00 2273.80 47.00
11437 70.7160 2225.00 2269.30 47.00
11438 70.7220 2321.00 2265.26 48.00
11439 70.7280 2326.00 2261.57 48.00
11440 70.7340 2249.00 2258.66 47.00
11441 70.7400 2238.00 2256.24 47.00
11442 70.7460 2191.00 2254.51 47.00
11443 70.7520 2237.00 2253.08 47.00
11444 70.7580 2276.00 2251.46 48.00
11445 70.7640 2304.00 2249.72 48.00
11446 70.7700 2257.00 2247.52 48.00
11447 70.7760 2173.00 2244.81 47.00
11448 70.7820 2222.00 2241.68 47.00
11449 70.7880 2261.00 2238.41 48.00
11450 70.7940 2274.00 2235.31 48.00
11451 70.8000 2189.00 2232.76 47.00
11452 70.8060 2134.00 2231.11 46.00
11453 70.8120 2174.00 2230.66 47.00
11454 70.8180 2229.00 2231.59 47.00
11455 70.8240 2263.00 2234.10 48.00
11456 70.8300 2199.00 2238.23 47.00
11457 70.8360 2202.00 2243.94 47.00
11458 70.8420 2170.00 2251.18 47.00
11459 70.8480 2200.00 2259.72 47.00
11460 70.8540 2268.00 2269.30 48.00
11461 70.8600 2347.00 2279.54 48.00
11462 70.8660 2296.00 2290.11 48.00
11463 70.8720 2327.00 2300.72 48.00
11464 70.8780 2398.00 2311.07 49.00
11465 70.8840 2380.00 2320.85 49.00
11466 70.8900 2331.00 2329.68 48.00
11467 70.8960 2323.00 2337.27 48.00
11468 70.9020 2351.00 2343.43 48.00
11469 70.9080 2373.00 2348.04 49.00
11470 70.9140 2359.00 2350.75 49.00
11471 70.9200 2357.00 2351.69 49.00
11472 70.9260 2343.00 2350.76 48.00
11473 70.9320 2344.00 2348.09 48.00
11474 70.9380 2379.00 2344.02 49.00
11475 70.9440 2333.00 2339.09 48.00
11476 70.9500 2230.00 2334.00 47.00
11477 70.9560 2232.00 2328.96 47.00
11478 70.9620 2325.00 2324.49 48.00
11479 70.9680 2346.00 2320.71 48.00
11480 70.9740 2295.00 2317.95 48.00
11481 70.9800 2264.00 2316.54 48.00
11482 70.9860 2269.00 2316.62 48.00
11483 70.9920 2311.00 2318.45 48.00
11484 70.9980 2332.00 2322.30 48.00
11485 71.0040 2331.00 2328.37 48.00
11486 71.0100 2231.00 2336.95 47.00
11487 71.0160 2258.00 2348.23 48.00
11488 71.0220 2295.00 2362.09 48.00
11489 71.0280 2381.00 2378.19 49.00
11490 71.0340 2396.00 2395.99 49.00
11491 71.0400 2354.00 2414.49 49.00
11492 71.0460 2427.00 2432.43 49.00
11493 71.0520 2393.00 2448.35 49.00
11494 71.0580 2458.00 2460.79 50.00
11495 71.0640 2457.00 2468.41 50.00
11496 71.0700 2355.00 2469.95 49.00
11497 71.0760 2510.00 2464.89 50.00
11498 71.0820 2352.00 2453.11 48.00
11499 71.0880 2342.00 2435.94 48.00
11500 71.0940 2336.00 2414.60 48.00
11501 71.1000 2263.00 2391.05 48.00
11502 71.1060 2288.00 2366.79 48.00
11503 71.1120 2260.00 2343.11 48.00
11504 71.1180 2255.00 2320.90 47.00
11505 71.1240 2311.00 2300.62 48.00
11506 71.1300 2370.00 2282.59 49.00
11507 71.1360 2170.00 2266.81 47.00
11508 71.1420 2203.00 2253.50 47.00
11509 71.1480 2224.00 2242.25 47.00
11510 71.1540 2225.00 2233.00 47.00
11511 71.1600 2191.00 2225.49 47.00
11512 71.1660 2226.00 2219.59 47.00
11513 71.1720 2203.00 2215.15 47.00
11514 71.1780 2270.00 2212.28 48.00
11515 71.1840 2126.00 2210.53 46.00
11516 71.1900 2216.00 2209.82 47.00
11517 71.1960 2249.00 2210.31 47.00
11518 71.2020 2219.00 2211.75 47.00
11519 71.2080 2245.00 2214.12 47.00
11520 71.2140 2245.00 2217.49 47.00
11521 71.2200 2182.00 2221.50 47.00
11522 71.2260 2202.00 2226.07 47.00
11523 71.2320 2281.00 2231.40 48.00
11524 71.2380 2297.00 2236.62 48.00
11525 71.2440 2112.00 2242.07 46.00
11526 71.2500 2228.00 2247.74 47.00
11527 71.2560 2208.00 2253.71 47.00
11528 71.2620 2265.00 2260.02 48.00
11529 71.2680 2285.00 2266.48 48.00
11530 71.2740 2188.00 2272.95 47.00
11531 71.2800 2275.00 2279.27 48.00
11532 71.2860 2234.00 2284.97 47.00
11533 71.2920 2196.00 2289.89 47.00
11534 71.2980 2180.00 2293.78 47.00
11535 71.3040 2302.00 2296.49 48.00
11536 71.3100 2274.00 2297.76 48.00
11537 71.3160 2238.00 2297.78 47.00
11538 71.3220 2265.00 2296.72 48.00
11539 71.3280 2193.00 2294.94 47.00
11540 71.3340 2254.00 2292.77 47.00
11541 71.3400 2283.00 2290.52 48.00
11542 71.3460 2224.00 2288.55 47.00
11543 71.3520 2233.00 2286.79 47.00
11544 71.3580 2195.00 2285.22 47.00
11545 71.3640 2280.00 2283.64 48.00
11546 71.3700 2238.00 2282.03 47.00
11547 71.3760 2159.00 2280.33 46.00
11548 71.3820 2219.00 2278.72 47.00
11549 71.3880 2220.00 2277.18 47.00
11550 71.3940 2226.00 2275.66 47.00
11551 71.4000 2227.00 2273.99 47.00
11552 71.4060 2224.00 2271.84 47.00
11553 71.4120 2280.00 2269.07 48.00
11554 71.4180 2284.00 2265.64 48.00
11555 71.4240 2218.00 2261.65 47.00
11556 71.4300 2220.00 2257.33 47.00
11557 71.4360 2170.00 2252.84 47.00
11558 71.4420 2221.00 2248.49 47.00
11559 71.4480 2255.00 2244.43 47.00
11560 71.4540 2190.00 2240.88 47.00
11561 71.4600 2191.00 2237.95 47.00
11562 71.4660 2175.00 2235.83 47.00
11563 71.4720 2217.00 2234.67 47.00
11564 71.4780 2150.00 2234.44 46.00
11565 71.4840 2207.00 2235.07 47.00
11566 71.4900 2216.00 2236.51 47.00
11567 71.4960 2144.00 2238.62 46.00
11568 71.5020 2237.00 2241.28 47.00
11569 71.5080 2128.00 2244.29 46.00
11570 71.5140 2198.00 2247.63 47.00
11571 71.5200 2203.00 2251.36 47.00
11572 71.5260 2248.00 2255.60 47.00
11573 71.5320 2248.00 2260.46 47.00
11574 71.5380 2203.00 2266.05 47.00
11575 71.5440 2188.00 2272.46 47.00
11576 71.5500 2254.00 2279.76 47.00
11577 71.5560 2240.00 2287.97 47.00
11578 71.5620 2204.00 2297.06 47.00
11579 71.5680 2330.00 2306.87 48.00
11580 71.5740 2312.00 2317.20 48.00
11581 71.5800 2358.00 2327.53 49.00
11582 71.5860 2320.00 2337.47 48.00
11583 71.5920 2358.00 2346.47 49.00
11584 71.5980 2384.00 2354.27 49.00
11585 71.6040 2323.00 2360.85 48.00
11586 71.6100 2272.00 2366.39 48.00
11587 71.6160 2328.00 2371.45 48.00
11588 71.6220 2297.00 2376.13 48.00
11589 71.6280 2341.00 2380.18 48.00
11590 71.6340 2308.00 2383.40 48.00
11591 71.6400 2392.00 2385.46 49.00
11592 71.6460 2374.00 2386.20 49.00
11593 71.6520 2311.00 2385.92 48.00
11594 71.6580 2382.00 2385.01 49.00
11595 71.6640 2282.00 2384.02 48.00
11596 71.6700 2376.00 2383.49 49.00
11597 71.6760 2422.00 2383.86 49.00
11598 71.6820 2355.00 2385.31 49.00
11599 71.6880 2273.00 2388.04 48.00
11600 71.6940 2371.00 2391.77 49.00
11601 71.7000 2419.00 2396.35 49.00
11602 71.7060 2314.00 2401.66 48.00
11603 71.7120 2364.00 2407.57 49.00
11604 71.7180 2339.00 2414.00 48.00
11605 71.7240 2367.00 2420.80 49.00
11606 71.7300 2481.00 2427.58 50.00
11607 71.7360 2559.00 2433.73 51.00
11608 71.7420 2456.00 2439.04 50.00
11609 71.7480 2363.00 2443.03 49.00
11610 71.7540 2442.00 2445.47 49.00
11611 71.7600 2446.00 2445.98 49.00
11612 71.7660 2490.00 2445.37 50.00
11613 71.7720 2381.00 2443.63 49.00
11614 71.7780 2439.00 2441.35 49.00
11615 71.7840 2408.00 2439.40 49.00
11616 71.7900 2412.00 2438.84 49.00
11617 71.7960 2407.00 2440.82 49.00
11618 71.8020 2427.00 2446.34 49.00
11619 71.8080 2424.00 2456.12 49.00
11620 71.8140 2363.00 2470.46 49.00
11621 71.8200 2421.00 2488.96 49.00
11622 71.8260 2437.00 2511.03 49.00
11623 71.8320 2557.00 2535.71 51.00
11624 71.8380 2539.00 2561.83 50.00
11625 71.8440 2632.00 2588.25 51.00
11626 71.8500 2560.00 2613.79 51.00
11627 71.8560 2545.00 2637.45 50.00
11628 71.8620 2518.00 2657.96 50.00
11629 71.8680 2535.00 2674.49 50.00
11630 71.8740 2736.00 2686.32 52.00
11631 71.8800 2634.00 2693.42 51.00
11632 71.8860 2661.00 2696.28 52.00
11633 71.8920 2744.00 2695.64 52.00
11634 71.8980 2676.00 2692.12 52.00
11635 71.9040 2519.00 2686.06 50.00
11636 71.9100 2685.00 2677.11 52.00
11637 71.9160 2488.00 2664.87 50.00
11638 71.9220 2559.00 2648.87 51.00
11639 71.9280 2552.00 2629.17 51.00
11640 71.9340 2465.00 2606.52 50.00
11641 71.9400 2444.00 2581.90 49.00
11642 71.9460 2422.00 2556.82 49.00
11643 71.9520 2411.00 2532.07 49.00
11644 71.9580 2439.00 2508.55 49.00
11645 71.9640 2386.00 2486.51 49.00
11646 71.9700 2473.00 2465.85 50.00
11647 71.9760 2463.00 2446.62 50.00
11648 71.9820 2342.00 2428.67 48.00
11649 71.9880 2290.00 2411.89 48.00
11650 71.9940 2313.00 2396.14 48.00
11651 72.0000 2258.00 2381.25 48.00
11652 72.0060 2321.00 2367.34 48.00
11653 72.0120 2341.00 2354.27 48.00
11654 72.0180 2288.00 2342.06 48.00
11655 72.0240 2323.00 2330.54 48.00
11656 72.0300 2235.00 2319.68 47.00
11657 72.0360 2319.00 2309.38 48.00
11658 72.0420 2265.00 2299.64 48.00
11659 72.0480 2238.00 2290.55 47.00
11660 72.0540 2304.00 2282.11 48.00
11661 72.0600 2229.00 2274.64 47.00
11662 72.0660 2228.00 2268.22 47.00
11663 72.0720 2217.00 2262.70 47.00
11664 72.0780 2210.00 2258.11 47.00
11665 72.0840 2240.00 2254.36 47.00
11666 72.0900 2283.00 2251.24 48.00
11667 72.0960 2257.00 2248.73 48.00
11668 72.1020 2178.00 2246.69 47.00
11669 72.1080 2246.00 2245.27 47.00
11670 72.1140 2296.00 2244.53 48.00
11671 72.1200 2227.00 2244.70 47.00
11672 72.1260 2219.00 2245.74 47.00
11673 72.1320 2259.00 2247.74 48.00
11674 72.1380 2235.00 2250.72 47.00
11675 72.1440 2243.00 2254.51 47.00
11676 72.1500 2235.00 2258.81 47.00
11677 72.1560 2225.00 2263.18 47.00
11678 72.1620 2188.00 2267.16 47.00
11679 72.1680 2207.00 2269.94 47.00
11680 72.1740 2196.00 2271.25 47.00
11681 72.1800 2168.00 2270.73 47.00
11682 72.1860 2211.00 2268.39 47.00
11683 72.1920 2275.00 2264.50 48.00
11684 72.1980 2264.00 2259.55 48.00
11685 72.2040 2170.00 2253.84 47.00
11686 72.2100 2216.00 2247.89 47.00
11687 72.2160 2282.00 2242.14 48.00
11688 72.2220 2188.00 2236.86 47.00
11689 72.2280 2220.00 2232.05 47.00
11690 72.2340 2288.00 2227.85 48.00
11691 72.2400 2262.00 2224.19 48.00
11692 72.2460 2212.00 2220.99 47.00
11693 72.2520 2186.00 2218.31 47.00
11694 72.2580 2210.00 2216.17 47.00
11695 72.2640 2174.00 2214.62 47.00
11696 72.2700 2190.00 2213.68 47.00
11697 72.2760 2198.00 2213.23 47.00
11698 72.2820 2202.00 2213.19 47.00
11699 72.2880 2237.00 2213.20 47.00
11700 72.2940 2211.00 2213.28 47.00
11701 72.3000 2172.00 2213.15 47.00
11702 72.3060 2150.00 2212.52 46.00
11703 72.3120 2113.00 2211.34 46.00
11704 72.3180 2135.00 2209.54 46.00
11705 72.3240 2224.00 2207.22 47.00
11706 72.3300 2194.00 2204.46 47.00
11707 72.3360 2165.00 2201.77 47.00
11708 72.3420 2182.00 2199.26 47.00
11709 72.3480 2188.00 2197.14 47.00
11710 72.3540 2142.00 2195.46 46.00
11711 72.3600 2110.00 2194.30 46.00
11712 72.3660 2151.00 2193.61 46.00
11713 72.3720 2170.00 2193.06 47.00
11714 72.3780 2158.00 2192.53 46.00
11715 72.3840 2193.00 2191.76 47.00
11716 72.3900 2176.00 2190.63 47.00
11717 72.3960 2203.00 2188.99 47.00
11718 72.4020 2177.00 2186.96 47.00
11719 72.4080 2118.00 2184.63 46.00
11720 72.4140 2170.00 2182.14 47.00
11721 72.4200 2131.00 2179.74 46.00
11722 72.4260 2094.00 2177.60 46.00
11723 72.4320 2121.00 2175.89 46.00
11724 72.4380 2183.00 2174.82 47.00
11725 72.4440 2194.00 2174.49 47.00
11726 72.4500 2165.00 2174.85 47.00
11727 72.4560 2172.00 2176.00 47.00
11728 72.4620 2209.00 2178.09 47.00
11729 72.4680 2257.00 2180.99 48.00
11730 72.4740 2215.00 2184.61 47.00
11731 72.4800 2194.00 2189.20 47.00
11732 72.4860 2190.00 2194.60 47.00
11733 72.4920 2186.00 2200.72 47.00
11734 72.4980 2234.00 2207.42 47.00
11735 72.5040 2205.00 2214.49 47.00
11736 72.5100 2239.00 2221.70 47.00
11737 72.5160 2290.00 2228.83 48.00
11738 72.5220 2256.00 2235.93 47.00
11739 72.5280 2240.00 2242.64 47.00
11740 72.5340 2262.00 2249.22 48.00
11741 72.5400 2272.00 2255.49 48.00
11742 72.5460 2247.00 2261.66 47.00
11743 72.5520 2299.00 2267.29 48.00
11744 72.5580 2264.00 2272.36 48.00
11745 72.5640 2252.00 2276.52 47.00
11746 72.5700 2274.00 2280.28 48.00
11747 72.5760 2273.00 2283.93 48.00
11748 72.5820 2294.00 2287.50 48.00
11749 72.5880 2275.00 2291.50 48.00
11750 72.5940 2253.00 2296.09 47.00
11751 72.6000 2270.00 2301.15 48.00
11752 72.6060 2282.00 2306.77 48.00
11753 72.6120 2264.00 2312.64 48.00
11754 72.6180 2299.00 2318.17 48.00
11755 72.6240 2318.00 2323.66 48.00
11756 72.6300 2308.00 2328.19 48.00
11757 72.6360 2282.00 2331.25 48.00
11758 72.6420 2262.00 2332.24 48.00
11759 72.6480 2274.00 2330.87 48.00
11760 72.6540 2273.00 2327.19 48.00
11761 72.6600 2249.00 2321.34 47.00
11762 72.6660 2296.00 2313.62 48.00
11763 72.6720 2313.00 2304.61 48.00
11764 72.6780 2231.00 2294.84 47.00
11765 72.6840 2195.00 2285.04 47.00
11766 72.6900 2262.00 2275.74 48.00
11767 72.6960 2286.00 2267.55 48.00
11768 72.7020 2195.00 2260.78 47.00
11769 72.7080 2171.00 2255.48 47.00
11770 72.7140 2237.00 2251.57 47.00
11771 72.7200 2264.00 2248.91 48.00
11772 72.7260 2243.00 2247.24 47.00
11773 72.7320 2230.00 2246.48 47.00
11774 72.7380 2210.00 2246.52 47.00
11775 72.7440 2208.00 2247.46 47.00
11776 72.7500 2260.00 2249.01 48.00
11777 72.7560 2254.00 2250.86 47.00
11778 72.7620 2213.00 2252.78 47.00
11779 72.7680 2183.00 2254.50 47.00
11780 72.7740 2186.00 2255.94 47.00
11781 72.7800 2217.00 2257.14 47.00
11782 72.7860 2221.00 2258.42 47.00
11783 72.7920 2273.00 2260.22 48.00
11784 72.7980 2278.00 2262.82 48.00
11785 72.8040 2276.00 2266.53 48.00
11786 72.8100 2290.00 2271.41 48.00
11787 72.8160 2254.00 2277.47 47.00
11788 72.8220 2252.00 2284.59 47.00
11789 72.8280 2279.00 2292.84 48.00
11790 72.8340 2297.00 2302.01 48.00
11791 72.8400 2380.00 2312.09 49.00
11792 72.8460 2410.00 2323.00 49.00
11793 72.8520 2419.00 2334.41 49.00
11794 72.8580 2386.00 2345.74 49.00
11795 72.8640 2379.00 2356.15 49.00
11796 72.8700 2468.00 2364.84 50.00
11797 72.8760 2441.00 2371.16 49.00
11798 72.8820 2366.00 2374.70 49.00
11799 72.8880 2309.00 2375.02 48.00
11800 72.8940 2279.00 2372.18 48.00
11801 72.9000 2292.00 2366.41 48.00
11802 72.9060 2302.00 2358.04 48.00
11803 72.9120 2320.00 2347.69 48.00
11804 72.9180 2347.00 2335.43 48.00
11805 72.9240 2316.00 2321.89 48.00
11806 72.9300 2259.00 2307.58 48.00
11807 72.9360 2274.00 2293.06 48.00
11808 72.9420 2263.00 2278.91 48.00
11809 72.9480 2232.00 2265.92 47.00
11810 72.9540 2205.00 2254.52 47.00
11811 72.9600 2188.00 2245.15 47.00
11812 72.9660 2231.00 2238.05 47.00
11813 72.9720 2262.00 2233.23 48.00
11814 72.9780 2264.00 2230.70 48.00
11815 72.9840 2247.00 2230.12 47.00
11816 72.9900 2231.00 2231.24 47.00
11817 72.9960 2252.00 2233.76 47.00
11818 73.0020 2161.00 2237.21 46.00
11819 73.0080 2219.00 2241.26 47.00
11820 73.0140 2271.00 2245.49 48.00
11821 73.0200 2262.00 2249.78 48.00
11822 73.0260 2233.00 2254.06 47.00
11823 73.0320 2214.00 2258.11 47.00
11824 73.0380 2202.00 2261.95 47.00
11825 73.0440 2237.00 2265.48 47.00
11826 73.0500 2307.00 2268.61 48.00
11827 73.0560 2289.00 2271.39 48.00
11828 73.0620 2271.00 2273.69 48.00
11829 73.0680 2259.00 2275.57 48.00
11830 73.0740 2286.00 2276.98 48.00
11831 73.0800 2273.00 2277.85 48.00
11832 73.0860 2264.00 2278.13 48.00
11833 73.0920 2267.00 2277.94 48.00
11834 73.0980 2311.00 2277.37 48.00
11835 73.1040 2288.00 2276.41 48.00
11836 73.1100 2356.00 2275.19 49.00
11837 73.1160 2315.00 2273.73 48.00
11838 73.1220 2244.00 2271.94 47.00
11839 73.1280 2298.00 2269.72 48.00
11840 73.1340 2275.00 2266.99 48.00
11841 73.1400 2205.00 2263.76 47.00
11842 73.1460 2161.00 2260.23 46.00
11843 73.1520 2245.00 2256.63 47.00
11844 73.1580 2207.00 2253.40 47.00
11845 73.1640 2247.00 2250.97 47.00
11846 73.1700 2241.00 2249.80 47.00
11847 73.1760 2194.00 2250.35 47.00
11848 73.1820 2244.00 2252.88 47.00
11849 73.1880 2238.00 2257.64 47.00
11850 73.1940 2266.00 2264.68 48.00
11851 73.2000 2323.00 2273.88 48.00
11852 73.2060 2368.00 2284.94 49.00
11853 73.2120 2362.00 2297.21 49.00
11854 73.2180 2405.00 2309.94 49.00
11855 73.2240 2376.00 2322.40 49.00
11856 73.2300 2337.00 2333.75 48.00
11857 73.2360 2326.00 2343.40 48.00
11858 73.2420 2300.00 2351.04 48.00
11859 73.2480 2334.00 2356.58 48.00
11860 73.2540 2316.00 2360.07 48.00
11861 73.2600 2270.00 2361.65 48.00
11862 73.2660 2266.00 2361.78 48.00
11863 73.2720 2239.00 2360.77 47.00
11864 73.2780 2334.00 2359.29 48.00
11865 73.2840 2286.00 2357.60 48.00
11866 73.2900 2205.00 2356.08 47.00
11867 73.2960 2226.00 2354.95 47.00
11868 73.3020 2255.00 2354.13 47.00
11869 73.3080 2287.00 2353.54 48.00
11870 73.3140 2287.00 2352.87 48.00
11871 73.3200 2314.00 2351.85 48.00
11872 73.3260 2295.00 2349.97 48.00
11873 73.3320 2366.00 2346.81 49.00
11874 73.3380 2371.00 2342.07 49.00
11875 73.3440 2372.00 2335.65 49.00
11876 73.3500 2285.00 2327.84 48.00
11877 73.3560 2303.00 2319.27 48.00
11878 73.3620 2306.00 2310.50 48.00
11879 73.3680 2316.00 2302.15 48.00
11880 73.3740 2279.00 2294.65 48.00
11881 73.3800 2257.00 2288.70 48.00
11882 73.3860 2197.00 2284.56 47.00
11883 73.3920 2244.00 2282.59 47.00
11884 73.3980 2229.00 2283.07 47.00
11885 73.4040 2282.00 2286.09 48.00
11886 73.4100 2283.00 2291.60 48.00
11887 73.4160 2273.00 2299.22 48.00
11888 73.4220 2235.00 2308.47 47.00
11889 73.4280 2308.00 2318.58 48.00
11890 73.4340 2354.00 2328.91 49.00
11891 73.4400 2350.00 2338.68 48.00
11892 73.4460 2368.00 2347.19 49.00
11893 73.4520 2419.00 2353.92 49.00
11894 73.4580 2342.00 2358.52 48.00
11895 73.4640 2347.00 2360.95 48.00
11896 73.4700 2311.00 2361.47 48.00
11897 73.4760 2392.00 2360.52 49.00
11898 73.4820 2263.00 2358.88 48.00
11899 73.4880 2275.00 2357.03 48.00
11900 73.4940 2393.00 2355.42 49.00
11901 73.5000 2327.00 2354.25 48.00
11902 73.5060 2265.00 2353.69 48.00
11903 73.5120 2288.00 2353.94 48.00
11904 73.5180 2416.00 2354.99 49.00
11905 73.5240 2356.00 2356.95 49.00
11906 73.5300 2311.00 2359.64 48.00
11907 73.5360 2282.00 2362.97 48.00
11908 73.5420 2301.00 2366.47 48.00
11909 73.5480 2349.00 2369.79 48.00
11910 73.5540 2358.00 2372.69 49.00
11911 73.5600 2363.00 2375.09 49.00
11912 73.5660 2349.00 2377.03 48.00
11913 73.5720 2391.00 2378.56 49.00
11914 73.5780 2372.00 2380.07 49.00
11915 73.5840 2407.00 2381.56 49.00
11916 73.5900 2358.00 2382.98 49.00
11917 73.5960 2532.00 2384.29 50.00
11918 73.6020 2366.00 2385.16 49.00
11919 73.6080 2403.00 2385.03 49.00
11920 73.6140 2447.00 2383.60 49.00
11921 73.6200 2413.00 2380.42 49.00
11922 73.6260 2302.00 2375.23 48.00
11923 73.6320 2370.00 2368.26 49.00
11924 73.6380 2339.00 2359.91 48.00
11925 73.6440 2368.00 2351.13 49.00
11926 73.6500 2337.00 2342.60 48.00
11927 73.6560 2297.00 2335.13 48.00
11928 73.6620 2296.00 2329.23 48.00
11929 73.6680 2298.00 2325.13 48.00
11930 73.6740 2232.00 2322.86 47.00
11931 73.6800 2320.00 2322.19 48.00
11932 73.6860 2278.00 2322.84 48.00
11933 73.6920 2241.00 2324.51 47.00
11934 73.6980 2305.00 2326.75 48.00
11935 73.7040 2277.00 2329.34 48.00
11936 73.7100 2295.00 2331.96 48.00
11937 73.7160 2348.00 2334.22 48.00
11938 73.7220 2350.00 2335.56 48.00
11939 73.7280 2344.00 2335.57 48.00
11940 73.7340 2220.00 2333.75 47.00
11941 73.7400 2277.00 2329.87 48.00
11942 73.7460 2349.00 2323.94 48.00
11943 73.7520 2342.00 2316.25 48.00
11944 73.7580 2333.00 2307.11 48.00
11945 73.7640 2280.00 2297.01 48.00
11946 73.7700 2271.00 2286.21 48.00
11947 73.7760 2244.00 2275.04 47.00
11948 73.7820 2338.00 2263.70 48.00
11949 73.7880 2280.00 2252.51 48.00
11950 73.7940 2229.00 2242.03 47.00
11951 73.8000 2250.00 2232.24 47.00
11952 73.8060 2251.00 2223.37 47.00
11953 73.8120 2177.00 2215.44 47.00
11954 73.8180 2146.00 2208.35 46.00
11955 73.8240 2171.00 2202.14 47.00
11956 73.8300 2196.00 2196.79 47.00
11957 73.8360 2181.00 2192.33 47.00
11958 73.8420 2215.00 2188.72 47.00
11959 73.8480 2178.00 2186.07 47.00
11960 73.8540 2179.00 2184.16 47.00
11961 73.8600 2188.00 2182.93 47.00
11962 73.8660 2189.00 2182.03 47.00
11963 73.8720 2169.00 2181.39 47.00
11964 73.8780 2152.00 2180.87 46.00
11965 73.8840 2256.00 2180.22 47.00
11966 73.8900 2194.00 2179.39 47.00
11967 73.8960 2115.00 2178.26 46.00
11968 73.9020 2137.00 2176.75 46.00
11969 73.9080 2144.00 2174.85 46.00
11970 73.9140 2192.00 2172.62 47.00
11971 73.9200 2076.00 2170.15 46.00
11972 73.9260 2194.00 2167.59 47.00
11973 73.9320 2167.00 2165.14 47.00
11974 73.9380 2157.00 2163.01 46.00
11975 73.9440 2102.00 2161.30 46.00
11976 73.9500 2093.00 2160.38 46.00
11977 73.9560 2112.00 2160.32 46.00
11978 73.9620 2106.00 2161.16 46.00
11979 73.9680 2201.00 2162.74 47.00
11980 73.9740 2121.00 2164.83 46.00
11981 73.9800 2302.00 2167.40 48.00
11982 73.9860 2225.00 2169.97 47.00
11983 73.9920 2226.00 2172.22 47.00
11984 73.9980 2232.00 2173.72 47.00
11985 74.0040 2216.00 2174.09 47.00
11986 74.0100 2184.00 2173.22 47.00
11987 74.0160 2089.00 2171.00 46.00
11988 74.0220 2187.00 2167.63 47.00
11989 74.0280 2166.00 2163.37 47.00
11990 74.0340 2044.00 2158.37 45.00
11991 74.0400 2052.00 2153.03 45.00
11992 74.0460 2128.00 2147.80 46.00
11993 74.0520 2137.00 2142.82 46.00
11994 74.0580 2177.00 2138.40 47.00
11995 74.0640 2133.00 2134.68 46.00
11996 74.0700 2153.00 2131.73 46.00
11997 74.0760 2102.00 2129.58 46.00
11998 74.0820 2159.00 2128.20 46.00
11999 74.0880 2066.00 2127.56 45.00
12000 74.0940 2122.00 2127.59 46.00
12001 74.1000 2124.00 2128.16 46.00
12002 74.1060 2022.00 2129.15 45.00
12003 74.1120 2091.00 2130.39 46.00
12004 74.1180 2040.00 2131.74 45.00
12005 74.1240 2065.00 2133.05 45.00
12006 74.1300 2178.00 2134.16 47.00
12007 74.1360 2150.00 2135.03 46.00
12008 74.1420 2223.00 2135.69 47.00
12009 74.1480 2150.00 2136.16 46.00
12010 74.1540 2077.00 2136.74 46.00
12011 74.1600 2163.00 2137.51 47.00
12012 74.1660 2141.00 2138.59 46.00
12013 74.1720 2064.00 2139.94 45.00
12014 74.1780 2051.00 2141.82 45.00
12015 74.1840 2151.00 2143.96 46.00
12016 74.1900 2148.00 2146.53 46.00
12017 74.1960 2128.00 2149.21 46.00
12018 74.2020 2120.00 2151.84 46.00
12019 74.2080 2175.00 2154.22 47.00
12020 74.2140 2130.00 2156.12 46.00
12021 74.2200 2173.00 2157.24 47.00
12022 74.2260 2166.00 2157.59 47.00
12023 74.2320 2206.00 2157.02 47.00
12024 74.2380 2170.00 2155.64 47.00
12025 74.2440 2076.00 2153.59 46.00
12026 74.2500 2054.00 2151.14 45.00
12027 74.2560 2147.00 2148.58 46.00
12028 74.2620 2121.00 2146.00 46.00
12029 74.2680 2108.00 2143.89 46.00
12030 74.2740 2164.00 2142.23 47.00
12031 74.2800 2120.00 2141.18 46.00
12032 74.2860 2102.00 2140.55 46.00
12033 74.2920 2096.00 2140.55 46.00
12034 74.2980 2053.00 2141.03 45.00
12035 74.3040 2150.00 2141.91 46.00
12036 74.3100 2072.00 2143.14 46.00
12037 74.3160 2050.00 2144.70 45.00
12038 74.3220 2078.00 2146.69 46.00
12039 74.3280 2163.00 2149.06 47.00
12040 74.3340 2141.00 2151.93 46.00
12041 74.3400 2129.00 2155.32 46.00
12042 74.3460 2101.00 2159.06 46.00
12043 74.3520 2148.00 2163.14 46.00
12044 74.3580 2162.00 2167.47 46.00
12045 74.3640 2066.00 2171.70 45.00
12046 74.3700 2198.00 2175.58 47.00
12047 74.3760 2205.00 2178.91 47.00
12048 74.3820 2150.00 2181.54 46.00
12049 74.3880 2140.00 2183.40 46.00
12050 74.3940 2167.00 2184.64 47.00
12051 74.4000 2135.00 2185.08 46.00
12052 74.4060 2135.00 2184.85 46.00
12053 74.4120 2129.00 2183.92 46.00
12054 74.4180 2135.00 2182.53 46.00
12055 74.4240 2183.00 2180.90 47.00
12056 74.4300 2188.00 2179.27 47.00
12057 74.4360 2212.00 2178.03 47.00
12058 74.4420 2159.00 2177.38 46.00
12059 74.4480 2154.00 2177.73 46.00
12060 74.4540 2233.00 2178.88 47.00
12061 74.4600 2180.00 2180.99 47.00
12062 74.4660 2217.00 2184.11 47.00
12063 74.4720 2154.00 2187.89 46.00
12064 74.4780 2316.00 2192.14 48.00
12065 74.4840 2270.00 2196.56 48.00
12066 74.4900 2179.00 2200.80 47.00
12067 74.4960 2249.00 2204.39 47.00
12068 74.5020 2153.00 2207.12 46.00
12069 74.5080 2216.00 2208.63 47.00
12070 74.5140 2153.00 2208.83 46.00
12071 74.5200 2232.00 2207.74 47.00
12072 74.5260 2180.00 2205.52 47.00
12073 74.5320 2242.00 2202.58 47.00
12074 74.5380 2088.00 2199.06 46.00
12075 74.5440 2146.00 2195.61 46.00
12076 74.5500 2185.00 2192.50 47.00
12077 74.5560 2132.00 2190.07 46.00
12078 74.5620 2147.00 2188.39 46.00
12079 74.5680 2172.00 2187.21 47.00
12080 74.5740 2220.00 2186.43 47.00
12081 74.5800 2136.00 2185.77 46.00
12082 74.5860 2190.00 2184.87 47.00
12083 74.5920 2136.00 2183.39 46.00
12084 74.5980 2244.00 2181.20 47.00
12085 74.6040 2282.00 2178.20 48.00
12086 74.6100 2182.00 2174.46 47.00
12087 74.6160 2043.00 2170.19 45.00
12088 74.6220 2132.00 2165.64 46.00
12089 74.6280 2131.00 2161.25 46.00
12090 74.6340 2142.00 2157.35 46.00
12091 74.6400 2080.00 2154.03 46.00
12092 74.6460 2089.00 2151.54 46.00
12093 74.6520 2151.00 2150.12 46.00
12094 74.6580 2198.00 2149.78 47.00
12095 74.6640 2191.00 2150.57 47.00
12096 74.6700 2042.00 2152.45 45.00
12097 74.6760 2031.00 2155.34 45.00
12098 74.6820 2099.00 2159.20 46.00
12099 74.6880 2161.00 2163.88 46.00
12100 74.6940 2095.00 2169.28 46.00
12101 74.7000 2124.00 2175.46 46.00
12102 74.7060 2107.00 2182.46 46.00
12103 74.7120 2189.00 2190.29 47.00
12104 74.7180 2205.00 2198.91 47.00
12105 74.7240 2273.00 2208.06 48.00
12106 74.7300 2127.00 2217.55 46.00
12107 74.7360 2186.00 2226.78 47.00
12108 74.7420 2166.00 2235.10 47.00
12109 74.7480 2213.00 2241.92 47.00
12110 74.7540 2269.00 2246.64 48.00
12111 74.7600 2206.00 2248.99 47.00
12112 74.7660 2171.00 2249.05 47.00
12113 74.7720 2175.00 2247.09 47.00
12114 74.7780 2248.00 2243.69 47.00
12115 74.7840 2252.00 2239.11 47.00
12116 74.7900 2254.00 2233.62 47.00
12117 74.7960 2211.00 2227.50 47.00
12118 74.8020 2169.00 2220.82 47.00
12119 74.8080 2137.00 2213.74 46.00
12120 74.8140 2151.00 2206.32 46.00
12121 74.8200 2149.00 2198.72 46.00
12122 74.8260 2077.00 2190.94 46.00
12123 74.8320 2107.00 2183.14 46.00
12124 74.8380 2175.00 2175.48 47.00
12125 74.8440 2141.00 2168.03 46.00
12126 74.8500 2182.00 2161.04 47.00
12127 74.8560 2125.00 2154.70 46.00
12128 74.8620 2099.00 2149.02 46.00
12129 74.8680 2128.00 2144.16 46.00
12130 74.8740 2135.00 2140.17 46.00
12131 74.8800 2129.00 2137.00 46.00
12132 74.8860 2148.00 2134.70 46.00
12133 74.8920 2075.00 2133.23 46.00
12134 74.8980 1957.00 2132.52 44.00
12135 74.9040 2125.00 2132.57 46.00
12136 74.9100 2155.00 2133.15 46.00
12137 74.9160 2105.00 2134.13 46.00
12138 74.9220 2118.00 2135.51 46.00
12139 74.9280 2142.00 2137.30 46.00
12140 74.9340 2166.00 2139.57 47.00
12141 74.9400 2108.00 2142.43 46.00
12142 74.9460 2165.00 2145.97 47.00
12143 74.9520 2149.00 2150.33 46.00
12144 74.9580 2207.00 2155.51 47.00
12145 74.9640 2102.00 2161.39 46.00
12146 74.9700 2129.00 2167.94 46.00
12147 74.9760 2150.00 2174.78 46.00
12148 74.9820 2176.00 2181.61 47.00
12149 74.9880 2161.00 2187.94 46.00
12150 74.9940 2174.00 2193.33 47.00
12151 75.0000 2180.00 2197.32 47.00
12152 75.0060 2155.00 2199.63 46.00
12153 75.0120 2226.00 2200.15 47.00
12154 75.0180 2168.00 2199.03 47.00
12155 75.0240 2134.00 2196.61 46.00
12156 75.0300 2173.00 2193.36 47.00
12157 75.0360 2121.00 2189.90 46.00
12158 75.0420 2166.00 2186.77 47.00
12159 75.0480 2122.00 2184.48 46.00
12160 75.0540 2110.00 2183.51 46.00
12161 75.0600 2148.00 2184.28 46.00
12162 75.0660 2154.00 2187.14 46.00
12163 75.0720 2133.00 2192.38 46.00
12164 75.0780 2146.00 2200.18 46.00
12165 75.0840 2213.00 2210.57 47.00
12166 75.0900 2164.00 2223.50 47.00
12167 75.0960 2099.00 2238.67 46.00
12168 75.1020 2150.00 2255.58 46.00
12169 75.1080 2310.00 2273.80 48.00
12170 75.1140 2218.00 2292.40 47.00
12171 75.1200 2250.00 2310.54 47.00
12172 75.1260 2331.00 2327.13 48.00
12173 75.1320 2355.00 2341.20 49.00
12174 75.1380 2371.00 2351.94 49.00
12175 75.1440 2302.00 2358.88 48.00
12176 75.1500 2312.00 2361.87 48.00
12177 75.1560 2281.00 2361.32 48.00
12178 75.1620 2293.00 2357.66 48.00
12179 75.1680 2320.00 2351.51 48.00
12180 75.1740 2301.00 2343.27 48.00
12181 75.1800 2260.00 2333.44 48.00
12182 75.1860 2231.00 2322.41 47.00
12183 75.1920 2227.00 2310.65 47.00
12184 75.1980 2289.00 2298.67 48.00
12185 75.2040 2254.00 2287.12 47.00
12186 75.2100 2219.00 2276.63 47.00
12187 75.2160 2240.00 2267.75 47.00
12188 75.2220 2267.00 2260.95 48.00
12189 75.2280 2230.00 2256.64 47.00
12190 75.2340 2183.00 2254.64 47.00
12191 75.2400 2209.00 2255.12 47.00
12192 75.2460 2266.00 2257.73 48.00
12193 75.2520 2292.00 2262.02 48.00
12194 75.2580 2231.00 2267.36 47.00
12195 75.2640 2244.00 2273.21 47.00
12196 75.2700 2267.00 2278.78 48.00
12197 75.2760 2281.00 2283.40 48.00
12198 75.2820 2244.00 2286.46 47.00
12199 75.2880 2228.00 2287.46 47.00
12200 75.2940 2286.00 2286.02 48.00
12201 75.3000 2298.00 2282.08 48.00
12202 75.3060 2265.00 2275.89 48.00
12203 75.3120 2200.00 2268.00 47.00
12204 75.3180 2245.00 2259.20 47.00
12205 75.3240 2145.00 2250.47 46.00
12206 75.3300 2166.00 2242.46 47.00
12207 75.3360 2170.00 2235.69 47.00
12208 75.3420 2209.00 2230.39 47.00
12209 75.3480 2267.00 2226.73 48.00
12210 75.3540 2212.00 2224.52 47.00
12211 75.3600 2123.00 2223.40 46.00
12212 75.3660 2143.00 2222.93 46.00
12213 75.3720 2152.00 2222.69 46.00
12214 75.3780 2147.00 2222.22 46.00
12215 75.3840 2149.00 2221.38 46.00
12216 75.3900 2212.00 2220.16 47.00
12217 75.3960 2269.00 2218.64 48.00
12218 75.4020 2255.00 2216.90 47.00
12219 75.4080 2244.00 2215.00 47.00
12220 75.4140 2242.00 2212.76 47.00
12221 75.4200 2168.00 2210.17 47.00
12222 75.4260 2102.00 2207.21 46.00
12223 75.4320 2134.00 2204.13 46.00
12224 75.4380 2195.00 2201.07 47.00
12225 75.4440 2189.00 2198.56 47.00
12226 75.4500 2182.00 2197.10 47.00
12227 75.4560 2195.00 2197.08 47.00
12228 75.4620 2149.00 2198.95 46.00
12229 75.4680 2149.00 2202.66 46.00
12230 75.4740 2192.00 2208.40 47.00
12231 75.4800 2228.00 2216.11 47.00
12232 75.4860 2226.00 2225.56 47.00
12233 75.4920 2277.00 2236.53 48.00
12234 75.4980 2233.00 2248.77 47.00
12235 75.5040 2222.00 2261.70 47.00
12236 75.5100 2254.00 2274.80 47.00
12237 75.5160 2230.00 2287.48 47.00
12238 75.5220 2304.00 2299.35 48.00
12239 75.5280 2400.00 2310.15 49.00
12240 75.5340 2415.00 2319.87 49.00
12241 75.5400 2342.00 2328.86 48.00
12242 75.5460 2333.00 2337.35 48.00
12243 75.5520 2362.00 2345.51 49.00
12244 75.5580 2392.00 2353.25 49.00
12245 75.5640 2378.00 2360.44 49.00
12246 75.5700 2412.00 2366.59 49.00
12247 75.5760 2429.00 2371.32 49.00
12248 75.5820 2365.00 2374.19 49.00
12249 75.5880 2308.00 2375.00 48.00
12250 75.5940 2332.00 2373.63 48.00
12251 75.6000 2314.00 2370.08 48.00
12252 75.6060 2319.00 2364.38 48.00
12253 75.6120 2342.00 2356.66 48.00
12254 75.6180 2323.00 2347.12 48.00
12255 75.6240 2341.00 2336.00 48.00
12256 75.6300 2324.00 2323.58 48.00
12257 75.6360 2283.00 2310.00 48.00
12258 75.6420 2275.00 2295.38 48.00
12259 75.6480 2239.00 2279.77 47.00
12260 75.6540 2216.00 2263.34 47.00
12261 75.6600 2259.00 2246.26 48.00
12262 75.6660 2259.00 2229.14 48.00
12263 75.6720 2193.00 2212.28 47.00
12264 75.6780 2190.00 2196.09 47.00
12265 75.6840 2180.00 2181.07 47.00
12266 75.6900 2113.00 2167.34 46.00
12267 75.6960 2103.00 2155.16 46.00
12268 75.7020 2146.00 2144.46 46.00
12269 75.7080 2106.00 2135.20 46.00
12270 75.7140 2166.00 2127.30 47.00
12271 75.7200 2177.00 2120.68 47.00
12272 75.7260 2113.00 2115.21 46.00
12273 75.7320 2124.00 2110.75 46.00
12274 75.7380 2100.00 2107.27 46.00
12275 75.7440 2046.00 2104.66 45.00
12276 75.7500 2070.00 2102.86 45.00
12277 75.7560 2098.00 2101.53 46.00
12278 75.7620 2062.00 2100.81 45.00
12279 75.7680 2057.00 2100.54 45.00
12280 75.7740 2125.00 2100.75 46.00
12281 75.7800 2181.00 2101.30 47.00
12282 75.7860 2133.00 2102.14 46.00
12283 75.7920 2149.00 2103.09 46.00
12284 75.7980 2135.00 2104.21 46.00
12285 75.8040 2117.00 2105.52 46.00
12286 75.8100 2079.00 2106.85 46.00
12287 75.8160 2069.00 2108.23 45.00
12288 75.8220 2088.00 2109.66 46.00
12289 75.8280 2071.00 2110.81 46.00
12290 75.8340 2114.00 2111.74 46.00
12291 75.8400 2172.00 2112.44 47.00
12292 75.8460 2135.00 2112.96 46.00
12293 75.8520 2083.00 2113.39 46.00
12294 75.8580 2054.00 2113.94 45.00
12295 75.8640 2078.00 2114.75 46.00
12296 75.8700 2130.00 2115.85 46.00
12297 75.8760 2121.00 2117.42 46.00
12298 75.8820 2102.00 2119.57 46.00
12299 75.8880 2127.00 2122.08 46.00
12300 75.8940 2162.00 2125.24 46.00
12301 75.9000 2143.00 2128.84 46.00
12302 75.9060 2098.00 2132.74 46.00
12303 75.9120 2105.00 2136.92 46.00
12304 75.9180 2144.00 2141.25 46.00
12305 75.9240 2148.00 2145.67 46.00
12306 75.9300 2166.00 2150.23 47.00
12307 75.9360 2217.00 2154.98 47.00
12308 75.9420 2225.00 2159.89 47.00
12309 75.9480 2245.00 2164.87 47.00
12310 75.9540 2228.00 2169.99 47.00
12311 75.9600 2188.00 2175.06 47.00
12312 75.9660 2158.00 2179.94 46.00
12313 75.9720 2142.00 2184.50 46.00
12314 75.9780 2192.00 2188.43 47.00
12315 75.9840 2220.00 2191.79 47.00
12316 75.9900 2235.00 2194.73 47.00
12317 75.9960 2214.00 2197.45 47.00
12318 76.0020 2190.00 2200.18 47.00
12319 76.0080 2219.00 2203.07 47.00
12320 76.0140 2197.00 2206.00 47.00
12321 76.0200 2235.00 2209.05 47.00
12322 76.0260 2223.00 2211.95 47.00
12323 76.0320 2221.00 2214.22 47.00
12324 76.0380 2213.00 2215.47 47.00
12325 76.0440 2146.00 2215.40 46.00
12326 76.0500 2166.00 2213.86 47.00
12327 76.0560 2155.00 2210.78 46.00
12328 76.0620 2097.00 2206.43 46.00
12329 76.0680 2094.00 2201.24 46.00
12330 76.0740 2174.00 2195.80 47.00
12331 76.0800 2220.00 2190.67 47.00
12332 76.0860 2186.00 2186.25 47.00
12333 76.0920 2148.00 2182.92 46.00
12334 76.0980 2147.00 2180.98 46.00
12335 76.1040 2069.00 2180.47 45.00
12336 76.1100 2097.00 2181.50 46.00
12337 76.1160 2186.00 2183.88 47.00
12338 76.1220 2213.00 2187.55 47.00
12339 76.1280 2213.00 2192.68 47.00
12340 76.1340 2202.00 2198.93 47.00
12341 76.1400 2177.00 2206.25 47.00
12342 76.1460 2159.00 2214.46 46.00
12343 76.1520 2248.00 2223.28 47.00
12344 76.1580 2250.00 2232.32 47.00
12345 76.1640 2263.00 2241.08 48.00
12346 76.1700 2323.00 2248.95 48.00
12347 76.1760 2325.00 2255.49 48.00
12348 76.1820 2247.00 2260.25 47.00
12349 76.1880 2198.00 2262.85 47.00
12350 76.1940 2233.00 2263.09 47.00
12351 76.2000 2278.00 2260.83 48.00
12352 76.2060 2247.00 2256.11 47.00
12353 76.2120 2184.00 2249.05 47.00
12354 76.2180 2223.00 2239.87 47.00
12355 76.2240 2217.00 2229.04 47.00
12356 76.2300 2163.00 2217.12 47.00
12357 76.2360 2147.00 2204.83 46.00
12358 76.2420 2173.00 2192.72 47.00
12359 76.2480 2121.00 2181.29 46.00
12360 76.2540 2134.00 2170.92 46.00
12361 76.2600 2115.00 2161.86 46.00
12362 76.2660 2154.00 2154.29 46.00
12363 76.2720 2166.00 2148.06 47.00
12364 76.2780 2121.00 2143.52 46.00
12365 76.2840 2136.00 2140.38 46.00
12366 76.2900 2163.00 2138.57 47.00
12367 76.2960 2116.00 2137.89 46.00
12368 76.3020 2118.00 2138.14 46.00
12369 76.3080 2106.00 2138.98 46.00
12370 76.3140 2120.00 2140.18 46.00
12371 76.3200 2195.00 2141.38 47.00
12372 76.3260 2172.00 2142.62 47.00
12373 76.3320 2130.00 2143.56 46.00
12374 76.3380 2162.00 2144.42 46.00
12375 76.3440 2138.00 2145.34 46.00
12376 76.3500 2135.00 2146.47 46.00
12377 76.3560 2106.00 2148.33 46.00
12378 76.3620 2151.00 2150.95 46.00
12379 76.3680 2221.00 2154.59 47.00
12380 76.3740 2147.00 2159.47 46.00
12381 76.3800 2090.00 2165.57 46.00
12382 76.3860 2183.00 2172.86 47.00
12383 76.3920 2212.00 2181.08 47.00
12384 76.3980 2245.00 2190.20 47.00
12385 76.4040 2231.00 2199.75 47.00
12386 76.4100 2191.00 2209.45 47.00
12387 76.4160 2229.00 2218.86 47.00
12388 76.4220 2156.00 2227.67 46.00
12389 76.4280 2203.00 2235.69 47.00
12390 76.4340 2216.00 2242.91 47.00
12391 76.4400 2235.00 2249.58 47.00
12392 76.4460 2240.00 2255.78 47.00
12393 76.4520 2228.00 2261.87 47.00
12394 76.4580 2292.00 2268.01 48.00
12395 76.4640 2235.00 2274.50 47.00
12396 76.4700 2287.00 2281.66 48.00
12397 76.4760 2326.00 2289.40 48.00
12398 76.4820 2276.00 2297.75 48.00
12399 76.4880 2292.00 2306.43 48.00
12400 76.4940 2274.00 2314.88 48.00
12401 76.5000 2257.00 2322.65 48.00
12402 76.5060 2327.00 2329.43 48.00
12403 76.5120 2268.00 2334.85 48.00
12404 76.5180 2288.00 2339.00 48.00
12405 76.5240 2320.00 2342.07 48.00
12406 76.5300 2388.00 2343.99 49.00
12407 76.5360 2329.00 2344.84 48.00
12408 76.5420 2300.00 2344.68 48.00
12409 76.5480 2373.00 2343.10 49.00
12410 76.5540 2324.00 2340.03 48.00
12411 76.5600 2344.00 2335.38 48.00
12412 76.5660 2266.00 2328.78 48.00
12413 76.5720 2295.00 2320.19 48.00
12414 76.5780 2324.00 2309.62 48.00
12415 76.5840 2317.00 2297.37 48.00
12416 76.5900 2268.00 2283.90 48.00
12417 76.5960 2264.00 2269.77 48.00
12418 76.6020 2191.00 2255.66 47.00
12419 76.6080 2216.00 2241.90 47.00
12420 76.6140 2211.00 2228.98 47.00
12421 76.6200 2270.00 2216.98 48.00
12422 76.6260 2199.00 2206.07 47.00
12423 76.6320 2108.00 2196.36 46.00
12424 76.6380 2136.00 2187.86 46.00
12425 76.6440 2113.00 2180.71 46.00
12426 76.6500 2158.00 2175.00 46.00
12427 76.6560 2203.00 2170.91 47.00
12428 76.6620 2204.00 2168.34 47.00
12429 76.6680 2164.00 2167.35 47.00
12430 76.6740 2098.00 2168.04 46.00
12431 76.6800 2094.00 2170.21 46.00
12432 76.6860 2081.00 2173.83 46.00
12433 76.6920 2067.00 2178.73 45.00
12434 76.6980 2144.00 2184.78 46.00
12435 76.7040 2170.00 2191.72 47.00
12436 76.7100 2224.00 2199.23 47.00
12437 76.7160 2309.00 2206.98 48.00
12438 76.7220 2231.00 2214.55 47.00
12439 76.7280 2367.00 2221.60 49.00
12440 76.7340 2268.00 2227.96 48.00
12441 76.7400 2211.00 2233.54 47.00
12442 76.7460 2229.00 2238.36 47.00
12443 76.7520 2272.00 2242.52 48.00
12444 76.7580 2258.00 2246.17 48.00
12445 76.7640 2312.00 2249.39 48.00
12446 76.7700 2268.00 2252.26 48.00
12447 76.7760 2298.00 2254.88 48.00
12448 76.7820 2305.00 2257.30 48.00
12449 76.7880 2308.00 2259.54 48.00
12450 76.7940 2274.00 2261.77 48.00
12451 76.8000 2306.00 2264.08 48.00
12452 76.8060 2234.00 2266.62 47.00
12453 76.8120 2223.00 2269.59 47.00
12454 76.8180 2298.00 2273.24 48.00
12455 76.8240 2226.00 2277.59 47.00
12456 76.8300 2253.00 2282.60 47.00
12457 76.8360 2246.00 2288.03 47.00
12458 76.8420 2233.00 2293.54 47.00
12459 76.8480 2283.00 2298.64 48.00
12460 76.8540 2326.00 2302.71 48.00
12461 76.8600 2240.00 2305.30 47.00
12462 76.8660 2241.00 2305.91 47.00
12463 76.8720 2315.00 2304.20 48.00
12464 76.8780 2361.00 2300.01 49.00
12465 76.8840 2339.00 2293.54 48.00
12466 76.8900 2187.00 2284.94 47.00
12467 76.8960 2210.00 2274.64 47.00
12468 76.9020 2202.00 2263.14 47.00
12469 76.9080 2132.00 2250.92 46.00
12470 76.9140 2192.00 2238.52 47.00
12471 76.9200 2084.00 2226.21 46.00
12472 76.9260 2182.00 2214.44 47.00
12473 76.9320 2131.00 2203.40 46.00
12474 76.9380 2204.00 2193.34 47.00
12475 76.9440 2099.00 2184.27 46.00
12476 76.9500 2058.00 2176.39 45.00
12477 76.9560 2077.00 2169.58 46.00
12478 76.9620 2056.00 2163.81 45.00
12479 76.9680 2164.00 2158.96 47.00
12480 76.9740 2101.00 2154.85 46.00
12481 76.9800 2104.00 2151.69 46.00
12482 76.9860 2144.00 2149.36 46.00
12483 76.9920 2083.00 2147.76 46.00
12484 76.9980 2107.00 2146.91 46.00
12485 77.0040 2113.00 2146.85 46.00
12486 77.0100 2089.00 2147.58 46.00
12487 77.0160 2218.00 2149.13 47.00
12488 77.0220 2096.00 2151.54 46.00
12489 77.0280 2087.00 2154.75 46.00
12490 77.0340 2181.00 2158.67 47.00
12491 77.0400 2200.00 2163.22 47.00
12492 77.0460 2226.00 2168.22 47.00
12493 77.0520 2125.00 2173.45 46.00
12494 77.0580 2057.00 2178.59 45.00
12495 77.0640 2154.00 2183.39 46.00
12496 77.0700 2171.00 2187.57 47.00
12497 77.0760 2131.00 2190.93 46.00
12498 77.0820 2159.00 2193.48 46.00
12499 77.0880 2182.00 2195.00 47.00
12500 77.0940 2169.00 2195.80 47.00
12501 77.1000 2171.00 2196.09 47.00
12502 77.1060 2162.00 2196.14 46.00
12503 77.1120 2214.00 2196.27 47.00
12504 77.1180 2213.00 2196.78 47.00
12505 77.1240 2187.00 2197.99 47.00
12506 77.1300 2130.00 2200.17 46.00
12507 77.1360 2267.00 2203.67 48.00
12508 77.1420 2199.00 2208.70 47.00
12509 77.1480 2241.00 2215.54 47.00
12510 77.1540 2235.00 2224.25 47.00
12511 77.1600 2224.00 2234.88 47.00
12512 77.1660 2118.00 2247.26 46.00
12513 77.1720 2244.00 2261.24 47.00
12514 77.1780 2203.00 2276.44 47.00
12515 77.1840 2316.00 2292.38 48.00
12516 77.1900 2270.00 2308.73 48.00
12517 77.1960 2319.00 2325.09 48.00
12518 77.2020 2264.00 2340.91 48.00
12519 77.2080 2386.00 2355.82 49.00
12520 77.2140 2363.00 2369.57 49.00
12521 77.2200 2367.00 2382.01 49.00
12522 77.2260 2322.00 2393.13 48.00
12523 77.2320 2360.00 2403.00 49.00
12524 77.2380 2432.00 2411.65 49.00
12525 77.2440 2476.00 2419.19 50.00
12526 77.2500 2461.00 2425.74 50.00
12527 77.2560 2494.00 2431.43 50.00
12528 77.2620 2367.00 2436.30 49.00
12529 77.2680 2336.00 2440.50 48.00
12530 77.2740 2361.00 2444.13 49.00
12531 77.2800 2391.00 2446.86 49.00
12532 77.2860 2377.00 2448.44 49.00
12533 77.2920 2357.00 2448.66 49.00
12534 77.2980 2354.00 2447.32 49.00
12535 77.3040 2334.00 2444.28 48.00
12536 77.3100 2311.00 2439.69 48.00
12537 77.3160 2309.00 2433.63 48.00
12538 77.3220 2353.00 2426.37 49.00
12539 77.3280 2331.00 2418.31 48.00
12540 77.3340 2376.00 2409.87 49.00
12541 77.3400 2405.00 2401.30 49.00
12542 77.3460 2368.00 2393.30 49.00
12543 77.3520 2262.00 2385.98 48.00
12544 77.3580 2388.00 2379.33 49.00
12545 77.3640 2361.00 2373.29 49.00
12546 77.3700 2332.00 2367.56 48.00
12547 77.3760 2296.00 2361.88 48.00
12548 77.3820 2246.00 2355.87 47.00
12549 77.3880 2230.00 2349.29 47.00
12550 77.3940 2244.00 2341.88 47.00
12551 77.4000 2267.00 2333.42 48.00
12552 77.4060 2249.00 2324.05 47.00
12553 77.4120 2289.00 2313.78 48.00
12554 77.4180 2272.00 2302.78 48.00
12555 77.4240 2244.00 2291.20 47.00
12556 77.4300 2271.00 2279.17 48.00
12557 77.4360 2177.00 2266.89 47.00
12558 77.4420 2184.00 2254.63 47.00
12559 77.4480 2197.00 2242.73 47.00
12560 77.4540 2166.00 2231.49 47.00
12561 77.4600 2168.00 2221.21 47.00
12562 77.4660 2166.00 2212.09 47.00
12563 77.4720 2143.00 2204.25 46.00
12564 77.4780 2147.00 2197.72 46.00
12565 77.4840 2202.00 2192.32 47.00
12566 77.4900 2171.00 2187.96 47.00
12567 77.4960 2189.00 2184.34 47.00
12568 77.5020 2234.00 2181.51 47.00
12569 77.5080 2192.00 2179.25 47.00
12570 77.5140 2124.00 2177.52 46.00
12571 77.5200 2117.00 2176.42 46.00
12572 77.5260 2196.00 2175.89 47.00
12573 77.5320 2234.00 2176.07 47.00
12574 77.5380 2115.00 2176.98 46.00
12575 77.5440 2149.00 2178.69 46.00
12576 77.5500 2212.00 2181.16 47.00
12577 77.5560 2207.00 2184.53 47.00
12578 77.5620 2173.00 2188.73 47.00
12579 77.5680 2193.00 2193.82 47.00
12580 77.5740 2175.00 2199.90 47.00
12581 77.5800 2180.00 2207.02 47.00
12582 77.5860 2196.00 2215.10 47.00
12583 77.5920 2187.00 2224.12 47.00
12584 77.5980 2244.00 2233.60 47.00
12585 77.6040 2242.00 2243.29 47.00
12586 77.6100 2249.00 2252.66 47.00
12587 77.6160 2302.00 2261.24 48.00
12588 77.6220 2277.00 2268.47 48.00
12589 77.6280 2208.00 2273.81 47.00
12590 77.6340 2203.00 2277.09 47.00
12591 77.6400 2197.00 2277.97 47.00
12592 77.6460 2200.00 2276.66 47.00
12593 77.6520 2188.00 2273.29 47.00
12594 77.6580 2160.00 2268.00 46.00
12595 77.6640 2158.00 2261.41 46.00
12596 77.6700 2225.00 2253.91 47.00
12597 77.6760 2189.00 2245.88 47.00
12598 77.6820 2151.00 2237.75 46.00
12599 77.6880 2191.00 2229.75 47.00
12600 77.6940 2153.00 2222.22 46.00
12601 77.7000 2142.00 2215.45 46.00
12602 77.7060 2166.00 2209.69 47.00
12603 77.7120 2132.00 2205.03 46.00
12604 77.7180 2123.00 2201.55 46.00
12605 77.7240 2094.00 2199.20 46.00
12606 77.7300 2071.00 2197.82 46.00
12607 77.7360 2169.00 2197.18 47.00
12608 77.7420 2227.00 2197.04 47.00
12609 77.7480 2207.00 2197.12 47.00
12610 77.7540 2150.00 2197.17 46.00
12611 77.7600 2106.00 2197.04 46.00
12612 77.7660 2107.00 2196.62 46.00
12613 77.7720 2089.00 2195.85 46.00
12614 77.7780 2154.00 2194.81 46.00
12615 77.7840 2156.00 2193.54 46.00
12616 77.7900 2160.00 2192.13 46.00
12617 77.7960 2157.00 2190.60 46.00
12618 77.8020 2104.00 2189.02 46.00
12619 77.8080 2133.00 2187.45 46.00
12620 77.8140 2142.00 2185.99 46.00
12621 77.8200 2192.00 2184.73 47.00
12622 77.8260 2189.00 2183.71 47.00
12623 77.8320 2179.00 2182.88 47.00
12624 77.8380 2183.00 2182.23 47.00
12625 77.8440 2167.00 2181.53 47.00
12626 77.8500 2178.00 2180.62 47.00
12627 77.8560 2192.00 2179.29 47.00
12628 77.8620 2163.00 2177.61 47.00
12629 77.8680 2110.00 2175.61 46.00
12630 77.8740 2110.00 2173.46 46.00
12631 77.8800 2173.00 2171.41 47.00
12632 77.8860 2144.00 2169.67 46.00
12633 77.8920 2119.00 2168.40 46.00
12634 77.8980 2118.00 2167.75 46.00
12635 77.9040 2088.00 2167.74 46.00
12636 77.9100 2057.00 2168.36 45.00
12637 77.9160 2072.00 2169.56 46.00
12638 77.9220 2118.00 2171.27 46.00
12639 77.9280 2070.00 2173.35 45.00
12640 77.9340 2123.00 2175.69 46.00
12641 77.9400 2138.00 2178.21 46.00
12642 77.9460 2054.00 2180.70 45.00
12643 77.9520 2096.00 2183.07 46.00
12644 77.9580 2107.00 2185.22 46.00
12645 77.9640 2083.00 2187.04 46.00
12646 77.9700 2097.00 2188.57 46.00
12647 77.9760 2126.00 2189.59 46.00
12648 77.9820 2119.00 2190.37 46.00
12649 77.9880 2185.00 2190.87 47.00
12650 77.9940 2131.00 2191.21 46.00
12651 78.0000 2104.00 2191.68 46.00
12652 78.0060 2203.00 2192.39 47.00
12653 78.0120 2184.00 2193.48 47.00
12654 78.0180 2193.00 2195.22 47.00
12655 78.0240 2175.00 2197.53 47.00
12656 78.0300 2172.00 2200.55 47.00
12657 78.0360 2168.00 2204.11 47.00
12658 78.0420 2082.00 2207.99 46.00
12659 78.0480 2188.00 2211.89 47.00
12660 78.0540 2253.00 2215.68 47.00
12661 78.0600 2192.00 2219.06 47.00
12662 78.0660 2100.00 2221.75 46.00
12663 78.0720 2109.00 2223.98 46.00
12664 78.0780 2164.00 2225.58 47.00
12665 78.0840 2171.00 2226.47 47.00
12666 78.0900 2174.00 2227.06 47.00
12667 78.0960 2161.00 2227.25 46.00
12668 78.1020 2094.00 2227.00 46.00
12669 78.1080 2045.00 2226.43 45.00
12670 78.1140 2093.00 2225.50 46.00
12671 78.1200 2106.00 2224.13 46.00
12672 78.1260 2088.00 2222.30 46.00
12673 78.1320 2112.00 2219.73 46.00
12674 78.1380 2144.00 2216.53 46.00
12675 78.1440 2144.00 2212.49 46.00
12676 78.1500 2151.00 2207.88 46.00
12677 78.1560 2158.00 2202.84 46.00
12678 78.1620 2178.00 2197.54 47.00
12679 78.1680 2126.00 2192.30 46.00
12680 78.1740 2050.00 2187.24 45.00
12681 78.1800 2151.00 2182.59 46.00
12682 78.1860 2179.00 2178.40 47.00
12683 78.1920 2053.00 2174.74 45.00
12684 78.1980 2107.00 2171.67 46.00
12685 78.2040 2144.00 2170.69 46.00
12686 78.2100 2151.00 2173.49 46.00
12687 78.2160 2188.00 2176.91 47.00
loop_
_jana_atom_site_adp_c_label
_jana_atom_site_adp_c_type_symbol
_jana_atom_site_adp_c_111
_jana_atom_site_adp_c_112
_jana_atom_site_adp_c_113
_jana_atom_site_adp_c_122
_jana_atom_site_adp_c_123
_jana_atom_site_adp_c_133
_jana_atom_site_adp_c_222
_jana_atom_site_adp_c_223
_jana_atom_site_adp_c_233
_jana_atom_site_adp_c_333
In1 In 0 0 0 0 0 0 0 0 0 0
loop_
_jana_atom_site_adp_d_label
_jana_atom_site_adp_d_type_symbol
_jana_atom_site_adp_d_1111
_jana_atom_site_adp_d_1112
_jana_atom_site_adp_d_1113
_jana_atom_site_adp_d_1122
_jana_atom_site_adp_d_1123
_jana_atom_site_adp_d_1133
_jana_atom_site_adp_d_1222
_jana_atom_site_adp_d_1223
_jana_atom_site_adp_d_1233
_jana_atom_site_adp_d_1333
_jana_atom_site_adp_d_2222
_jana_atom_site_adp_d_2223
_jana_atom_site_adp_d_2233
_jana_atom_site_adp_d_2333
_jana_atom_site_adp_d_3333
In1 In 0 0 0 0 0 0 0 0 0 0 -1.34(6) 0 0 0 0
