#------------------------------------------------------------------------------
#$Date: 2019-11-07 23:03:24 +0200 (Thu, 07 Nov 2019) $
#$Revision: 223921 $
#$URL: file:///home/coder/svn-repositories/cod/cif/7/70/06/7700635.cif $
#------------------------------------------------------------------------------
#
# This file is available in the Crystallography Open Database (COD),
# http://www.crystallography.net/
#
# All data on this site have been placed in the public domain by the
# contributors.
#
data_7700635
loop_
_publ_author_name
'Ito, Hiroaki'
'Miura, Akira'
'Goto, Yosuke'
'Mizuguchi, Yoshikazu'
'Moriyoshi, Chikako'
'Kuroiwa, Yoshihiro'
'Azuma, Masaki'
'Liu, Jinjia'
'Wen, Xiao-Dong'
'Nishioka, Shunta'
'Maeda, Kazuhiko'
'Masubuchi, Yuji'
'Rosero-Navarro, Nataly Carolina'
'Tadanaga, Kiyoharu'
_publ_section_title
;
 An electronic structure governed by the displacement of the indium site
 in In-S<sub>6</sub> octahedra: LnOInS<sub>2</sub> (Ln = La, Ce, and Pr).
;
_journal_issue                   32
_journal_name_full
'Dalton transactions (Cambridge, England : 2003)'
_journal_page_first              12272
_journal_page_last               12278
_journal_paper_doi               10.1039/c9dt01562k
_journal_volume                  48
_journal_year                    2019
_chemical_formula_sum            'In La O S2'
_chemical_formula_weight         333.8
_space_group_IT_number           11
_space_group_name_Hall           '-P 2yb'
_space_group_name_H-M_alt        'P 1 21/m 1'
_symmetry_cell_setting           monoclinic
_symmetry_Int_Tables_number      11
_symmetry_space_group_name_Hall  '-P 2yb'
_symmetry_space_group_name_H-M   'P 1 21/m 1'
_audit_update_record
;
2019-01-16 deposited with the CCDC.    2019-07-24 downloaded from the CCDC.
;
_cell_angle_alpha                90
_cell_angle_beta                 90
_cell_angle_gamma                90
_cell_formula_units_Z            2
_cell_length_a                   4.07111(2)
_cell_length_b                   4.08273(3)
_cell_length_c                   12.69815(6)
_cell_measurement_temperature    460
_cell_volume                     211.059(2)
_diffrn_ambient_temperature      460
_diffrn_detector_type
'multiple MYTHEN system (Rev. Sci. Instrum. 88, 85111 (2017))'
_diffrn_measurement_device_type  SPring-8_BL02B2
_diffrn_radiation_probe          x-ray
_diffrn_radiation_type           synchrotron
_diffrn_radiation_wavelength     0.49527
_diffrn_source                   synchrotron
_exptl_absorpt_coefficient_mu    6.022
_exptl_crystal_density_diffrn    5.2532
_exptl_crystal_F_000             292
_pd_instr_location               ' ?'
_pd_meas_2theta_range_inc        0.006
_pd_meas_2theta_range_max        78.216
_pd_meas_2theta_range_min        2.100
_pd_meas_number_of_points        12687
_pd_proc_2theta_range_inc        0.006
_pd_proc_2theta_range_max        69.996
_pd_proc_2theta_range_min        2.1
_pd_proc_ls_background_function  'Manual background'
_pd_proc_ls_pref_orient_corr     none
_pd_proc_ls_profile_function     Pseudo-Voigt
_pd_proc_ls_prof_R_factor        0.0467
_pd_proc_ls_prof_wR_expected     0.0147
_pd_proc_ls_prof_wR_factor       0.0767
_refine_ls_goodness_of_fit_all   5.20
_refine_ls_number_constraints    0
_refine_ls_number_parameters     23
_refine_ls_number_restraints     0
_refine_ls_R_factor_all          0.1688
_refine_ls_R_factor_gt           0.1111
_refine_ls_shift/su_max          0.0337
_refine_ls_shift/su_mean         0.0068
_refine_ls_weighting_scheme      sigma
_refine_ls_wR_factor_all         0.0979
_refine_ls_wR_factor_gt          0.0912
_cod_data_source_file            c9dt01562k2.cif
_cod_data_source_block           I_CCDC6
_cod_depositor_comments
;
The following automatic conversions were performed:

'_diffrn_radiation_probe' value 'X-ray' changed to 'x-ray' according
to
/home/data/users/saulius/crontab/automatic-downloads/rss-feeds/RSC/lib/dictionaries/cif_core.dic
dictionary named 'cif_core.dic' version 2.4.2 from 2011-04-26.

Automatic conversion script
Id: cif_fix_values 4973 2017-02-22 13:04:09Z antanas 

 Adding full bibliography for 7700629--7700637.cif.
;
_cod_original_formula_sum        'In1 La1 O1 S2'
_cod_database_code               7700635
loop_
_space_group_symop_id
_space_group_symop_operation_xyz
1 x,y,z
2 -x,y+1/2,-z
3 -x,-y,-z
4 x,-y+1/2,z
loop_
_atom_site_label
_atom_site_type_symbol
_atom_site_fract_x
_atom_site_fract_y
_atom_site_fract_z
_atom_site_adp_type
_atom_site_U_iso_or_equiv
_atom_site_site_symmetry_multiplicity
_atom_site_occupancy
_atom_site_calc_flag
La1 La 0.25 0.25 0.09813(8) Uiso 0.00814(19) 2 1 d
In1 In 0.25 0.25 0.60748(12) Uani 0.0946(13) 2 1 d
S1 S 0.25 0.25 0.4112(3) Uiso 0.0175(10) 2 1 d
S2 S 0.25 0.25 0.7907(3) Uiso 0.0088(9) 2 1 d
O1 O 0.75 0.25 0 Uiso 0.015(3) 2 1 d
loop_
_atom_site_aniso_label
_atom_site_aniso_type_symbol
_atom_site_aniso_U_11
_atom_site_aniso_U_22
_atom_site_aniso_U_33
_atom_site_aniso_U_12
_atom_site_aniso_U_13
_atom_site_aniso_U_23
In1 In 0.0681(17) 0.203(3) 0.0132(10) 0 0 0
loop_
_atom_type_symbol
_atom_type_scat_dispersion_real
_atom_type_scat_dispersion_imag
_atom_type_scat_source
In -1.8303 0.6928 'International Tables Vol C tables 4.2.6.8 and 6.1.1.1'
La -0.8127 1.3121 'International Tables Vol C tables 4.2.6.8 and 6.1.1.1'
O 0.0041 0.0028 'International Tables Vol C tables 4.2.6.8 and 6.1.1.1'
S 0.0661 0.0600 'International Tables Vol C tables 4.2.6.8 and 6.1.1.1'
loop_
_geom_angle_atom_site_label_1
_geom_angle_atom_site_label_2
_geom_angle_atom_site_label_3
_geom_angle_site_symmetry_1
_geom_angle_site_symmetry_3
_geom_angle
O1 La1 O1 1_455 . 117.05(4)
O1 La1 O1 1_455 2_645 74.215(19)
O1 La1 O1 1_455 2_655 74.215(19)
O1 La1 O1 . 2_645 74.215(19)
O1 La1 O1 . 2_655 74.215(19)
O1 La1 O1 2_645 2_655 117.20(4)
S1 In1 S1 . 2_546 85.29(9)
S1 In1 S1 . 2_556 85.29(9)
S1 In1 S1 . 2_646 85.29(9)
S1 In1 S1 . 2_656 85.29(9)
S1 In1 S2 . . 180.0(5)
S1 In1 S1 2_546 2_556 89.776(11)
S1 In1 S1 2_546 2_646 89.452(11)
S1 In1 S1 2_546 2_656 170.58(13)
S1 In1 S2 2_546 . 94.71(9)
S1 In1 S1 2_556 2_646 170.58(13)
S1 In1 S1 2_556 2_656 89.452(11)
S1 In1 S2 2_556 . 94.71(9)
S1 In1 S1 2_646 2_656 89.776(11)
S1 In1 S2 2_646 . 94.71(9)
S1 In1 S2 2_656 . 94.71(9)
In1 S1 In1 . 2_546 94.71(9)
In1 S1 In1 . 2_556 94.71(9)
In1 S1 In1 . 2_646 94.71(9)
In1 S1 In1 . 2_656 94.71(9)
In1 S1 In1 2_546 2_556 89.776(14)
In1 S1 In1 2_546 2_646 89.452(14)
In1 S1 In1 2_546 2_656 170.58(17)
In1 S1 In1 2_556 2_646 170.58(17)
In1 S1 In1 2_556 2_656 89.452(14)
In1 S1 In1 2_646 2_656 89.776(14)
La1 O1 La1 . 1_655 117.05(3)
La1 O1 La1 . 2_645 105.785(13)
La1 O1 La1 . 2_655 105.785(13)
La1 O1 O1 . 2_645 52.971(9)
La1 O1 O1 . 2_655 52.971(9)
La1 O1 O1 . 2_745 127.029(9)
La1 O1 O1 . 2_755 127.029(9)
La1 O1 La1 1_655 2_645 105.785(13)
La1 O1 La1 1_655 2_655 105.785(13)
La1 O1 O1 1_655 2_645 127.029(9)
La1 O1 O1 1_655 2_655 127.029(9)
La1 O1 O1 1_655 2_745 52.971(9)
La1 O1 O1 1_655 2_755 52.971(9)
La1 O1 La1 2_645 2_655 117.20(3)
La1 O1 O1 2_645 2_645 52.814(10)
La1 O1 O1 2_645 2_655 127.186(10)
La1 O1 O1 2_645 2_745 52.814(10)
La1 O1 O1 2_645 2_755 127.186(10)
La1 O1 O1 2_655 2_645 127.186(10)
La1 O1 O1 2_655 2_655 52.814(10)
La1 O1 O1 2_655 2_745 127.186(10)
La1 O1 O1 2_655 2_755 52.814(10)
O1 O1 O1 2_645 2_655 90.1633(5)
O1 O1 O1 2_645 2_745 89.8367(5)
O1 O1 O1 2_645 2_755 180.0(5)
O1 O1 O1 2_655 2_745 180.0(5)
O1 O1 O1 2_655 2_755 89.8367(5)
O1 O1 O1 2_745 2_755 90.1633(5)
loop_
_geom_bond_atom_site_label_1
_geom_bond_atom_site_label_2
_geom_bond_site_symmetry_2
_geom_bond_distance
La1 O1 1_455 2.3867(5)
La1 O1 . 2.3867(5)
La1 O1 2_645 2.3916(5)
La1 O1 2_655 2.3916(5)
In1 S1 . 2.492(4)
In1 S1 2_546 2.8926(4)
In1 S1 2_556 2.8926(4)
In1 S1 2_646 2.8926(4)
In1 S1 2_656 2.8926(4)
In1 S2 . 2.326(4)
O1 O1 2_645 2.88282(2)
O1 O1 2_655 2.88282(2)
O1 O1 2_745 2.88282(2)
O1 O1 2_755 2.88282(2)
loop_
_pd_proc_point_id
_pd_proc_2theta_corrected
_pd_proc_intensity_net
_pd_calc_intensity_net
_pd_proc_ls_weight
1 2.1000 5474.00 5632.42 74.00
2 2.1060 5559.00 5633.67 75.00
3 2.1120 5532.00 5634.92 74.00
4 2.1180 5381.00 5662.90 73.00
5 2.1240 5238.00 5667.11 72.00
6 2.1300 5384.00 5671.84 73.00
7 2.1360 5482.00 5677.21 74.00
8 2.1420 5426.00 5683.40 74.00
9 2.1480 5427.00 5690.64 74.00
10 2.1540 5447.00 5699.25 74.00
11 2.1600 5513.00 5709.68 74.00
12 2.1660 5524.00 5722.57 74.00
13 2.1720 5533.00 5738.89 74.00
14 2.1780 5558.00 5760.12 75.00
15 2.1840 5650.00 5788.64 75.00
16 2.1900 5706.00 5828.42 76.00
17 2.1960 5825.00 5886.55 76.00
18 2.2020 5938.00 5976.58 77.00
19 2.2080 6244.00 6128.95 79.00
20 2.2140 7112.00 6484.12 84.00
21 2.2200 9791.00 8178.46 99.00
22 2.2260 17497.00 15547.10 132.00
23 2.2320 30771.00 28761.60 175.00
24 2.2380 35587.00 28275.00 189.00
25 2.2440 24584.00 15036.70 157.00
26 2.2500 12374.00 8032.96 111.00
27 2.2560 7592.00 6465.55 87.00
28 2.2620 6496.00 6131.23 81.00
29 2.2680 6096.00 5985.38 78.00
30 2.2740 5858.00 5899.71 77.00
31 2.2800 5706.00 5845.12 76.00
32 2.2860 5665.00 5808.46 75.00
33 2.2920 5734.00 5782.83 76.00
34 2.2980 5672.00 5764.36 75.00
35 2.3040 5561.00 5750.72 75.00
36 2.3100 5500.00 5740.45 74.00
37 2.3160 5522.00 5732.61 74.00
38 2.3220 5485.00 5726.57 74.00
39 2.3280 5598.00 5721.88 75.00
40 2.3340 5780.00 5718.23 76.00
41 2.3400 5764.00 5715.38 76.00
42 2.3460 5740.00 5713.18 76.00
43 2.3520 5802.00 5711.49 76.00
44 2.3580 5707.00 5686.13 76.00
45 2.3640 5720.00 5687.38 76.00
46 2.3700 5738.00 5688.63 76.00
47 2.3760 5614.00 5689.87 75.00
48 2.3820 5542.00 5691.12 74.00
49 2.3880 5534.00 5692.37 74.00
50 2.3940 5570.00 5693.62 75.00
51 2.4000 5580.00 5694.87 75.00
52 2.4060 5612.00 5696.12 75.00
53 2.4120 5551.00 5697.37 75.00
54 2.4180 5508.00 5698.62 74.00
55 2.4240 5458.00 5699.87 74.00
56 2.4300 5420.00 5701.12 74.00
57 2.4360 5535.00 5702.36 74.00
58 2.4420 5605.00 5703.61 75.00
59 2.4480 5725.00 5704.86 76.00
60 2.4540 5620.00 5706.11 75.00
61 2.4600 5544.00 5707.36 74.00
62 2.4660 5625.00 5708.61 75.00
63 2.4720 5605.00 5709.86 75.00
64 2.4780 5608.00 5711.11 75.00
65 2.4840 5633.00 5712.36 75.00
66 2.4900 5621.00 5713.61 75.00
67 2.4960 5499.00 5714.85 74.00
68 2.5020 5608.00 5716.10 75.00
69 2.5080 5654.00 5717.35 75.00
70 2.5140 5560.00 5718.60 75.00
71 2.5200 5576.00 5719.85 75.00
72 2.5260 5637.00 5721.10 75.00
73 2.5320 5649.00 5722.35 75.00
74 2.5380 5446.00 5725.58 74.00
75 2.5440 5689.00 5730.79 75.00
76 2.5500 5657.00 5736.01 75.00
77 2.5560 5678.00 5741.22 75.00
78 2.5620 5730.00 5746.44 76.00
79 2.5680 5792.00 5751.65 76.00
80 2.5740 5733.00 5756.87 76.00
81 2.5800 5546.00 5762.08 74.00
82 2.5860 5759.00 5767.30 76.00
83 2.5920 5582.00 5772.51 75.00
84 2.5980 5732.00 5777.73 76.00
85 2.6040 5775.00 5782.94 76.00
86 2.6100 5708.00 5788.15 76.00
87 2.6160 5629.00 5793.37 75.00
88 2.6220 5758.00 5798.58 76.00
89 2.6280 5659.00 5803.80 75.00
90 2.6340 5791.00 5809.01 76.00
91 2.6400 5680.00 5814.23 75.00
92 2.6460 5725.00 5819.44 76.00
93 2.6520 5787.00 5824.66 76.00
94 2.6580 5633.00 5829.87 75.00
95 2.6640 5689.00 5835.09 75.00
96 2.6700 5738.00 5840.30 76.00
97 2.6760 5797.00 5845.51 76.00
98 2.6820 5779.00 5850.73 76.00
99 2.6880 5746.00 5855.94 76.00
100 2.6940 5747.00 5861.16 76.00
101 2.7000 5770.00 5866.37 76.00
102 2.7060 5740.00 5871.59 76.00
103 2.7120 5748.00 5876.80 76.00
104 2.7180 5605.00 5882.02 75.00
105 2.7240 5782.00 5887.23 76.00
106 2.7300 5953.00 5892.45 77.00
107 2.7360 5836.00 5897.66 76.00
108 2.7420 5839.00 5902.87 76.00
109 2.7480 5843.00 5908.09 76.00
110 2.7540 5842.00 5913.30 76.00
111 2.7600 5793.00 5918.52 76.00
112 2.7660 5795.00 5923.73 76.00
113 2.7720 5733.00 5928.95 76.00
114 2.7780 5838.00 5934.16 76.00
115 2.7840 5721.00 5939.38 76.00
116 2.7900 5807.00 5944.59 76.00
117 2.7960 5754.00 5949.81 76.00
118 2.8020 5969.00 5955.02 77.00
119 2.8080 5919.00 5960.23 77.00
120 2.8140 5827.00 5965.45 76.00
121 2.8200 5889.00 5970.66 77.00
122 2.8260 5867.00 5975.88 77.00
123 2.8320 5928.00 5981.09 77.00
124 2.8380 5865.00 5986.31 77.00
125 2.8440 5691.00 5991.52 75.00
126 2.8500 6080.00 5996.74 78.00
127 2.8560 5743.00 6001.95 76.00
128 2.8620 5755.00 6007.17 76.00
129 2.8680 5932.00 6012.38 77.00
130 2.8740 5952.00 6017.59 77.00
131 2.8800 5946.00 6022.81 77.00
132 2.8860 5949.00 6028.02 77.00
133 2.8920 5948.00 6033.24 77.00
134 2.8980 5930.00 6038.45 77.00
135 2.9040 5835.00 6043.67 76.00
136 2.9100 5912.00 6048.88 77.00
137 2.9160 5972.00 6054.10 77.00
138 2.9220 5986.00 6059.31 77.00
139 2.9280 5844.00 6064.52 76.00
140 2.9340 6003.00 6069.74 77.00
141 2.9400 6060.00 6074.95 78.00
142 2.9460 6117.00 6080.17 78.00
143 2.9520 6011.00 6085.38 78.00
144 2.9580 5980.00 6090.60 77.00
145 2.9640 5962.00 6095.81 77.00
146 2.9700 5928.00 6101.03 77.00
147 2.9760 5931.00 6106.24 77.00
148 2.9820 5977.00 6111.46 77.00
149 2.9880 5950.00 6116.67 77.00
150 2.9940 5952.00 6121.88 77.00
151 3.0000 6023.00 6127.10 78.00
152 3.0060 6137.00 6132.31 78.00
153 3.0120 5997.00 6137.53 77.00
154 3.0180 6046.00 6142.74 78.00
155 3.0240 6042.00 6147.96 78.00
156 3.0300 5936.00 6153.17 77.00
157 3.0360 6205.00 6158.39 79.00
158 3.0420 6043.00 6163.60 78.00
159 3.0480 5993.00 6168.82 77.00
160 3.0540 6097.00 6174.03 78.00
161 3.0600 6085.00 6179.24 78.00
162 3.0660 6269.00 6184.46 79.00
163 3.0720 6250.00 6189.67 79.00
164 3.0780 6033.00 6194.89 78.00
165 3.0840 6086.00 6200.10 78.00
166 3.0900 6094.00 6205.32 78.00
167 3.0960 6114.00 6210.53 78.00
168 3.1020 6075.00 6215.75 78.00
169 3.1080 6115.00 6220.96 78.00
170 3.1140 6125.00 6226.18 78.00
171 3.1200 6126.00 6231.39 78.00
172 3.1260 6262.00 6236.60 79.00
173 3.1320 6216.00 6241.82 79.00
174 3.1380 6086.00 6247.03 78.00
175 3.1440 6034.00 6252.25 78.00
176 3.1500 6141.00 6257.46 78.00
177 3.1560 6256.00 6262.68 79.00
178 3.1620 6222.00 6267.89 79.00
179 3.1680 6116.00 6273.11 78.00
180 3.1740 6190.00 6278.32 79.00
181 3.1800 6281.00 6283.54 79.00
182 3.1860 6285.00 6288.75 79.00
183 3.1920 6214.00 6293.96 79.00
184 3.1980 6239.00 6299.18 79.00
185 3.2040 6413.00 6304.39 80.00
186 3.2100 6944.00 6309.61 83.00
187 3.2160 6895.00 6314.82 83.00
188 3.2220 6393.00 6320.04 80.00
189 3.2280 6346.00 6325.25 80.00
190 3.2340 6286.00 6330.47 79.00
191 3.2400 6189.00 6335.68 79.00
192 3.2460 6152.00 6340.90 78.00
193 3.2520 6182.00 6346.11 79.00
194 3.2580 6267.00 6351.32 79.00
195 3.2640 6363.00 6356.54 80.00
196 3.2700 6313.00 6361.75 79.00
197 3.2760 6221.00 6366.97 79.00
198 3.2820 6353.00 6372.18 80.00
199 3.2880 6355.00 6377.40 80.00
200 3.2940 6342.00 6382.61 80.00
201 3.3000 6364.00 6387.83 80.00
202 3.3060 6280.00 6393.04 79.00
203 3.3120 6203.00 6398.25 79.00
204 3.3180 6289.00 6403.47 79.00
205 3.3240 6316.00 6408.68 79.00
206 3.3300 6350.00 6413.90 80.00
207 3.3360 6440.00 6419.11 80.00
208 3.3420 6385.00 6424.33 80.00
209 3.3480 6389.00 6429.54 80.00
210 3.3540 6433.00 6434.76 80.00
211 3.3600 6446.00 6439.97 80.00
212 3.3660 6351.00 6445.19 80.00
213 3.3720 6336.00 6450.40 80.00
214 3.3780 6462.00 6455.61 80.00
215 3.3840 6528.00 6460.83 81.00
216 3.3900 6666.00 6466.04 82.00
217 3.3960 7175.00 6471.26 85.00
218 3.4020 7315.00 6476.47 86.00
219 3.4080 6857.00 6481.69 83.00
220 3.4140 6468.00 6486.90 80.00
221 3.4200 6431.00 6492.12 80.00
222 3.4260 6466.00 6497.33 80.00
223 3.4320 6547.00 6502.55 81.00
224 3.4380 6649.00 6507.76 82.00
225 3.4440 6508.00 6512.97 81.00
226 3.4500 6412.00 6518.19 80.00
227 3.4560 6432.00 6523.40 80.00
228 3.4620 6444.00 6528.62 80.00
229 3.4680 6446.00 6533.83 80.00
230 3.4740 6489.00 6539.05 81.00
231 3.4800 6558.00 6544.26 81.00
232 3.4860 6519.00 6549.48 81.00
233 3.4920 6488.00 6554.69 81.00
234 3.4980 6424.00 6559.91 80.00
235 3.5040 6291.00 6565.12 79.00
236 3.5100 6380.00 6570.33 80.00
237 3.5160 6446.00 6575.55 80.00
238 3.5220 6391.00 6580.76 80.00
239 3.5280 6442.00 6585.98 80.00
240 3.5340 6466.00 6591.19 80.00
241 3.5400 6383.00 6596.41 80.00
242 3.5460 6375.00 6601.62 80.00
243 3.5520 6412.00 6606.84 80.00
244 3.5580 6467.00 6612.05 80.00
245 3.5640 6508.00 6617.27 81.00
246 3.5700 6453.00 6622.48 80.00
247 3.5760 6475.00 6627.69 80.00
248 3.5820 6519.00 6632.91 81.00
249 3.5880 6533.00 6638.12 81.00
250 3.5940 6570.00 6643.34 81.00
251 3.6000 6559.00 6648.55 81.00
252 3.6060 6582.00 6653.77 81.00
253 3.6120 6589.00 6658.98 81.00
254 3.6180 6490.00 6664.20 81.00
255 3.6240 6505.00 6669.41 81.00
256 3.6300 6441.00 6674.62 80.00
257 3.6360 6338.00 6679.84 80.00
258 3.6420 6434.00 6682.85 80.00
259 3.6480 6476.00 6685.43 80.00
260 3.6540 6441.00 6688.00 80.00
261 3.6600 6453.00 6690.57 80.00
262 3.6660 6486.00 6693.14 81.00
263 3.6720 6481.00 6695.72 81.00
264 3.6780 6498.00 6698.29 81.00
265 3.6840 6537.00 6700.86 81.00
266 3.6900 6545.00 6703.44 81.00
267 3.6960 6485.00 6706.01 81.00
268 3.7020 6627.00 6708.58 81.00
269 3.7080 6535.00 6711.15 81.00
270 3.7140 6507.00 6713.73 81.00
271 3.7200 6567.00 6716.30 81.00
272 3.7260 6595.00 6718.87 81.00
273 3.7320 6535.00 6721.45 81.00
274 3.7380 6524.00 6724.02 81.00
275 3.7440 6473.00 6726.59 80.00
276 3.7500 6571.00 6729.16 81.00
277 3.7560 6580.00 6731.74 81.00
278 3.7620 6550.00 6734.31 81.00
279 3.7680 6623.00 6736.88 81.00
280 3.7740 6578.00 6739.46 81.00
281 3.7800 6534.00 6742.03 81.00
282 3.7860 6653.00 6744.60 82.00
283 3.7920 6573.00 6747.17 81.00
284 3.7980 6525.00 6749.75 81.00
285 3.8040 6477.00 6752.32 80.00
286 3.8100 6580.00 6754.89 81.00
287 3.8160 6707.00 6757.47 82.00
288 3.8220 6608.00 6760.04 81.00
289 3.8280 6622.00 6762.61 81.00
290 3.8340 6665.00 6765.19 82.00
291 3.8400 6712.00 6767.76 82.00
292 3.8460 6762.00 6770.33 82.00
293 3.8520 6722.00 6772.90 82.00
294 3.8580 6728.00 6775.48 82.00
295 3.8640 6593.00 6778.05 81.00
296 3.8700 6636.00 6780.62 81.00
297 3.8760 6632.00 6783.19 81.00
298 3.8820 6622.00 6785.77 81.00
299 3.8880 6655.00 6788.34 82.00
300 3.8940 6540.00 6790.91 81.00
301 3.9000 6548.00 6793.49 81.00
302 3.9060 6524.00 6796.06 81.00
303 3.9120 6712.00 6798.63 82.00
304 3.9180 6720.00 6801.21 82.00
305 3.9240 6600.00 6803.78 81.00
306 3.9300 6561.00 6806.35 81.00
307 3.9360 6699.00 6808.92 82.00
308 3.9420 6692.00 6811.50 82.00
309 3.9480 6788.00 6814.07 82.00
310 3.9540 6650.00 6816.64 82.00
311 3.9600 6628.00 6826.00 81.00
312 3.9660 6773.00 6836.70 82.00
313 3.9720 6753.00 6847.41 82.00
314 3.9780 6768.00 6858.12 82.00
315 3.9840 6652.00 6868.83 82.00
316 3.9900 6767.00 6879.54 82.00
317 3.9960 6712.00 6890.25 82.00
318 4.0020 6794.00 6900.96 82.00
319 4.0080 6782.00 6911.67 82.00
320 4.0140 6829.00 6922.38 83.00
321 4.0200 6806.00 6933.08 82.00
322 4.0260 6955.00 6943.79 83.00
323 4.0320 6954.00 6954.50 83.00
324 4.0380 6966.00 6965.21 83.00
325 4.0440 7145.00 6975.92 85.00
326 4.0500 7109.00 6986.63 84.00
327 4.0560 7118.00 6997.34 84.00
328 4.0620 7174.00 7008.05 85.00
329 4.0680 7221.00 7018.75 85.00
330 4.0740 7059.00 7029.46 84.00
331 4.0800 7066.00 7040.17 84.00
332 4.0860 7274.00 7050.88 85.00
333 4.0920 7203.00 7061.59 85.00
334 4.0980 7436.00 7072.30 86.00
335 4.1040 8203.00 7083.01 91.00
336 4.1100 10340.00 7093.72 102.00
337 4.1160 12054.00 7104.43 110.00
338 4.1220 10987.00 7115.14 105.00
339 4.1280 8981.00 7125.84 95.00
340 4.1340 7736.00 7136.55 88.00
341 4.1400 7468.00 7147.26 86.00
342 4.1460 7175.00 7157.97 85.00
343 4.1520 7104.00 7168.68 84.00
344 4.1580 7002.00 7179.39 84.00
345 4.1640 7014.00 7190.10 84.00
346 4.1700 6929.00 7200.81 83.00
347 4.1760 6902.00 7211.52 83.00
348 4.1820 6920.00 7222.22 83.00
349 4.1880 6968.00 7232.93 83.00
350 4.1940 6988.00 7243.64 84.00
351 4.2000 6927.00 7254.35 83.00
352 4.2060 7095.00 7265.06 84.00
353 4.2120 6956.00 7275.77 83.00
354 4.2180 7116.00 7286.48 84.00
355 4.2240 7224.00 7297.19 85.00
356 4.2300 7154.00 7307.90 85.00
357 4.2360 6990.00 7318.60 84.00
358 4.2420 7248.00 7329.31 85.00
359 4.2480 7576.00 7340.02 87.00
360 4.2540 8230.00 7350.73 91.00
361 4.2600 8892.00 7361.44 94.00
362 4.2660 8166.00 7372.15 90.00
363 4.2720 7592.00 7382.86 87.00
364 4.2780 7314.00 7393.57 86.00
365 4.2840 7261.00 7404.27 85.00
366 4.2900 7040.00 7414.98 84.00
367 4.2960 6958.00 7425.69 83.00
368 4.3020 7114.00 7436.40 84.00
369 4.3080 7052.00 7447.11 84.00
370 4.3140 6991.00 7457.82 84.00
371 4.3200 7110.00 7468.53 84.00
372 4.3260 6929.00 7479.24 83.00
373 4.3320 7119.00 7489.95 84.00
374 4.3380 7098.00 7500.65 84.00
375 4.3440 6947.00 7511.36 83.00
376 4.3500 6992.00 7657.25 84.00
377 4.3560 7157.00 7682.42 85.00
378 4.3620 7066.00 7710.04 84.00
379 4.3680 7007.00 7740.69 84.00
380 4.3740 7201.00 7775.15 85.00
381 4.3800 7193.00 7808.75 85.00
382 4.3860 7237.00 7842.92 85.00
383 4.3920 7245.00 7885.26 85.00
384 4.3980 7372.00 7938.52 86.00
385 4.4040 7519.00 8006.75 87.00
386 4.4100 7333.00 8096.01 86.00
387 4.4160 7558.00 8215.75 87.00
388 4.4220 7588.00 8381.33 87.00
389 4.4280 8098.00 8619.08 90.00
390 4.4340 8166.00 8976.85 90.00
391 4.4400 8583.00 9549.78 93.00
392 4.4460 9513.00 10585.50 98.00
393 4.4520 11523.00 13426.90 107.00
394 4.4580 17289.00 25555.00 131.00
395 4.4640 45740.00 61458.90 214.00
396 4.4700 99016.00 98354.40 315.00
397 4.4760 88125.00 70735.80 297.00
398 4.4820 36745.00 30382.70 192.00
399 4.4880 15748.00 14618.50 125.00
400 4.4940 11062.00 10898.20 105.00
401 4.5000 9427.00 9695.05 97.00
402 4.5060 8789.00 9059.67 94.00
403 4.5120 8933.00 8668.49 95.00
404 4.5180 9340.00 8410.85 97.00
405 4.5240 9244.00 8232.51 96.00
406 4.5300 8539.00 8104.05 92.00
407 4.5360 7913.00 8008.49 89.00
408 4.5420 7762.00 7935.46 88.00
409 4.5480 7601.00 7878.39 87.00
410 4.5540 7472.00 7832.91 86.00
411 4.5600 7379.00 7796.07 86.00
412 4.5660 7430.00 7765.79 86.00
413 4.5720 7411.00 7740.57 86.00
414 4.5780 7433.00 7719.32 86.00
415 4.5840 7440.00 7701.24 86.00
416 4.5900 7335.00 7685.71 86.00
417 4.5960 7391.00 7547.26 86.00
418 4.6020 7281.00 7546.63 85.00
419 4.6080 7328.00 7546.00 86.00
420 4.6140 7350.00 7545.37 86.00
421 4.6200 7336.00 7544.74 86.00
422 4.6260 7224.00 7544.11 85.00
423 4.6320 7183.00 7543.48 85.00
424 4.6380 7418.00 7542.85 86.00
425 4.6440 7327.00 7542.22 86.00
426 4.6500 7297.00 7541.59 85.00
427 4.6560 7433.00 7540.96 86.00
428 4.6620 7265.00 7541.45 85.00
429 4.6680 7359.00 7547.52 86.00
430 4.6740 7252.00 7553.60 85.00
431 4.6800 7432.00 7559.68 86.00
432 4.6860 7353.00 7565.75 86.00
433 4.6920 7644.00 7571.83 87.00
434 4.6980 7704.00 7577.90 88.00
435 4.7040 7898.00 7583.98 89.00
436 4.7100 7776.00 7590.06 88.00
437 4.7160 7803.00 7596.13 88.00
438 4.7220 7681.00 7602.21 88.00
439 4.7280 7382.00 7608.29 86.00
440 4.7340 7558.00 7614.36 87.00
441 4.7400 7462.00 7620.44 86.00
442 4.7460 7373.00 7626.52 86.00
443 4.7520 7461.00 7632.59 86.00
444 4.7580 7380.00 7638.67 86.00
445 4.7640 7302.00 7644.75 85.00
446 4.7700 7408.00 7650.82 86.00
447 4.7760 7264.00 7656.90 85.00
448 4.7820 7297.00 7662.98 85.00
449 4.7880 7386.00 7669.05 86.00
450 4.7940 7373.00 7675.13 86.00
451 4.8000 7489.00 7681.21 87.00
452 4.8060 7292.00 7687.28 85.00
453 4.8120 7303.00 7693.36 85.00
454 4.8180 7433.00 7699.44 86.00
455 4.8240 7262.00 7705.51 85.00
456 4.8300 7254.00 7711.59 85.00
457 4.8360 7386.00 7717.67 86.00
458 4.8420 7408.00 7723.74 86.00
459 4.8480 7349.00 7729.82 86.00
460 4.8540 7306.00 7735.89 85.00
461 4.8600 7283.00 7741.97 85.00
462 4.8660 7467.00 7748.05 86.00
463 4.8720 7493.00 7754.12 87.00
464 4.8780 7374.00 7760.20 86.00
465 4.8840 7454.00 7766.28 86.00
466 4.8900 7422.00 7772.35 86.00
467 4.8960 7426.00 7778.43 86.00
468 4.9020 7367.00 7784.51 86.00
469 4.9080 7570.00 7790.58 87.00
470 4.9140 7469.00 7796.66 86.00
471 4.9200 7556.00 7802.74 87.00
472 4.9260 7411.00 7808.81 86.00
473 4.9320 7536.00 7814.89 87.00
474 4.9380 7399.00 7820.97 86.00
475 4.9440 7517.00 7827.04 87.00
476 4.9500 7661.00 7833.12 88.00
477 4.9560 7487.00 7839.20 87.00
478 4.9620 7492.00 7845.27 87.00
479 4.9680 7565.00 7851.35 87.00
480 4.9740 7537.00 7857.42 87.00
481 4.9800 7598.00 7863.50 87.00
482 4.9860 7550.00 7869.58 87.00
483 4.9920 7478.00 7875.65 86.00
484 4.9980 7558.00 7881.73 87.00
485 5.0040 7578.00 7887.81 87.00
486 5.0100 7526.00 7893.88 87.00
487 5.0160 7587.00 7899.96 87.00
488 5.0220 7765.00 7906.04 88.00
489 5.0280 7713.00 7912.11 88.00
490 5.0340 7703.00 7918.19 88.00
491 5.0400 7684.00 7924.27 88.00
492 5.0460 7633.00 7930.34 87.00
493 5.0520 7619.00 7936.42 87.00
494 5.0580 7580.00 7942.50 87.00
495 5.0640 7653.00 7948.57 87.00
496 5.0700 7808.00 7954.65 88.00
497 5.0760 7787.00 7960.73 88.00
498 5.0820 7774.00 7966.80 88.00
499 5.0880 7713.00 7972.88 88.00
500 5.0940 7944.00 7978.96 89.00
501 5.1000 8008.00 7985.03 89.00
502 5.1060 7876.00 7991.11 89.00
503 5.1120 7796.00 7997.18 88.00
504 5.1180 7770.00 8003.26 88.00
505 5.1240 7731.00 8009.34 88.00
506 5.1300 8017.00 8016.24 90.00
507 5.1360 7763.00 8023.97 88.00
508 5.1420 7887.00 8031.70 89.00
509 5.1480 7948.00 8039.43 89.00
510 5.1540 8004.00 8047.16 89.00
511 5.1600 7924.00 8054.89 89.00
512 5.1660 7906.00 8062.62 89.00
513 5.1720 8025.00 8070.35 90.00
514 5.1780 8041.00 8078.07 90.00
515 5.1840 7893.00 8085.80 89.00
516 5.1900 7756.00 8093.53 88.00
517 5.1960 7758.00 8101.26 88.00
518 5.2020 7894.00 8108.99 89.00
519 5.2080 7807.00 8116.72 88.00
520 5.2140 7846.00 8124.45 89.00
521 5.2200 7802.00 8132.18 88.00
522 5.2260 7778.00 8139.91 88.00
523 5.2320 7975.00 8147.64 89.00
524 5.2380 7783.00 8155.37 88.00
525 5.2440 7796.00 8163.10 88.00
526 5.2500 7942.00 8170.83 89.00
527 5.2560 8071.00 8178.55 90.00
528 5.2620 8042.00 8186.28 90.00
529 5.2680 7982.00 8194.01 89.00
530 5.2740 8109.00 8201.74 90.00
531 5.2800 8084.00 8209.47 90.00
532 5.2860 8072.00 8217.20 90.00
533 5.2920 8059.00 8224.93 90.00
534 5.2980 7919.00 8232.66 89.00
535 5.3040 8056.00 8240.39 90.00
536 5.3100 8274.00 8248.12 91.00
537 5.3160 8179.00 8255.85 90.00
538 5.3220 8126.00 8263.58 90.00
539 5.3280 8081.00 8271.31 90.00
540 5.3340 8177.00 8279.03 90.00
541 5.3400 8075.00 8286.76 90.00
542 5.3460 8054.00 8294.49 90.00
543 5.3520 7933.00 8302.22 89.00
544 5.3580 8018.00 8309.95 90.00
545 5.3640 8118.00 8317.68 90.00
546 5.3700 7957.00 8330.56 89.00
547 5.3760 8131.00 8346.02 90.00
548 5.3820 8220.00 8361.47 91.00
549 5.3880 8134.00 8376.93 90.00
550 5.3940 8194.00 8392.39 91.00
551 5.4000 8478.00 8407.84 92.00
552 5.4060 8745.00 8423.30 94.00
553 5.4120 8742.00 8438.75 93.00
554 5.4180 8393.00 8454.21 92.00
555 5.4240 8398.00 8469.67 92.00
556 5.4300 8302.00 8485.12 91.00
557 5.4360 8379.00 8500.58 92.00
558 5.4420 8363.00 8516.03 91.00
559 5.4480 8413.00 8531.49 92.00
560 5.4540 8345.00 8546.95 91.00
561 5.4600 8372.00 8562.40 91.00
562 5.4660 8506.00 8577.86 92.00
563 5.4720 8485.00 8593.31 92.00
564 5.4780 8552.00 8608.77 92.00
565 5.4840 8605.00 8624.23 93.00
566 5.4900 8670.00 8639.68 93.00
567 5.4960 8591.00 8655.14 93.00
568 5.5020 8433.00 8670.59 92.00
569 5.5080 8432.00 8686.05 92.00
570 5.5140 8486.00 8701.51 92.00
571 5.5200 8452.00 8716.96 92.00
572 5.5260 8521.00 8732.42 92.00
573 5.5320 8483.00 8747.88 92.00
574 5.5380 8510.00 8763.33 92.00
575 5.5440 8716.00 8778.79 93.00
576 5.5500 8680.00 8794.24 93.00
577 5.5560 8681.00 8809.70 93.00
578 5.5620 8586.00 8825.16 93.00
579 5.5680 8493.00 8840.61 92.00
580 5.5740 8680.00 8856.07 93.00
581 5.5800 8613.00 8871.52 93.00
582 5.5860 8652.00 8886.98 93.00
583 5.5920 8733.00 8902.44 93.00
584 5.5980 8695.00 8917.89 93.00
585 5.6040 8551.00 8933.35 92.00
586 5.6100 8616.00 8948.80 93.00
587 5.6160 8823.00 8964.71 94.00
588 5.6220 8753.00 8980.61 94.00
589 5.6280 8765.00 8996.51 94.00
590 5.6340 8845.00 9012.42 94.00
591 5.6400 8941.00 9028.32 95.00
592 5.6460 8850.00 9044.23 94.00
593 5.6520 8937.00 9060.13 95.00
594 5.6580 9071.00 9076.03 95.00
595 5.6640 9018.00 9091.94 95.00
596 5.6700 8994.00 9107.84 95.00
597 5.6760 8997.00 9123.75 95.00
598 5.6820 9130.00 9139.65 96.00
599 5.6880 9168.00 9155.55 96.00
600 5.6940 9085.00 9171.46 95.00
601 5.7000 8959.00 9187.36 95.00
602 5.7060 8859.00 9203.26 94.00
603 5.7120 9069.00 9219.17 95.00
604 5.7180 9163.00 9235.07 96.00
605 5.7240 9112.00 9250.97 95.00
606 5.7300 9122.00 9266.88 96.00
607 5.7360 9081.00 9282.78 95.00
608 5.7420 9068.00 9298.69 95.00
609 5.7480 9175.00 9314.59 96.00
610 5.7540 9142.00 9330.49 96.00
611 5.7600 9086.00 9346.40 95.00
612 5.7660 9151.00 9362.30 96.00
613 5.7720 9176.00 9378.21 96.00
614 5.7780 9225.00 9394.11 96.00
615 5.7840 9339.00 9410.01 97.00
616 5.7900 9391.00 9425.92 97.00
617 5.7960 9289.00 9441.82 96.00
618 5.8020 9304.00 9457.72 96.00
619 5.8080 9359.00 9473.63 97.00
620 5.8140 9343.00 9489.53 97.00
621 5.8200 9396.00 9505.44 97.00
622 5.8260 9305.00 9521.34 96.00
623 5.8320 9339.00 9537.24 97.00
624 5.8380 9447.00 9553.15 97.00
625 5.8440 9467.00 9569.05 97.00
626 5.8500 9545.00 9584.95 98.00
627 5.8560 9439.00 9600.86 97.00
628 5.8620 9318.00 9616.76 97.00
629 5.8680 9349.00 9632.67 97.00
630 5.8740 9506.00 9648.57 97.00
631 5.8800 9590.00 9664.47 98.00
632 5.8860 9521.00 9680.38 98.00
633 5.8920 9617.00 9696.28 98.00
634 5.8980 9662.00 9712.18 98.00
635 5.9040 9584.00 9728.09 98.00
636 5.9100 9660.00 9743.99 98.00
637 5.9160 9775.00 9759.89 99.00
638 5.9220 9725.00 9775.80 99.00
639 5.9280 9572.00 9791.70 98.00
640 5.9340 9599.00 9807.61 98.00
641 5.9400 9596.00 9823.51 98.00
642 5.9460 9431.00 9839.41 97.00
643 5.9520 9566.00 9855.32 98.00
644 5.9580 9722.00 9871.22 99.00
645 5.9640 9626.00 9887.13 98.00
646 5.9700 9623.00 9903.03 98.00
647 5.9760 9738.00 9918.93 99.00
648 5.9820 9748.00 9934.84 99.00
649 5.9880 9789.00 9950.74 99.00
650 5.9940 9874.00 9966.64 99.00
651 6.0000 9958.00 9982.55 100.00
652 6.0060 9895.00 9998.45 99.00
653 6.0120 9768.00 10014.40 99.00
654 6.0180 9855.00 10030.30 99.00
655 6.0240 9922.00 10046.20 100.00
656 6.0300 9915.00 10062.10 100.00
657 6.0360 10021.00 10078.00 100.00
658 6.0420 9982.00 10093.90 100.00
659 6.0480 9961.00 10109.80 100.00
660 6.0540 9928.00 10125.70 100.00
661 6.0600 9888.00 10141.60 99.00
662 6.0660 9898.00 10157.50 99.00
663 6.0720 9924.00 10173.80 100.00
664 6.0780 10081.00 10192.40 100.00
665 6.0840 10131.00 10211.00 101.00
666 6.0900 10140.00 10229.50 101.00
667 6.0960 10108.00 10248.10 101.00
668 6.1020 10162.00 10266.60 101.00
669 6.1080 10309.00 10285.20 102.00
670 6.1140 10205.00 10303.70 101.00
671 6.1200 10063.00 10322.30 100.00
672 6.1260 10091.00 10340.90 100.00
673 6.1320 10093.00 10359.40 100.00
674 6.1380 10144.00 10378.00 101.00
675 6.1440 10213.00 10396.50 101.00
676 6.1500 10247.00 10415.10 101.00
677 6.1560 10237.00 10433.60 101.00
678 6.1620 10204.00 10452.20 101.00
679 6.1680 10235.00 10470.80 101.00
680 6.1740 10377.00 10489.30 102.00
681 6.1800 10298.00 10507.90 101.00
682 6.1860 10255.00 10526.40 101.00
683 6.1920 10403.00 10545.00 102.00
684 6.1980 10435.00 10563.50 102.00
685 6.2040 10431.00 10582.10 102.00
686 6.2100 10474.00 10600.70 102.00
687 6.2160 10537.00 10619.20 103.00
688 6.2220 10454.00 10637.80 102.00
689 6.2280 10430.00 10656.30 102.00
690 6.2340 10392.00 10674.90 102.00
691 6.2400 10424.00 10693.40 102.00
692 6.2460 10594.00 10712.00 103.00
693 6.2520 10578.00 10730.60 103.00
694 6.2580 10561.00 10749.10 103.00
695 6.2640 10804.00 10767.70 104.00
696 6.2700 10740.00 10786.20 104.00
697 6.2760 10706.00 10804.80 103.00
698 6.2820 10938.00 10823.30 105.00
699 6.2880 10981.00 10841.90 105.00
700 6.2940 10688.00 10860.50 103.00
701 6.3000 10677.00 10879.00 103.00
702 6.3060 10786.00 10897.60 104.00
703 6.3120 10598.00 10916.10 103.00
704 6.3180 10582.00 10934.70 103.00
705 6.3240 10745.00 10946.40 104.00
706 6.3300 10905.00 10956.80 104.00
707 6.3360 10947.00 10967.20 105.00
708 6.3420 10824.00 10977.60 104.00
709 6.3480 10654.00 10988.00 103.00
710 6.3540 10762.00 10998.40 104.00
711 6.3600 10936.00 11008.80 105.00
712 6.3660 10896.00 11019.20 104.00
713 6.3720 10860.00 11029.60 104.00
714 6.3780 10862.00 11040.00 104.00
715 6.3840 10879.00 11050.40 104.00
716 6.3900 11045.00 11060.80 105.00
717 6.3960 11029.00 11071.20 105.00
718 6.4020 10993.00 11081.60 105.00
719 6.4080 10964.00 11092.00 105.00
720 6.4140 11078.00 11102.40 105.00
721 6.4200 11105.00 11112.80 105.00
722 6.4260 11061.00 11123.20 105.00
723 6.4320 10915.00 11133.60 104.00
724 6.4380 10985.00 11144.00 105.00
725 6.4440 10925.00 11154.40 105.00
726 6.4500 10974.00 11164.80 105.00
727 6.4560 11079.00 11175.20 105.00
728 6.4620 11041.00 11185.60 105.00
729 6.4680 11147.00 11196.00 106.00
730 6.4740 11010.00 11206.40 105.00
731 6.4800 11080.00 11216.80 105.00
732 6.4860 11188.00 11227.20 106.00
733 6.4920 11144.00 11237.60 106.00
734 6.4980 11115.00 11248.00 105.00
735 6.5040 11237.00 11258.40 106.00
736 6.5100 11264.00 11268.80 106.00
737 6.5160 11216.00 11279.20 106.00
738 6.5220 11253.00 11289.60 106.00
739 6.5280 11257.00 11299.90 106.00
740 6.5340 11278.00 11310.30 106.00
741 6.5400 11072.00 11320.70 105.00
742 6.5460 11219.00 11331.10 106.00
743 6.5520 11248.00 11341.50 106.00
744 6.5580 11265.00 11351.90 106.00
745 6.5640 11228.00 11362.30 106.00
746 6.5700 11444.00 11372.70 107.00
747 6.5760 11487.00 11383.10 107.00
748 6.5820 11533.00 11394.70 107.00
749 6.5880 11791.00 11405.30 109.00
750 6.5940 11625.00 11415.80 108.00
751 6.6000 11447.00 11426.40 107.00
752 6.6060 11347.00 11437.00 107.00
753 6.6120 11323.00 11447.60 106.00
754 6.6180 11243.00 11458.30 106.00
755 6.6240 11332.00 11469.00 106.00
756 6.6300 11290.00 11479.90 106.00
757 6.6360 11163.00 11489.40 106.00
758 6.6420 11341.00 11491.70 106.00
759 6.6480 11421.00 11494.20 107.00
760 6.6540 11456.00 11497.00 107.00
761 6.6600 11453.00 11500.30 107.00
762 6.6660 11310.00 11504.40 106.00
763 6.6720 11415.00 11509.60 107.00
764 6.6780 11288.00 11517.20 106.00
765 6.6840 11346.00 11529.80 107.00
766 6.6900 11260.00 11561.80 106.00
767 6.6960 11288.00 11671.10 106.00
768 6.7020 11509.00 11931.90 107.00
769 6.7080 11547.00 12147.10 107.00
770 6.7140 11503.00 11935.70 107.00
771 6.7200 11314.00 11677.80 106.00
772 6.7260 11313.00 11571.50 106.00
773 6.7320 11366.00 11542.70 107.00
774 6.7380 11440.00 11533.30 107.00
775 6.7440 11339.00 11529.00 106.00
776 6.7500 11530.00 11526.90 107.00
777 6.7560 11439.00 11526.10 107.00
778 6.7620 11563.00 11526.00 108.00
779 6.7680 11404.00 11526.40 107.00
780 6.7740 11486.00 11527.10 107.00
781 6.7800 11508.00 11528.00 107.00
782 6.7860 11408.00 11529.10 107.00
783 6.7920 11573.00 11530.30 108.00
784 6.7980 11426.00 11531.50 107.00
785 6.8040 11257.00 11532.90 106.00
786 6.8100 11572.00 11534.20 108.00
787 6.8160 11473.00 11535.60 107.00
788 6.8220 11363.00 11537.10 107.00
789 6.8280 11332.00 11538.50 106.00
790 6.8340 11487.00 11540.00 107.00
791 6.8400 11411.00 11540.40 107.00
792 6.8460 11508.00 11542.00 107.00
793 6.8520 11269.00 11543.60 106.00
794 6.8580 11420.00 11545.30 107.00
795 6.8640 11579.00 11546.90 108.00
796 6.8700 11302.00 11548.50 106.00
797 6.8760 11260.00 11547.80 106.00
798 6.8820 11237.00 11545.00 106.00
799 6.8880 11232.00 11542.10 106.00
800 6.8940 11564.00 11539.20 108.00
801 6.9000 11616.00 11536.30 108.00
802 6.9060 11321.00 11533.40 106.00
803 6.9120 11232.00 11530.50 106.00
804 6.9180 11401.00 11527.70 107.00
805 6.9240 11443.00 11524.80 107.00
806 6.9300 11562.00 11521.90 108.00
807 6.9360 11464.00 11519.00 107.00
808 6.9420 11331.00 11516.10 106.00
809 6.9480 11418.00 11513.20 107.00
810 6.9540 11462.00 11510.40 107.00
811 6.9600 11483.00 11507.50 107.00
812 6.9660 11454.00 11504.60 107.00
813 6.9720 11358.00 11501.70 107.00
814 6.9780 11480.00 11498.80 107.00
815 6.9840 11310.00 11495.90 106.00
816 6.9900 11203.00 11493.10 106.00
817 6.9960 11308.00 11490.20 106.00
818 7.0020 11303.00 11487.30 106.00
819 7.0080 11327.00 11484.40 106.00
820 7.0140 11403.00 11481.50 107.00
821 7.0200 11499.00 11478.60 107.00
822 7.0260 11556.00 11475.80 107.00
823 7.0320 11429.00 11472.90 107.00
824 7.0380 11427.00 11470.00 107.00
825 7.0440 11329.00 11467.10 106.00
826 7.0500 11555.00 11464.20 107.00
827 7.0560 11456.00 11461.30 107.00
828 7.0620 11549.00 11458.50 107.00
829 7.0680 11505.00 11455.60 107.00
830 7.0740 11524.00 11452.70 107.00
831 7.0800 11567.00 11449.80 108.00
832 7.0860 11475.00 11446.90 107.00
833 7.0920 11537.00 11444.00 107.00
834 7.0980 11351.00 11441.20 107.00
835 7.1040 11428.00 11438.30 107.00
836 7.1100 11390.00 11435.40 107.00
837 7.1160 11329.00 11432.50 106.00
838 7.1220 11408.00 11429.60 107.00
839 7.1280 11269.00 11426.70 106.00
840 7.1340 11363.00 11423.90 107.00
841 7.1400 11354.00 11421.00 107.00
842 7.1460 11463.00 11418.10 107.00
843 7.1520 11373.00 11415.20 107.00
844 7.1580 11365.00 11412.30 107.00
845 7.1640 11317.00 11409.40 106.00
846 7.1700 11121.00 11406.60 105.00
847 7.1760 11183.00 11404.40 106.00
848 7.1820 11342.00 11401.50 106.00
849 7.1880 11106.00 11398.70 105.00
850 7.1940 11042.00 11385.80 105.00
851 7.2000 11274.00 11367.00 106.00
852 7.2060 11207.00 11348.30 106.00
853 7.2120 11408.00 11329.60 107.00
854 7.2180 11143.00 11310.90 106.00
855 7.2240 11075.00 11292.30 105.00
856 7.2300 11241.00 11273.80 106.00
857 7.2360 10987.00 11255.30 105.00
858 7.2420 10990.00 11237.00 105.00
859 7.2480 11209.00 11218.90 106.00
860 7.2540 11129.00 11201.10 105.00
861 7.2600 11090.00 11183.70 105.00
862 7.2660 11164.00 11166.90 106.00
863 7.2720 11193.00 11151.10 106.00
864 7.2780 11265.00 11137.40 106.00
865 7.2840 11278.00 11128.60 106.00
866 7.2900 11036.00 11139.80 105.00
867 7.2960 11367.00 11212.00 107.00
868 7.3020 11393.00 11357.20 107.00
869 7.3080 11787.00 11393.40 109.00
870 7.3140 11359.00 11282.70 107.00
871 7.3200 11173.00 11276.00 106.00
872 7.3260 10840.00 11276.70 104.00
873 7.3320 11091.00 11130.70 105.00
874 7.3380 10962.00 11005.00 105.00
875 7.3440 11074.00 10943.90 105.00
876 7.3500 10783.00 10911.60 104.00
877 7.3560 11045.00 10886.80 105.00
878 7.3620 11159.00 10864.40 106.00
879 7.3680 11036.00 10843.10 105.00
880 7.3740 11164.00 10822.60 106.00
881 7.3800 11069.00 10802.50 105.00
882 7.3860 11161.00 10782.80 106.00
883 7.3920 10796.00 10763.20 104.00
884 7.3980 10941.00 10743.70 105.00
885 7.4040 10947.00 10724.40 105.00
886 7.4100 10848.00 10705.10 104.00
887 7.4160 10627.00 10685.90 103.00
888 7.4220 10939.00 10666.70 105.00
889 7.4280 10651.00 10647.60 103.00
890 7.4340 10603.00 10628.50 103.00
891 7.4400 10623.00 10608.80 103.00
892 7.4460 10576.00 10589.80 103.00
893 7.4520 10517.00 10570.80 103.00
894 7.4580 10735.00 10551.30 104.00
895 7.4640 10656.00 10532.30 103.00
896 7.4700 10392.00 10513.40 102.00
897 7.4760 10720.00 10494.50 104.00
898 7.4820 10793.00 10475.50 104.00
899 7.4880 10391.00 10456.60 102.00
900 7.4940 10682.00 10437.70 103.00
901 7.5000 10579.00 10418.70 103.00
902 7.5060 10515.00 10399.80 103.00
903 7.5120 10450.00 10380.90 102.00
904 7.5180 10425.00 10361.90 102.00
905 7.5240 10514.00 10343.00 103.00
906 7.5300 10461.00 10324.10 102.00
907 7.5360 10579.00 10305.10 103.00
908 7.5420 10477.00 10286.20 102.00
909 7.5480 10291.00 10267.30 101.00
910 7.5540 10206.00 10248.30 101.00
911 7.5600 10158.00 10231.80 101.00
912 7.5660 10411.00 10220.20 102.00
913 7.5720 10462.00 10208.60 102.00
914 7.5780 10601.00 10196.90 103.00
915 7.5840 10444.00 10185.30 102.00
916 7.5900 10415.00 10173.70 102.00
917 7.5960 10286.00 10162.00 101.00
918 7.6020 10376.00 10150.40 102.00
919 7.6080 10388.00 10138.80 102.00
920 7.6140 10416.00 10127.10 102.00
921 7.6200 10367.00 10115.50 102.00
922 7.6260 10369.00 10103.90 102.00
923 7.6320 10526.00 10092.20 103.00
924 7.6380 10136.00 10080.60 101.00
925 7.6440 10315.00 10069.00 102.00
926 7.6500 10222.00 10057.30 101.00
927 7.6560 10211.00 10045.70 101.00
928 7.6620 10210.00 10034.00 101.00
929 7.6680 10366.00 10022.40 102.00
930 7.6740 9977.00 10010.80 100.00
931 7.6800 10075.00 9999.14 100.00
932 7.6860 10159.00 9987.51 101.00
933 7.6920 10224.00 9975.87 101.00
934 7.6980 10196.00 9964.24 101.00
935 7.7040 10024.00 9952.60 100.00
936 7.7100 9995.00 9940.97 100.00
937 7.7160 10154.00 9929.33 101.00
938 7.7220 9990.00 9917.70 100.00
939 7.7280 10064.00 9906.06 100.00
940 7.7340 9963.00 9894.42 100.00
941 7.7400 10134.00 9882.79 101.00
942 7.7460 9829.00 9871.16 99.00
943 7.7520 10034.00 9859.52 100.00
944 7.7580 10110.00 9847.88 101.00
945 7.7640 10012.00 9836.25 100.00
946 7.7700 9916.00 9824.61 100.00
947 7.7760 9796.00 9812.98 99.00
948 7.7820 9790.00 9801.34 99.00
949 7.7880 9772.00 9789.71 99.00
950 7.7940 9741.00 9778.07 99.00
951 7.8000 9801.00 9766.44 99.00
952 7.8060 9861.00 9754.80 99.00
953 7.8120 9723.00 9743.17 99.00
954 7.8180 9745.00 9731.53 99.00
955 7.8240 9617.00 9719.90 98.00
956 7.8300 9632.00 9708.26 98.00
957 7.8360 9660.00 9696.62 98.00
958 7.8420 9633.00 9684.99 98.00
959 7.8480 9623.00 9673.35 98.00
960 7.8540 9510.00 9661.72 98.00
961 7.8600 9738.00 9650.08 99.00
962 7.8660 9695.00 9638.45 98.00
963 7.8720 9542.00 9626.81 98.00
964 7.8780 9697.00 9615.18 98.00
965 7.8840 9547.00 9603.54 98.00
966 7.8900 9588.00 9591.91 98.00
967 7.8960 9604.00 9580.27 98.00
968 7.9020 9402.00 9568.64 97.00
969 7.9080 9558.00 9574.75 98.00
970 7.9140 9360.00 9584.41 97.00
971 7.9200 9604.00 9594.07 98.00
972 7.9260 9397.00 9603.73 97.00
973 7.9320 9416.00 9613.39 97.00
974 7.9380 9401.00 9623.05 97.00
975 7.9440 9448.00 9632.71 97.00
976 7.9500 9504.00 9642.37 97.00
977 7.9560 9587.00 9652.03 98.00
978 7.9620 9398.00 9661.69 97.00
979 7.9680 9609.00 9671.35 98.00
980 7.9740 9796.00 9681.01 99.00
981 7.9800 9815.00 9690.67 99.00
982 7.9860 10338.00 9700.33 102.00
983 7.9920 10930.00 9709.99 105.00
984 7.9980 13019.00 9719.65 114.00
985 8.0040 17166.00 9729.30 131.00
986 8.0100 21003.00 9738.96 145.00
987 8.0160 20761.00 9748.62 144.00
988 8.0220 16244.00 9758.28 127.00
989 8.0280 12315.00 9767.94 111.00
990 8.0340 10674.00 9777.60 103.00
991 8.0400 10299.00 9787.26 101.00
992 8.0460 9995.00 9796.92 100.00
993 8.0520 10036.00 9806.58 100.00
994 8.0580 10566.00 9816.24 103.00
995 8.0640 10346.00 9825.90 102.00
996 8.0700 9954.00 9835.56 100.00
997 8.0760 9849.00 9845.22 99.00
998 8.0820 9727.00 9850.62 99.00
999 8.0880 10065.00 9834.66 100.00
1000 8.0940 10126.00 9818.70 101.00
1001 8.1000 10192.00 9802.75 101.00
1002 8.1060 10241.00 9786.79 101.00
1003 8.1120 10286.00 9770.83 101.00
1004 8.1180 10384.00 9754.88 102.00
1005 8.1240 10378.00 9738.92 102.00
1006 8.1300 10098.00 9722.97 100.00
1007 8.1360 10027.00 10100.50 100.00
1008 8.1420 9896.00 10122.00 99.00
1009 8.1480 9899.00 10149.00 99.00
1010 8.1540 9887.00 10671.30 99.00
1011 8.1600 10247.00 10760.20 101.00
1012 8.1660 10574.00 10866.40 103.00
1013 8.1720 10819.00 10993.80 104.00
1014 8.1780 10774.00 11147.70 104.00
1015 8.1840 10980.00 11335.10 105.00
1016 8.1900 11388.00 11565.50 107.00
1017 8.1960 11915.00 11852.00 109.00
1018 8.2020 12419.00 12213.00 111.00
1019 8.2080 12535.00 12675.70 112.00
1020 8.2140 12721.00 13280.00 113.00
1021 8.2200 13477.00 14088.80 116.00
1022 8.2260 14525.00 15203.50 121.00
1023 8.2320 16121.00 16798.70 127.00
1024 8.2380 18653.00 19195.90 137.00
1025 8.2440 22356.00 23131.50 150.00
1026 8.2500 30569.00 31321.80 175.00
1027 8.2560 53915.00 54739.80 232.00
1028 8.2620 109136.00 115766.00 330.00
1029 8.2680 182129.00 207523.00 427.00
1030 8.2740 223734.00 232608.00 473.00
1031 8.2800 241444.00 229951.00 491.00
1032 8.2860 254780.00 268474.00 505.00
1033 8.2920 211859.00 208249.00 460.00
1034 8.2980 117312.00 104060.00 343.00
1035 8.3040 53163.00 48714.80 231.00
1036 8.3100 29739.00 29513.60 172.00
1037 8.3160 21239.00 22429.80 146.00
1038 8.3220 17424.00 18724.10 132.00
1039 8.3280 15243.00 16395.00 123.00
1040 8.3340 13794.00 14820.80 117.00
1041 8.3400 12728.00 13704.50 113.00
1042 8.3460 11930.00 12882.70 109.00
1043 8.3520 11283.00 12258.50 106.00
1044 8.3580 10901.00 11772.30 104.00
1045 8.3640 10487.00 11385.10 102.00
1046 8.3700 9976.00 11070.90 100.00
1047 8.3760 9720.00 10811.70 99.00
1048 8.3820 9731.00 10594.70 99.00
1049 8.3880 9621.00 10410.70 98.00
1050 8.3940 9441.00 10252.70 97.00
1051 8.4000 9417.00 10115.80 97.00
1052 8.4060 9500.00 9995.85 97.00
1053 8.4120 9378.00 9532.58 97.00
1054 8.4180 9307.00 9466.61 96.00
1055 8.4240 9216.00 9407.05 96.00
1056 8.4300 9063.00 8925.18 95.00
1057 8.4360 9101.00 8909.23 95.00
1058 8.4420 9096.00 8893.27 95.00
1059 8.4480 8841.00 8877.31 94.00
1060 8.4540 8629.00 8861.36 93.00
1061 8.4600 8556.00 8845.40 92.00
1062 8.4660 8649.00 8829.45 93.00
1063 8.4720 8768.00 8813.49 94.00
1064 8.4780 8597.00 8798.64 93.00
1065 8.4840 8577.00 8786.00 93.00
1066 8.4900 8680.00 8773.35 93.00
1067 8.4960 8813.00 8760.71 94.00
1068 8.5020 8912.00 8748.07 94.00
1069 8.5080 8897.00 8735.42 94.00
1070 8.5140 9086.00 8722.78 95.00
1071 8.5200 9270.00 8710.14 96.00
1072 8.5260 9480.00 8697.50 97.00
1073 8.5320 9772.00 8684.85 99.00
1074 8.5380 10087.00 8672.21 100.00
1075 8.5440 10157.00 8659.57 101.00
1076 8.5500 9817.00 8646.92 99.00
1077 8.5560 9480.00 8634.28 97.00
1078 8.5620 9100.00 8621.64 95.00
1079 8.5680 8794.00 8609.00 94.00
1080 8.5740 8552.00 8596.35 92.00
1081 8.5800 8650.00 8583.71 93.00
1082 8.5860 8542.00 8571.06 92.00
1083 8.5920 8514.00 8558.42 92.00
1084 8.5980 8482.00 8545.78 92.00
1085 8.6040 8368.00 8533.14 91.00
1086 8.6100 8394.00 8520.50 92.00
1087 8.6160 8394.00 8506.44 92.00
1088 8.6220 8558.00 8491.69 93.00
1089 8.6280 8744.00 8476.94 94.00
1090 8.6340 8972.00 8462.18 95.00
1091 8.6400 9401.00 8447.43 97.00
1092 8.6460 9839.00 8432.68 99.00
1093 8.6520 10557.00 8417.92 103.00
1094 8.6580 11133.00 8403.17 106.00
1095 8.6640 11446.00 8388.42 107.00
1096 8.6700 11678.00 8373.66 108.00
1097 8.6760 11966.00 8358.91 109.00
1098 8.6820 12129.00 8344.16 110.00
1099 8.6880 11938.00 8329.40 109.00
1100 8.6940 11340.00 8314.65 106.00
1101 8.7000 10711.00 8299.90 103.00
1102 8.7060 10122.00 8285.14 101.00
1103 8.7120 9574.00 8270.39 98.00
1104 8.7180 9301.00 8255.63 96.00
1105 8.7240 9081.00 8240.88 95.00
1106 8.7300 8644.00 8226.13 93.00
1107 8.7360 8406.00 8211.38 92.00
1108 8.7420 8110.00 8196.62 90.00
1109 8.7480 7952.00 8181.87 89.00
1110 8.7540 8091.00 8167.11 90.00
1111 8.7600 7992.00 8152.36 89.00
1112 8.7660 7846.00 8137.61 89.00
1113 8.7720 7751.00 8122.85 88.00
1114 8.7780 7788.00 8108.10 88.00
1115 8.7840 7810.00 8093.35 88.00
1116 8.7900 7649.00 8078.59 87.00
1117 8.7960 7740.00 8063.84 88.00
1118 8.8020 7670.00 8043.46 88.00
1119 8.8080 7666.00 8239.16 88.00
1120 8.8140 7706.00 8237.45 88.00
1121 8.8200 7590.00 8238.58 87.00
1122 8.8260 7644.00 8243.10 87.00
1123 8.8320 7785.00 8251.74 88.00
1124 8.8380 7828.00 8265.40 88.00
1125 8.8440 7727.00 8285.26 88.00
1126 8.8500 7730.00 8312.88 88.00
1127 8.8560 7758.00 8350.31 88.00
1128 8.8620 7784.00 8400.32 88.00
1129 8.8680 7878.00 8466.77 89.00
1130 8.8740 8120.00 8555.06 90.00
1131 8.8800 7969.00 8673.06 89.00
1132 8.8860 8163.00 8832.41 90.00
1133 8.8920 8500.00 9051.16 92.00
1134 8.8980 8753.00 9357.94 94.00
1135 8.9040 9039.00 9801.13 95.00
1136 8.9100 9614.00 10466.40 98.00
1137 8.9160 10547.00 11521.80 103.00
1138 8.9220 12285.00 13405.00 111.00
1139 8.9280 17125.00 17923.00 131.00
1140 8.9340 27898.00 31690.20 167.00
1141 8.9400 58669.00 65286.50 242.00
1142 8.9460 97642.00 106879.00 312.00
1143 8.9520 96108.00 95264.80 310.00
1144 8.9580 55687.00 51410.90 236.00
1145 8.9640 27180.00 25196.10 165.00
1146 8.9700 16480.00 15688.00 128.00
1147 8.9760 12912.00 12420.30 114.00
1148 8.9820 11279.00 10861.90 106.00
1149 8.9880 10159.00 9922.79 101.00
1150 8.9940 9410.00 9302.35 97.00
1151 9.0000 8984.00 8869.34 95.00
1152 9.0060 8515.00 8553.39 92.00
1153 9.0120 8334.00 8314.19 91.00
1154 9.0180 8349.00 8127.38 91.00
1155 9.0240 8277.00 7977.43 91.00
1156 9.0300 8265.00 7854.22 91.00
1157 9.0360 8283.00 7750.78 91.00
1158 9.0420 8337.00 7662.36 91.00
1159 9.0480 8656.00 7585.49 93.00
1160 9.0540 9603.00 7517.67 98.00
1161 9.0600 10633.00 7457.02 103.00
1162 9.0660 11039.00 7402.15 105.00
1163 9.0720 10173.00 7351.96 101.00
1164 9.0780 9227.00 7305.63 96.00
1165 9.0840 8865.00 7262.50 94.00
1166 9.0900 8389.00 7010.93 92.00
1167 9.0960 8230.00 6989.42 91.00
1168 9.1020 8041.00 6967.91 90.00
1169 9.1080 7626.00 6946.40 87.00
1170 9.1140 7510.00 6924.89 87.00
1171 9.1200 7510.00 6903.38 87.00
1172 9.1260 7495.00 6881.86 87.00
1173 9.1320 7371.00 6860.35 86.00
1174 9.1380 7164.00 6838.84 85.00
1175 9.1440 7141.00 6817.33 85.00
1176 9.1500 7081.00 6795.82 84.00
1177 9.1560 7056.00 6774.31 84.00
1178 9.1620 7029.00 6752.80 84.00
1179 9.1680 6930.00 6731.29 83.00
1180 9.1740 6879.00 6709.78 83.00
1181 9.1800 6859.00 6688.27 83.00
1182 9.1860 6886.00 6675.98 83.00
1183 9.1920 6984.00 6672.90 84.00
1184 9.1980 7015.00 6669.83 84.00
1185 9.2040 6865.00 6666.76 83.00
1186 9.2100 6796.00 6663.68 82.00
1187 9.2160 6817.00 6660.61 83.00
1188 9.2220 6825.00 6657.54 83.00
1189 9.2280 6797.00 6654.46 82.00
1190 9.2340 6805.00 6651.39 82.00
1191 9.2400 6878.00 6648.32 83.00
1192 9.2460 6810.00 6645.25 83.00
1193 9.2520 6704.00 6642.17 82.00
1194 9.2580 6682.00 6639.10 82.00
1195 9.2640 6747.00 6636.03 82.00
1196 9.2700 6761.00 6632.95 82.00
1197 9.2760 6819.00 6629.88 83.00
1198 9.2820 6778.00 6626.81 82.00
1199 9.2880 6728.00 6623.73 82.00
1200 9.2940 6686.00 6620.66 82.00
1201 9.3000 6701.00 6617.59 82.00
1202 9.3060 6748.00 6614.51 82.00
1203 9.3120 6828.00 6611.44 83.00
1204 9.3180 6928.00 6608.37 83.00
1205 9.3240 6847.00 6605.29 83.00
1206 9.3300 7158.00 6602.22 85.00
1207 9.3360 8060.00 6599.15 90.00
1208 9.3420 8182.00 6596.08 90.00
1209 9.3480 7802.00 6593.00 88.00
1210 9.3540 7553.00 6589.93 87.00
1211 9.3600 7396.00 6586.86 86.00
1212 9.3660 6951.00 6583.78 83.00
1213 9.3720 6727.00 6580.71 82.00
1214 9.3780 6715.00 6577.64 82.00
1215 9.3840 6685.00 6574.56 82.00
1216 9.3900 6677.00 6571.49 82.00
1217 9.3960 6607.00 6568.42 81.00
1218 9.4020 6694.00 6565.34 82.00
1219 9.4080 6775.00 6562.27 82.00
1220 9.4140 6829.00 6559.20 83.00
1221 9.4200 6785.00 6556.13 82.00
1222 9.4260 6903.00 6553.05 83.00
1223 9.4320 6816.00 6549.98 83.00
1224 9.4380 6663.00 6546.91 82.00
1225 9.4440 6646.00 6543.83 82.00
1226 9.4500 6514.00 6540.76 81.00
1227 9.4560 6568.00 6537.69 81.00
1228 9.4620 6662.00 6534.61 82.00
1229 9.4680 6544.00 6531.54 81.00
1230 9.4740 6580.00 6528.47 81.00
1231 9.4800 6687.00 6525.40 82.00
1232 9.4860 6725.00 6522.32 82.00
1233 9.4920 6736.00 6519.25 82.00
1234 9.4980 6755.00 6516.18 82.00
1235 9.5040 6741.00 6513.10 82.00
1236 9.5100 6959.00 6510.03 83.00
1237 9.5160 6922.00 6506.96 83.00
1238 9.5220 6752.00 6503.88 82.00
1239 9.5280 6553.00 6620.11 81.00
1240 9.5340 6673.00 6627.88 82.00
1241 9.5400 6551.00 6721.05 81.00
1242 9.5460 6573.00 6739.71 81.00
1243 9.5520 6709.00 6773.49 82.00
1244 9.5580 6725.00 6813.62 82.00
1245 9.5640 6855.00 6858.65 83.00
1246 9.5700 6811.00 6909.73 83.00
1247 9.5760 6778.00 6968.41 82.00
1248 9.5820 6823.00 7036.71 83.00
1249 9.5880 6867.00 7117.46 83.00
1250 9.5940 6907.00 7214.54 83.00
1251 9.6000 7093.00 7333.50 84.00
1252 9.6060 7421.00 7482.46 86.00
1253 9.6120 7513.00 7673.67 87.00
1254 9.6180 7687.00 7926.33 88.00
1255 9.6240 8006.00 8271.92 89.00
1256 9.6300 8501.00 8765.06 92.00
1257 9.6360 9102.00 9509.25 95.00
1258 9.6420 10370.00 10763.90 102.00
1259 9.6480 12978.00 13498.90 114.00
1260 9.6540 19622.00 20987.00 140.00
1261 9.6600 38097.00 38492.10 195.00
1262 9.6660 63149.00 62518.60 251.00
1263 9.6720 73328.00 67704.50 271.00
1264 9.6780 71113.00 61559.00 267.00
1265 9.6840 61106.00 54116.50 247.00
1266 9.6900 39814.00 34955.90 200.00
1267 9.6960 22441.00 20017.20 150.00
1268 9.7020 15503.00 13218.60 125.00
1269 9.7080 14086.00 10659.10 119.00
1270 9.7140 16337.00 10192.90 128.00
1271 9.7200 18862.00 9581.12 137.00
1272 9.7260 18334.00 9211.16 135.00
1273 9.7320 14822.00 8988.42 122.00
1274 9.7380 11364.00 8864.92 107.00
1275 9.7440 9951.00 8814.30 100.00
1276 9.7500 9394.00 8822.32 97.00
1277 9.7560 9447.00 8882.20 97.00
1278 9.7620 9756.00 8992.52 99.00
1279 9.7680 10442.00 9156.34 102.00
1280 9.7740 11049.00 9381.41 105.00
1281 9.7800 11870.00 9680.91 109.00
1282 9.7860 12584.00 10075.90 112.00
1283 9.7920 13148.00 10598.40 115.00
1284 9.7980 13511.00 11298.70 116.00
1285 9.8040 13883.00 12256.80 118.00
1286 9.8100 14838.00 13606.30 122.00
1287 9.8160 16223.00 15471.60 127.00
1288 9.8220 18695.00 18519.70 137.00
1289 9.8280 23823.00 23625.30 154.00
1290 9.8340 35245.00 34944.50 188.00
1291 9.8400 61126.00 67024.20 247.00
1292 9.8460 138265.00 147827.00 372.00
1293 9.8520 274737.00 270567.00 524.00
1294 9.8580 302425.00 290809.00 550.00
1295 9.8640 177622.00 172739.00 421.00
1296 9.8700 81197.00 79318.70 285.00
1297 9.8760 41550.00 39296.10 204.00
1298 9.8820 27125.00 25365.40 165.00
1299 9.8880 20685.00 19419.80 144.00
1300 9.8940 17382.00 16059.20 132.00
1301 9.9000 15561.00 13910.70 125.00
1302 9.9060 14303.00 12454.10 120.00
1303 9.9120 13393.00 11424.70 116.00
1304 9.9180 12914.00 10672.40 114.00
1305 9.9240 11994.00 10107.50 110.00
1306 9.9300 11280.00 9673.36 106.00
1307 9.9360 11285.00 9333.60 106.00
1308 9.9420 10497.00 9063.28 102.00
1309 9.9480 10238.00 8845.32 101.00
1310 9.9540 9891.00 8667.49 99.00
1311 9.9600 9324.00 8522.08 97.00
1312 9.9660 9128.00 8400.42 96.00
1313 9.9720 8927.00 8298.62 94.00
1314 9.9780 8439.00 8212.95 92.00
1315 9.9840 8337.00 8140.46 91.00
1316 9.9900 8257.00 8078.90 91.00
1317 9.9960 8150.00 8026.44 90.00
1318 10.0020 8153.00 7981.66 90.00
1319 10.0080 7983.00 7347.64 89.00
1320 10.0140 7928.00 7359.08 89.00
1321 10.0200 7854.00 7370.58 89.00
1322 10.0260 7854.00 7382.16 89.00
1323 10.0320 7846.00 7393.86 89.00
1324 10.0380 7553.00 7405.72 87.00
1325 10.0440 7546.00 7417.79 87.00
1326 10.0500 7300.00 7430.17 85.00
1327 10.0560 7374.00 7443.00 86.00
1328 10.0620 7415.00 7404.93 86.00
1329 10.0680 7304.00 7357.65 85.00
1330 10.0740 7281.00 7312.29 85.00
1331 10.0800 7297.00 7270.92 85.00
1332 10.0860 7195.00 7241.40 85.00
1333 10.0920 7313.00 7250.62 86.00
1334 10.0980 7292.00 7343.50 85.00
1335 10.1040 7358.00 7492.50 86.00
1336 10.1100 7474.00 7445.67 86.00
1337 10.1160 7083.00 7196.03 84.00
1338 10.1220 6893.00 6999.09 83.00
1339 10.1280 6899.00 6886.68 83.00
1340 10.1340 6784.00 6814.06 82.00
1341 10.1400 6571.00 6753.66 81.00
1342 10.1460 6533.00 6697.36 81.00
1343 10.1520 6913.00 6643.00 83.00
1344 10.1580 6763.00 6589.78 82.00
1345 10.1640 6552.00 6537.25 81.00
1346 10.1700 6582.00 6485.18 81.00
1347 10.1760 6440.00 6433.42 80.00
1348 10.1820 6294.00 6381.87 79.00
1349 10.1880 6282.00 6330.49 79.00
1350 10.1940 6243.00 6306.37 79.00
1351 10.2000 6336.00 6295.93 80.00
1352 10.2060 6171.00 6285.54 79.00
1353 10.2120 6309.00 6275.21 79.00
1354 10.2180 6435.00 6264.92 80.00
1355 10.2240 6360.00 6254.67 80.00
1356 10.2300 6327.00 6244.44 80.00
1357 10.2360 6045.00 6234.24 78.00
1358 10.2420 6144.00 6224.05 78.00
1359 10.2480 6200.00 6213.88 79.00
1360 10.2540 6305.00 6203.72 79.00
1361 10.2600 6331.00 6192.56 80.00
1362 10.2660 6408.00 6182.49 80.00
1363 10.2720 6437.00 6172.43 80.00
1364 10.2780 6350.00 6162.37 80.00
1365 10.2840 6499.00 6152.30 81.00
1366 10.2900 6641.00 6142.24 81.00
1367 10.2960 6849.00 6132.18 83.00
1368 10.3020 7219.00 6122.11 85.00
1369 10.3080 7829.00 6112.05 88.00
1370 10.3140 8107.00 6101.98 90.00
1371 10.3200 7813.00 6091.92 88.00
1372 10.3260 7005.00 6081.85 84.00
1373 10.3320 6794.00 6071.79 82.00
1374 10.3380 6685.00 6061.73 82.00
1375 10.3440 6457.00 6051.66 80.00
1376 10.3500 6564.00 6041.60 81.00
1377 10.3560 6636.00 6031.53 81.00
1378 10.3620 6905.00 6021.47 83.00
1379 10.3680 7033.00 6011.41 84.00
1380 10.3740 6806.00 6001.34 82.00
1381 10.3800 6526.00 5991.28 81.00
1382 10.3860 6545.00 5981.22 81.00
1383 10.3920 6439.00 5971.15 80.00
1384 10.3980 6380.00 5961.09 80.00
1385 10.4040 6480.00 5951.02 80.00
1386 10.4100 6461.00 5940.96 80.00
1387 10.4160 6291.00 5930.89 79.00
1388 10.4220 6318.00 5920.83 79.00
1389 10.4280 6492.00 5910.77 81.00
1390 10.4340 6563.00 5900.70 81.00
1391 10.4400 6474.00 5890.64 80.00
1392 10.4460 6675.00 5880.57 82.00
1393 10.4520 6773.00 5870.51 82.00
1394 10.4580 6593.00 5860.45 81.00
1395 10.4640 6301.00 5850.38 79.00
1396 10.4700 6277.00 5840.32 79.00
1397 10.4760 6058.00 5830.25 78.00
1398 10.4820 6060.00 5820.19 78.00
1399 10.4880 6049.00 5810.13 78.00
1400 10.4940 5855.00 5800.06 77.00
1401 10.5000 5804.00 5790.00 76.00
1402 10.5060 5757.00 5779.94 76.00
1403 10.5120 5666.00 5769.87 75.00
1404 10.5180 5642.00 5759.81 75.00
1405 10.5240 5699.00 5748.74 75.00
1406 10.5300 5661.00 5737.48 75.00
1407 10.5360 5732.00 5726.22 76.00
1408 10.5420 5608.00 5714.96 75.00
1409 10.5480 5677.00 5703.69 75.00
1410 10.5540 5809.00 5692.43 76.00
1411 10.5600 5807.00 5681.17 76.00
1412 10.5660 5806.00 5669.90 76.00
1413 10.5720 5728.00 5658.64 76.00
1414 10.5780 5713.00 5647.38 76.00
1415 10.5840 5672.00 5636.12 75.00
1416 10.5900 5664.00 5624.85 75.00
1417 10.5960 5932.00 5613.59 77.00
1418 10.6020 5942.00 5602.33 77.00
1419 10.6080 6231.00 5591.07 79.00
1420 10.6140 6416.00 5579.80 80.00
1421 10.6200 6579.00 5568.54 81.00
1422 10.6260 6818.00 5557.28 83.00
1423 10.6320 7044.00 5546.01 84.00
1424 10.6380 6792.00 5534.75 82.00
1425 10.6440 6729.00 5523.49 82.00
1426 10.6500 6532.00 5512.23 81.00
1427 10.6560 6185.00 5500.96 79.00
1428 10.6620 6064.00 5489.70 78.00
1429 10.6680 5957.00 5478.44 77.00
1430 10.6740 5843.00 5467.18 76.00
1431 10.6800 5759.00 5469.82 76.00
1432 10.6860 5862.00 5459.76 77.00
1433 10.6920 5980.00 5449.87 77.00
1434 10.6980 6135.00 5440.17 78.00
1435 10.7040 6422.00 5430.70 80.00
1436 10.7100 7130.00 5421.52 84.00
1437 10.7160 8885.00 5412.68 94.00
1438 10.7220 11883.00 5404.26 109.00
1439 10.7280 15362.00 5396.37 124.00
1440 10.7340 17383.00 5389.14 132.00
1441 10.7400 15414.00 5382.77 124.00
1442 10.7460 11263.00 5377.51 106.00
1443 10.7520 8156.00 5373.72 90.00
1444 10.7580 6790.00 5371.92 82.00
1445 10.7640 6250.00 5372.88 79.00
1446 10.7700 5897.00 5377.77 77.00
1447 10.7760 5730.00 5388.47 76.00
1448 10.7820 5889.00 5408.05 77.00
1449 10.7880 6167.00 5441.99 79.00
1450 10.7940 6255.00 5500.97 79.00
1451 10.8000 6266.00 5613.94 79.00
1452 10.8060 6364.00 5888.55 80.00
1453 10.8120 6688.00 6652.54 82.00
1454 10.8180 8334.00 8366.76 91.00
1455 10.8240 10800.00 10564.50 104.00
1456 10.8300 10775.00 10416.10 104.00
1457 10.8360 8253.00 8157.62 91.00
1458 10.8420 6390.00 6504.04 80.00
1459 10.8480 5732.00 5775.13 76.00
1460 10.8540 5356.00 5499.08 73.00
1461 10.8600 5165.00 5370.09 72.00
1462 10.8660 5135.00 5291.23 72.00
1463 10.8720 5129.00 5236.22 72.00
1464 10.8780 5120.00 5194.97 72.00
1465 10.8840 5129.00 5162.31 72.00
1466 10.8900 5153.00 5135.25 72.00
1467 10.8960 5094.00 5112.03 71.00
1468 10.9020 5011.00 5091.48 71.00
1469 10.9080 5046.00 5072.88 71.00
1470 10.9140 4975.00 5055.72 71.00
1471 10.9200 4934.00 5039.64 70.00
1472 10.9260 4941.00 5024.40 70.00
1473 10.9320 4938.00 5009.82 70.00
1474 10.9380 4897.00 4995.75 70.00
1475 10.9440 4959.00 4982.09 70.00
1476 10.9500 4968.00 4968.78 70.00
1477 10.9560 4906.00 4955.74 70.00
1478 10.9620 4845.00 4942.93 70.00
1479 10.9680 4898.00 4930.31 70.00
1480 10.9740 4907.00 4917.86 70.00
1481 10.9800 5012.00 4892.78 71.00
1482 10.9860 4957.00 4881.51 70.00
1483 10.9920 4829.00 4870.25 69.00
1484 10.9980 4902.00 4858.99 70.00
1485 11.0040 4868.00 4854.62 70.00
1486 11.0100 4886.00 4850.25 70.00
1487 11.0160 4984.00 4845.88 71.00
1488 11.0220 4862.00 4841.50 70.00
1489 11.0280 4893.00 4837.13 70.00
1490 11.0340 4860.00 4832.76 70.00
1491 11.0400 4874.00 4838.54 70.00
1492 11.0460 4953.00 4835.02 70.00
1493 11.0520 4959.00 4831.61 70.00
1494 11.0580 4930.00 4828.34 70.00
1495 11.0640 5012.00 4825.22 71.00
1496 11.0700 5042.00 4822.29 71.00
1497 11.0760 5113.00 4819.59 72.00
1498 11.0820 5316.00 4817.16 73.00
1499 11.0880 5496.00 4815.08 74.00
1500 11.0940 5632.00 4813.44 75.00
1501 11.1000 5387.00 4812.33 73.00
1502 11.1060 5102.00 4811.93 71.00
1503 11.1120 4952.00 4812.45 70.00
1504 11.1180 4924.00 4814.19 70.00
1505 11.1240 4891.00 4817.58 70.00
1506 11.1300 4886.00 4823.28 70.00
1507 11.1360 4893.00 4832.30 70.00
1508 11.1420 4995.00 4846.25 71.00
1509 11.1480 5102.00 4867.83 71.00
1510 11.1540 5201.00 4901.87 72.00
1511 11.1600 5282.00 4958.49 73.00
1512 11.1660 5385.00 5068.11 73.00
1513 11.1720 5622.00 5341.52 75.00
1514 11.1780 6279.00 6062.71 79.00
1515 11.1840 7784.00 7499.83 88.00
1516 11.1900 9061.00 9032.34 95.00
1517 11.1960 8506.00 8398.60 92.00
1518 11.2020 7007.00 6861.49 84.00
1519 11.2080 5991.00 5823.35 77.00
1520 11.2140 5660.00 5399.62 75.00
1521 11.2200 5613.00 5253.10 75.00
1522 11.2260 5610.00 5199.10 75.00
1523 11.2320 5566.00 5182.08 75.00
1524 11.2380 5571.00 5187.00 75.00
1525 11.2440 5588.00 5208.63 75.00
1526 11.2500 5562.00 5245.27 75.00
1527 11.2560 5506.00 5297.28 74.00
1528 11.2620 5450.00 5366.73 74.00
1529 11.2680 5530.00 5457.39 74.00
1530 11.2740 5604.00 5575.25 75.00
1531 11.2800 5663.00 5729.43 75.00
1532 11.2860 5834.00 5934.03 76.00
1533 11.2920 6080.00 6211.10 78.00
1534 11.2980 6334.00 6596.99 80.00
1535 11.3040 6773.00 7154.43 82.00
1536 11.3100 7587.00 8007.76 87.00
1537 11.3160 8954.00 9492.61 95.00
1538 11.3220 11810.00 12743.50 109.00
1539 11.3280 19126.00 20709.80 138.00
1540 11.3340 36905.00 37082.80 192.00
1541 11.3400 60367.00 58446.40 246.00
1542 11.3460 72891.00 68086.00 270.00
1543 11.3520 68972.00 68384.60 263.00
1544 11.3580 51393.00 53130.60 227.00
1545 11.3640 29629.00 30966.70 172.00
1546 11.3700 16049.00 17292.50 127.00
1547 11.3760 10591.00 11299.30 103.00
1548 11.3820 8382.00 8849.31 92.00
1549 11.3880 7126.00 7625.15 84.00
1550 11.3940 6500.00 6874.28 81.00
1551 11.4000 6230.00 6368.15 79.00
1552 11.4060 5983.00 6009.42 77.00
1553 11.4120 5714.00 5745.68 76.00
1554 11.4180 5583.00 5545.81 75.00
1555 11.4240 5494.00 5390.49 74.00
1556 11.4300 5377.00 5267.11 73.00
1557 11.4360 5259.00 5167.31 73.00
1558 11.4420 5045.00 5085.22 71.00
1559 11.4480 5044.00 5016.74 71.00
1560 11.4540 5080.00 4958.84 71.00
1561 11.4600 5037.00 4909.34 71.00
1562 11.4660 4982.00 4866.55 71.00
1563 11.4720 4933.00 4829.22 70.00
1564 11.4780 4942.00 4796.35 70.00
1565 11.4840 4916.00 4767.17 70.00
1566 11.4900 4925.00 4741.08 70.00
1567 11.4960 5113.00 4717.58 72.00
1568 11.5020 5405.00 4607.93 74.00
1569 11.5080 5410.00 4594.73 74.00
1570 11.5140 5136.00 4483.08 72.00
1571 11.5200 4941.00 4478.71 70.00
1572 11.5260 4803.00 4474.34 69.00
1573 11.5320 4762.00 4469.97 69.00
1574 11.5380 4777.00 4465.60 69.00
1575 11.5440 4693.00 4461.23 69.00
1576 11.5500 4661.00 4456.86 68.00
1577 11.5560 4707.00 4452.48 69.00
1578 11.5620 4610.00 4448.11 68.00
1579 11.5680 4577.00 4443.74 68.00
1580 11.5740 4640.00 4439.37 68.00
1581 11.5800 4653.00 4435.00 68.00
1582 11.5860 4539.00 4430.63 67.00
1583 11.5920 4505.00 4426.26 67.00
1584 11.5980 4566.00 4421.89 68.00
1585 11.6040 4544.00 4417.52 67.00
1586 11.6100 4445.00 4413.15 67.00
1587 11.6160 4449.00 4408.77 67.00
1588 11.6220 4458.00 4404.40 67.00
1589 11.6280 4402.00 4400.03 66.00
1590 11.6340 4434.00 4395.66 67.00
1591 11.6400 4390.00 4391.29 66.00
1592 11.6460 4448.00 4386.92 67.00
1593 11.6520 4727.00 4382.55 69.00
1594 11.6580 4688.00 4378.18 68.00
1595 11.6640 4604.00 4373.81 68.00
1596 11.6700 4613.00 4369.44 68.00
1597 11.6760 4471.00 4365.06 67.00
1598 11.6820 4390.00 4362.13 66.00
1599 11.6880 4517.00 4359.92 67.00
1600 11.6940 4502.00 4357.70 67.00
1601 11.7000 4531.00 4355.48 67.00
1602 11.7060 4541.00 4353.27 67.00
1603 11.7120 4561.00 4351.05 68.00
1604 11.7180 4581.00 4348.84 68.00
1605 11.7240 4464.00 4346.62 67.00
1606 11.7300 4372.00 4344.41 66.00
1607 11.7360 4410.00 4342.19 66.00
1608 11.7420 4461.00 4339.98 67.00
1609 11.7480 4444.00 4337.76 67.00
1610 11.7540 4338.00 4335.54 66.00
1611 11.7600 4369.00 4333.33 66.00
1612 11.7660 4344.00 4331.11 66.00
1613 11.7720 4342.00 4343.36 66.00
1614 11.7780 4406.00 4342.30 66.00
1615 11.7840 4443.00 4341.38 67.00
1616 11.7900 4449.00 4340.62 67.00
1617 11.7960 4450.00 4340.06 67.00
1618 11.8020 4495.00 4339.74 67.00
1619 11.8080 4488.00 4339.69 67.00
1620 11.8140 4484.00 4339.99 67.00
1621 11.8200 4535.00 4340.70 67.00
1622 11.8260 4446.00 4341.92 67.00
1623 11.8320 4397.00 4343.77 66.00
1624 11.8380 4417.00 4346.41 66.00
1625 11.8440 4462.00 4350.08 67.00
1626 11.8500 4393.00 4355.07 66.00
1627 11.8560 4351.00 4361.82 66.00
1628 11.8620 4351.00 4370.93 66.00
1629 11.8680 4313.00 4383.31 66.00
1630 11.8740 4376.00 4400.34 66.00
1631 11.8800 4432.00 4424.18 67.00
1632 11.8860 4553.00 4458.42 67.00
1633 11.8920 4545.00 4509.33 67.00
1634 11.8980 4575.00 4589.41 68.00
1635 11.9040 4824.00 4733.16 69.00
1636 11.9100 5196.00 5060.73 72.00
1637 11.9160 6101.00 5899.49 78.00
1638 11.9220 8770.00 7671.46 94.00
1639 11.9280 12622.00 9952.55 112.00
1640 11.9340 12447.00 10073.90 112.00
1641 11.9400 8891.00 7832.32 94.00
1642 11.9460 6239.00 5983.04 79.00
1643 11.9520 5122.00 5083.92 72.00
1644 11.9580 4863.00 4728.64 70.00
1645 11.9640 4803.00 4572.87 69.00
1646 11.9700 4626.00 4485.32 68.00
1647 11.9760 4566.00 4428.41 68.00
1648 11.9820 4550.00 4388.77 67.00
1649 11.9880 4432.00 4359.89 67.00
1650 11.9940 4324.00 4338.01 66.00
1651 12.0000 4289.00 4320.92 65.00
1652 12.0060 4227.00 4307.17 65.00
1653 12.0120 4293.00 4295.84 66.00
1654 12.0180 4372.00 4286.31 66.00
1655 12.0240 4262.00 4278.12 65.00
1656 12.0300 4236.00 4270.98 65.00
1657 12.0360 4324.00 4264.65 66.00
1658 12.0420 4297.00 4258.96 66.00
1659 12.0480 4243.00 4253.78 65.00
1660 12.0540 4255.00 4249.03 65.00
1661 12.0600 4226.00 4244.62 65.00
1662 12.0660 4168.00 4240.49 65.00
1663 12.0720 4193.00 4236.60 65.00
1664 12.0780 4071.00 4232.91 64.00
1665 12.0840 4096.00 4229.40 64.00
1666 12.0900 4081.00 4226.02 64.00
1667 12.0960 4115.00 4209.26 64.00
1668 12.1020 4211.00 4207.04 65.00
1669 12.1080 4167.00 4204.83 65.00
1670 12.1140 4141.00 4202.61 64.00
1671 12.1200 4145.00 4200.40 64.00
1672 12.1260 4116.00 4198.18 64.00
1673 12.1320 4156.00 4195.96 64.00
1674 12.1380 4122.00 4193.75 64.00
1675 12.1440 4206.00 4191.53 65.00
1676 12.1500 4232.00 4189.32 65.00
1677 12.1560 4205.00 4187.10 65.00
1678 12.1620 4291.00 4184.89 66.00
1679 12.1680 4309.00 4182.67 66.00
1680 12.1740 4195.00 4180.46 65.00
1681 12.1800 4140.00 4178.24 64.00
1682 12.1860 4198.00 4183.59 65.00
1683 12.1920 4289.00 4188.93 65.00
1684 12.1980 4211.00 4194.28 65.00
1685 12.2040 4230.00 4199.63 65.00
1686 12.2100 4127.00 4204.98 64.00
1687 12.2160 4066.00 4210.32 64.00
1688 12.2220 4064.00 4215.67 64.00
1689 12.2280 4081.00 4221.02 64.00
1690 12.2340 4086.00 4226.37 64.00
1691 12.2400 4123.00 4231.72 64.00
1692 12.2460 4146.00 4237.06 64.00
1693 12.2520 4179.00 4242.41 65.00
1694 12.2580 4255.00 4247.76 65.00
1695 12.2640 4143.00 4253.11 64.00
1696 12.2700 4276.00 4258.45 65.00
1697 12.2760 4333.00 4263.80 66.00
1698 12.2820 4217.00 4269.15 65.00
1699 12.2880 4195.00 4274.50 65.00
1700 12.2940 4048.00 4279.84 64.00
1701 12.3000 4074.00 4285.19 64.00
1702 12.3060 4048.00 4290.54 64.00
1703 12.3120 4063.00 4295.89 64.00
1704 12.3180 4141.00 4301.23 64.00
1705 12.3240 4196.00 4306.58 65.00
1706 12.3300 4245.00 4311.93 65.00
1707 12.3360 4292.00 4317.28 66.00
1708 12.3420 4403.00 4322.63 66.00
1709 12.3480 4385.00 4327.97 66.00
1710 12.3540 4540.00 4333.32 67.00
1711 12.3600 4738.00 4338.67 69.00
1712 12.3660 4752.00 4344.02 69.00
1713 12.3720 4724.00 4349.36 69.00
1714 12.3780 4447.00 4354.71 67.00
1715 12.3840 4296.00 4360.06 66.00
1716 12.3900 4222.00 4365.41 65.00
1717 12.3960 4184.00 4370.75 65.00
1718 12.4020 4285.00 4376.10 65.00
1719 12.4080 4254.00 4381.45 65.00
1720 12.4140 4092.00 4386.80 64.00
1721 12.4200 4000.00 4392.15 63.00
1722 12.4260 3948.00 4397.49 63.00
1723 12.4320 4113.00 4402.84 64.00
1724 12.4380 4113.00 4408.19 64.00
1725 12.4440 4177.00 4413.54 65.00
1726 12.4500 4455.00 4418.88 67.00
1727 12.4560 4533.00 4424.23 67.00
1728 12.4620 4253.00 4429.58 65.00
1729 12.4680 4061.00 4434.93 64.00
1730 12.4740 4075.00 4440.27 64.00
1731 12.4800 4113.00 4445.62 64.00
1732 12.4860 3982.00 4450.97 63.00
1733 12.4920 4025.00 4456.32 63.00
1734 12.4980 4007.00 4461.66 63.00
1735 12.5040 4056.00 4467.01 64.00
1736 12.5100 4135.00 4472.36 64.00
1737 12.5160 4137.00 4477.71 64.00
1738 12.5220 4193.00 4483.06 65.00
1739 12.5280 4251.00 4488.40 65.00
1740 12.5340 4122.00 4493.75 64.00
1741 12.5400 4216.00 4499.10 65.00
1742 12.5460 4246.00 4504.45 65.00
1743 12.5520 4278.00 4509.79 65.00
1744 12.5580 4250.00 4515.14 65.00
1745 12.5640 4267.00 4520.49 65.00
1746 12.5700 4292.00 4525.84 66.00
1747 12.5760 4521.00 4531.18 67.00
1748 12.5820 4698.00 4536.53 69.00
1749 12.5880 4776.00 4541.88 69.00
1750 12.5940 4662.00 4547.23 68.00
1751 12.6000 4726.00 4552.57 69.00
1752 12.6060 4838.00 4557.92 70.00
1753 12.6120 4841.00 4563.27 70.00
1754 12.6180 4813.00 4568.62 69.00
1755 12.6240 4691.00 4573.96 68.00
1756 12.6300 4629.00 4579.31 68.00
1757 12.6360 4377.00 4584.66 66.00
1758 12.6420 4464.00 4590.01 67.00
1759 12.6480 4381.00 4595.36 66.00
1760 12.6540 4311.00 4600.70 66.00
1761 12.6600 4327.00 4606.05 66.00
1762 12.6660 4267.00 4611.40 65.00
1763 12.6720 4183.00 4616.75 65.00
1764 12.6780 4235.00 4622.09 65.00
1765 12.6840 4167.00 4627.44 65.00
1766 12.6900 4091.00 4625.55 64.00
1767 12.6960 4269.00 4609.16 65.00
1768 12.7020 4226.00 4592.78 65.00
1769 12.7080 4230.00 4576.40 65.00
1770 12.7140 4324.00 4560.02 66.00
1771 12.7200 4278.00 4543.64 65.00
1772 12.7260 4455.00 4527.26 67.00
1773 12.7320 4826.00 4510.87 69.00
1774 12.7380 5272.00 4494.49 73.00
1775 12.7440 6093.00 4478.11 78.00
1776 12.7500 7013.00 4461.73 84.00
1777 12.7560 7600.00 4445.35 87.00
1778 12.7620 6823.00 4428.97 83.00
1779 12.7680 5680.00 4412.59 75.00
1780 12.7740 4900.00 4396.21 70.00
1781 12.7800 4562.00 4379.83 68.00
1782 12.7860 4377.00 4363.44 66.00
1783 12.7920 4404.00 4347.06 66.00
1784 12.7980 4316.00 4330.68 66.00
1785 12.8040 4215.00 4314.30 65.00
1786 12.8100 4237.00 4297.92 65.00
1787 12.8160 4252.00 4281.54 65.00
1788 12.8220 4187.00 4265.16 65.00
1789 12.8280 4188.00 4248.77 65.00
1790 12.8340 4067.00 4232.39 64.00
1791 12.8400 4043.00 4216.01 64.00
1792 12.8460 4058.00 4199.63 64.00
1793 12.8520 3966.00 4183.25 63.00
1794 12.8580 4005.00 4166.87 63.00
1795 12.8640 4133.00 4150.48 64.00
1796 12.8700 4047.00 4134.10 64.00
1797 12.8760 4048.00 4117.72 64.00
1798 12.8820 4058.00 4101.34 64.00
1799 12.8880 3899.00 4084.96 62.00
1800 12.8940 4195.00 4068.58 65.00
1801 12.9000 4124.00 4052.20 64.00
1802 12.9060 4024.00 4048.55 63.00
1803 12.9120 4000.00 4057.63 63.00
1804 12.9180 4048.00 4066.71 64.00
1805 12.9240 4090.00 4075.79 64.00
1806 12.9300 3982.00 4084.88 63.00
1807 12.9360 4019.00 4093.96 63.00
1808 12.9420 4083.00 4103.04 64.00
1809 12.9480 4101.00 4112.12 64.00
1810 12.9540 4070.00 4121.20 64.00
1811 12.9600 4199.00 4130.28 65.00
1812 12.9660 4095.00 4139.36 64.00
1813 12.9720 4128.00 4148.45 64.00
1814 12.9780 4013.00 4157.53 63.00
1815 12.9840 4126.00 4166.61 64.00
1816 12.9900 4088.00 4175.69 64.00
1817 12.9960 4024.00 4184.77 63.00
1818 13.0020 4188.00 4193.86 65.00
1819 13.0080 3983.00 4202.94 63.00
1820 13.0140 4047.00 4212.02 64.00
1821 13.0200 4027.00 4224.48 63.00
1822 13.0260 4178.00 4233.81 65.00
1823 13.0320 3985.00 4247.61 63.00
1824 13.0380 4085.00 4257.35 64.00
1825 13.0440 4054.00 4267.16 64.00
1826 13.0500 4242.00 4277.07 65.00
1827 13.0560 4046.00 4287.09 64.00
1828 13.0620 4084.00 4297.24 64.00
1829 13.0680 4158.00 4307.54 64.00
1830 13.0740 4084.00 4318.04 64.00
1831 13.0800 4052.00 4328.75 64.00
1832 13.0860 4179.00 4339.75 65.00
1833 13.0920 4162.00 4351.10 65.00
1834 13.0980 4186.00 4362.88 65.00
1835 13.1040 4098.00 4375.21 64.00
1836 13.1100 4281.00 4383.36 65.00
1837 13.1160 4272.00 4391.47 65.00
1838 13.1220 4143.00 4400.85 64.00
1839 13.1280 4270.00 4411.97 65.00
1840 13.1340 4274.00 4425.55 65.00
1841 13.1400 4446.00 4442.71 67.00
1842 13.1460 4498.00 4465.32 67.00
1843 13.1520 4626.00 4496.71 68.00
1844 13.1580 4643.00 4834.00 68.00
1845 13.1640 4921.00 4941.14 70.00
1846 13.1700 4923.00 5149.06 70.00
1847 13.1760 5092.00 5573.38 71.00
1848 13.1820 5872.00 6307.96 77.00
1849 13.1880 6540.00 7119.03 81.00
1850 13.1940 6826.00 7493.73 83.00
1851 13.2000 6572.00 7294.00 81.00
1852 13.2060 5710.00 6513.32 76.00
1853 13.2120 5279.00 5849.45 73.00
1854 13.2180 5146.00 5526.71 72.00
1855 13.2240 5043.00 5436.10 71.00
1856 13.2300 5053.00 5457.51 71.00
1857 13.2360 4966.00 5535.01 70.00
1858 13.2420 5228.00 5653.79 72.00
1859 13.2480 5272.00 5814.63 73.00
1860 13.2540 5499.00 6025.36 74.00
1861 13.2600 5642.00 6300.20 75.00
1862 13.2660 6214.00 6661.95 79.00
1863 13.2720 6468.00 7221.12 80.00
1864 13.2780 7125.00 7893.45 84.00
1865 13.2840 7760.00 8847.80 88.00
1866 13.2900 9036.00 10270.90 95.00
1867 13.2960 11094.00 12614.00 105.00
1868 13.3020 15429.00 17300.00 124.00
1869 13.3080 23433.00 28373.00 153.00
1870 13.3140 46983.00 52838.00 217.00
1871 13.3200 102547.00 92851.10 320.00
1872 13.3260 149373.00 122983.00 386.00
1873 13.3320 104416.00 100977.00 323.00
1874 13.3380 47427.00 59537.20 218.00
1875 13.3440 25080.00 31899.60 158.00
1876 13.3500 15943.00 18892.20 126.00
1877 13.3560 11803.00 13464.10 109.00
1878 13.3620 9541.00 10891.10 98.00
1879 13.3680 8513.00 9411.40 92.00
1880 13.3740 7680.00 8466.49 88.00
1881 13.3800 7249.00 7855.66 85.00
1882 13.3860 6948.00 7474.01 83.00
1883 13.3920 6940.00 7273.11 83.00
1884 13.3980 7114.00 7241.55 84.00
1885 13.4040 7022.00 7409.92 84.00
1886 13.4100 7644.00 7909.46 87.00
1887 13.4160 8979.00 9200.82 95.00
1888 13.4220 11800.00 12492.00 109.00
1889 13.4280 19423.00 19493.10 139.00
1890 13.4340 32316.00 29723.30 180.00
1891 13.4400 36666.00 34498.90 191.00
1892 13.4460 26385.00 26584.10 162.00
1893 13.4520 15358.00 16746.20 124.00
1894 13.4580 10262.00 10800.20 101.00
1895 13.4640 8034.00 8097.38 90.00
1896 13.4700 6772.00 6930.02 82.00
1897 13.4760 6359.00 6329.99 80.00
1898 13.4820 6162.00 5956.65 78.00
1899 13.4880 5945.00 5700.75 77.00
1900 13.4940 5886.00 5516.30 77.00
1901 13.5000 5973.00 5104.88 77.00
1902 13.5060 5832.00 5017.06 76.00
1903 13.5120 5631.00 4950.14 75.00
1904 13.5180 5360.00 4898.22 73.00
1905 13.5240 5132.00 4857.32 72.00
1906 13.5300 5099.00 4824.71 71.00
1907 13.5360 5020.00 4798.42 71.00
1908 13.5420 5138.00 4777.08 72.00
1909 13.5480 5298.00 4759.62 73.00
1910 13.5540 5244.00 4745.28 72.00
1911 13.5600 5502.00 4733.46 74.00
1912 13.5660 5522.00 4723.69 74.00
1913 13.5720 5745.00 4715.63 76.00
1914 13.5780 5711.00 4708.98 76.00
1915 13.5840 5745.00 4703.52 76.00
1916 13.5900 5603.00 4699.07 75.00
1917 13.5960 5428.00 4695.47 74.00
1918 13.6020 5252.00 4692.61 72.00
1919 13.6080 5237.00 4690.37 72.00
1920 13.6140 4868.00 4620.89 70.00
1921 13.6200 4792.00 4624.08 69.00
1922 13.6260 4770.00 4627.28 69.00
1923 13.6320 4622.00 4630.47 68.00
1924 13.6380 4475.00 4641.55 67.00
1925 13.6440 4588.00 4654.21 68.00
1926 13.6500 4699.00 4666.87 69.00
1927 13.6560 4633.00 4679.53 68.00
1928 13.6620 4650.00 4692.19 68.00
1929 13.6680 4700.00 4704.85 69.00
1930 13.6740 4676.00 4717.51 68.00
1931 13.6800 4696.00 4730.17 69.00
1932 13.6860 4772.00 4742.83 69.00
1933 13.6920 4797.00 4755.49 69.00
1934 13.6980 4821.00 4768.15 69.00
1935 13.7040 4864.00 4780.81 70.00
1936 13.7100 4895.00 4793.47 70.00
1937 13.7160 4883.00 4806.12 70.00
1938 13.7220 4974.00 4818.79 71.00
1939 13.7280 4970.00 4831.44 70.00
1940 13.7340 5154.00 4844.10 72.00
1941 13.7400 5345.00 4856.76 73.00
1942 13.7460 5973.00 4869.42 77.00
1943 13.7520 7024.00 4882.08 84.00
1944 13.7580 8227.00 4894.74 91.00
1945 13.7640 9018.00 5004.17 95.00
1946 13.7700 8862.00 5023.96 94.00
1947 13.7760 7960.00 5044.55 89.00
1948 13.7820 6725.00 5066.09 82.00
1949 13.7880 5703.00 5088.73 76.00
1950 13.7940 5240.00 5112.66 72.00
1951 13.8000 4949.00 5278.64 70.00
1952 13.8060 4728.00 5315.99 69.00
1953 13.8120 4901.00 5356.62 70.00
1954 13.8180 4960.00 5401.16 70.00
1955 13.8240 4964.00 5450.40 70.00
1956 13.8300 4927.00 5505.29 70.00
1957 13.8360 4997.00 5567.12 71.00
1958 13.8420 5079.00 5630.89 71.00
1959 13.8480 5040.00 5702.09 71.00
1960 13.8540 5274.00 5786.93 73.00
1961 13.8600 5382.00 5889.38 73.00
1962 13.8660 5386.00 6015.08 73.00
1963 13.8720 5725.00 6172.01 76.00
1964 13.8780 5957.00 6372.16 77.00
1965 13.8840 6332.00 6633.87 80.00
1966 13.8900 6979.00 6986.77 84.00
1967 13.8960 7942.00 7482.24 89.00
1968 13.9020 9436.00 8229.45 97.00
1969 13.9080 12393.00 9535.24 111.00
1970 13.9140 17547.00 12301.80 132.00
1971 13.9200 25191.00 18411.70 159.00
1972 13.9260 31482.00 29602.00 177.00
1973 13.9320 33535.00 42763.60 183.00
1974 13.9380 33066.00 44304.00 182.00
1975 13.9440 32417.00 33175.40 180.00
1976 13.9500 32819.00 24165.80 181.00
1977 13.9560 34407.00 23123.80 185.00
1978 13.9620 38578.00 31641.70 196.00
1979 13.9680 45332.00 49028.20 213.00
1980 13.9740 52960.00 64182.70 230.00
1981 13.9800 53746.00 56158.30 232.00
1982 13.9860 42037.00 36059.70 205.00
1983 13.9920 25835.00 21334.50 161.00
1984 13.9980 16264.00 13846.30 128.00
1985 14.0040 11997.00 10559.00 110.00
1986 14.0100 10057.00 8990.84 100.00
1987 14.0160 8841.00 8082.21 94.00
1988 14.0220 8144.00 7483.65 90.00
1989 14.0280 7767.00 7066.14 88.00
1990 14.0340 7567.00 6765.83 87.00
1991 14.0400 7251.00 6546.15 85.00
1992 14.0460 6726.00 6384.97 82.00
1993 14.0520 6364.00 6268.78 80.00
1994 14.0580 6294.00 6190.00 79.00
1995 14.0640 6315.00 6145.58 79.00
1996 14.0700 6184.00 6137.06 79.00
1997 14.0760 6105.00 6172.52 78.00
1998 14.0820 6392.00 6274.98 80.00
1999 14.0880 7019.00 6517.14 84.00
2000 14.0940 8109.00 7114.18 90.00
2001 14.1000 9643.00 8501.32 98.00
2002 14.1060 10601.00 11047.20 103.00
2003 14.1120 10593.00 13854.10 103.00
2004 14.1180 9972.00 13932.20 100.00
2005 14.1240 9131.00 11090.40 96.00
2006 14.1300 8414.00 8565.18 92.00
2007 14.1360 7925.00 7306.41 89.00
2008 14.1420 7780.00 7065.23 88.00
2009 14.1480 7777.00 7415.87 88.00
2010 14.1540 7664.00 7589.78 88.00
2011 14.1600 7343.00 7151.25 86.00
2012 14.1660 6652.00 6419.93 82.00
2013 14.1720 6008.00 5908.86 78.00
2014 14.1780 5599.00 5644.25 75.00
2015 14.1840 5373.00 5519.06 73.00
2016 14.1900 5165.00 5452.65 72.00
2017 14.1960 5193.00 5410.84 72.00
2018 14.2020 5174.00 5381.83 72.00
2019 14.2080 5176.00 5360.80 72.00
2020 14.2140 5144.00 5342.23 72.00
2021 14.2200 5174.00 5312.69 72.00
2022 14.2260 5123.00 5285.96 72.00
2023 14.2320 5246.00 5261.33 72.00
2024 14.2380 5340.00 5238.33 73.00
2025 14.2440 5366.00 5216.59 73.00
2026 14.2500 5589.00 5195.86 75.00
2027 14.2560 5759.00 5175.93 76.00
2028 14.2620 6008.00 5156.67 78.00
2029 14.2680 6434.00 5137.95 80.00
2030 14.2740 6597.00 5119.69 81.00
2031 14.2800 6372.00 5101.82 80.00
2032 14.2860 6067.00 5084.26 78.00
2033 14.2920 5748.00 5066.99 76.00
2034 14.2980 5349.00 5029.73 73.00
2035 14.3040 5165.00 5014.15 72.00
2036 14.3100 5104.00 4998.64 71.00
2037 14.3160 4971.00 4983.19 71.00
2038 14.3220 4879.00 4967.78 70.00
2039 14.3280 4772.00 4952.41 69.00
2040 14.3340 4823.00 4932.42 69.00
2041 14.3400 4894.00 4917.42 70.00
2042 14.3460 4856.00 4902.41 70.00
2043 14.3520 4935.00 4887.40 70.00
2044 14.3580 5013.00 4872.40 71.00
2045 14.3640 5165.00 4857.39 72.00
2046 14.3700 5308.00 4842.38 73.00
2047 14.3760 5297.00 4827.38 73.00
2048 14.3820 5100.00 4812.37 71.00
2049 14.3880 4831.00 4797.37 70.00
2050 14.3940 4738.00 4782.36 69.00
2051 14.4000 4637.00 4767.35 68.00
2052 14.4060 4505.00 4752.35 67.00
2053 14.4120 4520.00 4737.34 67.00
2054 14.4180 4526.00 4722.33 67.00
2055 14.4240 4460.00 4707.33 67.00
2056 14.4300 4391.00 4692.32 66.00
2057 14.4360 4406.00 4677.31 66.00
2058 14.4420 4422.00 4662.31 66.00
2059 14.4480 4388.00 4647.30 66.00
2060 14.4540 4401.00 4632.29 66.00
2061 14.4600 4447.00 4624.19 67.00
2062 14.4660 4491.00 4609.66 67.00
2063 14.4720 4521.00 4595.18 67.00
2064 14.4780 4499.00 4580.77 67.00
2065 14.4840 4479.00 4566.41 67.00
2066 14.4900 4381.00 4552.14 66.00
2067 14.4960 4274.00 4537.96 65.00
2068 14.5020 4346.00 4534.98 66.00
2069 14.5080 4366.00 4521.82 66.00
2070 14.5140 4309.00 4508.90 66.00
2071 14.5200 4338.00 4526.61 66.00
2072 14.5260 4385.00 4550.72 66.00
2073 14.5320 4417.00 4575.23 66.00
2074 14.5380 4442.00 4600.24 67.00
2075 14.5440 4436.00 4625.84 67.00
2076 14.5500 4513.00 4652.19 67.00
2077 14.5560 4604.00 4679.46 68.00
2078 14.5620 4665.00 4707.94 68.00
2079 14.5680 4692.00 4737.94 68.00
2080 14.5740 4712.00 4770.00 69.00
2081 14.5800 4867.00 4804.82 70.00
2082 14.5860 5144.00 4843.49 72.00
2083 14.5920 5390.00 4887.68 73.00
2084 14.5980 5496.00 4940.13 74.00
2085 14.6040 5561.00 5005.91 75.00
2086 14.6100 5821.00 5096.95 76.00
2087 14.6160 5942.00 5247.88 77.00
2088 14.6220 6300.00 5546.97 79.00
2089 14.6280 6933.00 6137.65 83.00
2090 14.6340 7328.00 7075.67 86.00
2091 14.6400 7151.00 7924.99 85.00
2092 14.6460 6963.00 7736.35 83.00
2093 14.6520 6810.00 6956.64 83.00
2094 14.6580 6810.00 6542.09 83.00
2095 14.6640 6941.00 6829.48 83.00
2096 14.6700 7488.00 7865.87 87.00
2097 14.6760 8207.00 9214.12 91.00
2098 14.6820 8532.00 9407.19 92.00
2099 14.6880 7984.00 8108.36 89.00
2100 14.6940 6674.00 6805.00 82.00
2101 14.7000 5808.00 6036.98 76.00
2102 14.7060 5483.00 5683.90 74.00
2103 14.7120 5374.00 5533.46 73.00
2104 14.7180 5265.00 5463.10 73.00
2105 14.7240 5155.00 5387.50 72.00
2106 14.7300 5093.00 5329.75 71.00
2107 14.7360 5227.00 5283.03 72.00
2108 14.7420 5118.00 5243.62 72.00
2109 14.7480 4994.00 5209.25 71.00
2110 14.7540 4994.00 5179.10 71.00
2111 14.7600 4940.00 5150.99 70.00
2112 14.7660 4927.00 5124.85 70.00
2113 14.7720 4948.00 5100.23 70.00
2114 14.7780 5187.00 5076.77 72.00
2115 14.7840 5342.00 5054.25 73.00
2116 14.7900 5294.00 5032.47 73.00
2117 14.7960 5368.00 5011.30 73.00
2118 14.8020 5342.00 4990.63 73.00
2119 14.8080 5347.00 4970.38 73.00
2120 14.8140 5212.00 4950.48 72.00
2121 14.8200 5082.00 4930.89 71.00
2122 14.8260 5014.00 4904.87 71.00
2123 14.8320 5108.00 4886.19 71.00
2124 14.8380 5238.00 4867.69 72.00
2125 14.8440 5065.00 4849.37 71.00
2126 14.8500 5023.00 4831.21 71.00
2127 14.8560 5018.00 4813.22 71.00
2128 14.8620 4800.00 4795.43 69.00
2129 14.8680 4574.00 4767.98 68.00
2130 14.8740 4586.00 4751.29 68.00
2131 14.8800 4558.00 4734.90 68.00
2132 14.8860 4489.00 4719.00 67.00
2133 14.8920 4570.00 4703.83 68.00
2134 14.8980 4586.00 4689.96 68.00
2135 14.9040 4719.00 4678.94 69.00
2136 14.9100 4863.00 4675.17 70.00
2137 14.9160 5048.00 4688.17 71.00
2138 14.9220 5246.00 4728.90 72.00
2139 14.9280 5334.00 4790.74 73.00
2140 14.9340 5359.00 4811.13 73.00
2141 14.9400 5179.00 4737.47 72.00
2142 14.9460 4785.00 4642.33 69.00
2143 14.9520 4704.00 4573.24 69.00
2144 14.9580 4571.00 4529.90 68.00
2145 14.9640 4406.00 4567.09 66.00
2146 14.9700 4476.00 4623.32 67.00
2147 14.9760 4405.00 4612.41 66.00
2148 14.9820 4365.00 4603.71 66.00
2149 14.9880 4326.00 4596.94 66.00
2150 14.9940 4372.00 4592.02 66.00
2151 15.0000 4292.00 4605.05 66.00
2152 15.0060 4375.00 4623.41 66.00
2153 15.0120 4464.00 4644.21 67.00
2154 15.0180 4357.00 4667.84 66.00
2155 15.0240 4380.00 4694.76 66.00
2156 15.0300 4506.00 4725.62 67.00
2157 15.0360 4475.00 4761.21 67.00
2158 15.0420 4420.00 4802.56 66.00
2159 15.0480 4547.00 4851.02 67.00
2160 15.0540 4672.00 4908.35 68.00
2161 15.0600 4613.00 4976.90 68.00
2162 15.0660 4742.00 5059.84 69.00
2163 15.0720 4807.00 5161.54 69.00
2164 15.0780 5034.00 5288.27 71.00
2165 15.0840 5088.00 5448.97 71.00
2166 15.0900 5257.00 5657.03 73.00
2167 15.0960 5585.00 5933.02 75.00
2168 15.1020 6046.00 6310.13 78.00
2169 15.1080 6561.00 6846.81 81.00
2170 15.1140 7389.00 7669.65 86.00
2171 15.1200 8746.00 9114.48 94.00
2172 15.1260 11580.00 12057.70 108.00
2173 15.1320 17045.00 18199.50 131.00
2174 15.1380 30968.00 29376.40 176.00
2175 15.1440 51970.00 44211.50 228.00
2176 15.1500 61570.00 53763.10 248.00
2177 15.1560 52833.00 51671.40 230.00
2178 15.1620 34887.00 38397.90 187.00
2179 15.1680 20808.00 24170.30 144.00
2180 15.1740 14255.00 15135.80 119.00
2181 15.1800 10145.00 10566.80 101.00
2182 15.1860 8416.00 8416.05 92.00
2183 15.1920 7179.00 7302.42 85.00
2184 15.1980 6467.00 6625.47 80.00
2185 15.2040 5964.00 6167.08 77.00
2186 15.2100 5534.00 5839.71 74.00
2187 15.2160 5435.00 5597.63 74.00
2188 15.2220 5139.00 5413.89 72.00
2189 15.2280 5096.00 5271.39 71.00
2190 15.2340 4977.00 5158.73 71.00
2191 15.2400 5055.00 5068.24 71.00
2192 15.2460 4881.00 4994.57 70.00
2193 15.2520 4947.00 4933.86 70.00
2194 15.2580 4750.00 4883.30 69.00
2195 15.2640 4704.00 4840.81 69.00
2196 15.2700 4684.00 4804.80 68.00
2197 15.2760 4612.00 4774.06 68.00
2198 15.2820 4562.00 4747.65 68.00
2199 15.2880 4594.00 4724.84 68.00
2200 15.2940 4658.00 4706.96 68.00
2201 15.3000 4545.00 4689.80 67.00
2202 15.3060 4501.00 4674.80 67.00
2203 15.3120 4537.00 4661.65 67.00
2204 15.3180 4500.00 4650.09 67.00
2205 15.3240 4375.00 4639.91 66.00
2206 15.3300 4578.00 4630.98 68.00
2207 15.3360 4526.00 4561.07 67.00
2208 15.3420 4561.00 4557.83 68.00
2209 15.3480 4534.00 4483.59 67.00
2210 15.3540 4445.00 4483.97 67.00
2211 15.3600 4554.00 4484.39 67.00
2212 15.3660 4476.00 4484.89 67.00
2213 15.3720 4515.00 4485.47 67.00
2214 15.3780 4414.00 4486.15 66.00
2215 15.3840 4368.00 4486.96 66.00
2216 15.3900 4330.00 4487.94 66.00
2217 15.3960 4422.00 4489.12 66.00
2218 15.4020 4434.00 4490.58 67.00
2219 15.4080 4418.00 4492.40 66.00
2220 15.4140 4372.00 4494.72 66.00
2221 15.4200 4428.00 4497.73 67.00
2222 15.4260 4395.00 4501.73 66.00
2223 15.4320 4385.00 4507.20 66.00
2224 15.4380 4315.00 4514.97 66.00
2225 15.4440 4348.00 4526.74 66.00
2226 15.4500 4443.00 4547.06 67.00
2227 15.4560 4612.00 4588.62 68.00
2228 15.4620 4783.00 4678.64 69.00
2229 15.4680 4898.00 4850.18 70.00
2230 15.4740 4957.00 5093.05 70.00
2231 15.4800 4975.00 5245.15 71.00
2232 15.4860 4766.00 5109.84 69.00
2233 15.4920 4730.00 4866.71 69.00
2234 15.4980 4692.00 4691.28 68.00
2235 15.5040 4655.00 4603.20 68.00
2236 15.5100 4827.00 4565.19 69.00
2237 15.5160 4624.00 4547.74 68.00
2238 15.5220 4570.00 4532.81 68.00
2239 15.5280 4583.00 4519.55 68.00
2240 15.5340 4547.00 4510.17 67.00
2241 15.5400 4507.00 4504.22 67.00
2242 15.5460 4408.00 4500.48 66.00
2243 15.5520 4389.00 4498.01 66.00
2244 15.5580 4460.00 4496.30 67.00
2245 15.5640 4449.00 4495.12 67.00
2246 15.5700 4442.00 4519.59 67.00
2247 15.5760 4404.00 4539.32 66.00
2248 15.5820 4381.00 4559.39 66.00
2249 15.5880 4469.00 4579.81 67.00
2250 15.5940 4484.00 4600.58 67.00
2251 15.6000 4398.00 4623.72 66.00
2252 15.6060 4381.00 4645.44 66.00
2253 15.6120 4599.00 4667.69 68.00
2254 15.6180 4578.00 4690.58 68.00
2255 15.6240 4632.00 4714.30 68.00
2256 15.6300 4628.00 4739.09 68.00
2257 15.6360 4521.00 4765.33 67.00
2258 15.6420 4635.00 4793.63 68.00
2259 15.6480 4803.00 4824.94 69.00
2260 15.6540 4786.00 4861.13 69.00
2261 15.6600 4765.00 4906.71 69.00
2262 15.6660 4814.00 4974.25 69.00
2263 15.6720 4953.00 5091.26 70.00
2264 15.6780 5115.00 5304.84 72.00
2265 15.6840 5402.00 5626.82 73.00
2266 15.6900 5710.00 5924.94 76.00
2267 15.6960 5741.00 5896.40 76.00
2268 15.7020 5485.00 5626.95 74.00
2269 15.7080 5278.00 5404.15 73.00
2270 15.7140 5308.00 5301.17 73.00
2271 15.7200 5474.00 5292.08 74.00
2272 15.7260 5644.00 5347.90 75.00
2273 15.7320 6028.00 5478.33 78.00
2274 15.7380 6728.00 5757.96 82.00
2275 15.7440 7928.00 6331.27 89.00
2276 15.7500 9235.00 7309.38 96.00
2277 15.7560 9729.00 8450.91 99.00
2278 15.7620 9373.00 8746.83 97.00
2279 15.7680 8436.00 7895.80 92.00
2280 15.7740 7646.00 7014.83 87.00
2281 15.7800 6961.00 6588.90 83.00
2282 15.7860 6493.00 6426.44 81.00
2283 15.7920 6108.00 6168.22 78.00
2284 15.7980 5583.00 5861.95 75.00
2285 15.8040 5251.00 5646.30 72.00
2286 15.8100 5154.00 5530.03 72.00
2287 15.8160 5242.00 5477.29 72.00
2288 15.8220 5266.00 5455.70 73.00
2289 15.8280 5207.00 5448.54 72.00
2290 15.8340 5234.00 5439.31 72.00
2291 15.8400 5238.00 5425.15 72.00
2292 15.8460 5288.00 5414.22 73.00
2293 15.8520 5315.00 5405.62 73.00
2294 15.8580 5328.00 5398.72 73.00
2295 15.8640 5322.00 5393.11 73.00
2296 15.8700 5492.00 5388.49 74.00
2297 15.8760 5387.00 5384.64 73.00
2298 15.8820 5239.00 5381.40 72.00
2299 15.8880 5209.00 5376.35 72.00
2300 15.8940 5351.00 5374.15 73.00
2301 15.9000 5281.00 5372.27 73.00
2302 15.9060 5312.00 5370.65 73.00
2303 15.9120 5342.00 5369.26 73.00
2304 15.9180 5540.00 5368.06 74.00
2305 15.9240 5967.00 5367.02 77.00
2306 15.9300 6403.00 5366.11 80.00
2307 15.9360 7142.00 5365.32 85.00
2308 15.9420 7938.00 5364.64 89.00
2309 15.9480 8140.00 5364.04 90.00
2310 15.9540 7799.00 5354.94 88.00
2311 15.9600 7091.00 5354.99 84.00
2312 15.9660 6238.00 5355.06 79.00
2313 15.9720 5694.00 5355.14 75.00
2314 15.9780 5530.00 5355.24 74.00
2315 15.9840 5357.00 5353.56 73.00
2316 15.9900 5237.00 5353.78 72.00
2317 15.9960 5224.00 5354.00 72.00
2318 16.0020 5337.00 5354.21 73.00
2319 16.0080 5333.00 5354.43 73.00
2320 16.0140 5374.00 5354.65 73.00
2321 16.0200 5459.00 5354.87 74.00
2322 16.0260 5348.00 5355.09 73.00
2323 16.0320 5400.00 5355.31 73.00
2324 16.0380 5523.00 5399.21 74.00
2325 16.0440 5579.00 5402.22 75.00
2326 16.0500 5589.00 5405.50 75.00
2327 16.0560 5670.00 5409.09 75.00
2328 16.0620 5840.00 5413.03 76.00
2329 16.0680 5809.00 5500.53 76.00
2330 16.0740 5648.00 5510.77 75.00
2331 16.0800 5409.00 5522.10 74.00
2332 16.0860 5265.00 5534.68 73.00
2333 16.0920 5227.00 5548.71 72.00
2334 16.0980 5170.00 5564.44 72.00
2335 16.1040 5068.00 5582.14 71.00
2336 16.1100 5058.00 5602.17 71.00
2337 16.1160 5076.00 5624.95 71.00
2338 16.1220 5099.00 5651.05 71.00
2339 16.1280 5106.00 5681.14 71.00
2340 16.1340 5141.00 5716.11 72.00
2341 16.1400 5213.00 5757.05 72.00
2342 16.1460 5163.00 5805.46 72.00
2343 16.1520 5147.00 5863.31 72.00
2344 16.1580 5373.00 5933.25 73.00
2345 16.1640 5421.00 6018.95 74.00
2346 16.1700 5495.00 6125.66 74.00
2347 16.1760 5717.00 6260.97 76.00
2348 16.1820 5860.00 6436.23 77.00
2349 16.1880 6231.00 6669.57 79.00
2350 16.1940 6741.00 6992.52 82.00
2351 16.2000 7352.00 7473.25 86.00
2352 16.2060 8550.00 8286.71 92.00
2353 16.2120 10812.00 9855.70 104.00
2354 16.2180 14759.00 12905.90 121.00
2355 16.2240 20027.00 18044.40 142.00
2356 16.2300 24489.00 24417.80 156.00
2357 16.2360 27317.00 27918.60 165.00
2358 16.2420 29468.00 27549.00 172.00
2359 16.2480 33120.00 29531.00 182.00
2360 16.2540 38156.00 35932.80 195.00
2361 16.2600 40440.00 40209.70 201.00
2362 16.2660 35086.00 33997.40 187.00
2363 16.2720 24577.00 23529.40 157.00
2364 16.2780 16055.00 15656.80 127.00
2365 16.2840 11376.00 11238.20 107.00
2366 16.2900 9100.00 9074.21 95.00
2367 16.2960 7884.00 7987.89 89.00
2368 16.3020 7162.00 7357.01 85.00
2369 16.3080 6576.00 6939.03 81.00
2370 16.3140 6116.00 6641.63 78.00
2371 16.3200 5943.00 6421.45 77.00
2372 16.3260 5931.00 6253.91 77.00
2373 16.3320 5767.00 6123.49 76.00
2374 16.3380 5539.00 6020.03 74.00
2375 16.3440 5454.00 5936.53 74.00
2376 16.3500 5440.00 5868.17 74.00
2377 16.3560 5494.00 5811.55 74.00
2378 16.3620 5467.00 5764.11 74.00
2379 16.3680 5356.00 5723.96 73.00
2380 16.3740 5222.00 5689.69 72.00
2381 16.3800 5161.00 5660.22 72.00
2382 16.3860 5181.00 5658.23 72.00
2383 16.3920 5231.00 5637.44 72.00
2384 16.3980 5205.00 5619.54 72.00
2385 16.4040 5209.00 5604.11 72.00
2386 16.4100 5212.00 5590.83 72.00
2387 16.4160 5215.00 5578.50 72.00
2388 16.4220 5259.00 5612.30 73.00
2389 16.4280 5195.00 5601.63 72.00
2390 16.4340 5242.00 5550.37 72.00
2391 16.4400 5340.00 5545.53 73.00
2392 16.4460 5308.00 5542.17 73.00
2393 16.4520 5218.00 5540.35 72.00
2394 16.4580 5262.00 5461.57 73.00
2395 16.4640 5311.00 5467.73 73.00
2396 16.4700 5357.00 5475.53 73.00
2397 16.4760 5393.00 5485.27 73.00
2398 16.4820 5379.00 5497.38 73.00
2399 16.4880 5353.00 5512.37 73.00
2400 16.4940 5458.00 5674.36 74.00
2401 16.5000 5530.00 5706.43 74.00
2402 16.5060 5725.00 5745.05 76.00
2403 16.5120 5866.00 5792.00 77.00
2404 16.5180 5988.00 5849.75 77.00
2405 16.5240 5988.00 5921.80 77.00
2406 16.5300 6138.00 6013.29 78.00
2407 16.5360 6266.00 6132.07 79.00
2408 16.5420 6159.00 6291.37 78.00
2409 16.5480 6576.00 6517.56 81.00
2410 16.5540 7037.00 6876.04 84.00
2411 16.5600 7794.00 7531.04 88.00
2412 16.5660 9376.00 8803.35 97.00
2413 16.5720 12044.00 11055.40 110.00
2414 16.5780 14618.00 14196.90 121.00
2415 16.5840 15796.00 16612.40 126.00
2416 16.5900 16098.00 16123.60 127.00
2417 16.5960 16310.00 14760.90 128.00
2418 16.6020 17851.00 15451.90 134.00
2419 16.6080 20036.00 19130.10 142.00
2420 16.6140 22756.00 24371.80 151.00
2421 16.6200 24368.00 25999.40 156.00
2422 16.6260 22082.00 21482.70 149.00
2423 16.6320 16735.00 15891.10 129.00
2424 16.6380 12883.00 12183.30 114.00
2425 16.6440 11015.00 10443.50 105.00
2426 16.6500 10449.00 10005.40 102.00
2427 16.6560 10992.00 10415.20 105.00
2428 16.6620 12355.00 11761.80 111.00
2429 16.6680 14897.00 14912.10 122.00
2430 16.6740 20550.00 21702.80 143.00
2431 16.6800 34462.00 34129.90 186.00
2432 16.6860 58521.00 51244.60 242.00
2433 16.6920 71814.00 62589.30 268.00
2434 16.6980 55521.00 54537.10 236.00
2435 16.7040 32644.00 37166.70 181.00
2436 16.7100 19880.00 23342.10 141.00
2437 16.7160 14129.00 15325.30 119.00
2438 16.7220 11331.00 11356.90 106.00
2439 16.7280 9780.00 9406.01 99.00
2440 16.7340 8751.00 8314.20 94.00
2441 16.7400 7942.00 7608.40 89.00
2442 16.7460 7353.00 7112.10 86.00
2443 16.7520 6865.00 6746.98 83.00
2444 16.7580 6432.00 6470.04 80.00
2445 16.7640 6291.00 6254.56 79.00
2446 16.7700 6110.00 6083.31 78.00
2447 16.7760 6077.00 5944.72 78.00
2448 16.7820 5978.00 5830.61 77.00
2449 16.7880 5716.00 5712.83 76.00
2450 16.7940 5831.00 5710.95 76.00
2451 16.8000 5843.00 5648.01 76.00
2452 16.8060 5739.00 5594.75 76.00
2453 16.8120 5827.00 5549.49 76.00
2454 16.8180 5708.00 5557.14 76.00
2455 16.8240 5670.00 5482.24 75.00
2456 16.8300 5474.00 5460.07 74.00
2457 16.8360 5424.00 5442.45 74.00
2458 16.8420 5493.00 5429.04 74.00
2459 16.8480 5468.00 5419.62 74.00
2460 16.8540 5464.00 5414.10 74.00
2461 16.8600 5463.00 5412.52 74.00
2462 16.8660 5321.00 5415.00 73.00
2463 16.8720 5373.00 5421.83 73.00
2464 16.8780 5486.00 5433.42 74.00
2465 16.8840 5503.00 5450.37 74.00
2466 16.8900 5415.00 5473.50 74.00
2467 16.8960 5394.00 5367.11 73.00
2468 16.9020 5431.00 5414.02 74.00
2469 16.9080 5539.00 5471.09 74.00
2470 16.9140 5662.00 5541.14 75.00
2471 16.9200 5692.00 5628.10 75.00
2472 16.9260 5804.00 5737.35 76.00
2473 16.9320 5908.00 5876.66 77.00
2474 16.9380 6236.00 6057.67 79.00
2475 16.9440 6456.00 6297.99 80.00
2476 16.9500 6858.00 6626.33 83.00
2477 16.9560 7457.00 7095.72 86.00
2478 16.9620 8224.00 7829.00 91.00
2479 16.9680 9751.00 9144.69 99.00
2480 16.9740 12628.00 11767.90 112.00
2481 16.9800 18197.00 16846.50 135.00
2482 16.9860 26332.00 25163.00 162.00
2483 16.9920 31383.00 34945.50 177.00
2484 16.9980 32250.00 38992.20 180.00
2485 17.0040 30405.00 34523.50 174.00
2486 17.0100 29908.00 29993.10 173.00
2487 17.0160 30096.00 29173.90 173.00
2488 17.0220 28200.00 28030.50 168.00
2489 17.0280 22255.00 22537.50 149.00
2490 17.0340 15233.00 16146.00 123.00
2491 17.0400 10812.00 11596.90 104.00
2492 17.0460 8450.00 8994.96 92.00
2493 17.0520 7001.00 7640.24 84.00
2494 17.0580 6362.00 6904.32 80.00
2495 17.0640 5981.00 6449.21 77.00
2496 17.0700 5653.00 6134.70 75.00
2497 17.0760 5432.00 5904.10 74.00
2498 17.0820 5372.00 5729.32 73.00
2499 17.0880 5232.00 5593.96 72.00
2500 17.0940 5175.00 5487.44 72.00
2501 17.1000 5131.00 5402.87 72.00
2502 17.1060 5015.00 5335.63 71.00
2503 17.1120 5067.00 5282.72 71.00
2504 17.1180 4875.00 5242.29 70.00
2505 17.1240 4914.00 5213.63 70.00
2506 17.1300 4988.00 5197.12 71.00
2507 17.1360 5024.00 5194.62 71.00
2508 17.1420 4924.00 5210.91 70.00
2509 17.1480 5166.00 5258.23 72.00
2510 17.1540 5201.00 5369.21 72.00
2511 17.1600 5289.00 5618.36 73.00
2512 17.1660 5739.00 6126.26 76.00
2513 17.1720 6610.00 6989.34 81.00
2514 17.1780 8085.00 8053.59 90.00
2515 17.1840 8736.00 8621.68 93.00
2516 17.1900 8019.00 8216.90 90.00
2517 17.1960 6638.00 7218.89 81.00
2518 17.2020 5664.00 6178.56 75.00
2519 17.2080 5347.00 5546.48 73.00
2520 17.2140 5043.00 5200.38 71.00
2521 17.2200 4909.00 5021.28 70.00
2522 17.2260 4911.00 4876.35 70.00
2523 17.2320 4786.00 4815.45 69.00
2524 17.2380 4937.00 4772.47 70.00
2525 17.2440 4802.00 4740.02 69.00
2526 17.2500 4667.00 4714.42 68.00
2527 17.2560 4622.00 4693.55 68.00
2528 17.2620 4619.00 4676.06 68.00
2529 17.2680 4716.00 4661.02 69.00
2530 17.2740 4706.00 4647.82 69.00
2531 17.2800 4485.00 4636.02 67.00
2532 17.2860 4524.00 4624.25 67.00
2533 17.2920 4569.00 4613.32 68.00
2534 17.2980 4543.00 4603.08 67.00
2535 17.3040 4501.00 4593.38 67.00
2536 17.3100 4588.00 4584.13 68.00
2537 17.3160 4624.00 4575.25 68.00
2538 17.3220 4702.00 4566.68 69.00
2539 17.3280 4606.00 4558.36 68.00
2540 17.3340 4603.00 4550.26 68.00
2541 17.3400 4497.00 4542.34 67.00
2542 17.3460 4623.00 4534.58 68.00
2543 17.3520 4676.00 4526.95 68.00
2544 17.3580 4803.00 4519.44 69.00
2545 17.3640 4725.00 4512.03 69.00
2546 17.3700 4675.00 4504.71 68.00
2547 17.3760 4628.00 4497.47 68.00
2548 17.3820 4672.00 4490.30 68.00
2549 17.3880 4670.00 4476.74 68.00
2550 17.3940 4638.00 4470.04 68.00
2551 17.4000 4522.00 4459.92 67.00
2552 17.4060 4546.00 4453.44 67.00
2553 17.4120 4671.00 4446.96 68.00
2554 17.4180 4712.00 4440.49 69.00
2555 17.4240 4754.00 4434.01 69.00
2556 17.4300 4697.00 4427.53 69.00
2557 17.4360 4631.00 4421.06 68.00
2558 17.4420 4751.00 4414.58 69.00
2559 17.4480 4773.00 4408.10 69.00
2560 17.4540 4983.00 4401.63 71.00
2561 17.4600 5506.00 4395.15 74.00
2562 17.4660 5868.00 4388.67 77.00
2563 17.4720 6656.00 4382.20 82.00
2564 17.4780 7696.00 4375.72 88.00
2565 17.4840 8390.00 4369.24 92.00
2566 17.4900 8633.00 4362.77 93.00
2567 17.4960 8063.00 4356.29 90.00
2568 17.5020 6794.00 4349.81 82.00
2569 17.5080 5787.00 4343.33 76.00
2570 17.5140 5014.00 4336.86 71.00
2571 17.5200 4736.00 4330.38 69.00
2572 17.5260 4572.00 4323.90 68.00
2573 17.5320 4444.00 4317.43 67.00
2574 17.5380 4494.00 4310.95 67.00
2575 17.5440 4459.00 4304.47 67.00
2576 17.5500 4327.00 4298.00 66.00
2577 17.5560 4418.00 4291.52 66.00
2578 17.5620 4397.00 4285.04 66.00
2579 17.5680 4339.00 4278.56 66.00
2580 17.5740 4235.00 4272.09 65.00
2581 17.5800 4442.00 4265.61 67.00
2582 17.5860 4255.00 4262.50 65.00
2583 17.5920 4153.00 4260.07 64.00
2584 17.5980 4230.00 4257.63 65.00
2585 17.6040 4128.00 4255.20 64.00
2586 17.6100 4192.00 4252.76 65.00
2587 17.6160 4236.00 4250.33 65.00
2588 17.6220 4185.00 4247.89 65.00
2589 17.6280 4128.00 4245.46 64.00
2590 17.6340 4167.00 4243.02 65.00
2591 17.6400 4159.00 4240.59 64.00
2592 17.6460 4126.00 4238.15 64.00
2593 17.6520 4193.00 4235.72 65.00
2594 17.6580 4213.00 4233.28 65.00
2595 17.6640 4162.00 4230.85 65.00
2596 17.6700 4102.00 4228.41 64.00
2597 17.6760 4162.00 4225.98 65.00
2598 17.6820 4275.00 4223.54 65.00
2599 17.6880 4249.00 4221.11 65.00
2600 17.6940 4144.00 4218.67 64.00
2601 17.7000 4260.00 4217.96 65.00
2602 17.7060 4264.00 4215.62 65.00
2603 17.7120 4126.00 4213.30 64.00
2604 17.7180 4121.00 4210.99 64.00
2605 17.7240 4144.00 4208.69 64.00
2606 17.7300 4144.00 4206.83 64.00
2607 17.7360 4016.00 4204.58 63.00
2608 17.7420 4147.00 4207.48 64.00
2609 17.7480 4109.00 4205.59 64.00
2610 17.7540 4117.00 4203.75 64.00
2611 17.7600 4065.00 4201.97 64.00
2612 17.7660 4088.00 4200.27 64.00
2613 17.7720 4232.00 4198.65 65.00
2614 17.7780 4247.00 4197.13 65.00
2615 17.7840 4120.00 4195.72 64.00
2616 17.7900 4132.00 4194.45 64.00
2617 17.7960 4066.00 4193.33 64.00
2618 17.8020 4207.00 4217.15 65.00
2619 17.8080 4042.00 4217.94 64.00
2620 17.8140 4060.00 4219.25 64.00
2621 17.8200 4161.00 4221.28 65.00
2622 17.8260 4149.00 4257.83 64.00
2623 17.8320 4117.00 4263.25 64.00
2624 17.8380 4212.00 4269.79 65.00
2625 17.8440 4206.00 4277.73 65.00
2626 17.8500 4212.00 4287.46 65.00
2627 17.8560 4253.00 4299.55 65.00
2628 17.8620 4215.00 4314.88 65.00
2629 17.8680 4448.00 4335.07 67.00
2630 17.8740 4496.00 4363.77 67.00
2631 17.8800 4677.00 4409.61 68.00
2632 17.8860 4983.00 4489.71 71.00
2633 17.8920 5471.00 4626.75 74.00
2634 17.8980 5922.00 4829.85 77.00
2635 17.9040 6311.00 5047.11 79.00
2636 17.9100 6354.00 5127.52 80.00
2637 17.9160 5906.00 5047.82 77.00
2638 17.9220 5476.00 4993.16 74.00
2639 17.9280 5426.00 5093.56 74.00
2640 17.9340 5350.00 5408.46 73.00
2641 17.9400 6026.00 5925.02 78.00
2642 17.9460 6656.00 6501.85 82.00
2643 17.9520 6938.00 6748.26 83.00
2644 17.9580 6367.00 6420.93 80.00
2645 17.9640 5772.00 5955.41 76.00
2646 17.9700 5753.00 5692.67 76.00
2647 17.9760 5705.00 5715.52 76.00
2648 17.9820 6094.00 6075.22 78.00
2649 17.9880 7122.00 6937.28 84.00
2650 17.9940 9224.00 8595.53 96.00
2651 18.0000 12351.00 11264.20 111.00
2652 18.0060 15277.00 14519.90 124.00
2653 18.0120 16790.00 16594.70 130.00
2654 18.0180 17449.00 16805.00 132.00
2655 18.0240 18499.00 17419.90 136.00
2656 18.0300 19513.00 18937.90 140.00
2657 18.0360 19029.00 18559.20 138.00
2658 18.0420 14891.00 15026.90 122.00
2659 18.0480 10286.00 11064.20 101.00
2660 18.0540 7558.00 8247.39 87.00
2661 18.0600 6252.00 6619.86 79.00
2662 18.0660 5524.00 5766.70 74.00
2663 18.0720 5027.00 5307.98 71.00
2664 18.0780 4760.00 5030.03 69.00
2665 18.0840 4669.00 4840.85 68.00
2666 18.0900 4571.00 4703.00 68.00
2667 18.0960 4541.00 4598.60 67.00
2668 18.1020 4423.00 4517.45 67.00
2669 18.1080 4285.00 4452.93 65.00
2670 18.1140 4358.00 4400.69 66.00
2671 18.1200 4345.00 4357.70 66.00
2672 18.1260 4324.00 4320.26 66.00
2673 18.1320 4382.00 4289.99 66.00
2674 18.1380 4268.00 4264.09 65.00
2675 18.1440 4257.00 4241.72 65.00
2676 18.1500 4291.00 4222.20 66.00
2677 18.1560 4286.00 4204.62 65.00
2678 18.1620 4326.00 4189.38 66.00
2679 18.1680 4429.00 4171.00 67.00
2680 18.1740 4438.00 4159.00 67.00
2681 18.1800 4505.00 4148.12 67.00
2682 18.1860 4447.00 4138.22 67.00
2683 18.1920 4300.00 4129.15 66.00
2684 18.1980 4235.00 4120.79 65.00
2685 18.2040 4098.00 4113.05 64.00
2686 18.2100 4104.00 4105.85 64.00
2687 18.2160 4171.00 4099.13 65.00
2688 18.2220 4083.00 4092.82 64.00
2689 18.2280 3924.00 4064.02 63.00
2690 18.2340 4024.00 4059.61 63.00
2691 18.2400 4042.00 4055.41 64.00
2692 18.2460 3961.00 4051.38 63.00
2693 18.2520 3951.00 4016.53 63.00
2694 18.2580 3962.00 4014.43 63.00
2695 18.2640 4054.00 4012.33 64.00
2696 18.2700 3959.00 4010.22 63.00
2697 18.2760 4112.00 4008.12 64.00
2698 18.2820 4010.00 4006.02 63.00
2699 18.2880 4015.00 4003.91 63.00
2700 18.2940 4145.00 4001.81 64.00
2701 18.3000 4146.00 3999.71 64.00
2702 18.3060 3999.00 3997.60 63.00
2703 18.3120 4039.00 3995.50 64.00
2704 18.3180 4058.00 3993.39 64.00
2705 18.3240 4134.00 3991.29 64.00
2706 18.3300 4045.00 3989.19 64.00
2707 18.3360 4115.00 3987.08 64.00
2708 18.3420 4034.00 3984.98 64.00
2709 18.3480 4124.00 3995.56 64.00
2710 18.3540 4077.00 3994.19 64.00
2711 18.3600 3885.00 3993.29 62.00
2712 18.3660 4002.00 3994.47 63.00
2713 18.3720 4019.00 3995.74 63.00
2714 18.3780 3991.00 3997.11 63.00
2715 18.3840 4095.00 3998.58 64.00
2716 18.3900 4114.00 4000.17 64.00
2717 18.3960 3998.00 4001.89 63.00
2718 18.4020 4049.00 4003.78 64.00
2719 18.4080 4000.00 4005.85 63.00
2720 18.4140 3936.00 4008.14 63.00
2721 18.4200 3982.00 4010.67 63.00
2722 18.4260 4019.00 4013.50 63.00
2723 18.4320 4021.00 4016.67 63.00
2724 18.4380 3977.00 4020.26 63.00
2725 18.4440 3927.00 4024.34 63.00
2726 18.4500 3962.00 4029.02 63.00
2727 18.4560 4174.00 4034.44 65.00
2728 18.4620 4038.00 4040.78 64.00
2729 18.4680 4013.00 4048.25 63.00
2730 18.4740 4094.00 4057.16 64.00
2731 18.4800 4014.00 4067.92 63.00
2732 18.4860 4008.00 4081.11 63.00
2733 18.4920 4045.00 4097.53 64.00
2734 18.4980 4174.00 4118.31 65.00
2735 18.5040 4164.00 4145.18 65.00
2736 18.5100 4197.00 4180.78 65.00
2737 18.5160 4298.00 4229.53 66.00
2738 18.5220 4364.00 4300.07 66.00
2739 18.5280 4549.00 4413.00 67.00
2740 18.5340 4946.00 4618.68 70.00
2741 18.5400 5336.00 5020.63 73.00
2742 18.5460 5968.00 5765.97 77.00
2743 18.5520 7104.00 6943.98 84.00
2744 18.5580 9008.00 8321.29 95.00
2745 18.5640 9420.00 8950.51 97.00
2746 18.5700 7725.00 8116.58 88.00
2747 18.5760 5997.00 6729.20 77.00
2748 18.5820 5140.00 5618.97 72.00
2749 18.5880 4626.00 4939.22 68.00
2750 18.5940 4307.00 4578.93 66.00
2751 18.6000 4370.00 4394.22 66.00
2752 18.6060 4243.00 4291.07 65.00
2753 18.6120 4072.00 4225.59 64.00
2754 18.6180 3936.00 4180.02 63.00
2755 18.6240 3883.00 4146.69 62.00
2756 18.6300 3897.00 4121.58 62.00
2757 18.6360 3932.00 4102.22 63.00
2758 18.6420 3961.00 4087.02 63.00
2759 18.6480 3972.00 4074.90 63.00
2760 18.6540 4005.00 4065.10 63.00
2761 18.6600 4007.00 4057.07 63.00
2762 18.6660 4107.00 4050.43 64.00
2763 18.6720 4177.00 4044.89 65.00
2764 18.6780 4117.00 4040.23 64.00
2765 18.6840 4086.00 4036.28 64.00
2766 18.6900 4037.00 4032.91 64.00
2767 18.6960 4041.00 4030.02 64.00
2768 18.7020 4057.00 4027.54 64.00
2769 18.7080 4009.00 4025.39 63.00
2770 18.7140 4033.00 4023.53 64.00
2771 18.7200 4020.00 4021.91 63.00
2772 18.7260 4034.00 4020.50 64.00
2773 18.7320 4008.00 4019.27 63.00
2774 18.7380 3843.00 4018.19 62.00
2775 18.7440 3912.00 4017.25 63.00
2776 18.7500 3945.00 4016.43 63.00
2777 18.7560 3862.00 4015.71 62.00
2778 18.7620 3916.00 4015.09 63.00
2779 18.7680 3947.00 4014.54 63.00
2780 18.7740 3873.00 4014.07 62.00
2781 18.7800 3787.00 4013.66 62.00
2782 18.7860 3857.00 4001.41 62.00
2783 18.7920 3906.00 4001.72 62.00
2784 18.7980 3926.00 4002.03 63.00
2785 18.8040 3869.00 4002.35 62.00
2786 18.8100 3873.00 4002.66 62.00
2787 18.8160 3960.00 4002.98 63.00
2788 18.8220 4063.00 4003.29 64.00
2789 18.8280 3987.00 4003.61 63.00
2790 18.8340 3997.00 4003.92 63.00
2791 18.8400 4113.00 4004.24 64.00
2792 18.8460 4031.00 4004.55 63.00
2793 18.8520 3935.00 4004.87 63.00
2794 18.8580 3994.00 4005.18 63.00
2795 18.8640 4027.00 4005.49 63.00
2796 18.8700 4092.00 4005.81 64.00
2797 18.8760 4022.00 4006.12 63.00
2798 18.8820 3980.00 4006.44 63.00
2799 18.8880 3993.00 4006.75 63.00
2800 18.8940 4003.00 4007.07 63.00
2801 18.9000 3961.00 4007.38 63.00
2802 18.9060 3978.00 4007.70 63.00
2803 18.9120 3952.00 4008.01 63.00
2804 18.9180 3929.00 4008.33 63.00
2805 18.9240 3955.00 4008.64 63.00
2806 18.9300 3954.00 4008.95 63.00
2807 18.9360 3878.00 4009.27 62.00
2808 18.9420 3876.00 4009.58 62.00
2809 18.9480 3794.00 4009.90 62.00
2810 18.9540 3791.00 4010.21 62.00
2811 18.9600 3860.00 4010.53 62.00
2812 18.9660 3907.00 4010.84 63.00
2813 18.9720 3913.00 4011.16 63.00
2814 18.9780 3971.00 4011.47 63.00
2815 18.9840 3997.00 4011.79 63.00
2816 18.9900 4023.00 4012.68 63.00
2817 18.9960 3984.00 4016.50 63.00
2818 19.0020 4022.00 4020.31 63.00
2819 19.0080 3951.00 4024.13 63.00
2820 19.0140 3895.00 4028.35 62.00
2821 19.0200 3886.00 4032.19 62.00
2822 19.0260 3904.00 4036.03 62.00
2823 19.0320 3946.00 4039.87 63.00
2824 19.0380 3995.00 4044.80 63.00
2825 19.0440 3983.00 4048.71 63.00
2826 19.0500 3940.00 4071.22 63.00
2827 19.0560 3982.00 4098.10 63.00
2828 19.0620 4046.00 4104.39 64.00
2829 19.0680 3947.00 4110.90 63.00
2830 19.0740 3914.00 4117.64 63.00
2831 19.0800 4060.00 4124.67 64.00
2832 19.0860 4103.00 4132.00 64.00
2833 19.0920 4122.00 4139.68 64.00
2834 19.0980 4147.00 4147.77 64.00
2835 19.1040 4166.00 4156.30 65.00
2836 19.1100 4037.00 4165.36 64.00
2837 19.1160 3972.00 4175.02 63.00
2838 19.1220 4041.00 4185.37 64.00
2839 19.1280 4031.00 4196.54 63.00
2840 19.1340 4114.00 4208.66 64.00
2841 19.1400 4209.00 4221.90 65.00
2842 19.1460 4140.00 4236.48 64.00
2843 19.1520 4069.00 4252.67 64.00
2844 19.1580 4071.00 4270.79 64.00
2845 19.1640 4166.00 4291.26 65.00
2846 19.1700 4227.00 4314.66 65.00
2847 19.1760 4279.00 4341.69 65.00
2848 19.1820 4455.00 4393.54 67.00
2849 19.1880 4596.00 4432.20 68.00
2850 19.1940 4689.00 4478.72 68.00
2851 19.2000 4815.00 4535.83 69.00
2852 19.2060 4775.00 4607.89 69.00
2853 19.2120 4741.00 4732.82 69.00
2854 19.2180 4803.00 4862.46 69.00
2855 19.2240 4903.00 5042.46 70.00
2856 19.2300 5003.00 5295.84 71.00
2857 19.2360 5266.00 5657.86 73.00
2858 19.2420 5812.00 6208.75 76.00
2859 19.2480 6646.00 7172.97 82.00
2860 19.2540 8349.00 8920.72 91.00
2861 19.2600 11811.00 11749.80 109.00
2862 19.2660 17180.00 15477.50 131.00
2863 19.2720 21321.00 18738.70 146.00
2864 19.2780 20466.00 19306.20 143.00
2865 19.2840 15902.00 16619.20 126.00
2866 19.2900 11315.00 12681.40 106.00
2867 19.2960 8347.00 9477.93 91.00
2868 19.3020 6817.00 7456.33 83.00
2869 19.3080 6114.00 6347.20 78.00
2870 19.3140 5596.00 5771.13 75.00
2871 19.3200 5165.00 5461.21 72.00
2872 19.3260 4953.00 5281.85 70.00
2873 19.3320 4855.00 5175.27 70.00
2874 19.3380 4887.00 5117.69 70.00
2875 19.3440 4887.00 5099.00 70.00
2876 19.3500 4939.00 5115.95 70.00
2877 19.3560 4981.00 5170.62 71.00
2878 19.3620 5083.00 5272.36 71.00
2879 19.3680 5267.00 5446.07 73.00
2880 19.3740 5525.00 5753.01 74.00
2881 19.3800 6074.00 6323.52 78.00
2882 19.3860 7276.00 7366.91 85.00
2883 19.3920 9541.00 9085.45 98.00
2884 19.3980 12340.00 11429.50 111.00
2885 19.4040 14219.00 13592.60 119.00
2886 19.4100 14653.00 14187.90 121.00
2887 19.4160 14642.00 13804.20 121.00
2888 19.4220 15375.00 14290.20 124.00
2889 19.4280 16575.00 16049.90 129.00
2890 19.4340 16975.00 17444.00 130.00
2891 19.4400 15644.00 16056.50 125.00
2892 19.4460 12559.00 12749.20 112.00
2893 19.4520 9213.00 9693.10 96.00
2894 19.4580 7168.00 7619.87 85.00
2895 19.4640 6138.00 6422.58 78.00
2896 19.4700 5594.00 5777.89 75.00
2897 19.4760 5341.00 5418.19 73.00
2898 19.4820 5087.00 5194.47 71.00
2899 19.4880 5108.00 5039.38 71.00
2900 19.4940 5244.00 4926.69 72.00
2901 19.5000 5332.00 4823.68 73.00
2902 19.5060 5422.00 4737.23 74.00
2903 19.5120 5489.00 4687.14 74.00
2904 19.5180 5470.00 4647.37 74.00
2905 19.5240 5311.00 4615.46 73.00
2906 19.5300 5101.00 4589.61 71.00
2907 19.5360 4800.00 4568.53 69.00
2908 19.5420 4518.00 4551.24 67.00
2909 19.5480 4365.00 4537.01 66.00
2910 19.5540 4398.00 4568.49 66.00
2911 19.5600 4357.00 4561.14 66.00
2912 19.5660 4318.00 4555.68 66.00
2913 19.5720 4334.00 4551.87 66.00
2914 19.5780 4437.00 4545.09 67.00
2915 19.5840 4442.00 4539.61 67.00
2916 19.5900 4420.00 4535.31 66.00
2917 19.5960 4416.00 4532.10 66.00
2918 19.6020 4506.00 4529.93 67.00
2919 19.6080 4533.00 4528.77 67.00
2920 19.6140 4558.00 4528.60 68.00
2921 19.6200 4518.00 4529.44 67.00
2922 19.6260 4486.00 4531.32 67.00
2923 19.6320 4506.00 4534.31 67.00
2924 19.6380 4584.00 4519.51 68.00
2925 19.6440 4528.00 4525.93 67.00
2926 19.6500 4488.00 4533.74 67.00
2927 19.6560 4487.00 4543.16 67.00
2928 19.6620 4395.00 4554.45 66.00
2929 19.6680 4493.00 4539.70 67.00
2930 19.6740 4656.00 4557.25 68.00
2931 19.6800 4562.00 4577.92 68.00
2932 19.6860 4401.00 4615.87 66.00
2933 19.6920 4462.00 4645.99 67.00
2934 19.6980 4553.00 4682.36 67.00
2935 19.7040 4637.00 4726.79 68.00
2936 19.7100 4729.00 4781.77 69.00
2937 19.7160 4770.00 4850.92 69.00
2938 19.7220 4976.00 4939.35 71.00
2939 19.7280 5069.00 5054.87 71.00
2940 19.7340 5381.00 5210.03 73.00
2941 19.7400 5659.00 5428.17 75.00
2942 19.7460 6116.00 5760.64 78.00
2943 19.7520 6857.00 6329.08 83.00
2944 19.7580 8024.00 7390.33 90.00
2945 19.7640 10101.00 9357.56 101.00
2946 19.7700 13475.00 12630.40 116.00
2947 19.7760 18514.00 17099.00 136.00
2948 19.7820 21845.00 21099.10 148.00
2949 19.7880 20288.00 21221.40 142.00
2950 19.7940 16545.00 17335.20 129.00
2951 19.8000 12592.00 12839.60 112.00
2952 19.8060 9977.00 9506.94 100.00
2953 19.8120 8394.00 7492.79 92.00
2954 19.8180 7257.00 6407.48 85.00
2955 19.8240 6519.00 5833.52 81.00
2956 19.8300 6160.00 5506.05 78.00
2957 19.8360 5815.00 5299.33 76.00
2958 19.8420 5666.00 5160.81 75.00
2959 19.8480 5534.00 5067.69 74.00
2960 19.8540 5355.00 5009.07 73.00
2961 19.8600 5159.00 4980.14 72.00
2962 19.8660 5177.00 4981.02 72.00
2963 19.8720 5321.00 5019.31 73.00
2964 19.8780 5520.00 5118.84 74.00
2965 19.8840 5716.00 5336.72 76.00
2966 19.8900 6378.00 5777.46 80.00
2967 19.8960 7194.00 6569.49 85.00
2968 19.9020 8606.00 7761.07 93.00
2969 19.9080 10073.00 9083.86 100.00
2970 19.9140 10126.00 9652.71 101.00
2971 19.9200 8927.00 8851.90 94.00
2972 19.9260 7478.00 7478.77 86.00
2973 19.9320 6440.00 6320.34 80.00
2974 19.9380 5816.00 5564.05 76.00
2975 19.9440 5308.00 5135.63 73.00
2976 19.9500 5176.00 4905.00 72.00
2977 19.9560 5059.00 4774.02 71.00
2978 19.9620 4786.00 4690.51 69.00
2979 19.9680 4726.00 4631.70 69.00
2980 19.9740 4632.00 4587.70 68.00
2981 19.9800 4561.00 4553.62 68.00
2982 19.9860 4456.00 4526.74 67.00
2983 19.9920 4433.00 4504.79 67.00
2984 19.9980 4515.00 4486.69 67.00
2985 20.0040 4483.00 4471.53 67.00
2986 20.0100 4426.00 4458.65 67.00
2987 20.0160 4349.00 4447.59 66.00
2988 20.0220 4404.00 4396.83 66.00
2989 20.0280 4400.00 4390.42 66.00
2990 20.0340 4428.00 4384.84 67.00
2991 20.0400 4334.00 4379.95 66.00
2992 20.0460 4260.00 4375.62 65.00
2993 20.0520 4250.00 4371.77 65.00
2994 20.0580 4395.00 4371.55 66.00
2995 20.0640 4386.00 4369.41 66.00
2996 20.0700 4377.00 4367.58 66.00
2997 20.0760 4291.00 4366.01 66.00
2998 20.0820 4188.00 4364.68 65.00
2999 20.0880 4253.00 4363.55 65.00
3000 20.0940 4226.00 4362.61 65.00
3001 20.1000 4308.00 4361.85 66.00
3002 20.1060 4386.00 4361.24 66.00
3003 20.1120 4424.00 4360.79 67.00
3004 20.1180 4337.00 4360.49 66.00
3005 20.1240 4306.00 4360.34 66.00
3006 20.1300 4402.00 4360.34 66.00
3007 20.1360 4268.00 4360.50 65.00
3008 20.1420 4383.00 4360.83 66.00
3009 20.1480 4421.00 4348.72 66.00
3010 20.1540 4453.00 4350.09 67.00
3011 20.1600 4480.00 4351.69 67.00
3012 20.1660 4407.00 4353.59 66.00
3013 20.1720 4346.00 4355.93 66.00
3014 20.1780 4246.00 4359.01 65.00
3015 20.1840 4234.00 4363.43 65.00
3016 20.1900 4254.00 4370.45 65.00
3017 20.1960 4154.00 4382.00 64.00
3018 20.2020 4296.00 4399.86 66.00
3019 20.2080 4271.00 4423.54 65.00
3020 20.2140 4264.00 4445.64 65.00
3021 20.2200 4213.00 4451.22 65.00
3022 20.2260 4196.00 4439.58 65.00
3023 20.2320 4200.00 4426.23 65.00
3024 20.2380 4300.00 4420.17 66.00
3025 20.2440 4295.00 4423.47 66.00
3026 20.2500 4279.00 4436.70 65.00
3027 20.2560 4280.00 4462.93 65.00
3028 20.2620 4383.00 4512.21 66.00
3029 20.2680 4340.00 4605.76 66.00
3030 20.2740 4540.00 4774.02 67.00
3031 20.2800 4909.00 5042.35 70.00
3032 20.2860 5568.00 5377.18 75.00
3033 20.2920 5565.00 5625.30 75.00
3034 20.2980 5465.00 5559.02 74.00
3035 20.3040 4997.00 5249.27 71.00
3036 20.3100 4640.00 4931.34 68.00
3037 20.3160 4492.00 4703.21 67.00
3038 20.3220 4357.00 4566.44 66.00
3039 20.3280 4353.00 4492.17 66.00
3040 20.3340 4318.00 4452.00 66.00
3041 20.3400 4200.00 4428.42 65.00
3042 20.3460 4118.00 4413.03 64.00
3043 20.3520 4220.00 4402.21 65.00
3044 20.3580 4269.00 4394.32 65.00
3045 20.3640 4201.00 4388.46 65.00
3046 20.3700 4187.00 4384.08 65.00
3047 20.3760 4347.00 4380.80 66.00
3048 20.3820 4456.00 4378.40 67.00
3049 20.3880 4381.00 4376.69 66.00
3050 20.3940 4369.00 4375.57 66.00
3051 20.4000 4306.00 4374.95 66.00
3052 20.4060 4262.00 4393.95 65.00
3053 20.4120 4241.00 4395.25 65.00
3054 20.4180 4251.00 4397.64 65.00
3055 20.4240 4252.00 4400.71 65.00
3056 20.4300 4303.00 4435.60 66.00
3057 20.4360 4324.00 4441.74 66.00
3058 20.4420 4304.00 4448.95 66.00
3059 20.4480 4417.00 4457.49 66.00
3060 20.4540 4443.00 4467.51 67.00
3061 20.4600 4562.00 4479.98 68.00
3062 20.4660 4619.00 4495.56 68.00
3063 20.4720 4679.00 4515.87 68.00
3064 20.4780 4717.00 4544.38 69.00
3065 20.4840 4851.00 4589.01 70.00
3066 20.4900 4615.00 4665.98 68.00
3067 20.4960 4729.00 4800.74 69.00
3068 20.5020 4720.00 5018.17 69.00
3069 20.5080 5182.00 5314.89 72.00
3070 20.5140 5717.00 5600.90 76.00
3071 20.5200 5448.00 5668.20 74.00
3072 20.5260 4950.00 5459.93 70.00
3073 20.5320 4777.00 5174.29 69.00
3074 20.5380 4516.00 4955.53 67.00
3075 20.5440 4440.00 4825.74 67.00
3076 20.5500 4561.00 4766.35 68.00
3077 20.5560 4477.00 4751.23 67.00
3078 20.5620 4474.00 4762.12 67.00
3079 20.5680 4480.00 4790.41 67.00
3080 20.5740 4376.00 4833.81 66.00
3081 20.5800 4524.00 4893.64 67.00
3082 20.5860 4698.00 4973.63 69.00
3083 20.5920 4867.00 5080.54 70.00
3084 20.5980 4935.00 5226.77 70.00
3085 20.6040 4957.00 5437.59 70.00
3086 20.6100 5518.00 5768.28 74.00
3087 20.6160 6131.00 6330.45 78.00
3088 20.6220 7045.00 7308.03 84.00
3089 20.6280 8734.00 8918.34 93.00
3090 20.6340 11947.00 11279.90 109.00
3091 20.6400 15413.00 14084.80 124.00
3092 20.6460 17104.00 16300.50 131.00
3093 20.6520 18208.00 17545.60 135.00
3094 20.6580 19462.00 18664.90 140.00
3095 20.6640 19553.00 19004.50 140.00
3096 20.6700 17243.00 16938.30 131.00
3097 20.6760 12510.00 13412.30 112.00
3098 20.6820 9279.00 10254.90 96.00
3099 20.6880 7305.00 8070.15 85.00
3100 20.6940 6487.00 6757.12 81.00
3101 20.7000 5818.00 6021.29 76.00
3102 20.7060 5529.00 5602.32 74.00
3103 20.7120 5213.00 5341.87 72.00
3104 20.7180 5024.00 5163.53 71.00
3105 20.7240 4817.00 5033.00 69.00
3106 20.7300 4721.00 4933.78 69.00
3107 20.7360 4592.00 4856.47 68.00
3108 20.7420 4409.00 4795.15 66.00
3109 20.7480 4530.00 4745.77 67.00
3110 20.7540 4525.00 4705.49 67.00
3111 20.7600 4435.00 4669.43 67.00
3112 20.7660 4389.00 4641.89 66.00
3113 20.7720 4391.00 4618.80 66.00
3114 20.7780 4405.00 4599.28 66.00
3115 20.7840 4383.00 4582.71 66.00
3116 20.7900 4306.00 4568.60 66.00
3117 20.7960 4280.00 4556.54 65.00
3118 20.8020 4243.00 4547.90 65.00
3119 20.8080 4262.00 4539.21 65.00
3120 20.8140 4290.00 4531.87 65.00
3121 20.8200 4405.00 4525.75 66.00
3122 20.8260 4401.00 4520.76 66.00
3123 20.8320 4447.00 4518.61 67.00
3124 20.8380 4472.00 4515.91 67.00
3125 20.8440 4389.00 4514.36 66.00
3126 20.8500 4445.00 4517.40 67.00
3127 20.8560 4484.00 4518.91 67.00
3128 20.8620 4514.00 4522.47 67.00
3129 20.8680 4606.00 4529.10 68.00
3130 20.8740 4620.00 4541.07 68.00
3131 20.8800 4673.00 4563.48 68.00
3132 20.8860 4660.00 4587.53 68.00
3133 20.8920 4643.00 4665.56 68.00
3134 20.8980 4947.00 4789.44 70.00
3135 20.9040 5163.00 4951.18 72.00
3136 20.9100 5275.00 5061.63 73.00
3137 20.9160 5093.00 5066.48 71.00
3138 20.9220 4855.00 4933.12 70.00
3139 20.9280 4725.00 4773.46 69.00
3140 20.9340 4522.00 4650.75 67.00
3141 20.9400 4491.00 4574.10 67.00
3142 20.9460 4381.00 4532.35 66.00
3143 20.9520 4389.00 4511.38 66.00
3144 20.9580 4539.00 4501.24 67.00
3145 20.9640 4479.00 4496.78 67.00
3146 20.9700 4465.00 4495.78 67.00
3147 20.9760 4483.00 4497.41 67.00
3148 20.9820 4531.00 4501.43 67.00
3149 20.9880 4596.00 4507.96 68.00
3150 20.9940 4529.00 4517.50 67.00
3151 21.0000 4627.00 4531.19 68.00
3152 21.0060 4634.00 4551.58 68.00
3153 21.0120 4698.00 4584.29 69.00
3154 21.0180 4615.00 4639.90 68.00
3155 21.0240 4722.00 4733.61 69.00
3156 21.0300 4880.00 4878.99 70.00
3157 21.0360 4997.00 5072.53 71.00
3158 21.0420 5227.00 5262.95 72.00
3159 21.0480 5344.00 5354.16 73.00
3160 21.0540 5406.00 5362.71 74.00
3161 21.0600 5522.00 5419.08 74.00
3162 21.0660 5805.00 5580.91 76.00
3163 21.0720 5801.00 5784.83 76.00
3164 21.0780 5799.00 5945.34 76.00
3165 21.0840 5647.00 6063.94 75.00
3166 21.0900 5480.00 6038.31 74.00
3167 21.0960 5317.00 5757.72 73.00
3168 21.1020 5201.00 5376.56 72.00
3169 21.1080 5152.00 5060.04 72.00
3170 21.1140 5172.00 4849.85 72.00
3171 21.1200 5191.00 4730.48 72.00
3172 21.1260 5129.00 4674.19 72.00
3173 21.1320 5044.00 4659.19 71.00
3174 21.1380 4953.00 4671.44 70.00
3175 21.1440 4808.00 4695.30 69.00
3176 21.1500 4708.00 4701.91 69.00
3177 21.1560 4591.00 4672.21 68.00
3178 21.1620 4515.00 4621.97 67.00
3179 21.1680 4507.00 4581.13 67.00
3180 21.1740 4502.00 4549.98 67.00
3181 21.1800 4508.00 4530.62 67.00
3182 21.1860 4645.00 4519.20 68.00
3183 21.1920 4674.00 4512.32 68.00
3184 21.1980 4627.00 4507.91 68.00
3185 21.2040 4663.00 4508.19 68.00
3186 21.2100 4647.00 4506.31 68.00
3187 21.2160 4675.00 4505.14 68.00
3188 21.2220 4728.00 4504.52 69.00
3189 21.2280 4713.00 4504.38 69.00
3190 21.2340 4594.00 4504.64 68.00
3191 21.2400 4515.00 4505.26 67.00
3192 21.2460 4496.00 4506.23 67.00
3193 21.2520 4480.00 4507.52 67.00
3194 21.2580 4486.00 4509.14 67.00
3195 21.2640 4515.00 4523.32 67.00
3196 21.2700 4597.00 4526.25 68.00
3197 21.2760 4544.00 4529.62 67.00
3198 21.2820 4509.00 4533.48 67.00
3199 21.2880 4500.00 4537.90 67.00
3200 21.2940 4490.00 4541.38 67.00
3201 21.3000 4517.00 4547.28 67.00
3202 21.3060 4482.00 4554.07 67.00
3203 21.3120 4436.00 4561.96 67.00
3204 21.3180 4426.00 4569.54 67.00
3205 21.3240 4543.00 4580.56 67.00
3206 21.3300 4607.00 4593.75 68.00
3207 21.3360 4391.00 4608.62 66.00
3208 21.3420 4613.00 4632.46 68.00
3209 21.3480 4510.00 4661.51 67.00
3210 21.3540 4628.00 4698.13 68.00
3211 21.3600 4586.00 4746.77 68.00
3212 21.3660 4837.00 4817.05 70.00
3213 21.3720 4840.00 4929.54 70.00
3214 21.3780 4939.00 5122.38 70.00
3215 21.3840 5108.00 5450.13 71.00
3216 21.3900 5720.00 5960.89 76.00
3217 21.3960 6482.00 6636.06 81.00
3218 21.4020 7392.00 7277.44 86.00
3219 21.4080 7403.00 7510.25 86.00
3220 21.4140 6750.00 7190.50 82.00
3221 21.4200 6243.00 6610.96 79.00
3222 21.4260 5946.00 6138.98 77.00
3223 21.4320 5997.00 5930.12 77.00
3224 21.4380 5912.00 5979.49 77.00
3225 21.4440 5854.00 6175.07 77.00
3226 21.4500 5905.00 6285.95 77.00
3227 21.4560 5998.00 6134.70 77.00
3228 21.4620 5868.00 5853.02 77.00
3229 21.4680 6116.00 5633.99 78.00
3230 21.4740 6096.00 5567.53 78.00
3231 21.4800 6494.00 5706.33 81.00
3232 21.4860 6756.00 6115.02 82.00
3233 21.4920 7227.00 6859.82 85.00
3234 21.4980 7529.00 7927.28 87.00
3235 21.5040 8382.00 9054.62 92.00
3236 21.5100 8923.00 9489.62 94.00
3237 21.5160 9126.00 8812.29 96.00
3238 21.5220 8554.00 7638.79 92.00
3239 21.5280 7229.00 6600.48 85.00
3240 21.5340 6181.00 5884.04 79.00
3241 21.5400 5703.00 5455.24 76.00
3242 21.5460 5380.00 5217.26 73.00
3243 21.5520 5074.00 5084.32 71.00
3244 21.5580 5048.00 5004.26 71.00
3245 21.5640 4933.00 4951.53 70.00
3246 21.5700 4890.00 4914.63 70.00
3247 21.5760 4835.00 4888.13 70.00
3248 21.5820 4882.00 4868.98 70.00
3249 21.5880 4709.00 4855.27 69.00
3250 21.5940 4636.00 4845.73 68.00
3251 21.6000 4653.00 4839.46 68.00
3252 21.6060 4664.00 4835.85 68.00
3253 21.6120 4591.00 4833.63 68.00
3254 21.6180 4709.00 4829.09 69.00
3255 21.6240 4747.00 4826.31 69.00
3256 21.6300 4782.00 4825.19 69.00
3257 21.6360 4732.00 4825.70 69.00
3258 21.6420 4844.00 4827.91 70.00
3259 21.6480 4746.00 4831.94 69.00
3260 21.6540 4700.00 4834.29 69.00
3261 21.6600 4770.00 4839.48 69.00
3262 21.6660 4721.00 4851.13 69.00
3263 21.6720 4716.00 4866.31 69.00
3264 21.6780 4814.00 4886.02 69.00
3265 21.6840 4680.00 4911.70 68.00
3266 21.6900 4739.00 4945.47 69.00
3267 21.6960 4743.00 4990.70 69.00
3268 21.7020 5013.00 5050.25 71.00
3269 21.7080 5010.00 5142.87 71.00
3270 21.7140 5156.00 5292.80 72.00
3271 21.7200 5366.00 5556.54 73.00
3272 21.7260 5683.00 6029.73 75.00
3273 21.7320 6502.00 6826.53 81.00
3274 21.7380 7979.00 8004.43 89.00
3275 21.7440 9533.00 9401.01 98.00
3276 21.7500 10532.00 10364.70 103.00
3277 21.7560 9735.00 10066.40 99.00
3278 21.7620 8090.00 8786.17 90.00
3279 21.7680 6630.00 7437.05 81.00
3280 21.7740 5950.00 6419.82 77.00
3281 21.7800 5544.00 5773.42 74.00
3282 21.7860 5335.00 5422.31 73.00
3283 21.7920 5183.00 5216.17 72.00
3284 21.7980 5055.00 5095.02 71.00
3285 21.8040 5144.00 5016.60 72.00
3286 21.8100 5186.00 4961.44 72.00
3287 21.8160 5226.00 4920.60 72.00
3288 21.8220 5500.00 4889.50 74.00
3289 21.8280 5637.00 4865.42 75.00
3290 21.8340 5781.00 4846.52 76.00
3291 21.8400 5885.00 4831.58 77.00
3292 21.8460 5971.00 4828.65 77.00
3293 21.8520 5837.00 4819.71 76.00
3294 21.8580 5575.00 4812.81 75.00
3295 21.8640 5377.00 4807.62 73.00
3296 21.8700 5212.00 4819.42 72.00
3297 21.8760 5159.00 4817.80 72.00
3298 21.8820 5014.00 4817.44 71.00
3299 21.8880 4944.00 4818.29 70.00
3300 21.8940 5003.00 4820.33 71.00
3301 21.9000 5111.00 4823.57 71.00
3302 21.9060 5068.00 4828.08 71.00
3303 21.9120 5029.00 4833.95 71.00
3304 21.9180 4909.00 4867.94 70.00
3305 21.9240 4954.00 4878.32 70.00
3306 21.9300 4972.00 4890.78 71.00
3307 21.9360 4959.00 4905.67 70.00
3308 21.9420 4917.00 4939.88 70.00
3309 21.9480 5049.00 4962.06 71.00
3310 21.9540 5083.00 4988.74 71.00
3311 21.9600 5206.00 5029.06 72.00
3312 21.9660 5223.00 5069.13 72.00
3313 21.9720 5408.00 5118.89 74.00
3314 21.9780 5467.00 5181.79 74.00
3315 21.9840 5501.00 5271.96 74.00
3316 21.9900 5733.00 5382.78 76.00
3317 21.9960 6042.00 5543.88 78.00
3318 22.0020 6608.00 5801.55 81.00
3319 22.0080 7572.00 6231.89 87.00
3320 22.0140 8486.00 7001.30 92.00
3321 22.0200 9500.00 8238.03 97.00
3322 22.0260 9956.00 9967.29 100.00
3323 22.0320 9929.00 11849.10 100.00
3324 22.0380 9698.00 12856.40 98.00
3325 22.0440 9259.00 12129.80 96.00
3326 22.0500 8796.00 10417.00 94.00
3327 22.0560 8429.00 8812.39 92.00
3328 22.0620 8254.00 7749.36 91.00
3329 22.0680 8322.00 7278.89 91.00
3330 22.0740 8579.00 7337.76 93.00
3331 22.0800 8839.00 7852.85 94.00
3332 22.0860 9321.00 8731.10 97.00
3333 22.0920 10099.00 9731.77 100.00
3334 22.0980 10851.00 10420.30 104.00
3335 22.1040 11403.00 10767.40 107.00
3336 22.1100 11570.00 11291.80 108.00
3337 22.1160 11293.00 12127.90 106.00
3338 22.1220 10982.00 12613.50 105.00
3339 22.1280 10571.00 11990.50 103.00
3340 22.1340 10643.00 10722.50 103.00
3341 22.1400 10890.00 9719.51 104.00
3342 22.1460 11353.00 9463.63 107.00
3343 22.1520 11933.00 10172.90 109.00
3344 22.1580 12997.00 11924.40 114.00
3345 22.1640 14278.00 14551.20 119.00
3346 22.1700 15834.00 17263.10 126.00
3347 22.1760 17544.00 18547.80 132.00
3348 22.1820 18420.00 18103.50 136.00
3349 22.1880 18456.00 17312.00 136.00
3350 22.1940 17762.00 16663.40 133.00
3351 22.2000 16379.00 15582.30 128.00
3352 22.2060 15080.00 14206.90 123.00
3353 22.2120 14153.00 13066.10 119.00
3354 22.2180 13171.00 12061.10 115.00
3355 22.2240 11648.00 11181.30 108.00
3356 22.2300 10310.00 10666.00 102.00
3357 22.2360 9358.00 10330.10 97.00
3358 22.2420 8492.00 9607.20 92.00
3359 22.2480 7892.00 8523.21 89.00
3360 22.2540 7564.00 7503.02 87.00
3361 22.2600 7162.00 6765.16 85.00
3362 22.2660 6932.00 6331.88 83.00
3363 22.2720 6827.00 6152.25 83.00
3364 22.2780 6630.00 6149.96 81.00
3365 22.2840 6580.00 6215.06 81.00
3366 22.2900 6555.00 6188.42 81.00
3367 22.2960 6337.00 5968.20 80.00
3368 22.3020 6235.00 5694.91 79.00
3369 22.3080 6211.00 5455.00 79.00
3370 22.3140 6124.00 5280.39 78.00
3371 22.3200 6125.00 5164.83 78.00
3372 22.3260 6043.00 5090.97 78.00
3373 22.3320 5847.00 5041.94 76.00
3374 22.3380 5586.00 5007.29 75.00
3375 22.3440 5506.00 4981.38 74.00
3376 22.3500 5416.00 4961.45 74.00
3377 22.3560 5175.00 4937.86 72.00
3378 22.3620 5100.00 4926.72 71.00
3379 22.3680 5069.00 4918.92 71.00
3380 22.3740 5081.00 4914.98 71.00
3381 22.3800 5071.00 4898.33 71.00
3382 22.3860 4989.00 4900.40 71.00
3383 22.3920 4968.00 4905.70 70.00
3384 22.3980 4915.00 4914.62 70.00
3385 22.4040 4993.00 4927.76 71.00
3386 22.4100 5105.00 4945.99 71.00
3387 22.4160 5078.00 4970.59 71.00
3388 22.4220 5040.00 5003.40 71.00
3389 22.4280 4994.00 5047.14 71.00
3390 22.4340 5091.00 5080.38 71.00
3391 22.4400 5324.00 5163.33 73.00
3392 22.4460 5417.00 5284.27 74.00
3393 22.4520 5587.00 5476.51 75.00
3394 22.4580 5984.00 5792.36 77.00
3395 22.4640 6554.00 6378.10 81.00
3396 22.4700 7480.00 7360.89 86.00
3397 22.4760 9048.00 8827.31 95.00
3398 22.4820 11372.00 10667.60 107.00
3399 22.4880 13359.00 12214.70 116.00
3400 22.4940 12689.00 12334.30 113.00
3401 22.5000 10505.00 10911.80 102.00
3402 22.5060 8510.00 9077.46 92.00
3403 22.5120 7202.00 7575.81 85.00
3404 22.5180 6508.00 6584.56 81.00
3405 22.5240 6213.00 6030.28 79.00
3406 22.5300 6145.00 5753.90 78.00
3407 22.5360 5861.00 5598.42 77.00
3408 22.5420 5613.00 5448.26 75.00
3409 22.5480 5442.00 5287.81 74.00
3410 22.5540 5356.00 5153.84 73.00
3411 22.5600 5296.00 5061.32 73.00
3412 22.5660 5271.00 5004.59 73.00
3413 22.5720 5230.00 4976.29 72.00
3414 22.5780 5210.00 4963.39 72.00
3415 22.5840 5162.00 4940.34 72.00
3416 22.5900 5059.00 4907.11 71.00
3417 22.5960 5050.00 4877.59 71.00
3418 22.6020 5088.00 4863.41 71.00
3419 22.6080 5179.00 4871.13 72.00
3420 22.6140 5182.00 4903.89 72.00
3421 22.6200 5321.00 4958.34 73.00
3422 22.6260 5384.00 5015.57 73.00
3423 22.6320 5501.00 5039.45 74.00
3424 22.6380 5662.00 4994.67 75.00
3425 22.6440 5936.00 4920.10 77.00
3426 22.6500 6033.00 4852.07 78.00
3427 22.6560 5985.00 4802.91 77.00
3428 22.6620 5740.00 4771.78 76.00
3429 22.6680 5625.00 4753.59 75.00
3430 22.6740 5305.00 4743.25 73.00
3431 22.6800 4973.00 4737.35 71.00
3432 22.6860 4910.00 4734.13 70.00
3433 22.6920 4809.00 4732.78 69.00
3434 22.6980 4791.00 4733.01 69.00
3435 22.7040 4801.00 4734.73 69.00
3436 22.7100 4713.00 4737.99 69.00
3437 22.7160 4710.00 4743.01 69.00
3438 22.7220 4757.00 4750.08 69.00
3439 22.7280 4781.00 4759.76 69.00
3440 22.7340 4761.00 4772.96 69.00
3441 22.7400 4786.00 4791.38 69.00
3442 22.7460 4866.00 4818.56 70.00
3443 22.7520 5017.00 4842.29 71.00
3444 22.7580 5060.00 4914.42 71.00
3445 22.7640 5210.00 5032.10 72.00
3446 22.7700 5539.00 5211.36 74.00
3447 22.7760 5812.00 5452.20 76.00
3448 22.7820 6250.00 5709.04 79.00
3449 22.7880 6293.00 5873.53 79.00
3450 22.7940 5962.00 5891.45 77.00
3451 22.8000 6047.00 5851.21 78.00
3452 22.8060 6034.00 5873.92 78.00
3453 22.8120 6155.00 6024.27 78.00
3454 22.8180 6409.00 6263.31 80.00
3455 22.8240 6447.00 6465.59 80.00
3456 22.8300 6285.00 6570.31 79.00
3457 22.8360 5979.00 6550.54 77.00
3458 22.8420 5876.00 6323.51 77.00
3459 22.8480 5743.00 5969.49 76.00
3460 22.8540 5817.00 5662.62 76.00
3461 22.8600 5866.00 5493.01 77.00
3462 22.8660 5974.00 5492.69 77.00
3463 22.8720 6104.00 5676.58 78.00
3464 22.8780 6254.00 6046.68 79.00
3465 22.8840 6513.00 6535.75 81.00
3466 22.8900 6911.00 6947.79 83.00
3467 22.8960 7158.00 6960.00 85.00
3468 22.9020 7035.00 6540.83 84.00
3469 22.9080 6493.00 5996.70 81.00
3470 22.9140 6008.00 5540.69 78.00
3471 22.9200 5463.00 5224.99 74.00
3472 22.9260 5150.00 5032.07 72.00
3473 22.9320 4969.00 4918.53 70.00
3474 22.9380 4785.00 4851.22 69.00
3475 22.9440 4720.00 4808.25 69.00
3476 22.9500 4664.00 4778.32 68.00
3477 22.9560 4734.00 4756.10 69.00
3478 22.9620 4752.00 4738.97 69.00
3479 22.9680 4669.00 4725.48 68.00
3480 22.9740 4563.00 4714.72 68.00
3481 22.9800 4758.00 4706.06 69.00
3482 22.9860 4643.00 4699.04 68.00
3483 22.9920 4636.00 4693.38 68.00
3484 22.9980 4629.00 4688.83 68.00
3485 23.0040 4540.00 4685.23 67.00
3486 23.0100 4491.00 4682.35 67.00
3487 23.0160 4649.00 4679.65 68.00
3488 23.0220 4702.00 4677.68 69.00
3489 23.0280 4725.00 4676.41 69.00
3490 23.0340 4816.00 4675.86 69.00
3491 23.0400 4823.00 4676.09 69.00
3492 23.0460 4829.00 4677.18 69.00
3493 23.0520 4796.00 4677.27 69.00
3494 23.0580 4664.00 4680.59 68.00
3495 23.0640 4734.00 4684.78 69.00
3496 23.0700 4800.00 4691.37 69.00
3497 23.0760 4780.00 4700.32 69.00
3498 23.0820 4670.00 4712.50 68.00
3499 23.0880 4775.00 4727.20 69.00
3500 23.0940 4832.00 4751.56 70.00
3501 23.1000 4829.00 4789.19 69.00
3502 23.1060 4987.00 4849.10 71.00
3503 23.1120 5272.00 4958.62 73.00
3504 23.1180 5518.00 5143.99 74.00
3505 23.1240 5896.00 5431.12 77.00
3506 23.1300 6052.00 5816.32 78.00
3507 23.1360 5987.00 6214.80 77.00
3508 23.1420 5974.00 6409.88 77.00
3509 23.1480 5891.00 6242.78 77.00
3510 23.1540 5813.00 5874.77 76.00
3511 23.1600 5839.00 5527.80 76.00
3512 23.1660 5829.00 5313.01 76.00
3513 23.1720 5663.00 5241.14 75.00
3514 23.1780 5599.00 5288.14 75.00
3515 23.1840 5532.00 5396.15 74.00
3516 23.1900 5548.00 5459.17 74.00
3517 23.1960 5501.00 5381.15 74.00
3518 23.2020 5308.00 5202.53 73.00
3519 23.2080 5024.00 5019.83 71.00
3520 23.2140 4897.00 4878.14 70.00
3521 23.2200 4665.00 4782.85 68.00
3522 23.2260 4592.00 4723.67 68.00
3523 23.2320 4599.00 4687.57 68.00
3524 23.2380 4551.00 4664.45 67.00
3525 23.2440 4529.00 4648.32 67.00
3526 23.2500 4511.00 4636.16 67.00
3527 23.2560 4461.00 4626.56 67.00
3528 23.2620 4512.00 4618.78 67.00
3529 23.2680 4486.00 4612.27 67.00
3530 23.2740 4412.00 4606.73 66.00
3531 23.2800 4472.00 4601.95 67.00
3532 23.2860 4513.00 4597.76 67.00
3533 23.2920 4431.00 4594.04 67.00
3534 23.2980 4414.00 4590.89 66.00
3535 23.3040 4449.00 4588.19 67.00
3536 23.3100 4440.00 4585.46 67.00
3537 23.3160 4457.00 4582.95 67.00
3538 23.3220 4533.00 4580.63 67.00
3539 23.3280 4548.00 4578.46 67.00
3540 23.3340 4560.00 4576.43 68.00
3541 23.3400 4598.00 4574.52 68.00
3542 23.3460 4683.00 4572.71 68.00
3543 23.3520 4642.00 4570.99 68.00
3544 23.3580 4684.00 4569.34 68.00
3545 23.3640 4926.00 4567.77 70.00
3546 23.3700 4935.00 4566.26 70.00
3547 23.3760 4979.00 4564.81 71.00
3548 23.3820 5035.00 4563.41 71.00
3549 23.3880 4843.00 4562.05 70.00
3550 23.3940 4952.00 4560.74 70.00
3551 23.4000 4756.00 4559.47 69.00
3552 23.4060 4701.00 4558.24 69.00
3553 23.4120 4498.00 4552.78 67.00
3554 23.4180 4497.00 4551.80 67.00
3555 23.4240 4661.00 4550.85 68.00
3556 23.4300 4413.00 4549.92 66.00
3557 23.4360 4476.00 4549.02 67.00
3558 23.4420 4463.00 4548.15 67.00
3559 23.4480 4477.00 4547.31 67.00
3560 23.4540 4620.00 4546.50 68.00
3561 23.4600 4507.00 4543.89 67.00
3562 23.4660 4602.00 4543.26 68.00
3563 23.4720 4565.00 4542.69 68.00
3564 23.4780 4533.00 4542.18 67.00
3565 23.4840 4582.00 4541.76 68.00
3566 23.4900 4540.00 4541.46 67.00
3567 23.4960 4512.00 4541.30 67.00
3568 23.5020 4489.00 4541.33 67.00
3569 23.5080 4538.00 4541.63 67.00
3570 23.5140 4509.00 4542.30 67.00
3571 23.5200 4618.00 4543.56 68.00
3572 23.5260 4563.00 4545.78 68.00
3573 23.5320 4430.00 4549.82 67.00
3574 23.5380 4548.00 4557.24 67.00
3575 23.5440 4409.00 4570.54 66.00
3576 23.5500 4504.00 4592.67 67.00
3577 23.5560 4506.00 4625.52 67.00
3578 23.5620 4750.00 4666.39 69.00
3579 23.5680 4644.00 4702.74 68.00
3580 23.5740 4705.00 4713.42 69.00
3581 23.5800 4745.00 4689.34 69.00
3582 23.5860 4574.00 4646.81 68.00
3583 23.5920 4613.00 4606.02 68.00
3584 23.5980 4496.00 4582.17 67.00
3585 23.6040 4532.00 4562.09 67.00
3586 23.6100 4632.00 4561.16 68.00
3587 23.6160 4535.00 4554.27 67.00
3588 23.6220 4529.00 4550.12 67.00
3589 23.6280 4469.00 4547.46 67.00
3590 23.6340 4494.00 4554.02 67.00
3591 23.6400 4508.00 4553.17 67.00
3592 23.6460 4381.00 4552.76 66.00
3593 23.6520 4518.00 4552.72 67.00
3594 23.6580 4392.00 4552.99 66.00
3595 23.6640 4419.00 4553.55 66.00
3596 23.6700 4406.00 4554.40 66.00
3597 23.6760 4525.00 4555.52 67.00
3598 23.6820 4392.00 4575.06 66.00
3599 23.6880 4497.00 4577.60 67.00
3600 23.6940 4519.00 4580.52 67.00
3601 23.7000 4421.00 4582.41 66.00
3602 23.7060 4420.00 4584.48 66.00
3603 23.7120 4550.00 4587.07 67.00
3604 23.7180 4509.00 4590.24 67.00
3605 23.7240 4451.00 4609.65 67.00
3606 23.7300 4481.00 4614.95 67.00
3607 23.7360 4452.00 4621.16 67.00
3608 23.7420 4417.00 4628.44 66.00
3609 23.7480 4486.00 4636.95 67.00
3610 23.7540 4502.00 4646.93 67.00
3611 23.7600 4577.00 4658.64 68.00
3612 23.7660 4413.00 4672.42 66.00
3613 23.7720 4624.00 4688.69 68.00
3614 23.7780 4546.00 4708.02 67.00
3615 23.7840 4534.00 4731.15 67.00
3616 23.7900 4639.00 4759.02 68.00
3617 23.7960 4754.00 4792.98 69.00
3618 23.8020 4767.00 4834.87 69.00
3619 23.8080 4740.00 4887.37 69.00
3620 23.8140 4768.00 4954.65 69.00
3621 23.8200 4967.00 5044.13 70.00
3622 23.8260 5046.00 5169.77 71.00
3623 23.8320 5129.00 5358.06 72.00
3624 23.8380 5482.00 5654.22 74.00
3625 23.8440 5900.00 6121.94 77.00
3626 23.8500 6752.00 6829.64 82.00
3627 23.8560 8312.00 7813.99 91.00
3628 23.8620 10241.00 8988.66 101.00
3629 23.8680 11600.00 10088.70 108.00
3630 23.8740 12331.00 10950.00 111.00
3631 23.8800 12926.00 11606.40 114.00
3632 23.8860 12963.00 11827.00 114.00
3633 23.8920 11703.00 11508.80 108.00
3634 23.8980 10148.00 11050.90 101.00
3635 23.9040 9328.00 10597.70 97.00
3636 23.9100 8780.00 9904.82 94.00
3637 23.9160 8585.00 9044.77 93.00
3638 23.9220 8630.00 8425.08 93.00
3639 23.9280 8928.00 8328.11 94.00
3640 23.9340 9457.00 8865.24 97.00
3641 23.9400 9969.00 10003.10 100.00
3642 23.9460 10961.00 11461.80 105.00
3643 23.9520 12004.00 12521.70 110.00
3644 23.9580 12344.00 12387.10 111.00
3645 23.9640 11460.00 11340.50 107.00
3646 23.9700 10288.00 10349.10 101.00
3647 23.9760 9845.00 9984.85 99.00
3648 23.9820 10854.00 10331.30 104.00
3649 23.9880 12446.00 11046.10 112.00
3650 23.9940 12673.00 11338.20 113.00
3651 24.0000 10712.00 10587.30 103.00
3652 24.0060 8583.00 9177.16 93.00
3653 24.0120 7049.00 7783.00 84.00
3654 24.0180 5930.00 6703.96 77.00
3655 24.0240 5743.00 5972.46 76.00
3656 24.0300 5329.00 5514.36 73.00
3657 24.0360 5056.00 5234.18 71.00
3658 24.0420 5007.00 5056.14 71.00
3659 24.0480 4814.00 4934.07 69.00
3660 24.0540 4728.00 4843.81 69.00
3661 24.0600 4679.00 4773.48 68.00
3662 24.0660 4664.00 4716.83 68.00
3663 24.0720 4616.00 4670.20 68.00
3664 24.0780 4552.00 4631.20 67.00
3665 24.0840 4433.00 4598.09 67.00
3666 24.0900 4465.00 4569.63 67.00
3667 24.0960 4436.00 4544.90 67.00
3668 24.1020 4478.00 4523.20 67.00
3669 24.1080 4441.00 4503.96 67.00
3670 24.1140 4361.00 4486.79 66.00
3671 24.1200 4501.00 4471.35 67.00
3672 24.1260 4376.00 4457.35 66.00
3673 24.1320 4321.00 4444.59 66.00
3674 24.1380 4203.00 4432.88 65.00
3675 24.1440 4206.00 4415.57 65.00
3676 24.1500 4314.00 4405.83 66.00
3677 24.1560 4457.00 4396.77 67.00
3678 24.1620 4297.00 4377.16 66.00
3679 24.1680 4276.00 4369.66 65.00
3680 24.1740 4258.00 4362.59 65.00
3681 24.1800 4253.00 4355.90 65.00
3682 24.1860 4255.00 4341.60 65.00
3683 24.1920 4464.00 4335.88 67.00
3684 24.1980 4313.00 4330.39 66.00
3685 24.2040 4356.00 4325.13 66.00
3686 24.2100 4317.00 4320.07 66.00
3687 24.2160 4255.00 4315.19 65.00
3688 24.2220 4275.00 4310.46 65.00
3689 24.2280 4235.00 4305.88 65.00
3690 24.2340 4256.00 4284.35 65.00
3691 24.2400 4280.00 4280.73 65.00
3692 24.2460 4279.00 4277.18 65.00
3693 24.2520 4245.00 4273.69 65.00
3694 24.2580 4167.00 4270.25 65.00
3695 24.2640 4222.00 4267.02 65.00
3696 24.2700 4201.00 4263.83 65.00
3697 24.2760 4235.00 4246.33 65.00
3698 24.2820 4249.00 4243.82 65.00
3699 24.2880 4249.00 4241.30 65.00
3700 24.2940 4215.00 4238.79 65.00
3701 24.3000 4373.00 4236.27 66.00
3702 24.3060 4205.00 4233.75 65.00
3703 24.3120 4233.00 4231.24 65.00
3704 24.3180 4269.00 4228.72 65.00
3705 24.3240 4251.00 4226.21 65.00
3706 24.3300 4226.00 4260.74 65.00
3707 24.3360 4274.00 4259.87 65.00
3708 24.3420 4258.00 4259.12 65.00
3709 24.3480 4249.00 4258.48 65.00
3710 24.3540 4253.00 4257.98 65.00
3711 24.3600 4208.00 4260.93 65.00
3712 24.3660 4227.00 4260.89 65.00
3713 24.3720 4306.00 4261.03 66.00
3714 24.3780 4322.00 4261.38 66.00
3715 24.3840 4315.00 4262.76 66.00
3716 24.3900 4248.00 4263.64 65.00
3717 24.3960 4302.00 4264.79 66.00
3718 24.4020 4248.00 4266.27 65.00
3719 24.4080 4235.00 4268.11 65.00
3720 24.4140 4366.00 4270.35 66.00
3721 24.4200 4347.00 4273.04 66.00
3722 24.4260 4388.00 4276.25 66.00
3723 24.4320 4404.00 4280.03 66.00
3724 24.4380 4376.00 4284.48 66.00
3725 24.4440 4442.00 4289.69 67.00
3726 24.4500 4525.00 4295.78 67.00
3727 24.4560 4474.00 4302.87 67.00
3728 24.4620 4359.00 4311.14 66.00
3729 24.4680 4358.00 4320.78 66.00
3730 24.4740 4346.00 4332.04 66.00
3731 24.4800 4320.00 4345.21 66.00
3732 24.4860 4357.00 4360.67 66.00
3733 24.4920 4392.00 4379.26 66.00
3734 24.4980 4419.00 4400.81 66.00
3735 24.5040 4416.00 4426.47 66.00
3736 24.5100 4375.00 4457.18 66.00
3737 24.5160 4420.00 4494.22 66.00
3738 24.5220 4462.00 4539.28 67.00
3739 24.5280 4559.00 4594.70 68.00
3740 24.5340 4552.00 4663.65 67.00
3741 24.5400 4657.00 4750.69 68.00
3742 24.5460 4706.00 4862.78 69.00
3743 24.5520 4921.00 5011.87 70.00
3744 24.5580 5110.00 5220.76 71.00
3745 24.5640 5448.00 5535.86 74.00
3746 24.5700 5729.00 6047.81 76.00
3747 24.5760 6477.00 6915.53 80.00
3748 24.5820 7786.00 8329.95 88.00
3749 24.5880 9880.00 10479.60 99.00
3750 24.5940 13901.00 13372.70 118.00
3751 24.6000 19385.00 16541.30 139.00
3752 24.6060 22229.00 18650.50 149.00
3753 24.6120 18853.00 18225.40 137.00
3754 24.6180 13724.00 15740.00 117.00
3755 24.6240 10411.00 12870.00 102.00
3756 24.6300 9041.00 10567.00 95.00
3757 24.6360 8143.00 8959.19 90.00
3758 24.6420 7169.00 7813.93 85.00
3759 24.6480 6594.00 6950.98 81.00
3760 24.6540 6060.00 6320.75 78.00
3761 24.6600 5611.00 5860.63 75.00
3762 24.6660 5181.00 5495.57 72.00
3763 24.6720 4846.00 5196.28 70.00
3764 24.6780 4674.00 4963.40 68.00
3765 24.6840 4517.00 4790.20 67.00
3766 24.6900 4502.00 4663.74 67.00
3767 24.6960 4416.00 4571.25 66.00
3768 24.7020 4373.00 4504.64 66.00
3769 24.7080 4390.00 4451.94 66.00
3770 24.7140 4371.00 4410.48 66.00
3771 24.7200 4374.00 4377.37 66.00
3772 24.7260 4279.00 4350.98 65.00
3773 24.7320 4084.00 4330.70 64.00
3774 24.7380 4124.00 4316.78 64.00
3775 24.7440 4263.00 4310.38 65.00
3776 24.7500 4249.00 4313.23 65.00
3777 24.7560 4272.00 4332.74 65.00
3778 24.7620 4344.00 4356.15 66.00
3779 24.7680 4396.00 4382.59 66.00
3780 24.7740 4437.00 4396.48 67.00
3781 24.7800 4373.00 4385.61 66.00
3782 24.7860 4498.00 4359.89 67.00
3783 24.7920 4498.00 4336.90 67.00
3784 24.7980 4417.00 4326.41 66.00
3785 24.8040 4428.00 4332.76 67.00
3786 24.8100 4469.00 4360.43 67.00
3787 24.8160 4686.00 4418.98 68.00
3788 24.8220 4920.00 4527.52 70.00
3789 24.8280 5200.00 4715.61 72.00
3790 24.8340 5749.00 5016.21 76.00
3791 24.8400 6271.00 5445.92 79.00
3792 24.8460 6429.00 5968.24 80.00
3793 24.8520 6384.00 6428.24 80.00
3794 24.8580 6118.00 6552.94 78.00
3795 24.8640 5809.00 6249.41 76.00
3796 24.8700 5546.00 5757.65 74.00
3797 24.8760 5249.00 5316.65 72.00
3798 24.8820 5154.00 5020.36 72.00
3799 24.8880 5176.00 4873.74 72.00
3800 24.8940 5037.00 4798.60 71.00
3801 24.9000 4998.00 4787.84 71.00
3802 24.9060 4981.00 4724.58 71.00
3803 24.9120 4819.00 4601.86 69.00
3804 24.9180 4669.00 4469.66 68.00
3805 24.9240 4601.00 4358.88 68.00
3806 24.9300 4557.00 4285.10 68.00
3807 24.9360 4451.00 4242.74 67.00
3808 24.9420 4415.00 4226.68 66.00
3809 24.9480 4341.00 4233.83 66.00
3810 24.9540 4407.00 4269.09 66.00
3811 24.9600 4446.00 4340.84 67.00
3812 24.9660 4437.00 4460.26 67.00
3813 24.9720 4614.00 4632.16 68.00
3814 24.9780 4813.00 4840.36 69.00
3815 24.9840 4832.00 5023.07 70.00
3816 24.9900 4797.00 5081.59 69.00
3817 24.9960 4925.00 5000.47 70.00
3818 25.0020 4947.00 4888.45 70.00
3819 25.0080 4927.00 4853.70 70.00
3820 25.0140 5046.00 4957.93 71.00
3821 25.0200 5266.00 5227.27 73.00
3822 25.0260 5587.00 5643.82 75.00
3823 25.0320 5831.00 6105.98 76.00
3824 25.0380 6063.00 6377.31 78.00
3825 25.0440 6251.00 6234.04 79.00
3826 25.0500 5971.00 5774.35 77.00
3827 25.0560 5371.00 5258.64 73.00
3828 25.0620 4852.00 4833.81 70.00
3829 25.0680 4482.00 4531.51 67.00
3830 25.0740 4284.00 4336.62 65.00
3831 25.0800 4118.00 4216.98 64.00
3832 25.0860 4069.00 4143.09 64.00
3833 25.0920 4120.00 4094.67 64.00
3834 25.0980 3971.00 4062.80 63.00
3835 25.1040 3903.00 4036.74 62.00
3836 25.1100 3900.00 4016.02 62.00
3837 25.1160 3900.00 3999.05 62.00
3838 25.1220 3868.00 3984.86 62.00
3839 25.1280 3875.00 3975.57 62.00
3840 25.1340 3925.00 3966.42 63.00
3841 25.1400 3949.00 3958.59 63.00
3842 25.1460 3967.00 3945.93 63.00
3843 25.1520 4008.00 3940.24 63.00
3844 25.1580 4178.00 3935.26 65.00
3845 25.1640 4347.00 3930.87 66.00
3846 25.1700 4418.00 3926.98 66.00
3847 25.1760 4450.00 3923.52 67.00
3848 25.1820 4496.00 3920.44 67.00
3849 25.1880 4397.00 3917.71 66.00
3850 25.1940 4275.00 3914.05 65.00
3851 25.2000 4135.00 3911.97 64.00
3852 25.2060 3928.00 3910.15 63.00
3853 25.2120 3894.00 3908.61 62.00
3854 25.2180 3863.00 3907.32 62.00
3855 25.2240 3800.00 3906.31 62.00
3856 25.2300 3787.00 3905.58 62.00
3857 25.2360 3769.00 3905.15 61.00
3858 25.2420 3766.00 3905.07 61.00
3859 25.2480 3725.00 3905.35 61.00
3860 25.2540 3719.00 3906.08 61.00
3861 25.2600 3769.00 3907.32 61.00
3862 25.2660 3823.00 3909.17 62.00
3863 25.2720 3835.00 3911.78 62.00
3864 25.2780 3860.00 3913.10 62.00
3865 25.2840 3998.00 3917.97 63.00
3866 25.2900 4144.00 3924.45 64.00
3867 25.2960 4178.00 3933.24 65.00
3868 25.3020 4233.00 3945.61 65.00
3869 25.3080 4307.00 3964.03 66.00
3870 25.3140 4319.00 3992.96 66.00
3871 25.3200 4222.00 4039.48 65.00
3872 25.3260 4149.00 4112.44 64.00
3873 25.3320 4181.00 4213.64 65.00
3874 25.3380 4298.00 4354.54 66.00
3875 25.3440 4510.00 4514.40 67.00
3876 25.3500 4721.00 4633.30 69.00
3877 25.3560 4757.00 4668.04 69.00
3878 25.3620 4655.00 4658.36 68.00
3879 25.3680 4791.00 4677.86 69.00
3880 25.3740 4973.00 4773.93 71.00
3881 25.3800 5018.00 4934.67 71.00
3882 25.3860 5209.00 5083.25 72.00
3883 25.3920 5220.00 5114.42 72.00
3884 25.3980 5137.00 5032.36 72.00
3885 25.4040 5166.00 4928.74 72.00
3886 25.4100 5104.00 4856.39 71.00
3887 25.4160 4967.00 4779.35 70.00
3888 25.4220 4738.00 4642.74 69.00
3889 25.4280 4473.00 4469.17 67.00
3890 25.4340 4249.00 4300.67 65.00
3891 25.4400 4121.00 4168.74 64.00
3892 25.4460 3970.00 4075.86 63.00
3893 25.4520 3908.00 4014.82 63.00
3894 25.4580 3887.00 3976.05 62.00
3895 25.4640 3831.00 3951.20 62.00
3896 25.4700 3797.00 3934.99 62.00
3897 25.4760 3826.00 3924.07 62.00
3898 25.4820 3795.00 3915.57 62.00
3899 25.4880 3801.00 3909.34 62.00
3900 25.4940 3753.00 3904.89 61.00
3901 25.5000 3729.00 3901.90 61.00
3902 25.5060 3800.00 3900.20 62.00
3903 25.5120 3920.00 3899.68 63.00
3904 25.5180 3919.00 3900.29 63.00
3905 25.5240 3884.00 3902.05 62.00
3906 25.5300 3886.00 3905.02 62.00
3907 25.5360 3838.00 3909.30 62.00
3908 25.5420 3730.00 3915.08 61.00
3909 25.5480 3822.00 3922.60 62.00
3910 25.5540 3826.00 3931.57 62.00
3911 25.5600 3852.00 3942.46 62.00
3912 25.5660 3881.00 3956.63 62.00
3913 25.5720 3849.00 3975.12 62.00
3914 25.5780 3839.00 3999.53 62.00
3915 25.5840 3892.00 4032.78 62.00
3916 25.5900 4039.00 4080.36 64.00
3917 25.5960 4107.00 4152.62 64.00
3918 25.6020 4258.00 4267.29 65.00
3919 25.6080 4310.00 4450.40 66.00
3920 25.6140 4473.00 4732.14 67.00
3921 25.6200 4916.00 5135.04 70.00
3922 25.6260 5546.00 5648.10 74.00
3923 25.6320 6219.00 6179.46 79.00
3924 25.6380 6466.00 6550.59 80.00
3925 25.6440 6505.00 6668.12 81.00
3926 25.6500 6270.00 6585.82 79.00
3927 25.6560 5901.00 6319.85 77.00
3928 25.6620 5510.00 5943.90 74.00
3929 25.6680 5292.00 5630.03 73.00
3930 25.6740 5256.00 5491.30 72.00
3931 25.6800 5297.00 5555.51 73.00
3932 25.6860 5322.00 5738.38 73.00
3933 25.6920 5431.00 5926.84 74.00
3934 25.6980 5696.00 6032.33 75.00
3935 25.7040 5876.00 6124.30 77.00
3936 25.7100 6150.00 6276.18 78.00
3937 25.7160 6326.00 6406.25 80.00
3938 25.7220 6119.00 6321.29 78.00
3939 25.7280 5716.00 5937.06 76.00
3940 25.7340 5234.00 5455.50 72.00
3941 25.7400 4936.00 5046.32 70.00
3942 25.7460 4665.00 4771.46 68.00
3943 25.7520 4559.00 4626.50 68.00
3944 25.7580 4661.00 4568.76 68.00
3945 25.7640 4658.00 4530.53 68.00
3946 25.7700 4601.00 4452.84 68.00
3947 25.7760 4397.00 4331.56 66.00
3948 25.7820 4166.00 4202.69 65.00
3949 25.7880 4117.00 4093.47 64.00
3950 25.7940 4072.00 4011.79 64.00
3951 25.8000 4044.00 3955.12 64.00
3952 25.8060 4113.00 3917.30 64.00
3953 25.8120 4058.00 3892.11 64.00
3954 25.8180 3952.00 3874.92 63.00
3955 25.8240 3920.00 3862.86 63.00
3956 25.8300 3914.00 3854.35 63.00
3957 25.8360 3955.00 3848.60 63.00
3958 25.8420 3940.00 3845.19 63.00
3959 25.8480 3920.00 3843.91 63.00
3960 25.8540 3952.00 3844.70 63.00
3961 25.8600 4004.00 3847.59 63.00
3962 25.8660 3939.00 3852.71 63.00
3963 25.8720 3998.00 3860.30 63.00
3964 25.8780 4128.00 3870.68 64.00
3965 25.8840 4104.00 3884.36 64.00
3966 25.8900 4154.00 3918.82 64.00
3967 25.8960 4153.00 3942.07 64.00
3968 25.9020 4213.00 3971.60 65.00
3969 25.9080 4297.00 4009.40 66.00
3970 25.9140 4177.00 4058.64 65.00
3971 25.9200 4241.00 4138.59 65.00
3972 25.9260 4469.00 4233.87 67.00
3973 25.9320 4600.00 4373.94 68.00
3974 25.9380 4751.00 4603.02 69.00
3975 25.9440 5125.00 4966.38 72.00
3976 25.9500 5992.00 5513.62 77.00
3977 25.9560 6954.00 6280.69 83.00
3978 25.9620 7811.00 7218.83 88.00
3979 25.9680 7969.00 8119.34 89.00
3980 25.9740 8060.00 8588.80 90.00
3981 25.9800 7980.00 8440.10 89.00
3982 25.9860 8324.00 8035.69 91.00
3983 25.9920 8392.00 7850.79 92.00
3984 25.9980 9039.00 8143.36 95.00
3985 26.0040 9606.00 8905.62 98.00
3986 26.0100 10313.00 9882.56 102.00
3987 26.0160 10824.00 10464.70 104.00
3988 26.0220 10513.00 10081.40 103.00
3989 26.0280 9273.00 8901.04 96.00
3990 26.0340 7537.00 7542.04 87.00
3991 26.0400 6222.00 6387.02 79.00
3992 26.0460 5499.00 5545.90 74.00
3993 26.0520 4886.00 4988.16 70.00
3994 26.0580 4582.00 4641.57 68.00
3995 26.0640 4422.00 4430.55 66.00
3996 26.0700 4289.00 4300.09 65.00
3997 26.0760 4140.00 4215.64 64.00
3998 26.0820 4106.00 4159.42 64.00
3999 26.0880 4108.00 4122.57 64.00
4000 26.0940 4148.00 4100.72 64.00
4001 26.1000 4115.00 4091.73 64.00
4002 26.1060 4232.00 4094.77 65.00
4003 26.1120 4179.00 4109.97 65.00
4004 26.1180 4229.00 4138.45 65.00
4005 26.1240 4359.00 4182.61 66.00
4006 26.1300 4447.00 4246.87 67.00
4007 26.1360 4540.00 4339.78 67.00
4008 26.1420 4806.00 4478.07 69.00
4009 26.1480 5111.00 4693.65 71.00
4010 26.1540 5576.00 5040.87 75.00
4011 26.1600 6314.00 5598.85 79.00
4012 26.1660 7530.00 6456.58 87.00
4013 26.1720 9049.00 7676.19 95.00
4014 26.1780 10637.00 9222.87 103.00
4015 26.1840 11401.00 10834.50 107.00
4016 26.1900 11521.00 11937.70 107.00
4017 26.1960 11533.00 12146.20 107.00
4018 26.2020 11786.00 11848.50 109.00
4019 26.2080 12146.00 11573.50 110.00
4020 26.2140 11955.00 11293.40 109.00
4021 26.2200 10990.00 10572.80 105.00
4022 26.2260 9349.00 9308.22 97.00
4023 26.2320 7522.00 7907.44 87.00
4024 26.2380 6367.00 6715.07 80.00
4025 26.2440 5630.00 5839.87 75.00
4026 26.2500 5262.00 5266.51 73.00
4027 26.2560 4983.00 4950.88 71.00
4028 26.2620 4824.00 4820.47 69.00
4029 26.2680 4926.00 4856.12 70.00
4030 26.2740 5381.00 5053.79 73.00
4031 26.2800 5739.00 5395.57 76.00
4032 26.2860 6139.00 5838.65 78.00
4033 26.2920 6152.00 6242.95 78.00
4034 26.2980 6117.00 6367.24 78.00
4035 26.3040 6049.00 6099.91 78.00
4036 26.3100 5957.00 5625.13 77.00
4037 26.3160 5719.00 5173.18 76.00
4038 26.3220 5577.00 4841.21 75.00
4039 26.3280 5379.00 4683.58 73.00
4040 26.3340 5105.00 4657.12 71.00
4041 26.3400 4863.00 4692.55 70.00
4042 26.3460 4719.00 4684.57 69.00
4043 26.3520 4546.00 4562.81 67.00
4044 26.3580 4285.00 4365.14 65.00
4045 26.3640 4046.00 4165.20 64.00
4046 26.3700 3777.00 4001.40 61.00
4047 26.3760 3728.00 3881.80 61.00
4048 26.3820 3704.00 3800.52 61.00
4049 26.3880 3709.00 3747.24 61.00
4050 26.3940 3573.00 3712.20 60.00
4051 26.4000 3499.00 3688.38 59.00
4052 26.4060 3647.00 3671.60 60.00
4053 26.4120 3640.00 3659.63 60.00
4054 26.4180 3668.00 3652.11 61.00
4055 26.4240 3456.00 3646.93 59.00
4056 26.4300 3589.00 3644.56 60.00
4057 26.4360 3605.00 3644.88 60.00
4058 26.4420 3604.00 3647.93 60.00
4059 26.4480 3525.00 3653.85 59.00
4060 26.4540 3615.00 3662.94 60.00
4061 26.4600 3648.00 3675.62 60.00
4062 26.4660 3640.00 3692.54 60.00
4063 26.4720 3672.00 3714.56 61.00
4064 26.4780 3656.00 3742.88 60.00
4065 26.4840 3832.00 3779.22 62.00
4066 26.4900 3813.00 3826.14 62.00
4067 26.4960 3733.00 3871.54 61.00
4068 26.5020 3911.00 3955.82 63.00
4069 26.5080 3848.00 4075.59 62.00
4070 26.5140 4119.00 4255.53 64.00
4071 26.5200 4510.00 4522.97 67.00
4072 26.5260 4870.00 4961.64 70.00
4073 26.5320 5373.00 5624.66 73.00
4074 26.5380 6563.00 6564.60 81.00
4075 26.5440 8463.00 7775.47 92.00
4076 26.5500 10716.00 9097.76 104.00
4077 26.5560 11598.00 10197.60 108.00
4078 26.5620 11499.00 10892.30 107.00
4079 26.5680 11683.00 11305.50 108.00
4080 26.5740 11303.00 11332.00 106.00
4081 26.5800 10489.00 10610.30 102.00
4082 26.5860 8684.00 9226.18 93.00
4083 26.5920 6841.00 7712.53 83.00
4084 26.5980 5709.00 6427.82 76.00
4085 26.6040 5156.00 5472.58 72.00
4086 26.6100 4795.00 4829.39 69.00
4087 26.6160 4481.00 4416.65 67.00
4088 26.6220 4340.00 4155.81 66.00
4089 26.6280 3965.00 3986.50 63.00
4090 26.6340 3790.00 3870.11 62.00
4091 26.6400 3911.00 3785.03 63.00
4092 26.6460 3690.00 3719.87 61.00
4093 26.6520 3655.00 3666.52 60.00
4094 26.6580 3560.00 3625.70 60.00
4095 26.6640 3525.00 3593.20 59.00
4096 26.6700 3559.00 3567.90 60.00
4097 26.6760 3384.00 3549.67 58.00
4098 26.6820 3517.00 3539.50 59.00
4099 26.6880 3493.00 3539.56 59.00
4100 26.6940 3398.00 3552.77 58.00
4101 26.7000 3578.00 3581.46 60.00
4102 26.7060 3532.00 3624.91 59.00
4103 26.7120 3617.00 3674.92 60.00
4104 26.7180 3582.00 3709.71 60.00
4105 26.7240 3558.00 3701.96 60.00
4106 26.7300 3539.00 3651.11 59.00
4107 26.7360 3528.00 3583.96 59.00
4108 26.7420 3459.00 3522.43 59.00
4109 26.7480 3498.00 3474.77 59.00
4110 26.7540 3450.00 3441.50 59.00
4111 26.7600 3478.00 3420.15 59.00
4112 26.7660 3485.00 3407.06 59.00
4113 26.7720 3547.00 3399.65 60.00
4114 26.7780 3459.00 3396.21 59.00
4115 26.7840 3581.00 3396.07 60.00
4116 26.7900 3499.00 3399.31 59.00
4117 26.7960 3447.00 3406.73 59.00
4118 26.8020 3392.00 3419.91 58.00
4119 26.8080 3474.00 3441.14 59.00
4120 26.8140 3385.00 3473.19 58.00
4121 26.8200 3341.00 3518.85 58.00
4122 26.8260 3457.00 3580.01 59.00
4123 26.8320 3543.00 3655.98 60.00
4124 26.8380 3697.00 3743.88 61.00
4125 26.8440 3826.00 3850.81 62.00
4126 26.8500 3989.00 4002.39 63.00
4127 26.8560 4207.00 4222.95 65.00
4128 26.8620 4440.00 4500.94 67.00
4129 26.8680 4633.00 4806.78 68.00
4130 26.8740 4674.00 5031.39 68.00
4131 26.8800 4847.00 5131.00 70.00
4132 26.8860 5043.00 5165.81 71.00
4133 26.8920 5064.00 5218.63 71.00
4134 26.8980 5055.00 5202.75 71.00
4135 26.9040 4830.00 5006.37 69.00
4136 26.9100 4358.00 4657.20 66.00
4137 26.9160 3974.00 4283.28 63.00
4138 26.9220 3810.00 3967.73 62.00
4139 26.9280 3657.00 3735.29 60.00
4140 26.9340 3454.00 3574.53 59.00
4141 26.9400 3311.00 3469.71 58.00
4142 26.9460 3367.00 3402.03 58.00
4143 26.9520 3255.00 3356.85 57.00
4144 26.9580 3255.00 3324.80 57.00
4145 26.9640 3217.00 3300.57 57.00
4146 26.9700 3175.00 3283.48 56.00
4147 26.9760 3149.00 3267.77 56.00
4148 26.9820 3209.00 3254.63 57.00
4149 26.9880 3101.00 3243.45 56.00
4150 26.9940 3123.00 3235.62 56.00
4151 27.0000 3174.00 3229.07 56.00
4152 27.0060 3141.00 3223.61 56.00
4153 27.0120 3228.00 3219.14 57.00
4154 27.0180 3270.00 3215.64 57.00
4155 27.0240 3135.00 3213.25 56.00
4156 27.0300 3149.00 3211.58 56.00
4157 27.0360 3097.00 3212.63 56.00
4158 27.0420 3161.00 3216.24 56.00
4159 27.0480 3182.00 3222.76 56.00
4160 27.0540 3220.00 3231.80 57.00
4161 27.0600 3226.00 3241.26 57.00
4162 27.0660 3317.00 3246.47 58.00
4163 27.0720 3287.00 3242.91 57.00
4164 27.0780 3198.00 3232.07 57.00
4165 27.0840 3247.00 3219.23 57.00
4166 27.0900 3231.00 3207.95 57.00
4167 27.0960 3163.00 3199.43 56.00
4168 27.1020 3102.00 3193.62 56.00
4169 27.1080 3043.00 3189.97 55.00
4170 27.1140 3101.00 3187.88 56.00
4171 27.1200 3122.00 3186.84 56.00
4172 27.1260 3105.00 3186.57 56.00
4173 27.1320 3146.00 3186.93 56.00
4174 27.1380 3082.00 3187.88 56.00
4175 27.1440 3079.00 3189.46 55.00
4176 27.1500 3138.00 3191.38 56.00
4177 27.1560 3174.00 3194.53 56.00
4178 27.1620 3187.00 3198.73 56.00
4179 27.1680 3204.00 3204.26 57.00
4180 27.1740 3164.00 3211.60 56.00
4181 27.1800 3184.00 3221.52 56.00
4182 27.1860 3174.00 3232.48 56.00
4183 27.1920 3172.00 3253.43 56.00
4184 27.1980 3287.00 3286.00 57.00
4185 27.2040 3301.00 3337.65 57.00
4186 27.2100 3522.00 3413.86 59.00
4187 27.2160 3597.00 3530.68 60.00
4188 27.2220 3722.00 3686.00 61.00
4189 27.2280 3831.00 3865.33 62.00
4190 27.2340 3900.00 4022.86 62.00
4191 27.2400 3886.00 4088.59 62.00
4192 27.2460 3970.00 4044.13 63.00
4193 27.2520 3941.00 3958.82 63.00
4194 27.2580 3917.00 3908.26 63.00
4195 27.2640 3830.00 3925.05 62.00
4196 27.2700 3781.00 3999.81 61.00
4197 27.2760 3808.00 4078.90 62.00
4198 27.2820 3830.00 4077.86 62.00
4199 27.2880 3821.00 3960.96 62.00
4200 27.2940 3614.00 3782.01 60.00
4201 27.3000 3395.00 3606.34 58.00
4202 27.3060 3352.00 3464.22 58.00
4203 27.3120 3268.00 3361.43 57.00
4204 27.3180 3188.00 3292.38 56.00
4205 27.3240 3129.00 3247.77 56.00
4206 27.3300 3177.00 3218.81 56.00
4207 27.3360 3200.00 3199.17 57.00
4208 27.3420 3177.00 3184.96 56.00
4209 27.3480 3204.00 3174.04 57.00
4210 27.3540 3218.00 3165.29 57.00
4211 27.3600 3120.00 3158.06 56.00
4212 27.3660 3123.00 3151.98 56.00
4213 27.3720 3146.00 3146.78 56.00
4214 27.3780 3142.00 3142.27 56.00
4215 27.3840 3089.00 3138.18 56.00
4216 27.3900 3104.00 3134.69 56.00
4217 27.3960 3088.00 3131.57 56.00
4218 27.4020 3050.00 3128.77 55.00
4219 27.4080 3132.00 3126.22 56.00
4220 27.4140 3127.00 3123.91 56.00
4221 27.4200 3114.00 3122.64 56.00
4222 27.4260 3146.00 3120.72 56.00
4223 27.4320 3138.00 3118.97 56.00
4224 27.4380 3078.00 3117.44 55.00
4225 27.4440 3059.00 3116.04 55.00
4226 27.4500 3067.00 3114.87 55.00
4227 27.4560 3083.00 3114.00 56.00
4228 27.4620 3115.00 3113.57 56.00
4229 27.4680 3119.00 3116.33 56.00
4230 27.4740 3108.00 3117.35 56.00
4231 27.4800 3111.00 3119.16 56.00
4232 27.4860 3163.00 3121.53 56.00
4233 27.4920 3212.00 3123.88 57.00
4234 27.4980 3206.00 3125.43 57.00
4235 27.5040 3293.00 3124.96 57.00
4236 27.5100 3301.00 3121.84 57.00
4237 27.5160 3198.00 3117.12 57.00
4238 27.5220 3134.00 3112.33 56.00
4239 27.5280 3115.00 3108.26 56.00
4240 27.5340 3119.00 3105.11 56.00
4241 27.5400 3098.00 3102.77 56.00
4242 27.5460 3055.00 3101.05 55.00
4243 27.5520 3044.00 3097.67 55.00
4244 27.5580 3081.00 3096.72 56.00
4245 27.5640 3084.00 3095.94 56.00
4246 27.5700 3079.00 3095.29 55.00
4247 27.5760 3025.00 3094.74 55.00
4248 27.5820 3033.00 3094.29 55.00
4249 27.5880 3046.00 3093.94 55.00
4250 27.5940 2964.00 3091.57 54.00
4251 27.6000 2910.00 3092.00 54.00
4252 27.6060 2952.00 3093.55 54.00
4253 27.6120 3007.00 3095.23 55.00
4254 27.6180 3043.00 3097.05 55.00
4255 27.6240 3061.00 3099.04 55.00
4256 27.6300 3047.00 3101.23 55.00
4257 27.6360 3097.00 3103.66 56.00
4258 27.6420 3079.00 3106.37 55.00
4259 27.6480 2974.00 3109.43 55.00
4260 27.6540 3018.00 3112.92 55.00
4261 27.6600 3106.00 3123.02 56.00
4262 27.6660 3061.00 3135.08 55.00
4263 27.6720 3092.00 3141.28 56.00
4264 27.6780 3109.00 3148.87 56.00
4265 27.6840 3071.00 3158.56 55.00
4266 27.6900 3081.00 3171.68 56.00
4267 27.6960 3183.00 3190.40 56.00
4268 27.7020 3251.00 3217.94 57.00
4269 27.7080 3237.00 3258.13 57.00
4270 27.7140 3299.00 3314.26 57.00
4271 27.7200 3477.00 3386.82 59.00
4272 27.7260 3682.00 3469.85 61.00
4273 27.7320 3792.00 3545.44 62.00
4274 27.7380 3811.00 3589.06 62.00
4275 27.7440 3802.00 3599.36 62.00
4276 27.7500 3849.00 3608.83 62.00
4277 27.7560 3940.00 3652.20 63.00
4278 27.7620 3977.00 3751.21 63.00
4279 27.7680 4076.00 3899.64 64.00
4280 27.7740 4101.00 4071.06 64.00
4281 27.7800 4161.00 4192.89 65.00
4282 27.7860 4273.00 4180.89 65.00
4283 27.7920 4125.00 4034.37 64.00
4284 27.7980 3831.00 3833.76 62.00
4285 27.8040 3668.00 3646.66 61.00
4286 27.8100 3542.00 3500.31 60.00
4287 27.8160 3469.00 3397.83 59.00
4288 27.8220 3399.00 3331.86 58.00
4289 27.8280 3275.00 3291.99 57.00
4290 27.8340 3253.00 3268.81 57.00
4291 27.8400 3257.00 3255.75 57.00
4292 27.8460 3200.00 3253.78 57.00
4293 27.8520 3223.00 3253.52 57.00
4294 27.8580 3253.00 3254.29 57.00
4295 27.8640 3218.00 3257.76 57.00
4296 27.8700 3156.00 3263.79 56.00
4297 27.8760 3191.00 3272.39 56.00
4298 27.8820 3257.00 3283.75 57.00
4299 27.8880 3280.00 3298.25 57.00
4300 27.8940 3267.00 3316.41 57.00
4301 27.9000 3332.00 3339.05 58.00
4302 27.9060 3335.00 3367.35 58.00
4303 27.9120 3404.00 3403.08 58.00
4304 27.9180 3492.00 3449.14 59.00
4305 27.9240 3609.00 3510.80 60.00
4306 27.9300 3682.00 3597.87 61.00
4307 27.9360 3784.00 3729.44 62.00
4308 27.9420 3980.00 3933.53 63.00
4309 27.9480 4320.00 4254.94 66.00
4310 27.9540 4772.00 4744.46 69.00
4311 27.9600 5482.00 5441.81 74.00
4312 27.9660 6704.00 6342.62 82.00
4313 27.9720 8298.00 7338.11 91.00
4314 27.9780 9502.00 8142.04 97.00
4315 27.9840 9425.00 8364.18 97.00
4316 27.9900 8137.00 7870.44 90.00
4317 27.9960 6686.00 6949.79 82.00
4318 28.0020 5641.00 5981.28 75.00
4319 28.0080 4745.00 5172.31 69.00
4320 28.0140 4244.00 4578.65 65.00
4321 28.0200 4007.00 4182.44 63.00
4322 28.0260 3895.00 3937.55 62.00
4323 28.0320 3862.00 3797.53 62.00
4324 28.0380 3858.00 3729.56 62.00
4325 28.0440 3915.00 3717.51 63.00
4326 28.0500 3938.00 3758.75 63.00
4327 28.0560 3906.00 3856.91 62.00
4328 28.0620 3936.00 4016.43 63.00
4329 28.0680 3965.00 4226.16 63.00
4330 28.0740 3915.00 4444.81 63.00
4331 28.0800 3879.00 4584.44 62.00
4332 28.0860 3898.00 4556.85 62.00
4333 28.0920 3920.00 4380.50 63.00
4334 28.0980 3971.00 4154.73 63.00
4335 28.1040 3990.00 3953.04 63.00
4336 28.1100 4058.00 3816.13 64.00
4337 28.1160 4052.00 3743.27 64.00
4338 28.1220 4314.00 3740.46 66.00
4339 28.1280 4312.00 3813.67 66.00
4340 28.1340 4387.00 3975.32 66.00
4341 28.1400 4595.00 4241.83 68.00
4342 28.1460 5000.00 4621.36 71.00
4343 28.1520 5221.00 5091.39 72.00
4344 28.1580 5318.00 5561.94 73.00
4345 28.1640 5533.00 5862.91 74.00
4346 28.1700 5644.00 5855.46 75.00
4347 28.1760 5443.00 5559.06 74.00
4348 28.1820 5095.00 5101.02 71.00
4349 28.1880 4638.00 4624.89 68.00
4350 28.1940 4422.00 4223.66 66.00
4351 28.2000 4109.00 3926.48 64.00
4352 28.2060 4042.00 3726.17 64.00
4353 28.2120 3886.00 3602.48 62.00
4354 28.2180 3774.00 3533.33 61.00
4355 28.2240 3715.00 3505.16 61.00
4356 28.2300 3595.00 3510.18 60.00
4357 28.2360 3627.00 3542.11 60.00
4358 28.2420 3611.00 3594.73 60.00
4359 28.2480 3577.00 3652.69 60.00
4360 28.2540 3485.00 3686.34 59.00
4361 28.2600 3497.00 3666.61 59.00
4362 28.2660 3533.00 3598.82 59.00
4363 28.2720 3602.00 3514.46 60.00
4364 28.2780 3367.00 3437.35 58.00
4365 28.2840 3398.00 3376.74 58.00
4366 28.2900 3311.00 3333.41 58.00
4367 28.2960 3258.00 3304.48 57.00
4368 28.3020 3260.00 3279.94 57.00
4369 28.3080 3233.00 3261.54 57.00
4370 28.3140 3190.00 3254.61 56.00
4371 28.3200 3121.00 3250.50 56.00
4372 28.3260 3137.00 3248.41 56.00
4373 28.3320 3123.00 3247.95 56.00
4374 28.3380 3037.00 3249.42 55.00
4375 28.3440 3123.00 3253.22 56.00
4376 28.3500 3102.00 3258.82 56.00
4377 28.3560 3183.00 3266.04 56.00
4378 28.3620 3233.00 3275.45 57.00
4379 28.3680 3206.00 3287.71 57.00
4380 28.3740 3214.00 3303.99 57.00
4381 28.3800 3318.00 3326.46 58.00
4382 28.3860 3239.00 3359.24 57.00
4383 28.3920 3304.00 3409.42 57.00
4384 28.3980 3396.00 3487.91 58.00
4385 28.4040 3576.00 3608.54 60.00
4386 28.4100 3624.00 3781.69 60.00
4387 28.4160 3798.00 4021.33 62.00
4388 28.4220 4634.00 4304.66 68.00
4389 28.4280 5278.00 4577.80 73.00
4390 28.4340 5511.00 4732.14 74.00
4391 28.4400 4943.00 4684.35 70.00
4392 28.4460 4510.00 4469.12 67.00
4393 28.4520 4032.00 4198.74 63.00
4394 28.4580 3804.00 3947.76 62.00
4395 28.4640 3473.00 3748.53 59.00
4396 28.4700 3486.00 3607.57 59.00
4397 28.4760 3363.00 3517.23 58.00
4398 28.4820 3365.00 3465.63 58.00
4399 28.4880 3506.00 3438.09 59.00
4400 28.4940 3445.00 3438.77 59.00
4401 28.5000 3504.00 3460.03 59.00
4402 28.5060 3391.00 3508.76 58.00
4403 28.5120 3473.00 3585.22 59.00
4404 28.5180 3629.00 3687.91 60.00
4405 28.5240 3880.00 3804.13 62.00
4406 28.5300 3997.00 3902.19 63.00
4407 28.5360 4101.00 3942.66 64.00
4408 28.5420 4079.00 3918.68 64.00
4409 28.5480 3975.00 3857.08 63.00
4410 28.5540 3839.00 3776.56 62.00
4411 28.5600 3634.00 3682.32 60.00
4412 28.5660 3639.00 3587.05 60.00
4413 28.5720 3676.00 3505.72 61.00
4414 28.5780 3553.00 3444.67 60.00
4415 28.5840 3434.00 3400.84 59.00
4416 28.5900 3501.00 3372.86 59.00
4417 28.5960 3304.00 3355.67 57.00
4418 28.6020 3309.00 3345.90 58.00
4419 28.6080 3282.00 3341.17 57.00
4420 28.6140 3264.00 3339.98 57.00
4421 28.6200 3361.00 3341.51 58.00
4422 28.6260 3208.00 3345.25 57.00
4423 28.6320 3298.00 3350.86 57.00
4424 28.6380 3310.00 3358.40 58.00
4425 28.6440 3045.00 3368.72 55.00
4426 28.6500 3088.00 3383.06 56.00
4427 28.6560 3198.00 3402.16 57.00
4428 28.6620 3200.00 3425.19 57.00
4429 28.6680 3425.00 3449.03 59.00
4430 28.6740 3252.00 3467.91 57.00
4431 28.6800 3300.00 3478.77 57.00
4432 28.6860 3247.00 3486.77 57.00
4433 28.6920 3292.00 3501.31 57.00
4434 28.6980 3290.00 3531.51 57.00
4435 28.7040 3409.00 3586.75 58.00
4436 28.7100 3279.00 3677.85 57.00
4437 28.7160 3466.00 3816.30 59.00
4438 28.7220 3628.00 4011.11 60.00
4439 28.7280 3958.00 4263.55 63.00
4440 28.7340 4056.00 4547.74 64.00
4441 28.7400 4357.00 4807.59 66.00
4442 28.7460 4516.00 4986.92 67.00
4443 28.7520 4605.00 5097.59 68.00
4444 28.7580 4719.00 5174.00 69.00
4445 28.7640 4991.00 5175.82 71.00
4446 28.7700 4815.00 5031.68 69.00
4447 28.7760 4494.00 4745.93 67.00
4448 28.7820 4041.00 4415.84 64.00
4449 28.7880 3447.00 4121.09 59.00
4450 28.7940 3270.00 3891.30 57.00
4451 28.8000 3409.00 3727.84 58.00
4452 28.8060 3488.00 3617.88 59.00
4453 28.8120 3341.00 3547.15 58.00
4454 28.8180 3339.00 3502.36 58.00
4455 28.8240 3236.00 3473.98 57.00
4456 28.8300 3318.00 3456.29 58.00
4457 28.8360 3222.00 3446.45 57.00
4458 28.8420 3276.00 3443.32 57.00
4459 28.8480 3363.00 3446.55 58.00
4460 28.8540 3326.00 3455.77 58.00
4461 28.8600 3373.00 3469.38 58.00
4462 28.8660 3403.00 3483.74 58.00
4463 28.8720 3442.00 3495.94 59.00
4464 28.8780 3507.00 3504.17 59.00
4465 28.8840 3418.00 3512.97 58.00
4466 28.8900 3590.00 3527.66 60.00
4467 28.8960 3454.00 3545.20 59.00
4468 28.9020 3477.00 3555.25 59.00
4469 28.9080 3582.00 3546.39 60.00
4470 28.9140 3550.00 3519.72 60.00
4471 28.9200 3456.00 3486.81 59.00
4472 28.9260 3483.00 3457.04 59.00
4473 28.9320 3506.00 3434.33 59.00
4474 28.9380 3518.00 3419.30 59.00
4475 28.9440 3461.00 3411.30 59.00
4476 28.9500 3498.00 3409.27 59.00
4477 28.9560 3416.00 3413.65 58.00
4478 28.9620 3299.00 3421.17 57.00
4479 28.9680 3379.00 3432.26 58.00
4480 28.9740 3322.00 3445.22 58.00
4481 28.9800 3413.00 3456.46 58.00
4482 28.9860 3397.00 3461.51 58.00
4483 28.9920 3392.00 3461.18 58.00
4484 28.9980 3391.00 3457.64 58.00
4485 29.0040 3323.00 3455.25 58.00
4486 29.0100 3434.00 3458.88 59.00
4487 29.0160 3581.00 3471.42 60.00
4488 29.0220 3587.00 3496.52 60.00
4489 29.0280 3665.00 3538.53 61.00
4490 29.0340 3611.00 3601.50 60.00
4491 29.0400 3743.00 3686.99 61.00
4492 29.0460 3745.00 3789.47 61.00
4493 29.0520 3841.00 3890.01 62.00
4494 29.0580 3691.00 3950.96 61.00
4495 29.0640 3692.00 3941.80 61.00
4496 29.0700 3671.00 3865.69 61.00
4497 29.0760 3660.00 3764.55 60.00
4498 29.0820 3524.00 3674.49 59.00
4499 29.0880 3425.00 3606.46 59.00
4500 29.0940 3462.00 3563.29 59.00
4501 29.1000 3482.00 3540.21 59.00
4502 29.1060 3424.00 3541.40 59.00
4503 29.1120 3439.00 3560.02 59.00
4504 29.1180 3453.00 3591.99 59.00
4505 29.1240 3490.00 3629.98 59.00
4506 29.1300 3477.00 3660.06 59.00
4507 29.1360 3531.00 3664.88 59.00
4508 29.1420 3488.00 3640.07 59.00
4509 29.1480 3415.00 3599.50 58.00
4510 29.1540 3369.00 3558.52 58.00
4511 29.1600 3325.00 3524.87 58.00
4512 29.1660 3310.00 3500.58 58.00
4513 29.1720 3288.00 3484.91 57.00
4514 29.1780 3261.00 3475.96 57.00
4515 29.1840 3344.00 3471.75 58.00
4516 29.1900 3335.00 3470.71 58.00
4517 29.1960 3311.00 3472.80 58.00
4518 29.2020 3408.00 3475.58 58.00
4519 29.2080 3325.00 3479.59 58.00
4520 29.2140 3267.00 3483.47 57.00
4521 29.2200 3275.00 3488.08 57.00
4522 29.2260 3381.00 3494.70 58.00
4523 29.2320 3486.00 3504.15 59.00
4524 29.2380 3399.00 3517.48 58.00
4525 29.2440 3368.00 3537.99 58.00
4526 29.2500 3435.00 3569.04 59.00
4527 29.2560 3403.00 3615.41 58.00
4528 29.2620 3491.00 3681.82 59.00
4529 29.2680 3585.00 3773.33 60.00
4530 29.2740 3826.00 3883.53 62.00
4531 29.2800 3873.00 4001.38 62.00
4532 29.2860 3872.00 4098.49 62.00
4533 29.2920 3969.00 4148.47 63.00
4534 29.2980 4001.00 4164.37 63.00
4535 29.3040 3923.00 4190.49 63.00
4536 29.3100 4067.00 4259.63 64.00
4537 29.3160 4101.00 4374.53 64.00
4538 29.3220 4073.00 4501.68 64.00
4539 29.3280 4116.00 4573.96 64.00
4540 29.3340 4159.00 4534.60 64.00
4541 29.3400 4103.00 4398.52 64.00
4542 29.3460 4135.00 4231.69 64.00
4543 29.3520 4028.00 4090.25 63.00
4544 29.3580 4012.00 4003.10 63.00
4545 29.3640 4047.00 3981.96 64.00
4546 29.3700 4153.00 4030.06 64.00
4547 29.3760 4188.00 4146.61 65.00
4548 29.3820 4372.00 4328.04 66.00
4549 29.3880 4421.00 4557.81 66.00
4550 29.3940 4574.00 4784.09 68.00
4551 29.4000 4831.00 4914.01 70.00
4552 29.4060 4983.00 4863.74 71.00
4553 29.4120 4951.00 4659.71 70.00
4554 29.4180 4812.00 4399.40 69.00
4555 29.4240 4426.00 4153.92 67.00
4556 29.4300 4234.00 3960.89 65.00
4557 29.4360 4062.00 3808.40 64.00
4558 29.4420 3900.00 3701.21 62.00
4559 29.4480 3868.00 3629.43 62.00
4560 29.4540 3761.00 3582.56 61.00
4561 29.4600 3647.00 3552.16 60.00
4562 29.4660 3633.00 3532.65 60.00
4563 29.4720 3625.00 3520.33 60.00
4564 29.4780 3625.00 3515.13 60.00
4565 29.4840 3460.00 3516.82 59.00
4566 29.4900 3478.00 3527.08 59.00
4567 29.4960 3591.00 3548.55 60.00
4568 29.5020 3544.00 3590.12 60.00
4569 29.5080 3457.00 3641.26 59.00
4570 29.5140 3470.00 3705.70 59.00
4571 29.5200 3523.00 3773.45 59.00
4572 29.5260 3573.00 3826.50 60.00
4573 29.5320 3582.00 3831.93 60.00
4574 29.5380 3604.00 3792.13 60.00
4575 29.5440 3646.00 3731.78 60.00
4576 29.5500 3706.00 3675.22 61.00
4577 29.5560 3697.00 3641.89 61.00
4578 29.5620 3634.00 3625.78 60.00
4579 29.5680 3660.00 3636.92 60.00
4580 29.5740 3637.00 3679.15 60.00
4581 29.5800 3809.00 3760.80 62.00
4582 29.5860 3958.00 3874.05 63.00
4583 29.5920 3957.00 4017.07 63.00
4584 29.5980 4054.00 4167.11 64.00
4585 29.6040 4148.00 4275.12 64.00
4586 29.6100 4270.00 4284.18 65.00
4587 29.6160 4285.00 4190.81 65.00
4588 29.6220 4176.00 4043.39 65.00
4589 29.6280 4060.00 3895.23 64.00
4590 29.6340 3879.00 3774.32 62.00
4591 29.6400 3682.00 3685.98 61.00
4592 29.6460 3701.00 3627.39 61.00
4593 29.6520 3730.00 3592.17 61.00
4594 29.6580 3711.00 3573.48 61.00
4595 29.6640 3654.00 3565.93 60.00
4596 29.6700 3697.00 3563.57 61.00
4597 29.6760 3729.00 3569.58 61.00
4598 29.6820 3610.00 3580.69 60.00
4599 29.6880 3707.00 3596.98 61.00
4600 29.6940 3820.00 3619.17 62.00
4601 29.7000 3885.00 3648.65 62.00
4602 29.7060 3997.00 3688.10 63.00
4603 29.7120 4050.00 3742.40 64.00
4604 29.7180 4250.00 3820.86 65.00
4605 29.7240 4620.00 3938.74 68.00
4606 29.7300 5001.00 4119.34 71.00
4607 29.7360 5560.00 4392.50 75.00
4608 29.7420 6059.00 4784.62 78.00
4609 29.7480 6359.00 5318.89 80.00
4610 29.7540 6478.00 5974.13 80.00
4611 29.7600 6383.00 6659.59 80.00
4612 29.7660 6418.00 7169.23 80.00
4613 29.7720 6322.00 7257.44 80.00
4614 29.7780 6062.00 6889.08 78.00
4615 29.7840 6070.00 6299.39 78.00
4616 29.7900 6009.00 5705.30 78.00
4617 29.7960 5954.00 5243.41 77.00
4618 29.8020 5856.00 4965.00 77.00
4619 29.8080 5957.00 4874.50 77.00
4620 29.8140 6042.00 4970.76 78.00
4621 29.8200 6205.00 5242.00 79.00
4622 29.8260 6288.00 5664.47 79.00
4623 29.8320 6281.00 6182.25 79.00
4624 29.8380 6525.00 6675.12 81.00
4625 29.8440 6816.00 6984.15 83.00
4626 29.8500 6944.00 7065.16 83.00
4627 29.8560 6973.00 7034.71 84.00
4628 29.8620 6975.00 6996.87 84.00
4629 29.8680 6798.00 6950.94 82.00
4630 29.8740 6769.00 6893.84 82.00
4631 29.8800 7059.00 6900.93 84.00
4632 29.8860 7513.00 7039.11 87.00
4633 29.8920 7917.00 7271.18 89.00
4634 29.8980 8033.00 7447.48 90.00
4635 29.9040 8036.00 7443.69 90.00
4636 29.9100 7940.00 7299.17 89.00
4637 29.9160 7820.00 7103.04 88.00
4638 29.9220 7640.00 6842.99 87.00
4639 29.9280 7125.00 6474.10 84.00
4640 29.9340 6526.00 6051.01 81.00
4641 29.9400 6024.00 5676.24 78.00
4642 29.9460 5857.00 5391.56 77.00
4643 29.9520 5746.00 5159.84 76.00
4644 29.9580 5442.00 4922.39 74.00
4645 29.9640 4995.00 4658.36 71.00
4646 29.9700 4653.00 4400.81 68.00
4647 29.9760 4378.00 4179.39 66.00
4648 29.9820 4191.00 4005.51 65.00
4649 29.9880 4117.00 3876.89 64.00
4650 29.9940 3940.00 3785.96 63.00
4651 30.0000 3836.00 3723.70 62.00
4652 30.0060 3790.00 3681.90 62.00
4653 30.0120 3802.00 3654.31 62.00
4654 30.0180 3830.00 3636.76 62.00
4655 30.0240 3810.00 3626.86 62.00
4656 30.0300 3757.00 3625.07 61.00
4657 30.0360 3802.00 3627.69 62.00
4658 30.0420 3880.00 3636.45 62.00
4659 30.0480 3928.00 3652.12 63.00
4660 30.0540 4030.00 3675.57 63.00
4661 30.0600 4114.00 3709.13 64.00
4662 30.0660 4110.00 3756.76 64.00
4663 30.0720 4248.00 3825.68 65.00
4664 30.0780 4403.00 3928.61 66.00
4665 30.0840 4392.00 4086.66 66.00
4666 30.0900 4466.00 4330.29 67.00
4667 30.0960 4706.00 4697.11 69.00
4668 30.1020 5084.00 5225.59 71.00
4669 30.1080 5874.00 5929.19 77.00
4670 30.1140 7238.00 6772.53 85.00
4671 30.1200 8934.00 7649.55 95.00
4672 30.1260 9895.00 8297.51 99.00
4673 30.1320 9369.00 8465.77 97.00
4674 30.1380 8103.00 8149.60 90.00
4675 30.1440 6962.00 7530.66 83.00
4676 30.1500 6145.00 6784.10 78.00
4677 30.1560 5589.00 6065.08 75.00
4678 30.1620 5055.00 5485.43 71.00
4679 30.1680 4768.00 5083.23 69.00
4680 30.1740 4696.00 4840.07 69.00
4681 30.1800 4625.00 4708.74 68.00
4682 30.1860 4577.00 4639.09 68.00
4683 30.1920 4500.00 4634.52 67.00
4684 30.1980 4560.00 4706.51 68.00
4685 30.2040 4698.00 4862.98 69.00
4686 30.2100 4883.00 5078.29 70.00
4687 30.2160 5276.00 5274.16 73.00
4688 30.2220 5350.00 5343.11 73.00
4689 30.2280 4969.00 5209.60 70.00
4690 30.2340 4581.00 4919.29 68.00
4691 30.2400 4322.00 4579.09 66.00
4692 30.2460 4178.00 4262.28 65.00
4693 30.2520 4091.00 4014.22 64.00
4694 30.2580 3967.00 3833.37 63.00
4695 30.2640 3836.00 3710.88 62.00
4696 30.2700 3820.00 3629.84 62.00
4697 30.2760 3866.00 3587.83 62.00
4698 30.2820 3796.00 3572.42 62.00
4699 30.2880 3805.00 3579.23 62.00
4700 30.2940 3874.00 3606.45 62.00
4701 30.3000 3873.00 3645.90 62.00
4702 30.3060 3835.00 3693.44 62.00
4703 30.3120 3795.00 3728.78 62.00
4704 30.3180 3747.00 3731.57 61.00
4705 30.3240 3720.00 3700.13 61.00
4706 30.3300 3694.00 3655.21 61.00
4707 30.3360 3665.00 3619.88 61.00
4708 30.3420 3656.00 3609.18 60.00
4709 30.3480 3674.00 3631.59 61.00
4710 30.3540 3804.00 3690.82 62.00
4711 30.3600 3819.00 3784.75 62.00
4712 30.3660 3770.00 3901.51 61.00
4713 30.3720 3759.00 4012.27 61.00
4714 30.3780 3794.00 4071.47 62.00
4715 30.3840 3767.00 4048.46 61.00
4716 30.3900 3711.00 3960.77 61.00
4717 30.3960 3725.00 3850.60 61.00
4718 30.4020 3757.00 3752.37 61.00
4719 30.4080 3759.00 3687.73 61.00
4720 30.4140 3719.00 3668.50 61.00
4721 30.4200 3753.00 3700.03 61.00
4722 30.4260 3817.00 3782.47 62.00
4723 30.4320 3891.00 3908.91 62.00
4724 30.4380 4006.00 4059.28 63.00
4725 30.4440 4157.00 4189.99 64.00
4726 30.4500 4223.00 4237.55 65.00
4727 30.4560 4219.00 4167.61 65.00
4728 30.4620 4199.00 4014.90 65.00
4729 30.4680 3977.00 3840.45 63.00
4730 30.4740 3870.00 3683.48 62.00
4731 30.4800 3706.00 3549.37 61.00
4732 30.4860 3577.00 3458.96 60.00
4733 30.4920 3428.00 3393.75 59.00
4734 30.4980 3419.00 3353.03 58.00
4735 30.5040 3374.00 3326.70 58.00
4736 30.5100 3297.00 3309.79 57.00
4737 30.5160 3267.00 3299.35 57.00
4738 30.5220 3310.00 3294.07 58.00
4739 30.5280 3327.00 3293.83 58.00
4740 30.5340 3295.00 3298.21 57.00
4741 30.5400 3264.00 3310.17 57.00
4742 30.5460 3312.00 3329.21 58.00
4743 30.5520 3384.00 3354.67 58.00
4744 30.5580 3447.00 3383.17 59.00
4745 30.5640 3549.00 3407.25 60.00
4746 30.5700 3556.00 3416.73 60.00
4747 30.5760 3456.00 3412.85 59.00
4748 30.5820 3412.00 3401.31 58.00
4749 30.5880 3398.00 3383.03 58.00
4750 30.5940 3467.00 3361.79 59.00
4751 30.6000 3530.00 3344.69 59.00
4752 30.6060 3532.00 3338.51 59.00
4753 30.6120 3428.00 3347.85 59.00
4754 30.6180 3520.00 3375.32 59.00
4755 30.6240 3644.00 3421.33 60.00
4756 30.6300 3750.00 3482.41 61.00
4757 30.6360 3813.00 3547.80 62.00
4758 30.6420 3915.00 3595.58 63.00
4759 30.6480 3829.00 3599.99 62.00
4760 30.6540 3744.00 3555.92 61.00
4761 30.6600 3590.00 3484.78 60.00
4762 30.6660 3443.00 3409.95 59.00
4763 30.6720 3355.00 3346.07 58.00
4764 30.6780 3330.00 3296.47 58.00
4765 30.6840 3241.00 3260.61 57.00
4766 30.6900 3147.00 3235.85 56.00
4767 30.6960 3144.00 3219.05 56.00
4768 30.7020 3218.00 3207.46 57.00
4769 30.7080 3161.00 3199.09 56.00
4770 30.7140 3154.00 3192.70 56.00
4771 30.7200 3158.00 3187.55 56.00
4772 30.7260 3043.00 3183.24 55.00
4773 30.7320 3119.00 3177.98 56.00
4774 30.7380 3176.00 3174.85 56.00
4775 30.7440 3178.00 3171.90 56.00
4776 30.7500 3155.00 3169.40 56.00
4777 30.7560 3177.00 3167.12 56.00
4778 30.7620 3185.00 3165.02 56.00
4779 30.7680 3116.00 3163.08 56.00
4780 30.7740 3147.00 3161.27 56.00
4781 30.7800 3192.00 3159.56 56.00
4782 30.7860 3123.00 3157.95 56.00
4783 30.7920 3145.00 3156.42 56.00
4784 30.7980 3074.00 3154.95 55.00
4785 30.8040 3054.00 3151.26 55.00
4786 30.8100 3008.00 3149.98 55.00
4787 30.8160 3006.00 3148.75 55.00
4788 30.8220 3085.00 3147.56 56.00
4789 30.8280 3200.00 3147.43 57.00
4790 30.8340 3112.00 3146.35 56.00
4791 30.8400 3091.00 3145.30 56.00
4792 30.8460 3068.00 3144.29 55.00
4793 30.8520 3141.00 3144.89 56.00
4794 30.8580 3042.00 3144.05 55.00
4795 30.8640 3015.00 3143.21 55.00
4796 30.8700 3074.00 3142.43 55.00
4797 30.8760 3074.00 3141.73 55.00
4798 30.8820 3032.00 3143.45 55.00
4799 30.8880 3041.00 3143.10 55.00
4800 30.8940 3089.00 3144.54 56.00
4801 30.9000 3112.00 3144.88 56.00
4802 30.9060 3049.00 3145.76 55.00
4803 30.9120 3039.00 3147.30 55.00
4804 30.9180 3101.00 3149.54 56.00
4805 30.9240 3154.00 3152.01 56.00
4806 30.9300 3246.00 3154.80 57.00
4807 30.9360 3203.00 3156.52 57.00
4808 30.9420 3100.00 3155.88 56.00
4809 30.9480 3145.00 3153.33 56.00
4810 30.9540 3150.00 3149.78 56.00
4811 30.9600 3076.00 3146.33 55.00
4812 30.9660 3134.00 3145.76 56.00
4813 30.9720 3148.00 3143.72 56.00
4814 30.9780 3109.00 3142.24 56.00
4815 30.9840 3141.00 3141.07 56.00
4816 30.9900 3108.00 3140.07 56.00
4817 30.9960 3093.00 3139.25 56.00
4818 31.0020 3159.00 3137.67 56.00
4819 31.0080 3155.00 3137.37 56.00
4820 31.0140 3139.00 3137.31 56.00
4821 31.0200 3121.00 3137.52 56.00
4822 31.0260 3229.00 3137.98 57.00
4823 31.0320 3067.00 3142.26 55.00
4824 31.0380 3076.00 3143.33 55.00
4825 31.0440 3086.00 3150.06 56.00
4826 31.0500 3174.00 3151.63 56.00
4827 31.0560 3185.00 3153.28 56.00
4828 31.0620 3307.00 3155.03 58.00
4829 31.0680 3308.00 3157.04 58.00
4830 31.0740 3281.00 3159.44 57.00
4831 31.0800 3380.00 3162.35 58.00
4832 31.0860 3418.00 3165.86 58.00
4833 31.0920 3360.00 3170.06 58.00
4834 31.0980 3378.00 3175.10 58.00
4835 31.1040 3403.00 3181.15 58.00
4836 31.1100 3301.00 3188.46 57.00
4837 31.1160 3204.00 3197.39 57.00
4838 31.1220 3261.00 3208.51 57.00
4839 31.1280 3327.00 3222.75 58.00
4840 31.1340 3253.00 3245.06 57.00
4841 31.1400 3200.00 3270.94 57.00
4842 31.1460 3280.00 3307.06 57.00
4843 31.1520 3412.00 3357.74 58.00
4844 31.1580 3449.00 3427.92 59.00
4845 31.1640 3419.00 3521.86 58.00
4846 31.1700 3542.00 3641.20 60.00
4847 31.1760 3849.00 3780.39 62.00
4848 31.1820 4002.00 3923.06 63.00
4849 31.1880 4170.00 4050.06 65.00
4850 31.1940 4273.00 4163.98 65.00
4851 31.2000 4356.00 4267.22 66.00
4852 31.2060 4402.00 4359.95 66.00
4853 31.2120 4404.00 4429.92 66.00
4854 31.2180 4256.00 4493.13 65.00
4855 31.2240 4378.00 4577.37 66.00
4856 31.2300 4472.00 4692.76 67.00
4857 31.2360 4488.00 4801.01 67.00
4858 31.2420 4279.00 4838.85 65.00
4859 31.2480 4135.00 4770.76 64.00
4860 31.2540 4062.00 4605.10 64.00
4861 31.2600 4045.00 4378.37 64.00
4862 31.2660 3940.00 4143.15 63.00
4863 31.2720 3835.00 3944.23 62.00
4864 31.2780 3716.00 3798.88 61.00
4865 31.2840 3705.00 3714.43 61.00
4866 31.2900 3849.00 3690.03 62.00
4867 31.2960 3928.00 3722.68 63.00
4868 31.3020 3849.00 3808.22 62.00
4869 31.3080 3913.00 3938.45 63.00
4870 31.3140 4106.00 4095.47 64.00
4871 31.3200 4210.00 4242.20 65.00
4872 31.3260 4460.00 4325.00 67.00
4873 31.3320 4395.00 4309.17 66.00
4874 31.3380 4291.00 4225.64 66.00
4875 31.3440 4285.00 4138.02 65.00
4876 31.3500 4308.00 4099.09 66.00
4877 31.3560 4204.00 4143.85 65.00
4878 31.3620 4290.00 4296.45 65.00
4879 31.3680 4510.00 4572.54 67.00
4880 31.3740 5337.00 4973.08 73.00
4881 31.3800 6345.00 5469.80 80.00
4882 31.3860 7470.00 5984.95 86.00
4883 31.3920 7705.00 6401.68 88.00
4884 31.3980 7762.00 6598.86 88.00
4885 31.4040 7232.00 6514.48 85.00
4886 31.4100 6372.00 6151.72 80.00
4887 31.4160 5475.00 5624.00 74.00
4888 31.4220 4795.00 5080.12 69.00
4889 31.4280 4431.00 4621.72 67.00
4890 31.4340 4054.00 4265.76 64.00
4891 31.4400 4030.00 4019.89 63.00
4892 31.4460 3973.00 3870.48 63.00
4893 31.4520 3852.00 3802.24 62.00
4894 31.4580 3905.00 3804.38 62.00
4895 31.4640 4033.00 3872.16 64.00
4896 31.4700 4154.00 4003.15 64.00
4897 31.4760 4165.00 4192.86 65.00
4898 31.4820 4108.00 4424.36 64.00
4899 31.4880 4268.00 4654.47 65.00
4900 31.4940 4220.00 4808.22 65.00
4901 31.5000 4212.00 4820.36 65.00
4902 31.5060 4282.00 4708.90 65.00
4903 31.5120 4354.00 4562.46 66.00
4904 31.5180 4405.00 4463.97 66.00
4905 31.5240 4627.00 4459.59 68.00
4906 31.5300 4703.00 4565.83 69.00
4907 31.5360 4926.00 4772.16 70.00
4908 31.5420 5151.00 5035.81 72.00
4909 31.5480 5568.00 5266.46 75.00
4910 31.5540 5647.00 5371.18 75.00
4911 31.5600 5789.00 5331.00 76.00
4912 31.5660 5532.00 5213.69 74.00
4913 31.5720 5287.00 5075.09 73.00
4914 31.5780 4989.00 4914.42 71.00
4915 31.5840 4824.00 4705.54 69.00
4916 31.5900 4694.00 4465.19 69.00
4917 31.5960 4569.00 4243.41 68.00
4918 31.6020 4478.00 4076.52 67.00
4919 31.6080 4441.00 3983.75 67.00
4920 31.6140 4364.00 3959.75 66.00
4921 31.6200 4387.00 3994.96 66.00
4922 31.6260 4399.00 4055.47 66.00
4923 31.6320 4461.00 4097.11 67.00
4924 31.6380 4355.00 4077.28 66.00
4925 31.6440 4264.00 3994.98 65.00
4926 31.6500 4089.00 3888.60 64.00
4927 31.6560 3992.00 3796.69 63.00
4928 31.6620 3897.00 3740.13 62.00
4929 31.6680 3732.00 3724.95 61.00
4930 31.6740 3876.00 3746.13 62.00
4931 31.6800 3935.00 3787.75 63.00
4932 31.6860 3939.00 3823.56 63.00
4933 31.6920 3900.00 3829.78 62.00
4934 31.6980 3828.00 3811.46 62.00
4935 31.7040 3803.00 3795.03 62.00
4936 31.7100 3853.00 3810.42 62.00
4937 31.7160 3812.00 3881.08 62.00
4938 31.7220 4028.00 4024.95 63.00
4939 31.7280 4069.00 4254.19 64.00
4940 31.7340 4625.00 4571.31 68.00
4941 31.7400 5186.00 4961.35 72.00
4942 31.7460 5708.00 5375.17 76.00
4943 31.7520 5924.00 5721.26 77.00
4944 31.7580 6115.00 5940.38 78.00
4945 31.7640 6025.00 6062.87 78.00
4946 31.7700 6248.00 6193.95 79.00
4947 31.7760 6461.00 6405.25 80.00
4948 31.7820 6741.00 6644.63 82.00
4949 31.7880 6847.00 6758.26 83.00
4950 31.7940 6963.00 6586.73 83.00
4951 31.8000 6480.00 6134.85 80.00
4952 31.8060 5599.00 5557.47 75.00
4953 31.8120 4797.00 5000.71 69.00
4954 31.8180 4377.00 4535.63 66.00
4955 31.8240 4107.00 4178.27 64.00
4956 31.8300 3938.00 3916.55 63.00
4957 31.8360 3893.00 3730.02 62.00
4958 31.8420 3724.00 3600.97 61.00
4959 31.8480 3518.00 3516.14 59.00
4960 31.8540 3497.00 3466.11 59.00
4961 31.8600 3572.00 3441.74 60.00
4962 31.8660 3495.00 3447.00 59.00
4963 31.8720 3631.00 3476.39 60.00
4964 31.8780 3552.00 3524.38 60.00
4965 31.8840 3728.00 3583.54 61.00
4966 31.8900 3873.00 3644.73 62.00
4967 31.8960 4002.00 3695.94 63.00
4968 31.9020 3933.00 3715.96 63.00
4969 31.9080 3851.00 3684.75 62.00
4970 31.9140 3691.00 3607.90 61.00
4971 31.9200 3362.00 3508.87 58.00
4972 31.9260 3463.00 3420.63 59.00
4973 31.9320 3381.00 3351.29 58.00
4974 31.9380 3309.00 3306.20 58.00
4975 31.9440 3394.00 3284.83 58.00
4976 31.9500 3482.00 3292.71 59.00
4977 31.9560 3549.00 3328.21 60.00
4978 31.9620 3681.00 3390.57 61.00
4979 31.9680 3928.00 3477.02 63.00
4980 31.9740 4169.00 3578.05 65.00
4981 31.9800 4456.00 3671.70 67.00
4982 31.9860 4380.00 3722.87 66.00
4983 31.9920 4240.00 3704.75 65.00
4984 31.9980 3996.00 3627.88 63.00
4985 32.0040 3697.00 3526.46 61.00
4986 32.0100 3760.00 3434.95 61.00
4987 32.0160 3648.00 3367.98 60.00
4988 32.0220 3498.00 3332.87 59.00
4989 32.0280 3385.00 3332.11 58.00
4990 32.0340 3548.00 3364.14 60.00
4991 32.0400 3520.00 3424.87 59.00
4992 32.0460 3513.00 3504.75 59.00
4993 32.0520 3401.00 3584.71 58.00
4994 32.0580 3549.00 3633.82 60.00
4995 32.0640 3517.00 3628.85 59.00
4996 32.0700 3467.00 3574.50 59.00
4997 32.0760 3572.00 3502.11 60.00
4998 32.0820 3494.00 3441.70 59.00
4999 32.0880 3395.00 3412.03 58.00
5000 32.0940 3504.00 3423.47 59.00
5001 32.1000 3574.00 3480.56 60.00
5002 32.1060 3582.00 3582.01 60.00
5003 32.1120 3648.00 3718.18 60.00
5004 32.1180 3706.00 3863.19 61.00
5005 32.1240 3989.00 3964.83 63.00
5006 32.1300 4005.00 3979.34 63.00
5007 32.1360 3960.00 3888.75 63.00
5008 32.1420 3843.00 3734.48 62.00
5009 32.1480 3596.00 3567.74 60.00
5010 32.1540 3539.00 3419.37 59.00
5011 32.1600 3352.00 3293.41 58.00
5012 32.1660 3263.00 3206.24 57.00
5013 32.1720 3263.00 3145.70 57.00
5014 32.1780 3147.00 3105.66 56.00
5015 32.1840 3268.00 3080.44 57.00
5016 32.1900 3233.00 3065.86 57.00
5017 32.1960 3075.00 3059.39 55.00
5018 32.2020 3239.00 3060.63 57.00
5019 32.2080 3347.00 3069.38 58.00
5020 32.2140 3235.00 3087.21 57.00
5021 32.2200 3334.00 3110.58 58.00
5022 32.2260 3297.00 3138.18 57.00
5023 32.2320 3341.00 3163.62 58.00
5024 32.2380 3354.00 3178.34 58.00
5025 32.2440 3288.00 3172.79 57.00
5026 32.2500 3155.00 3152.25 56.00
5027 32.2560 3137.00 3127.43 56.00
5028 32.2620 3135.00 3107.92 56.00
5029 32.2680 3219.00 3098.06 57.00
5030 32.2740 3034.00 3097.73 55.00
5031 32.2800 3097.00 3107.60 56.00
5032 32.2860 3006.00 3121.48 55.00
5033 32.2920 3048.00 3131.75 55.00
5034 32.2980 3099.00 3132.57 56.00
5035 32.3040 3224.00 3125.81 57.00
5036 32.3100 3090.00 3117.42 56.00
5037 32.3160 3090.00 3111.25 56.00
5038 32.3220 3080.00 3105.85 55.00
5039 32.3280 3029.00 3096.25 55.00
5040 32.3340 3037.00 3079.38 55.00
5041 32.3400 3066.00 3057.89 55.00
5042 32.3460 2994.00 3036.84 55.00
5043 32.3520 3048.00 3019.87 55.00
5044 32.3580 3079.00 3007.17 55.00
5045 32.3640 3137.00 3002.56 56.00
5046 32.3700 3040.00 3004.52 55.00
5047 32.3760 3071.00 3012.61 55.00
5048 32.3820 3008.00 3025.67 55.00
5049 32.3880 2965.00 3041.26 54.00
5050 32.3940 3080.00 3054.83 55.00
5051 32.4000 3097.00 3060.41 56.00
5052 32.4060 3118.00 3055.09 56.00
5053 32.4120 3144.00 3042.25 56.00
5054 32.4180 3050.00 3027.96 55.00
5055 32.4240 2977.00 3016.86 55.00
5056 32.4300 3106.00 3011.57 56.00
5057 32.4360 2979.00 3014.54 55.00
5058 32.4420 3005.00 3027.46 55.00
5059 32.4480 3006.00 3052.40 55.00
5060 32.4540 3164.00 3091.20 56.00
5061 32.4600 3174.00 3144.65 56.00
5062 32.4660 3200.00 3210.72 57.00
5063 32.4720 3381.00 3281.92 58.00
5064 32.4780 3454.00 3342.06 59.00
5065 32.4840 3440.00 3370.61 59.00
5066 32.4900 3327.00 3351.86 58.00
5067 32.4960 3327.00 3297.48 58.00
5068 32.5020 3192.00 3230.40 56.00
5069 32.5080 3135.00 3166.57 56.00
5070 32.5140 3055.00 3115.21 55.00
5071 32.5200 3036.00 3078.98 55.00
5072 32.5260 3021.00 3057.71 55.00
5073 32.5320 2958.00 3050.39 54.00
5074 32.5380 2965.00 3056.58 54.00
5075 32.5440 3126.00 3077.26 56.00
5076 32.5500 3024.00 3115.10 55.00
5077 32.5560 3119.00 3173.89 56.00
5078 32.5620 3210.00 3257.27 57.00
5079 32.5680 3337.00 3366.79 58.00
5080 32.5740 3570.00 3498.17 60.00
5081 32.5800 3676.00 3635.76 61.00
5082 32.5860 3809.00 3750.78 62.00
5083 32.5920 3928.00 3817.62 63.00
5084 32.5980 3909.00 3834.74 63.00
5085 32.6040 3912.00 3812.16 63.00
5086 32.6100 3732.00 3747.83 61.00
5087 32.6160 3652.00 3639.48 60.00
5088 32.6220 3364.00 3506.93 58.00
5089 32.6280 3149.00 3377.42 56.00
5090 32.6340 3135.00 3268.34 56.00
5091 32.6400 3126.00 3185.35 56.00
5092 32.6460 3259.00 3127.15 57.00
5093 32.6520 3154.00 3089.41 56.00
5094 32.6580 3120.00 3066.64 56.00
5095 32.6640 3087.00 3052.91 56.00
5096 32.6700 3082.00 3042.17 56.00
5097 32.6760 3008.00 3030.60 55.00
5098 32.6820 3039.00 3016.17 55.00
5099 32.6880 2898.00 3000.42 54.00
5100 32.6940 2923.00 2986.00 54.00
5101 32.7000 2870.00 2974.61 54.00
5102 32.7060 2840.00 2966.12 53.00
5103 32.7120 2888.00 2960.62 54.00
5104 32.7180 2931.00 2957.13 54.00
5105 32.7240 2934.00 2955.23 54.00
5106 32.7300 2910.00 2958.79 54.00
5107 32.7360 2920.00 2960.79 54.00
5108 32.7420 3048.00 2965.38 55.00
5109 32.7480 2952.00 2973.35 54.00
5110 32.7540 2914.00 2986.01 54.00
5111 32.7600 2875.00 3005.33 54.00
5112 32.7660 2890.00 3034.03 54.00
5113 32.7720 2970.00 3075.12 54.00
5114 32.7780 3115.00 3130.98 56.00
5115 32.7840 3117.00 3203.15 56.00
5116 32.7900 3115.00 3288.90 56.00
5117 32.7960 3177.00 3381.33 56.00
5118 32.8020 3171.00 3457.61 56.00
5119 32.8080 3225.00 3498.48 57.00
5120 32.8140 3195.00 3500.40 57.00
5121 32.8200 3369.00 3486.45 58.00
5122 32.8260 3311.00 3487.78 58.00
5123 32.8320 3362.00 3527.68 58.00
5124 32.8380 3440.00 3619.48 59.00
5125 32.8440 3670.00 3766.91 61.00
5126 32.8500 3906.00 3960.26 62.00
5127 32.8560 4022.00 4171.92 63.00
5128 32.8620 4247.00 4362.37 65.00
5129 32.8680 4433.00 4507.57 67.00
5130 32.8740 4614.00 4589.61 68.00
5131 32.8800 4501.00 4577.38 67.00
5132 32.8860 4251.00 4436.88 65.00
5133 32.8920 3890.00 4198.71 62.00
5134 32.8980 3618.00 3928.75 60.00
5135 32.9040 3452.00 3679.29 59.00
5136 32.9100 3357.00 3473.81 58.00
5137 32.9160 3206.00 3316.75 57.00
5138 32.9220 3182.00 3203.07 56.00
5139 32.9280 3123.00 3123.90 56.00
5140 32.9340 3107.00 3069.85 56.00
5141 32.9400 3079.00 3032.82 55.00
5142 32.9460 3038.00 3006.90 55.00
5143 32.9520 3046.00 2988.13 55.00
5144 32.9580 3064.00 2974.11 55.00
5145 32.9640 3068.00 2961.98 55.00
5146 32.9700 2942.00 2953.82 54.00
5147 32.9760 2918.00 2947.63 54.00
5148 32.9820 2987.00 2943.14 55.00
5149 32.9880 2961.00 2938.83 54.00
5150 32.9940 3033.00 2937.21 55.00
5151 33.0000 3068.00 2936.90 55.00
5152 33.0060 3053.00 2937.91 55.00
5153 33.0120 3112.00 2940.29 56.00
5154 33.0180 3096.00 2944.18 56.00
5155 33.0240 3000.00 2949.78 55.00
5156 33.0300 3027.00 2957.48 55.00
5157 33.0360 3085.00 2967.81 56.00
5158 33.0420 3163.00 2985.86 56.00
5159 33.0480 3237.00 3005.21 57.00
5160 33.0540 3211.00 3035.78 57.00
5161 33.0600 3248.00 3076.06 57.00
5162 33.0660 3373.00 3135.73 58.00
5163 33.0720 3582.00 3224.23 60.00
5164 33.0780 3948.00 3349.17 63.00
5165 33.0840 4248.00 3518.68 65.00
5166 33.0900 4530.00 3733.94 67.00
5167 33.0960 4668.00 3983.50 68.00
5168 33.1020 4785.00 4233.34 69.00
5169 33.1080 4823.00 4416.59 69.00
5170 33.1140 4527.00 4460.60 67.00
5171 33.1200 4310.00 4350.61 66.00
5172 33.1260 4212.00 4148.79 65.00
5173 33.1320 4090.00 3934.59 64.00
5174 33.1380 3990.00 3760.73 63.00
5175 33.1440 3879.00 3649.91 62.00
5176 33.1500 3819.00 3610.14 62.00
5177 33.1560 3778.00 3636.70 61.00
5178 33.1620 3739.00 3714.28 61.00
5179 33.1680 3760.00 3814.04 61.00
5180 33.1740 3809.00 3890.47 62.00
5181 33.1800 3845.00 3895.45 62.00
5182 33.1860 3876.00 3814.44 62.00
5183 33.1920 3832.00 3682.93 62.00
5184 33.1980 3662.00 3542.31 61.00
5185 33.2040 3535.00 3422.02 59.00
5186 33.2100 3474.00 3336.04 59.00
5187 33.2160 3387.00 3290.78 58.00
5188 33.2220 3363.00 3288.98 58.00
5189 33.2280 3361.00 3332.32 58.00
5190 33.2340 3299.00 3421.19 57.00
5191 33.2400 3516.00 3551.32 59.00
5192 33.2460 3796.00 3716.13 62.00
5193 33.2520 4017.00 3890.00 63.00
5194 33.2580 4251.00 4026.48 65.00
5195 33.2640 4178.00 4064.79 65.00
5196 33.2700 3881.00 3987.29 62.00
5197 33.2760 3646.00 3826.42 60.00
5198 33.2820 3464.00 3639.25 59.00
5199 33.2880 3318.00 3465.36 58.00
5200 33.2940 3170.00 3322.19 56.00
5201 33.3000 3038.00 3213.94 55.00
5202 33.3060 3075.00 3137.66 55.00
5203 33.3120 3087.00 3087.25 56.00
5204 33.3180 3107.00 3056.10 56.00
5205 33.3240 3137.00 3038.59 56.00
5206 33.3300 3161.00 3030.72 56.00
5207 33.3360 3117.00 3030.08 56.00
5208 33.3420 3106.00 3035.55 56.00
5209 33.3480 3180.00 3047.08 56.00
5210 33.3540 3207.00 3065.59 57.00
5211 33.3600 3198.00 3093.23 57.00
5212 33.3660 3217.00 3134.37 57.00
5213 33.3720 3243.00 3194.83 57.00
5214 33.3780 3236.00 3284.77 57.00
5215 33.3840 3366.00 3417.53 58.00
5216 33.3900 3443.00 3608.52 59.00
5217 33.3960 3587.00 3872.31 60.00
5218 33.4020 3912.00 4217.11 63.00
5219 33.4080 4409.00 4635.64 66.00
5220 33.4140 5120.00 5089.23 72.00
5221 33.4200 5707.00 5497.10 76.00
5222 33.4260 5685.00 5759.04 75.00
5223 33.4320 5476.00 5814.33 74.00
5224 33.4380 5126.00 5666.31 72.00
5225 33.4440 4797.00 5365.42 69.00
5226 33.4500 4534.00 4988.36 67.00
5227 33.4560 4107.00 4603.22 64.00
5228 33.4620 3848.00 4256.00 62.00
5229 33.4680 3727.00 3974.75 61.00
5230 33.4740 3633.00 3767.78 60.00
5231 33.4800 3586.00 3626.64 60.00
5232 33.4860 3492.00 3532.72 59.00
5233 33.4920 3606.00 3468.41 60.00
5234 33.4980 3633.00 3422.42 60.00
5235 33.5040 3594.00 3401.60 60.00
5236 33.5100 3598.00 3399.04 60.00
5237 33.5160 3551.00 3403.46 60.00
5238 33.5220 3540.00 3396.89 59.00
5239 33.5280 3558.00 3363.46 60.00
5240 33.5340 3518.00 3307.55 59.00
5241 33.5400 3450.00 3246.32 59.00
5242 33.5460 3406.00 3195.17 58.00
5243 33.5520 3480.00 3161.93 59.00
5244 33.5580 3452.00 3147.62 59.00
5245 33.5640 3404.00 3145.68 58.00
5246 33.5700 3457.00 3150.24 59.00
5247 33.5760 3416.00 3145.60 58.00
5248 33.5820 3328.00 3123.66 58.00
5249 33.5880 3263.00 3087.82 57.00
5250 33.5940 3219.00 3046.62 57.00
5251 33.6000 3139.00 3005.70 56.00
5252 33.6060 3096.00 2967.48 56.00
5253 33.6120 3023.00 2933.72 55.00
5254 33.6180 2958.00 2905.71 54.00
5255 33.6240 2957.00 2883.61 54.00
5256 33.6300 2935.00 2866.71 54.00
5257 33.6360 3007.00 2853.92 55.00
5258 33.6420 2871.00 2844.24 54.00
5259 33.6480 2824.00 2834.04 53.00
5260 33.6540 2832.00 2828.36 53.00
5261 33.6600 2780.00 2823.90 53.00
5262 33.6660 2780.00 2820.36 53.00
5263 33.6720 2825.00 2817.60 53.00
5264 33.6780 2824.00 2815.53 53.00
5265 33.6840 2817.00 2814.19 53.00
5266 33.6900 2728.00 2813.72 52.00
5267 33.6960 2710.00 2813.31 52.00
5268 33.7020 2778.00 2814.38 53.00
5269 33.7080 2771.00 2817.70 53.00
5270 33.7140 2886.00 2824.18 54.00
5271 33.7200 2836.00 2834.68 53.00
5272 33.7260 2726.00 2849.78 52.00
5273 33.7320 2859.00 2869.30 53.00
5274 33.7380 2955.00 2891.71 54.00
5275 33.7440 2983.00 2912.99 55.00
5276 33.7500 2981.00 2926.17 55.00
5277 33.7560 3001.00 2924.50 55.00
5278 33.7620 2976.00 2907.61 55.00
5279 33.7680 2890.00 2881.94 54.00
5280 33.7740 2807.00 2854.65 53.00
5281 33.7800 2785.00 2829.98 53.00
5282 33.7860 2740.00 2809.69 52.00
5283 33.7920 2746.00 2793.99 52.00
5284 33.7980 2712.00 2782.36 52.00
5285 33.8040 2806.00 2773.96 53.00
5286 33.8100 2697.00 2763.90 52.00
5287 33.8160 2721.00 2759.68 52.00
5288 33.8220 2738.00 2756.66 52.00
5289 33.8280 2708.00 2751.49 52.00
5290 33.8340 2875.00 2750.30 54.00
5291 33.8400 2728.00 2749.13 52.00
5292 33.8460 2679.00 2749.96 52.00
5293 33.8520 2780.00 2752.40 53.00
5294 33.8580 2934.00 2757.23 54.00
5295 33.8640 2790.00 2765.59 53.00
5296 33.8700 2781.00 2778.94 53.00
5297 33.8760 2836.00 2798.36 53.00
5298 33.8820 2796.00 2825.93 53.00
5299 33.8880 2774.00 2861.27 53.00
5300 33.8940 2942.00 2902.94 54.00
5301 33.9000 2983.00 2943.93 55.00
5302 33.9060 3046.00 2973.72 55.00
5303 33.9120 3109.00 2978.71 56.00
5304 33.9180 2987.00 2956.84 55.00
5305 33.9240 2880.00 2916.33 54.00
5306 33.9300 2798.00 2870.16 53.00
5307 33.9360 2799.00 2827.08 53.00
5308 33.9420 2786.00 2790.99 53.00
5309 33.9480 2811.00 2762.79 53.00
5310 33.9540 2759.00 2741.82 53.00
5311 33.9600 2744.00 2727.85 52.00
5312 33.9660 2728.00 2716.48 52.00
5313 33.9720 2709.00 2708.66 52.00
5314 33.9780 2646.00 2702.84 51.00
5315 33.9840 2728.00 2698.36 52.00
5316 33.9900 2786.00 2696.67 53.00
5317 33.9960 2815.00 2693.92 53.00
5318 34.0020 2754.00 2691.68 52.00
5319 34.0080 2714.00 2689.74 52.00
5320 34.0140 2724.00 2687.78 52.00
5321 34.0200 2717.00 2685.48 52.00
5322 34.0260 2695.00 2682.76 52.00
5323 34.0320 2676.00 2679.85 52.00
5324 34.0380 2573.00 2679.31 51.00
5325 34.0440 2638.00 2678.25 51.00
5326 34.0500 2644.00 2678.40 51.00
5327 34.0560 2646.00 2679.29 51.00
5328 34.0620 2707.00 2681.01 52.00
5329 34.0680 2719.00 2683.62 52.00
5330 34.0740 2774.00 2687.07 53.00
5331 34.0800 2771.00 2691.09 53.00
5332 34.0860 2784.00 2695.06 53.00
5333 34.0920 2740.00 2698.59 52.00
5334 34.0980 2765.00 2699.58 53.00
5335 34.1040 2736.00 2698.64 52.00
5336 34.1100 2781.00 2696.49 53.00
5337 34.1160 2694.00 2693.77 52.00
5338 34.1220 2723.00 2690.87 52.00
5339 34.1280 2765.00 2689.72 53.00
5340 34.1340 2783.00 2687.58 53.00
5341 34.1400 2745.00 2686.10 52.00
5342 34.1460 2747.00 2684.90 52.00
5343 34.1520 2703.00 2684.67 52.00
5344 34.1580 2637.00 2684.92 51.00
5345 34.1640 2740.00 2685.58 52.00
5346 34.1700 2752.00 2686.58 52.00
5347 34.1760 2803.00 2687.87 53.00
5348 34.1820 2714.00 2689.44 52.00
5349 34.1880 2718.00 2691.31 52.00
5350 34.1940 2655.00 2693.49 52.00
5351 34.2000 2677.00 2696.03 52.00
5352 34.2060 2819.00 2699.00 53.00
5353 34.2120 2696.00 2702.51 52.00
5354 34.2180 2778.00 2706.71 53.00
5355 34.2240 2739.00 2711.91 52.00
5356 34.2300 2831.00 2718.53 53.00
5357 34.2360 2771.00 2727.27 53.00
5358 34.2420 2757.00 2739.12 53.00
5359 34.2480 2701.00 2755.36 52.00
5360 34.2540 2878.00 2777.37 54.00
5361 34.2600 2793.00 2806.33 53.00
5362 34.2660 2846.00 2842.75 53.00
5363 34.2720 2956.00 2885.65 54.00
5364 34.2780 2982.00 2931.25 55.00
5365 34.2840 2961.00 2971.77 54.00
5366 34.2900 3043.00 2996.85 55.00
5367 34.2960 2934.00 3001.47 54.00
5368 34.3020 2983.00 2992.43 55.00
5369 34.3080 3076.00 2982.54 55.00
5370 34.3140 3076.00 2985.07 55.00
5371 34.3200 3122.00 3007.47 56.00
5372 34.3260 3181.00 3054.84 56.00
5373 34.3320 3214.00 3129.65 57.00
5374 34.3380 3296.00 3230.83 57.00
5375 34.3440 3425.00 3351.08 59.00
5376 34.3500 3667.00 3474.36 61.00
5377 34.3560 3851.00 3581.49 62.00
5378 34.3620 3831.00 3664.71 62.00
5379 34.3680 3845.00 3731.36 62.00
5380 34.3740 3729.00 3780.26 61.00
5381 34.3800 3638.00 3795.30 60.00
5382 34.3860 3576.00 3760.96 60.00
5383 34.3920 3415.00 3687.87 58.00
5384 34.3980 3440.00 3612.92 59.00
5385 34.4040 3513.00 3568.36 59.00
5386 34.4100 3613.00 3569.47 60.00
5387 34.4160 3497.00 3614.71 59.00
5388 34.4220 3753.00 3685.60 61.00
5389 34.4280 3744.00 3745.36 61.00
5390 34.4340 3665.00 3750.36 61.00
5391 34.4400 3593.00 3682.21 60.00
5392 34.4460 3421.00 3565.23 58.00
5393 34.4520 3313.00 3436.90 58.00
5394 34.4580 3335.00 3327.12 58.00
5395 34.4640 3239.00 3249.69 57.00
5396 34.4700 3261.00 3207.84 57.00
5397 34.4760 3329.00 3197.34 58.00
5398 34.4820 3303.00 3207.76 57.00
5399 34.4880 3290.00 3226.23 57.00
5400 34.4940 3352.00 3246.04 58.00
5401 34.5000 3483.00 3271.58 59.00
5402 34.5060 3474.00 3309.81 59.00
5403 34.5120 3502.00 3360.07 59.00
5404 34.5180 3542.00 3406.56 60.00
5405 34.5240 3601.00 3422.92 60.00
5406 34.5300 3548.00 3387.23 60.00
5407 34.5360 3468.00 3303.44 59.00
5408 34.5420 3212.00 3196.32 57.00
5409 34.5480 3007.00 3089.51 55.00
5410 34.5540 2958.00 2996.04 54.00
5411 34.5600 2892.00 2920.71 54.00
5412 34.5660 2855.00 2863.42 53.00
5413 34.5720 2846.00 2821.72 53.00
5414 34.5780 2802.00 2792.17 53.00
5415 34.5840 2767.00 2771.43 53.00
5416 34.5900 2796.00 2756.72 53.00
5417 34.5960 2620.00 2746.00 51.00
5418 34.6020 2707.00 2738.64 52.00
5419 34.6080 2733.00 2733.10 52.00
5420 34.6140 2770.00 2728.89 53.00
5421 34.6200 2771.00 2725.69 53.00
5422 34.6260 2858.00 2723.32 53.00
5423 34.6320 2756.00 2721.66 52.00
5424 34.6380 2850.00 2720.62 53.00
5425 34.6440 2875.00 2720.17 54.00
5426 34.6500 2777.00 2720.26 53.00
5427 34.6560 2761.00 2720.90 53.00
5428 34.6620 2687.00 2722.09 52.00
5429 34.6680 2735.00 2723.86 52.00
5430 34.6740 2811.00 2726.29 53.00
5431 34.6800 2808.00 2729.47 53.00
5432 34.6860 2842.00 2733.55 53.00
5433 34.6920 2725.00 2738.21 52.00
5434 34.6980 2833.00 2745.04 53.00
5435 34.7040 2831.00 2754.14 53.00
5436 34.7100 2734.00 2766.61 52.00
5437 34.7160 2833.00 2784.12 53.00
5438 34.7220 2825.00 2809.00 53.00
5439 34.7280 2918.00 2844.17 54.00
5440 34.7340 2969.00 2892.78 54.00
5441 34.7400 3045.00 2957.54 55.00
5442 34.7460 3080.00 3039.42 55.00
5443 34.7520 3287.00 3134.65 57.00
5444 34.7580 3281.00 3236.20 57.00
5445 34.7640 3409.00 3325.86 58.00
5446 34.7700 3532.00 3385.01 59.00
5447 34.7760 3491.00 3403.25 59.00
5448 34.7820 3379.00 3377.19 58.00
5449 34.7880 3368.00 3315.99 58.00
5450 34.7940 3269.00 3233.37 57.00
5451 34.8000 3249.00 3150.56 57.00
5452 34.8060 3197.00 3084.02 57.00
5453 34.8120 3183.00 3042.37 56.00
5454 34.8180 3217.00 3028.34 57.00
5455 34.8240 3262.00 3040.86 57.00
5456 34.8300 3178.00 3074.64 56.00
5457 34.8360 3371.00 3118.13 58.00
5458 34.8420 3341.00 3159.91 58.00
5459 34.8480 3262.00 3177.57 57.00
5460 34.8540 3198.00 3158.72 57.00
5461 34.8600 3205.00 3109.84 57.00
5462 34.8660 3170.00 3048.71 56.00
5463 34.8720 3078.00 2991.17 55.00
5464 34.8780 3028.00 2946.15 55.00
5465 34.8840 3015.00 2917.26 55.00
5466 34.8900 2989.00 2904.23 55.00
5467 34.8960 2937.00 2906.13 54.00
5468 34.9020 2921.00 2917.79 54.00
5469 34.9080 2951.00 2931.80 54.00
5470 34.9140 2951.00 2938.33 54.00
5471 34.9200 2965.00 2929.64 54.00
5472 34.9260 2989.00 2904.45 55.00
5473 34.9320 2984.00 2872.91 55.00
5474 34.9380 2874.00 2840.68 54.00
5475 34.9440 2787.00 2812.03 53.00
5476 34.9500 2658.00 2788.64 52.00
5477 34.9560 2761.00 2770.67 53.00
5478 34.9620 2776.00 2757.49 53.00
5479 34.9680 2794.00 2748.47 53.00
5480 34.9740 2777.00 2742.13 53.00
5481 34.9800 2821.00 2737.55 53.00
5482 34.9860 2733.00 2734.28 52.00
5483 34.9920 2784.00 2731.89 53.00
5484 34.9980 2809.00 2730.10 53.00
5485 35.0040 2840.00 2728.74 53.00
5486 35.0100 2826.00 2727.70 53.00
5487 35.0160 2816.00 2727.69 53.00
5488 35.0220 2830.00 2727.14 53.00
5489 35.0280 2878.00 2726.78 54.00
5490 35.0340 2853.00 2726.57 53.00
5491 35.0400 2722.00 2726.90 52.00
5492 35.0460 2698.00 2726.96 52.00
5493 35.0520 2753.00 2727.12 52.00
5494 35.0580 2903.00 2727.36 54.00
5495 35.0640 2845.00 2727.65 53.00
5496 35.0700 2800.00 2727.97 53.00
5497 35.0760 2781.00 2728.33 53.00
5498 35.0820 2781.00 2728.85 53.00
5499 35.0880 2797.00 2729.32 53.00
5500 35.0940 2766.00 2730.91 53.00
5501 35.1000 2849.00 2731.55 53.00
5502 35.1060 2967.00 2732.96 54.00
5503 35.1120 2999.00 2733.78 55.00
5504 35.1180 2967.00 2734.68 54.00
5505 35.1240 2955.00 2735.66 54.00
5506 35.1300 2901.00 2736.74 54.00
5507 35.1360 2885.00 2737.93 54.00
5508 35.1420 2888.00 2739.24 54.00
5509 35.1480 2832.00 2740.71 53.00
5510 35.1540 2767.00 2742.38 53.00
5511 35.1600 2790.00 2744.33 53.00
5512 35.1660 2820.00 2746.70 53.00
5513 35.1720 2779.00 2749.63 53.00
5514 35.1780 2743.00 2753.56 52.00
5515 35.1840 2746.00 2758.77 52.00
5516 35.1900 2818.00 2765.67 53.00
5517 35.1960 2852.00 2776.41 53.00
5518 35.2020 2823.00 2789.28 53.00
5519 35.2080 2892.00 2804.59 54.00
5520 35.2140 2872.00 2821.65 54.00
5521 35.2200 2877.00 2838.66 54.00
5522 35.2260 2889.00 2852.52 54.00
5523 35.2320 2906.00 2860.25 54.00
5524 35.2380 2910.00 2863.06 54.00
5525 35.2440 2948.00 2860.78 54.00
5526 35.2500 2882.00 2857.61 54.00
5527 35.2560 2895.00 2853.44 54.00
5528 35.2620 2900.00 2850.12 54.00
5529 35.2680 2846.00 2844.35 53.00
5530 35.2740 2847.00 2837.38 53.00
5531 35.2800 2807.00 2830.67 53.00
5532 35.2860 2833.00 2825.60 53.00
5533 35.2920 2934.00 2822.42 54.00
5534 35.2980 2940.00 2821.98 54.00
5535 35.3040 2822.00 2823.23 53.00
5536 35.3100 2836.00 2826.64 53.00
5537 35.3160 2851.00 2832.40 53.00
5538 35.3220 2824.00 2840.41 53.00
5539 35.3280 2828.00 2852.30 53.00
5540 35.3340 2777.00 2868.46 53.00
5541 35.3400 2849.00 2889.87 53.00
5542 35.3460 2947.00 2917.34 54.00
5543 35.3520 2983.00 2951.11 55.00
5544 35.3580 3006.00 2990.19 55.00
5545 35.3640 3058.00 3031.52 55.00
5546 35.3700 3133.00 3069.71 56.00
5547 35.3760 3132.00 3099.17 56.00
5548 35.3820 3130.00 3118.41 56.00
5549 35.3880 3166.00 3131.49 56.00
5550 35.3940 3239.00 3145.66 57.00
5551 35.4000 3252.00 3167.56 57.00
5552 35.4060 3310.00 3199.55 58.00
5553 35.4120 3349.00 3237.71 58.00
5554 35.4180 3398.00 3271.72 58.00
5555 35.4240 3463.00 3290.09 59.00
5556 35.4300 3450.00 3290.05 59.00
5557 35.4360 3451.00 3279.09 59.00
5558 35.4420 3494.00 3265.64 59.00
5559 35.4480 3433.00 3252.68 59.00
5560 35.4540 3338.00 3240.79 58.00
5561 35.4600 3269.00 3234.39 57.00
5562 35.4660 3240.00 3241.79 57.00
5563 35.4720 3280.00 3270.11 57.00
5564 35.4780 3301.00 3321.97 57.00
5565 35.4840 3397.00 3394.44 58.00
5566 35.4900 3618.00 3478.35 60.00
5567 35.4960 3809.00 3557.72 62.00
5568 35.5020 3830.00 3611.79 62.00
5569 35.5080 3757.00 3623.58 61.00
5570 35.5140 3675.00 3589.64 61.00
5571 35.5200 3556.00 3519.66 60.00
5572 35.5260 3405.00 3431.82 58.00
5573 35.5320 3306.00 3345.90 57.00
5574 35.5380 3335.00 3276.40 58.00
5575 35.5440 3336.00 3230.83 58.00
5576 35.5500 3334.00 3211.95 58.00
5577 35.5560 3377.00 3219.32 58.00
5578 35.5620 3425.00 3250.18 59.00
5579 35.5680 3506.00 3300.62 59.00
5580 35.5740 3533.00 3358.14 59.00
5581 35.5800 3454.00 3409.96 59.00
5582 35.5860 3482.00 3442.10 59.00
5583 35.5920 3508.00 3451.60 59.00
5584 35.5980 3413.00 3448.31 58.00
5585 35.6040 3338.00 3447.27 58.00
5586 35.6100 3317.00 3449.56 58.00
5587 35.6160 3357.00 3463.47 58.00
5588 35.6220 3406.00 3496.65 58.00
5589 35.6280 3459.00 3549.38 59.00
5590 35.6340 3518.00 3620.90 59.00
5591 35.6400 3502.00 3688.55 59.00
5592 35.6460 3500.00 3732.71 59.00
5593 35.6520 3508.00 3740.07 59.00
5594 35.6580 3497.00 3718.50 59.00
5595 35.6640 3472.00 3684.79 59.00
5596 35.6700 3421.00 3648.56 58.00
5597 35.6760 3436.00 3605.97 59.00
5598 35.6820 3431.00 3557.71 59.00
5599 35.6880 3424.00 3509.42 59.00
5600 35.6940 3453.00 3468.25 59.00
5601 35.7000 3415.00 3433.66 58.00
5602 35.7060 3327.00 3401.73 58.00
5603 35.7120 3359.00 3364.27 58.00
5604 35.7180 3331.00 3317.71 58.00
5605 35.7240 3205.00 3261.43 57.00
5606 35.7300 3183.00 3204.89 56.00
5607 35.7360 3133.00 3154.32 56.00
5608 35.7420 3089.00 3112.52 56.00
5609 35.7480 3013.00 3079.90 55.00
5610 35.7540 2971.00 3055.60 55.00
5611 35.7600 2941.00 3038.23 54.00
5612 35.7660 2947.00 3026.22 54.00
5613 35.7720 2938.00 3018.16 54.00
5614 35.7780 2945.00 3012.93 54.00
5615 35.7840 2952.00 3009.36 54.00
5616 35.7900 3001.00 3008.09 55.00
5617 35.7960 2971.00 3005.41 55.00
5618 35.8020 2937.00 3003.77 54.00
5619 35.8080 2956.00 3002.82 54.00
5620 35.8140 2942.00 3002.48 54.00
5621 35.8200 2961.00 3002.68 54.00
5622 35.8260 2996.00 3003.41 55.00
5623 35.8320 2998.00 3004.23 55.00
5624 35.8380 2976.00 3005.66 55.00
5625 35.8440 3052.00 3007.93 55.00
5626 35.8500 3127.00 3010.74 56.00
5627 35.8560 3144.00 3015.50 56.00
5628 35.8620 3150.00 3019.17 56.00
5629 35.8680 3154.00 3023.94 56.00
5630 35.8740 3204.00 3029.50 57.00
5631 35.8800 3232.00 3035.97 57.00
5632 35.8860 3245.00 3043.50 57.00
5633 35.8920 3266.00 3052.29 57.00
5634 35.8980 3188.00 3062.65 56.00
5635 35.9040 3352.00 3074.87 58.00
5636 35.9100 3326.00 3089.88 58.00
5637 35.9160 3258.00 3110.60 57.00
5638 35.9220 3243.00 3134.49 57.00
5639 35.9280 3339.00 3165.03 58.00
5640 35.9340 3431.00 3206.51 59.00
5641 35.9400 3554.00 3261.86 60.00
5642 35.9460 3654.00 3337.17 60.00
5643 35.9520 3781.00 3431.77 61.00
5644 35.9580 3847.00 3550.38 62.00
5645 35.9640 3864.00 3693.04 62.00
5646 35.9700 3939.00 3854.66 63.00
5647 35.9760 4059.00 4022.90 64.00
5648 35.9820 4174.00 4183.79 65.00
5649 35.9880 4632.00 4334.92 68.00
5650 35.9940 4952.00 4497.04 70.00
5651 36.0000 5219.00 4693.70 72.00
5652 36.0060 5447.00 4932.61 74.00
5653 36.0120 5555.00 5189.27 75.00
5654 36.0180 5838.00 5418.02 76.00
5655 36.0240 5822.00 5580.71 76.00
5656 36.0300 5984.00 5669.87 77.00
5657 36.0360 5954.00 5686.49 77.00
5658 36.0420 5900.00 5620.88 77.00
5659 36.0480 5707.00 5463.52 76.00
5660 36.0540 5355.00 5231.03 73.00
5661 36.0600 5092.00 4970.36 71.00
5662 36.0660 4843.00 4735.77 70.00
5663 36.0720 4704.00 4553.37 69.00
5664 36.0780 4474.00 4423.31 67.00
5665 36.0840 4330.00 4328.65 66.00
5666 36.0900 4324.00 4254.97 66.00
5667 36.0960 4273.00 4202.44 65.00
5668 36.1020 4115.00 4173.07 64.00
5669 36.1080 4007.00 4162.11 63.00
5670 36.1140 3922.00 4160.37 63.00
5671 36.1200 3923.00 4158.84 63.00
5672 36.1260 3885.00 4147.49 62.00
5673 36.1320 3875.00 4106.35 62.00
5674 36.1380 3783.00 4021.33 62.00
5675 36.1440 3855.00 3896.75 62.00
5676 36.1500 3838.00 3757.69 62.00
5677 36.1560 3743.00 3627.54 61.00
5678 36.1620 3564.00 3519.57 60.00
5679 36.1680 3497.00 3439.12 59.00
5680 36.1740 3483.00 3386.99 59.00
5681 36.1800 3395.00 3359.93 58.00
5682 36.1860 3282.00 3354.06 57.00
5683 36.1920 3288.00 3363.43 57.00
5684 36.1980 3270.00 3379.93 57.00
5685 36.2040 3302.00 3393.38 57.00
5686 36.2100 3359.00 3395.30 58.00
5687 36.2160 3309.00 3385.15 58.00
5688 36.2220 3399.00 3371.10 58.00
5689 36.2280 3405.00 3363.74 58.00
5690 36.2340 3368.00 3371.23 58.00
5691 36.2400 3355.00 3398.41 58.00
5692 36.2460 3463.00 3446.93 59.00
5693 36.2520 3516.00 3515.02 59.00
5694 36.2580 3614.00 3595.87 60.00
5695 36.2640 3597.00 3675.62 60.00
5696 36.2700 3652.00 3734.34 60.00
5697 36.2760 3667.00 3757.07 61.00
5698 36.2820 3634.00 3747.68 60.00
5699 36.2880 3720.00 3729.82 61.00
5700 36.2940 3800.00 3729.84 62.00
5701 36.3000 3749.00 3767.30 61.00
5702 36.3060 3951.00 3853.78 63.00
5703 36.3120 4174.00 3993.30 65.00
5704 36.3180 4408.00 4180.73 66.00
5705 36.3240 4737.00 4397.32 69.00
5706 36.3300 4978.00 4606.09 71.00
5707 36.3360 4941.00 4759.10 70.00
5708 36.3420 4834.00 4827.20 70.00
5709 36.3480 4947.00 4822.20 70.00
5710 36.3540 4871.00 4776.23 70.00
5711 36.3600 4744.00 4705.06 69.00
5712 36.3660 4504.00 4602.33 67.00
5713 36.3720 4322.00 4463.03 66.00
5714 36.3780 4063.00 4304.60 64.00
5715 36.3840 3857.00 4154.44 62.00
5716 36.3900 3725.00 4029.59 61.00
5717 36.3960 3568.00 3928.78 60.00
5718 36.4020 3532.00 3835.95 59.00
5719 36.4080 3536.00 3739.20 59.00
5720 36.4140 3373.00 3634.86 58.00
5721 36.4200 3288.00 3531.56 57.00
5722 36.4260 3198.00 3438.12 57.00
5723 36.4320 3241.00 3359.03 57.00
5724 36.4380 3080.00 3292.59 55.00
5725 36.4440 3131.00 3244.77 56.00
5726 36.4500 3088.00 3211.14 56.00
5727 36.4560 2991.00 3187.10 55.00
5728 36.4620 3101.00 3176.49 56.00
5729 36.4680 3227.00 3173.72 57.00
5730 36.4740 3171.00 3183.48 56.00
5731 36.4800 3107.00 3201.40 56.00
5732 36.4860 3078.00 3225.18 55.00
5733 36.4920 3039.00 3251.17 55.00
5734 36.4980 3153.00 3275.71 56.00
5735 36.5040 3184.00 3296.34 56.00
5736 36.5100 3209.00 3319.25 57.00
5737 36.5160 3215.00 3347.89 57.00
5738 36.5220 3244.00 3382.67 57.00
5739 36.5280 3357.00 3418.11 58.00
5740 36.5340 3323.00 3444.17 58.00
5741 36.5400 3319.00 3456.74 58.00
5742 36.5460 3415.00 3457.71 58.00
5743 36.5520 3402.00 3452.05 58.00
5744 36.5580 3399.00 3437.63 58.00
5745 36.5640 3369.00 3413.10 58.00
5746 36.5700 3261.00 3376.42 57.00
5747 36.5760 3269.00 3334.65 57.00
5748 36.5820 3225.00 3295.90 57.00
5749 36.5880 3197.00 3263.09 57.00
5750 36.5940 3248.00 3233.04 57.00
5751 36.6000 3095.00 3199.90 56.00
5752 36.6060 3184.00 3160.82 56.00
5753 36.6120 3108.00 3118.48 56.00
5754 36.6180 3078.00 3077.68 55.00
5755 36.6240 3044.00 3041.82 55.00
5756 36.6300 3109.00 3011.83 56.00
5757 36.6360 3071.00 2989.12 55.00
5758 36.6420 3000.00 2975.18 55.00
5759 36.6480 2940.00 2965.41 54.00
5760 36.6540 2958.00 2961.21 54.00
5761 36.6600 3020.00 2962.56 55.00
5762 36.6660 2978.00 2969.18 55.00
5763 36.6720 3003.00 2980.55 55.00
5764 36.6780 3008.00 2995.50 55.00
5765 36.6840 3038.00 3011.53 55.00
5766 36.6900 2942.00 3024.33 54.00
5767 36.6960 2930.00 3027.01 54.00
5768 36.7020 2919.00 3018.82 54.00
5769 36.7080 2972.00 3000.19 55.00
5770 36.7140 2916.00 2976.37 54.00
5771 36.7200 2943.00 2952.25 54.00
5772 36.7260 2989.00 2930.77 55.00
5773 36.7320 2900.00 2913.36 54.00
5774 36.7380 2920.00 2900.48 54.00
5775 36.7440 2920.00 2892.23 54.00
5776 36.7500 2829.00 2891.05 53.00
5777 36.7560 2948.00 2894.17 54.00
5778 36.7620 2917.00 2898.33 54.00
5779 36.7680 3020.00 2909.34 55.00
5780 36.7740 3069.00 2924.02 55.00
5781 36.7800 3021.00 2938.91 55.00
5782 36.7860 2953.00 2951.07 54.00
5783 36.7920 3036.00 2956.01 55.00
5784 36.7980 2985.00 2953.27 55.00
5785 36.8040 2933.00 2942.15 54.00
5786 36.8100 2895.00 2926.48 54.00
5787 36.8160 2962.00 2910.04 54.00
5788 36.8220 2858.00 2895.20 53.00
5789 36.8280 2845.00 2881.96 53.00
5790 36.8340 2871.00 2872.63 54.00
5791 36.8400 2900.00 2865.99 54.00
5792 36.8460 2931.00 2861.68 54.00
5793 36.8520 2853.00 2859.24 53.00
5794 36.8580 2876.00 2858.44 54.00
5795 36.8640 2865.00 2859.08 54.00
5796 36.8700 2846.00 2862.35 53.00
5797 36.8760 2948.00 2866.20 54.00
5798 36.8820 2884.00 2872.10 54.00
5799 36.8880 2835.00 2880.47 53.00
5800 36.8940 2944.00 2891.64 54.00
5801 36.9000 2842.00 2905.66 53.00
5802 36.9060 2810.00 2922.06 53.00
5803 36.9120 2895.00 2939.43 54.00
5804 36.9180 2948.00 2955.04 54.00
5805 36.9240 2919.00 2964.95 54.00
5806 36.9300 3080.00 2967.48 55.00
5807 36.9360 2975.00 2962.82 55.00
5808 36.9420 2958.00 2953.47 54.00
5809 36.9480 3064.00 2943.08 55.00
5810 36.9540 3010.00 2932.45 55.00
5811 36.9600 3012.00 2923.46 55.00
5812 36.9660 2908.00 2919.45 54.00
5813 36.9720 2963.00 2917.46 54.00
5814 36.9780 3010.00 2918.05 55.00
5815 36.9840 3044.00 2920.49 55.00
5816 36.9900 2987.00 2923.88 55.00
5817 36.9960 3014.00 2930.27 55.00
5818 37.0020 3169.00 2940.46 56.00
5819 37.0080 3066.00 2956.48 55.00
5820 37.0140 3029.00 2981.05 55.00
5821 37.0200 3032.00 3017.63 55.00
5822 37.0260 3267.00 3069.87 57.00
5823 37.0320 3168.00 3142.66 56.00
5824 37.0380 3328.00 3238.57 58.00
5825 37.0440 3473.00 3358.23 59.00
5826 37.0500 3670.00 3497.32 61.00
5827 37.0560 4121.00 3643.28 64.00
5828 37.0620 4134.00 3771.52 64.00
5829 37.0680 4143.00 3847.79 64.00
5830 37.0740 4089.00 3845.32 64.00
5831 37.0800 3797.00 3765.79 62.00
5832 37.0860 3587.00 3637.83 60.00
5833 37.0920 3344.00 3494.84 58.00
5834 37.0980 3261.00 3360.14 57.00
5835 37.1040 3241.00 3245.11 57.00
5836 37.1100 3139.00 3153.20 56.00
5837 37.1160 3091.00 3083.51 56.00
5838 37.1220 2896.00 3033.07 54.00
5839 37.1280 3074.00 2998.02 55.00
5840 37.1340 3040.00 2975.47 55.00
5841 37.1400 2945.00 2962.44 54.00
5842 37.1460 3021.00 2957.27 55.00
5843 37.1520 3002.00 2959.35 55.00
5844 37.1580 2973.00 2968.98 55.00
5845 37.1640 2986.00 2986.94 55.00
5846 37.1700 3081.00 3014.07 56.00
5847 37.1760 3171.00 3050.72 56.00
5848 37.1820 3202.00 3095.87 57.00
5849 37.1880 3104.00 3146.21 56.00
5850 37.1940 3088.00 3194.28 56.00
5851 37.2000 3170.00 3229.09 56.00
5852 37.2060 3150.00 3237.58 56.00
5853 37.2120 3014.00 3217.30 55.00
5854 37.2180 3015.00 3176.99 55.00
5855 37.2240 3024.00 3129.32 55.00
5856 37.2300 3027.00 3084.94 55.00
5857 37.2360 3253.00 3049.38 57.00
5858 37.2420 2991.00 3025.58 55.00
5859 37.2480 3131.00 3015.00 56.00
5860 37.2540 3199.00 3018.43 57.00
5861 37.2600 3190.00 3036.34 56.00
5862 37.2660 3153.00 3068.98 56.00
5863 37.2720 3194.00 3117.70 57.00
5864 37.2780 3325.00 3177.90 58.00
5865 37.2840 3246.00 3243.75 57.00
5866 37.2900 3306.00 3306.33 57.00
5867 37.2960 3320.00 3350.09 58.00
5868 37.3020 3428.00 3360.27 59.00
5869 37.3080 3301.00 3334.42 57.00
5870 37.3140 3382.00 3285.06 58.00
5871 37.3200 3384.00 3229.62 58.00
5872 37.3260 3236.00 3184.78 57.00
5873 37.3320 3211.00 3152.37 57.00
5874 37.3380 3193.00 3140.14 57.00
5875 37.3440 3220.00 3150.54 57.00
5876 37.3500 3145.00 3184.43 56.00
5877 37.3560 3215.00 3241.06 57.00
5878 37.3620 3283.00 3316.69 57.00
5879 37.3680 3507.00 3403.52 59.00
5880 37.3740 3700.00 3488.32 61.00
5881 37.3800 3772.00 3556.08 61.00
5882 37.3860 3783.00 3595.95 62.00
5883 37.3920 3801.00 3601.90 62.00
5884 37.3980 3682.00 3569.04 61.00
5885 37.4040 3540.00 3498.41 59.00
5886 37.4100 3329.00 3403.50 58.00
5887 37.4160 3145.00 3301.48 56.00
5888 37.4220 3108.00 3206.64 56.00
5889 37.4280 3141.00 3126.02 56.00
5890 37.4340 3001.00 3061.55 55.00
5891 37.4400 3010.00 3012.23 55.00
5892 37.4460 3080.00 2975.82 55.00
5893 37.4520 2963.00 2949.59 54.00
5894 37.4580 2843.00 2930.91 53.00
5895 37.4640 2856.00 2917.59 53.00
5896 37.4700 2866.00 2907.97 54.00
5897 37.4760 2950.00 2900.88 54.00
5898 37.4820 2867.00 2895.59 54.00
5899 37.4880 2942.00 2891.59 54.00
5900 37.4940 2949.00 2888.59 54.00
5901 37.5000 2817.00 2885.69 53.00
5902 37.5060 2813.00 2883.47 53.00
5903 37.5120 2863.00 2883.18 54.00
5904 37.5180 2949.00 2883.87 54.00
5905 37.5240 2941.00 2885.11 54.00
5906 37.5300 2974.00 2886.90 55.00
5907 37.5360 2868.00 2889.84 54.00
5908 37.5420 2886.00 2892.80 54.00
5909 37.5480 2934.00 2896.48 54.00
5910 37.5540 2869.00 2900.98 54.00
5911 37.5600 2967.00 2907.13 54.00
5912 37.5660 2965.00 2914.07 54.00
5913 37.5720 2992.00 2922.89 55.00
5914 37.5780 2961.00 2934.32 54.00
5915 37.5840 3010.00 2949.32 55.00
5916 37.5900 3019.00 2968.99 55.00
5917 37.5960 3071.00 2994.91 55.00
5918 37.6020 3216.00 3027.19 57.00
5919 37.6080 3080.00 3066.54 55.00
5920 37.6140 3375.00 3112.06 58.00
5921 37.6200 3355.00 3161.06 58.00
5922 37.6260 3415.00 3208.41 58.00
5923 37.6320 3498.00 3246.93 59.00
5924 37.6380 3449.00 3269.28 59.00
5925 37.6440 3393.00 3276.71 58.00
5926 37.6500 3343.00 3276.42 58.00
5927 37.6560 3267.00 3280.97 57.00
5928 37.6620 3298.00 3302.19 57.00
5929 37.6680 3453.00 3349.36 59.00
5930 37.6740 3410.00 3429.19 58.00
5931 37.6800 3530.00 3545.56 59.00
5932 37.6860 3784.00 3698.28 62.00
5933 37.6920 4147.00 3880.85 64.00
5934 37.6980 4314.00 4076.62 66.00
5935 37.7040 4619.00 4254.70 68.00
5936 37.7100 4674.00 4376.70 68.00
5937 37.7160 4590.00 4417.23 68.00
5938 37.7220 4352.00 4388.03 66.00
5939 37.7280 4201.00 4330.58 65.00
5940 37.7340 4242.00 4288.16 65.00
5941 37.7400 4448.00 4286.00 67.00
5942 37.7460 4629.00 4331.68 68.00
5943 37.7520 4698.00 4408.33 69.00
5944 37.7580 4902.00 4479.21 70.00
5945 37.7640 4875.00 4496.92 70.00
5946 37.7700 4718.00 4431.67 69.00
5947 37.7760 4368.00 4292.39 66.00
5948 37.7820 4076.00 4114.81 64.00
5949 37.7880 3910.00 3931.82 63.00
5950 37.7940 3787.00 3762.08 62.00
5951 37.8000 3645.00 3615.51 60.00
5952 37.8060 3596.00 3498.41 60.00
5953 37.8120 3668.00 3414.03 61.00
5954 37.8180 3690.00 3361.08 61.00
5955 37.8240 3603.00 3337.54 60.00
5956 37.8300 3450.00 3336.49 59.00
5957 37.8360 3540.00 3348.13 59.00
5958 37.8420 3414.00 3363.12 58.00
5959 37.8480 3422.00 3366.92 58.00
5960 37.8540 3312.00 3350.48 58.00
5961 37.8600 3340.00 3313.80 58.00
5962 37.8660 3344.00 3265.78 58.00
5963 37.8720 3361.00 3216.00 58.00
5964 37.8780 3285.00 3172.06 57.00
5965 37.8840 3269.00 3138.08 57.00
5966 37.8900 3174.00 3116.20 56.00
5967 37.8960 3259.00 3107.54 57.00
5968 37.9020 3151.00 3111.90 56.00
5969 37.9080 3210.00 3129.30 57.00
5970 37.9140 3145.00 3159.04 56.00
5971 37.9200 3175.00 3199.54 56.00
5972 37.9260 3184.00 3247.55 56.00
5973 37.9320 3224.00 3297.02 57.00
5974 37.9380 3230.00 3339.54 57.00
5975 37.9440 3228.00 3368.49 57.00
5976 37.9500 3190.00 3384.34 56.00
5977 37.9560 3258.00 3393.85 57.00
5978 37.9620 3366.00 3403.23 58.00
5979 37.9680 3201.00 3413.05 57.00
5980 37.9740 3331.00 3419.31 58.00
5981 37.9800 3230.00 3419.61 57.00
5982 37.9860 3223.00 3414.48 57.00
5983 37.9920 3286.00 3406.50 57.00
5984 37.9980 3295.00 3393.89 57.00
5985 38.0040 3237.00 3372.95 57.00
5986 38.0100 3312.00 3344.05 58.00
5987 38.0160 3141.00 3312.49 56.00
5988 38.0220 3188.00 3283.39 56.00
5989 38.0280 3135.00 3257.29 56.00
5990 38.0340 3058.00 3230.54 55.00
5991 38.0400 3099.00 3198.64 56.00
5992 38.0460 3202.00 3161.30 57.00
5993 38.0520 3163.00 3122.18 56.00
5994 38.0580 3053.00 3085.93 55.00
5995 38.0640 2980.00 3053.88 55.00
5996 38.0700 2936.00 3027.58 54.00
5997 38.0760 2972.00 3006.62 55.00
5998 38.0820 2909.00 2990.38 54.00
5999 38.0880 2857.00 2978.62 53.00
6000 38.0940 2886.00 2970.05 54.00
6001 38.1000 2872.00 2963.88 54.00
6002 38.1060 2882.00 2959.46 54.00
6003 38.1120 2898.00 2956.32 54.00
6004 38.1180 2946.00 2954.13 54.00
6005 38.1240 2916.00 2952.67 54.00
6006 38.1300 2937.00 2951.84 54.00
6007 38.1360 2836.00 2951.12 53.00
6008 38.1420 2911.00 2951.01 54.00
6009 38.1480 2929.00 2951.59 54.00
6010 38.1540 2873.00 2951.19 54.00
6011 38.1600 2858.00 2952.61 53.00
6012 38.1660 2961.00 2956.75 54.00
6013 38.1720 2964.00 2963.99 54.00
6014 38.1780 2988.00 2972.23 55.00
6015 38.1840 3072.00 2982.90 55.00
6016 38.1900 2997.00 2995.93 55.00
6017 38.1960 3020.00 3010.74 55.00
6018 38.2020 2973.00 3025.85 55.00
6019 38.2080 3037.00 3035.47 55.00
6020 38.2140 3075.00 3042.70 55.00
6021 38.2200 3009.00 3042.25 55.00
6022 38.2260 2975.00 3035.18 55.00
6023 38.2320 3058.00 3024.86 55.00
6024 38.2380 2975.00 3014.38 55.00
6025 38.2440 2973.00 3006.82 55.00
6026 38.2500 3010.00 3003.35 55.00
6027 38.2560 3055.00 3004.92 55.00
6028 38.2620 3080.00 3012.09 55.00
6029 38.2680 2993.00 3026.56 55.00
6030 38.2740 3106.00 3045.38 56.00
6031 38.2800 3075.00 3068.78 55.00
6032 38.2860 3112.00 3094.87 56.00
6033 38.2920 3162.00 3119.49 56.00
6034 38.2980 3202.00 3139.10 57.00
6035 38.3040 3243.00 3149.79 57.00
6036 38.3100 3205.00 3150.47 57.00
6037 38.3160 3113.00 3143.67 56.00
6038 38.3220 3228.00 3133.66 57.00
6039 38.3280 3173.00 3125.64 56.00
6040 38.3340 3062.00 3116.48 55.00
6041 38.3400 3059.00 3106.39 55.00
6042 38.3460 3055.00 3093.47 55.00
6043 38.3520 3052.00 3077.85 55.00
6044 38.3580 2985.00 3061.82 55.00
6045 38.3640 2956.00 3048.05 54.00
6046 38.3700 2974.00 3038.45 55.00
6047 38.3760 2971.00 3032.82 55.00
6048 38.3820 2989.00 3032.98 55.00
6049 38.3880 2991.00 3039.57 55.00
6050 38.3940 3004.00 3053.16 55.00
6051 38.4000 2978.00 3073.52 55.00
6052 38.4060 2991.00 3099.71 55.00
6053 38.4120 3030.00 3126.14 55.00
6054 38.4180 3058.00 3149.05 55.00
6055 38.4240 3063.00 3163.22 55.00
6056 38.4300 3094.00 3163.64 56.00
6057 38.4360 3104.00 3152.93 56.00
6058 38.4420 3012.00 3134.42 55.00
6059 38.4480 3004.00 3115.61 55.00
6060 38.4540 3092.00 3102.43 56.00
6061 38.4600 3143.00 3098.18 56.00
6062 38.4660 3212.00 3101.10 57.00
6063 38.4720 3177.00 3111.91 56.00
6064 38.4780 3117.00 3128.91 56.00
6065 38.4840 3154.00 3149.64 56.00
6066 38.4900 3165.00 3172.79 56.00
6067 38.4960 3207.00 3195.13 57.00
6068 38.5020 3285.00 3209.93 57.00
6069 38.5080 3210.00 3211.03 57.00
6070 38.5140 3128.00 3195.75 56.00
6071 38.5200 3110.00 3168.08 56.00
6072 38.5260 3070.00 3135.27 55.00
6073 38.5320 3019.00 3103.67 55.00
6074 38.5380 3040.00 3076.41 55.00
6075 38.5440 3049.00 3055.37 55.00
6076 38.5500 3067.00 3041.25 55.00
6077 38.5560 3115.00 3034.37 56.00
6078 38.5620 3112.00 3035.73 56.00
6079 38.5680 3040.00 3044.49 55.00
6080 38.5740 3128.00 3062.30 56.00
6081 38.5800 3260.00 3090.41 57.00
6082 38.5860 3325.00 3130.00 58.00
6083 38.5920 3415.00 3181.74 58.00
6084 38.5980 3437.00 3246.62 59.00
6085 38.6040 3376.00 3317.74 58.00
6086 38.6100 3372.00 3389.23 58.00
6087 38.6160 3387.00 3447.86 58.00
6088 38.6220 3469.00 3477.53 59.00
6089 38.6280 3477.00 3468.80 59.00
6090 38.6340 3334.00 3427.05 58.00
6091 38.6400 3233.00 3370.16 57.00
6092 38.6460 3306.00 3309.68 57.00
6093 38.6520 3382.00 3258.25 58.00
6094 38.6580 3370.00 3221.99 58.00
6095 38.6640 3415.00 3204.79 58.00
6096 38.6700 3441.00 3207.67 59.00
6097 38.6760 3454.00 3232.78 59.00
6098 38.6820 3500.00 3280.61 59.00
6099 38.6880 3671.00 3346.77 61.00
6100 38.6940 3736.00 3429.87 61.00
6101 38.7000 3815.00 3524.65 62.00
6102 38.7060 3913.00 3614.84 63.00
6103 38.7120 3921.00 3683.93 63.00
6104 38.7180 4050.00 3715.92 64.00
6105 38.7240 4103.00 3709.83 64.00
6106 38.7300 4097.00 3680.76 64.00
6107 38.7360 4049.00 3651.32 64.00
6108 38.7420 3989.00 3639.18 63.00
6109 38.7480 3958.00 3653.42 63.00
6110 38.7540 3885.00 3695.38 62.00
6111 38.7600 3901.00 3756.87 62.00
6112 38.7660 3897.00 3821.01 62.00
6113 38.7720 3848.00 3862.25 62.00
6114 38.7780 3921.00 3858.66 63.00
6115 38.7840 3901.00 3807.75 62.00
6116 38.7900 3838.00 3728.16 62.00
6117 38.7960 3885.00 3644.93 62.00
6118 38.8020 3976.00 3579.07 63.00
6119 38.8080 4013.00 3542.13 63.00
6120 38.8140 4028.00 3542.07 63.00
6121 38.8200 4084.00 3582.48 64.00
6122 38.8260 4116.00 3663.56 64.00
6123 38.8320 4159.00 3781.39 64.00
6124 38.8380 4241.00 3926.14 65.00
6125 38.8440 4319.00 4079.43 66.00
6126 38.8500 4343.00 4213.99 66.00
6127 38.8560 4391.00 4304.41 66.00
6128 38.8620 4629.00 4342.41 68.00
6129 38.8680 4727.00 4342.58 69.00
6130 38.8740 4527.00 4325.81 67.00
6131 38.8800 4455.00 4301.68 67.00
6132 38.8860 4584.00 4267.50 68.00
6133 38.8920 4789.00 4220.63 69.00
6134 38.8980 4863.00 4165.40 70.00
6135 38.9040 4846.00 4105.77 70.00
6136 38.9100 4606.00 4037.42 68.00
6137 38.9160 4290.00 3953.74 65.00
6138 38.9220 4080.00 3857.23 64.00
6139 38.9280 3851.00 3759.58 62.00
6140 38.9340 3640.00 3671.62 60.00
6141 38.9400 3484.00 3596.94 59.00
6142 38.9460 3453.00 3532.65 59.00
6143 38.9520 3455.00 3475.80 59.00
6144 38.9580 3433.00 3426.78 59.00
6145 38.9640 3435.00 3390.71 59.00
6146 38.9700 3464.00 3370.38 59.00
6147 38.9760 3402.00 3366.75 58.00
6148 38.9820 3364.00 3378.60 58.00
6149 38.9880 3435.00 3404.12 59.00
6150 38.9940 3529.00 3442.80 59.00
6151 39.0000 3560.00 3495.38 60.00
6152 39.0060 3512.00 3561.04 59.00
6153 39.0120 3617.00 3635.57 60.00
6154 39.0180 3782.00 3712.86 61.00
6155 39.0240 3823.00 3790.00 62.00
6156 39.0300 3880.00 3868.70 62.00
6157 39.0360 3922.00 3948.58 63.00
6158 39.0420 3880.00 4020.78 62.00
6159 39.0480 3854.00 4070.71 62.00
6160 39.0540 3784.00 4091.73 62.00
6161 39.0600 3773.00 4096.07 61.00
6162 39.0660 3867.00 4106.63 62.00
6163 39.0720 3969.00 4143.48 63.00
6164 39.0780 4167.00 4213.25 65.00
6165 39.0840 4228.00 4312.16 65.00
6166 39.0900 4319.00 4420.46 66.00
6167 39.0960 4580.00 4517.32 68.00
6168 39.1020 4584.00 4595.84 68.00
6169 39.1080 4550.00 4667.12 67.00
6170 39.1140 4683.00 4744.96 68.00
6171 39.1200 4862.00 4831.78 70.00
6172 39.1260 5138.00 4915.96 72.00
6173 39.1320 5241.00 4974.93 72.00
6174 39.1380 5101.00 4983.26 71.00
6175 39.1440 4935.00 4928.21 70.00
6176 39.1500 4770.00 4814.45 69.00
6177 39.1560 4465.00 4651.89 67.00
6178 39.1620 4068.00 4452.61 64.00
6179 39.1680 3926.00 4233.81 63.00
6180 39.1740 3724.00 4019.41 61.00
6181 39.1800 3593.00 3821.88 60.00
6182 39.1860 3511.00 3647.25 59.00
6183 39.1920 3357.00 3497.47 58.00
6184 39.1980 3264.00 3374.14 57.00
6185 39.2040 3242.00 3276.50 57.00
6186 39.2100 3186.00 3202.93 56.00
6187 39.2160 3131.00 3150.64 56.00
6188 39.2220 3020.00 3116.52 55.00
6189 39.2280 3099.00 3097.59 56.00
6190 39.2340 3097.00 3089.12 56.00
6191 39.2400 3011.00 3091.63 55.00
6192 39.2460 3030.00 3099.12 55.00
6193 39.2520 3046.00 3106.03 55.00
6194 39.2580 3059.00 3105.88 55.00
6195 39.2640 3064.00 3094.25 55.00
6196 39.2700 3004.00 3071.90 55.00
6197 39.2760 2991.00 3043.89 55.00
6198 39.2820 3014.00 3016.07 55.00
6199 39.2880 2984.00 2992.65 55.00
6200 39.2940 3066.00 2976.12 55.00
6201 39.3000 3028.00 2967.79 55.00
6202 39.3060 2932.00 2967.35 54.00
6203 39.3120 2947.00 2974.00 54.00
6204 39.3180 3009.00 2989.05 55.00
6205 39.3240 2950.00 3008.73 54.00
6206 39.3300 3041.00 3027.14 55.00
6207 39.3360 3109.00 3039.88 56.00
6208 39.3420 3090.00 3038.05 56.00
6209 39.3480 3038.00 3024.68 55.00
6210 39.3540 3011.00 3002.77 55.00
6211 39.3600 2965.00 2978.44 54.00
6212 39.3660 3011.00 2956.34 55.00
6213 39.3720 3024.00 2937.57 55.00
6214 39.3780 2959.00 2925.22 54.00
6215 39.3840 2983.00 2916.90 55.00
6216 39.3900 2968.00 2910.35 54.00
6217 39.3960 2902.00 2902.91 54.00
6218 39.4020 2900.00 2892.89 54.00
6219 39.4080 2911.00 2880.02 54.00
6220 39.4140 2914.00 2866.80 54.00
6221 39.4200 2924.00 2854.64 54.00
6222 39.4260 2895.00 2844.30 54.00
6223 39.4320 2825.00 2836.47 53.00
6224 39.4380 2863.00 2831.20 54.00
6225 39.4440 3020.00 2827.92 55.00
6226 39.4500 2891.00 2826.76 54.00
6227 39.4560 2871.00 2826.03 54.00
6228 39.4620 2906.00 2825.35 54.00
6229 39.4680 2964.00 2824.69 54.00
6230 39.4740 2869.00 2824.45 54.00
6231 39.4800 2908.00 2826.47 54.00
6232 39.4860 2868.00 2831.17 54.00
6233 39.4920 2858.00 2838.93 53.00
6234 39.4980 2882.00 2849.59 54.00
6235 39.5040 2910.00 2862.22 54.00
6236 39.5100 2910.00 2873.32 54.00
6237 39.5160 2827.00 2882.78 53.00
6238 39.5220 2915.00 2885.60 54.00
6239 39.5280 2905.00 2880.23 54.00
6240 39.5340 2939.00 2868.31 54.00
6241 39.5400 2812.00 2853.31 53.00
6242 39.5460 2734.00 2838.46 52.00
6243 39.5520 2902.00 2823.81 54.00
6244 39.5580 2884.00 2814.78 54.00
6245 39.5640 2848.00 2809.91 53.00
6246 39.5700 2871.00 2809.51 54.00
6247 39.5760 2927.00 2812.95 54.00
6248 39.5820 3019.00 2821.44 55.00
6249 39.5880 2953.00 2834.40 54.00
6250 39.5940 2818.00 2849.44 53.00
6251 39.6000 2894.00 2863.98 54.00
6252 39.6060 2943.00 2878.92 54.00
6253 39.6120 2908.00 2889.22 54.00
6254 39.6180 2959.00 2891.77 54.00
6255 39.6240 2984.00 2891.56 55.00
6256 39.6300 2962.00 2890.31 54.00
6257 39.6360 2911.00 2890.98 54.00
6258 39.6420 2908.00 2894.40 54.00
6259 39.6480 3011.00 2900.38 55.00
6260 39.6540 2939.00 2906.53 54.00
6261 39.6600 3069.00 2906.82 55.00
6262 39.6660 2942.00 2899.19 54.00
6263 39.6720 2883.00 2884.17 54.00
6264 39.6780 2915.00 2865.11 54.00
6265 39.6840 2852.00 2845.66 53.00
6266 39.6900 2844.00 2828.31 53.00
6267 39.6960 2856.00 2814.41 53.00
6268 39.7020 2848.00 2804.55 53.00
6269 39.7080 2783.00 2798.97 53.00
6270 39.7140 2746.00 2797.83 52.00
6271 39.7200 2820.00 2800.73 53.00
6272 39.7260 2850.00 2810.40 53.00
6273 39.7320 2829.00 2825.74 53.00
6274 39.7380 2798.00 2849.25 53.00
6275 39.7440 2865.00 2882.92 54.00
6276 39.7500 3016.00 2928.71 55.00
6277 39.7560 3025.00 2988.09 55.00
6278 39.7620 3168.00 3061.22 56.00
6279 39.7680 3422.00 3145.80 58.00
6280 39.7740 3530.00 3235.54 59.00
6281 39.7800 3691.00 3319.09 61.00
6282 39.7860 3625.00 3380.78 60.00
6283 39.7920 3615.00 3406.32 60.00
6284 39.7980 3664.00 3387.22 61.00
6285 39.8040 3299.00 3328.23 57.00
6286 39.8100 3215.00 3245.17 57.00
6287 39.8160 3142.00 3154.54 56.00
6288 39.8220 2956.00 3068.99 54.00
6289 39.8280 2908.00 2995.40 54.00
6290 39.8340 2886.00 2936.62 54.00
6291 39.8400 2938.00 2892.89 54.00
6292 39.8460 2906.00 2863.07 54.00
6293 39.8520 2850.00 2845.34 53.00
6294 39.8580 2918.00 2837.52 54.00
6295 39.8640 2947.00 2837.67 54.00
6296 39.8700 2869.00 2843.60 54.00
6297 39.8760 2917.00 2852.96 54.00
6298 39.8820 2835.00 2863.71 53.00
6299 39.8880 3024.00 2874.97 55.00
6300 39.8940 2957.00 2887.28 54.00
6301 39.9000 2953.00 2901.38 54.00
6302 39.9060 2911.00 2916.68 54.00
6303 39.9120 2813.00 2930.91 53.00
6304 39.9180 2959.00 2941.49 54.00
6305 39.9240 3022.00 2947.51 55.00
6306 39.9300 2938.00 2949.82 54.00
6307 39.9360 3023.00 2948.55 55.00
6308 39.9420 2897.00 2942.75 54.00
6309 39.9480 3046.00 2932.20 55.00
6310 39.9540 2945.00 2918.79 54.00
6311 39.9600 2914.00 2905.08 54.00
6312 39.9660 2917.00 2892.24 54.00
6313 39.9720 2817.00 2879.44 53.00
6314 39.9780 2910.00 2865.33 54.00
6315 39.9840 2913.00 2850.08 54.00
6316 39.9900 3042.00 2835.70 55.00
6317 39.9960 2951.00 2825.60 54.00
6318 40.0020 2834.00 2822.15 53.00
6319 40.0080 2936.00 2827.82 54.00
6320 40.0140 2887.00 2843.30 54.00
6321 40.0200 2966.00 2870.11 54.00
6322 40.0260 2948.00 2908.64 54.00
6323 40.0320 3056.00 2958.11 55.00
6324 40.0380 3168.00 3015.78 56.00
6325 40.0440 3310.00 3076.05 58.00
6326 40.0500 3181.00 3129.91 56.00
6327 40.0560 3221.00 3165.20 57.00
6328 40.0620 3126.00 3174.48 56.00
6329 40.0680 3092.00 3159.19 56.00
6330 40.0740 3082.00 3129.62 56.00
6331 40.0800 3102.00 3098.44 56.00
6332 40.0860 3149.00 3076.20 56.00
6333 40.0920 3222.00 3067.71 57.00
6334 40.0980 3155.00 3073.41 56.00
6335 40.1040 3285.00 3089.22 57.00
6336 40.1100 3249.00 3106.46 57.00
6337 40.1160 3281.00 3113.46 57.00
6338 40.1220 3251.00 3101.18 57.00
6339 40.1280 3181.00 3069.17 56.00
6340 40.1340 3047.00 3026.52 55.00
6341 40.1400 3049.00 2983.57 55.00
6342 40.1460 3011.00 2949.02 55.00
6343 40.1520 2957.00 2926.94 54.00
6344 40.1580 3022.00 2920.00 55.00
6345 40.1640 3010.00 2928.36 55.00
6346 40.1700 2986.00 2950.08 55.00
6347 40.1760 3026.00 2980.87 55.00
6348 40.1820 3077.00 3013.23 55.00
6349 40.1880 3093.00 3036.75 56.00
6350 40.1940 3090.00 3041.42 56.00
6351 40.2000 3185.00 3023.87 56.00
6352 40.2060 3191.00 2989.95 56.00
6353 40.2120 3192.00 2950.11 56.00
6354 40.2180 3117.00 2913.97 56.00
6355 40.2240 3121.00 2886.28 56.00
6356 40.2300 3139.00 2870.08 56.00
6357 40.2360 3114.00 2865.49 56.00
6358 40.2420 3209.00 2870.38 57.00
6359 40.2480 3241.00 2880.25 57.00
6360 40.2540 3218.00 2887.52 57.00
6361 40.2600 3182.00 2885.94 56.00
6362 40.2660 3135.00 2869.53 56.00
6363 40.2720 3031.00 2841.92 55.00
6364 40.2780 2987.00 2807.78 55.00
6365 40.2840 2926.00 2772.83 54.00
6366 40.2900 2908.00 2740.83 54.00
6367 40.2960 2910.00 2713.63 54.00
6368 40.3020 2827.00 2691.85 53.00
6369 40.3080 2786.00 2675.28 53.00
6370 40.3140 2850.00 2663.27 53.00
6371 40.3200 2821.00 2654.96 53.00
6372 40.3260 2766.00 2648.90 53.00
6373 40.3320 2773.00 2643.88 53.00
6374 40.3380 2730.00 2638.76 52.00
6375 40.3440 2791.00 2632.99 53.00
6376 40.3500 2757.00 2626.61 53.00
6377 40.3560 2740.00 2620.41 52.00
6378 40.3620 2652.00 2614.70 51.00
6379 40.3680 2765.00 2609.73 53.00
6380 40.3740 2742.00 2605.64 52.00
6381 40.3800 2618.00 2602.45 51.00
6382 40.3860 2560.00 2600.18 51.00
6383 40.3920 2696.00 2599.71 52.00
6384 40.3980 2707.00 2600.22 52.00
6385 40.4040 2632.00 2601.85 51.00
6386 40.4100 2667.00 2604.51 52.00
6387 40.4160 2695.00 2609.21 52.00
6388 40.4220 2633.00 2616.12 51.00
6389 40.4280 2744.00 2625.83 52.00
6390 40.4340 2805.00 2638.93 53.00
6391 40.4400 2779.00 2655.92 53.00
6392 40.4460 2764.00 2676.78 53.00
6393 40.4520 2861.00 2701.61 53.00
6394 40.4580 2884.00 2729.06 54.00
6395 40.4640 2908.00 2756.98 54.00
6396 40.4700 2900.00 2782.13 54.00
6397 40.4760 2847.00 2801.13 53.00
6398 40.4820 3010.00 2809.79 55.00
6399 40.4880 2895.00 2809.47 54.00
6400 40.4940 2822.00 2803.48 53.00
6401 40.5000 2878.00 2796.79 54.00
6402 40.5060 2903.00 2792.72 54.00
6403 40.5120 2929.00 2789.86 54.00
6404 40.5180 2981.00 2785.97 55.00
6405 40.5240 2960.00 2777.19 54.00
6406 40.5300 2927.00 2760.78 54.00
6407 40.5360 2909.00 2738.77 54.00
6408 40.5420 2834.00 2715.35 53.00
6409 40.5480 2772.00 2693.10 53.00
6410 40.5540 2744.00 2674.50 52.00
6411 40.5600 2721.00 2660.82 52.00
6412 40.5660 2783.00 2652.75 53.00
6413 40.5720 2669.00 2650.58 52.00
6414 40.5780 2734.00 2654.71 52.00
6415 40.5840 2730.00 2664.18 52.00
6416 40.5900 2767.00 2677.81 53.00
6417 40.5960 2674.00 2696.28 52.00
6418 40.6020 2661.00 2716.90 52.00
6419 40.6080 2690.00 2735.54 52.00
6420 40.6140 2812.00 2747.91 53.00
6421 40.6200 2736.00 2750.33 52.00
6422 40.6260 2661.00 2742.25 52.00
6423 40.6320 2783.00 2727.42 53.00
6424 40.6380 2834.00 2710.50 53.00
6425 40.6440 2717.00 2695.85 52.00
6426 40.6500 2673.00 2686.21 52.00
6427 40.6560 2662.00 2683.09 52.00
6428 40.6620 2708.00 2687.02 52.00
6429 40.6680 2778.00 2696.84 53.00
6430 40.6740 2798.00 2712.99 53.00
6431 40.6800 2786.00 2732.04 53.00
6432 40.6860 2740.00 2749.87 52.00
6433 40.6920 2811.00 2761.12 53.00
6434 40.6980 2798.00 2761.47 53.00
6435 40.7040 2753.00 2750.48 52.00
6436 40.7100 2775.00 2731.75 53.00
6437 40.7160 2749.00 2710.23 52.00
6438 40.7220 2834.00 2689.63 53.00
6439 40.7280 2752.00 2671.82 52.00
6440 40.7340 2773.00 2656.64 53.00
6441 40.7400 2731.00 2644.66 52.00
6442 40.7460 2735.00 2634.51 52.00
6443 40.7520 2710.00 2625.89 52.00
6444 40.7580 2745.00 2619.03 52.00
6445 40.7640 2699.00 2614.31 52.00
6446 40.7700 2636.00 2611.84 51.00
6447 40.7760 2746.00 2611.39 52.00
6448 40.7820 2605.00 2612.65 51.00
6449 40.7880 2775.00 2613.87 53.00
6450 40.7940 2723.00 2613.96 52.00
6451 40.8000 2731.00 2611.81 52.00
6452 40.8060 2707.00 2607.25 52.00
6453 40.8120 2625.00 2601.06 51.00
6454 40.8180 2675.00 2594.52 52.00
6455 40.8240 2603.00 2588.44 51.00
6456 40.8300 2713.00 2583.32 52.00
6457 40.8360 2631.00 2579.40 51.00
6458 40.8420 2724.00 2576.73 52.00
6459 40.8480 2662.00 2575.28 52.00
6460 40.8540 2731.00 2574.98 52.00
6461 40.8600 2723.00 2575.88 52.00
6462 40.8660 2740.00 2577.74 52.00
6463 40.8720 2747.00 2580.74 52.00
6464 40.8780 2877.00 2585.30 54.00
6465 40.8840 2839.00 2591.41 53.00
6466 40.8900 2817.00 2599.86 53.00
6467 40.8960 2715.00 2611.48 52.00
6468 40.9020 2799.00 2627.37 53.00
6469 40.9080 2880.00 2648.81 54.00
6470 40.9140 2846.00 2677.20 53.00
6471 40.9200 2917.00 2713.77 54.00
6472 40.9260 2991.00 2759.40 55.00
6473 40.9320 2911.00 2813.97 54.00
6474 40.9380 3065.00 2875.66 55.00
6475 40.9440 3187.00 2940.22 56.00
6476 40.9500 3320.00 3000.51 58.00
6477 40.9560 3312.00 3048.24 58.00
6478 40.9620 3320.00 3079.15 58.00
6479 40.9680 3301.00 3091.83 57.00
6480 40.9740 3286.00 3088.35 57.00
6481 40.9800 3231.00 3068.93 57.00
6482 40.9860 3167.00 3035.66 56.00
6483 40.9920 3073.00 2992.28 55.00
6484 40.9980 2949.00 2946.56 54.00
6485 41.0040 2897.00 2903.46 54.00
6486 41.0100 2970.00 2869.24 54.00
6487 41.0160 2970.00 2844.86 54.00
6488 41.0220 2858.00 2829.52 53.00
6489 41.0280 2781.00 2822.49 53.00
6490 41.0340 2840.00 2821.85 53.00
6491 41.0400 2976.00 2828.10 55.00
6492 41.0460 2997.00 2839.00 55.00
6493 41.0520 3000.00 2851.65 55.00
6494 41.0580 2996.00 2862.30 55.00
6495 41.0640 3108.00 2868.79 56.00
6496 41.0700 3012.00 2871.69 55.00
6497 41.0760 3055.00 2869.19 55.00
6498 41.0820 2935.00 2860.69 54.00
6499 41.0880 2957.00 2845.23 54.00
6500 41.0940 3019.00 2824.26 55.00
6501 41.1000 2952.00 2799.06 54.00
6502 41.1060 2752.00 2772.58 52.00
6503 41.1120 2728.00 2745.16 52.00
6504 41.1180 2771.00 2717.08 53.00
6505 41.1240 2720.00 2689.11 52.00
6506 41.1300 2682.00 2662.64 52.00
6507 41.1360 2690.00 2639.02 52.00
6508 41.1420 2686.00 2618.95 52.00
6509 41.1480 2590.00 2602.52 51.00
6510 41.1540 2634.00 2589.48 51.00
6511 41.1600 2671.00 2579.40 52.00
6512 41.1660 2621.00 2571.82 51.00
6513 41.1720 2539.00 2566.30 50.00
6514 41.1780 2672.00 2562.63 52.00
6515 41.1840 2666.00 2560.42 52.00
6516 41.1900 2633.00 2559.59 51.00
6517 41.1960 2613.00 2560.18 51.00
6518 41.2020 2572.00 2562.36 51.00
6519 41.2080 2644.00 2566.42 51.00
6520 41.2140 2677.00 2572.73 52.00
6521 41.2200 2666.00 2581.63 52.00
6522 41.2260 2662.00 2593.27 52.00
6523 41.2320 2618.00 2607.82 51.00
6524 41.2380 2698.00 2626.10 52.00
6525 41.2440 2738.00 2645.18 52.00
6526 41.2500 2713.00 2662.91 52.00
6527 41.2560 2791.00 2675.78 53.00
6528 41.2620 2724.00 2681.27 52.00
6529 41.2680 2767.00 2677.29 53.00
6530 41.2740 2673.00 2665.96 52.00
6531 41.2800 2716.00 2650.80 52.00
6532 41.2860 2737.00 2635.54 52.00
6533 41.2920 2672.00 2623.52 52.00
6534 41.2980 2649.00 2614.06 51.00
6535 41.3040 2675.00 2608.94 52.00
6536 41.3100 2732.00 2608.47 52.00
6537 41.3160 2715.00 2612.57 52.00
6538 41.3220 2664.00 2620.87 52.00
6539 41.3280 2715.00 2632.57 52.00
6540 41.3340 2792.00 2646.32 53.00
6541 41.3400 2875.00 2660.16 54.00
6542 41.3460 2903.00 2671.72 54.00
6543 41.3520 2829.00 2678.85 53.00
6544 41.3580 2853.00 2680.23 53.00
6545 41.3640 2757.00 2676.15 53.00
6546 41.3700 2780.00 2667.74 53.00
6547 41.3760 2727.00 2657.90 52.00
6548 41.3820 2723.00 2649.24 52.00
6549 41.3880 2763.00 2643.73 53.00
6550 41.3940 2771.00 2642.80 53.00
6551 41.4000 2869.00 2647.60 54.00
6552 41.4060 2790.00 2659.19 53.00
6553 41.4120 2769.00 2678.68 53.00
6554 41.4180 2859.00 2707.18 53.00
6555 41.4240 2960.00 2745.72 54.00
6556 41.4300 3061.00 2794.85 55.00
6557 41.4360 3081.00 2853.76 56.00
6558 41.4420 3145.00 2921.74 56.00
6559 41.4480 3231.00 2993.59 57.00
6560 41.4540 3149.00 3063.55 56.00
6561 41.4600 2954.00 3125.28 54.00
6562 41.4660 3119.00 3175.21 56.00
6563 41.4720 3261.00 3212.53 57.00
6564 41.4780 3341.00 3236.12 58.00
6565 41.4840 3397.00 3244.98 58.00
6566 41.4900 3394.00 3243.26 58.00
6567 41.4960 3342.00 3238.06 58.00
6568 41.5020 3356.00 3235.89 58.00
6569 41.5080 3389.00 3236.82 58.00
6570 41.5140 3320.00 3236.29 58.00
6571 41.5200 3362.00 3228.82 58.00
6572 41.5260 3383.00 3213.54 58.00
6573 41.5320 3346.00 3194.92 58.00
6574 41.5380 3318.00 3178.69 58.00
6575 41.5440 3311.00 3166.67 58.00
6576 41.5500 3347.00 3156.38 58.00
6577 41.5560 3382.00 3140.65 58.00
6578 41.5620 3436.00 3113.99 59.00
6579 41.5680 3291.00 3076.15 57.00
6580 41.5740 3176.00 3031.03 56.00
6581 41.5800 3092.00 2981.34 56.00
6582 41.5860 3156.00 2929.32 56.00
6583 41.5920 3097.00 2878.14 56.00
6584 41.5980 2988.00 2831.65 55.00
6585 41.6040 2937.00 2793.00 54.00
6586 41.6100 2929.00 2764.60 54.00
6587 41.6160 2923.00 2746.79 54.00
6588 41.6220 2955.00 2739.77 54.00
6589 41.6280 2952.00 2743.17 54.00
6590 41.6340 2934.00 2756.27 54.00
6591 41.6400 2887.00 2778.02 54.00
6592 41.6460 2971.00 2806.78 55.00
6593 41.6520 3077.00 2840.05 55.00
6594 41.6580 3099.00 2874.27 56.00
6595 41.6640 3056.00 2906.02 55.00
6596 41.6700 3034.00 2934.64 55.00
6597 41.6760 3045.00 2964.43 55.00
6598 41.6820 3124.00 3003.30 56.00
6599 41.6880 3214.00 3059.43 57.00
6600 41.6940 3283.00 3138.82 57.00
6601 41.7000 3499.00 3244.13 59.00
6602 41.7060 3681.00 3373.79 61.00
6603 41.7120 3894.00 3520.03 62.00
6604 41.7180 4023.00 3667.36 63.00
6605 41.7240 4167.00 3793.11 65.00
6606 41.7300 4199.00 3873.54 65.00
6607 41.7360 4050.00 3895.33 64.00
6608 41.7420 3904.00 3861.96 62.00
6609 41.7480 3713.00 3789.42 61.00
6610 41.7540 3580.00 3698.18 60.00
6611 41.7600 3427.00 3604.20 59.00
6612 41.7660 3389.00 3516.68 58.00
6613 41.7720 3449.00 3436.51 59.00
6614 41.7780 3358.00 3357.37 58.00
6615 41.7840 3331.00 3271.76 58.00
6616 41.7900 3214.00 3178.20 57.00
6617 41.7960 3064.00 3082.37 55.00
6618 41.8020 2928.00 2992.24 54.00
6619 41.8080 2843.00 2913.52 53.00
6620 41.8140 2898.00 2848.90 54.00
6621 41.8200 2960.00 2798.84 54.00
6622 41.8260 2917.00 2762.29 54.00
6623 41.8320 2825.00 2737.14 53.00
6624 41.8380 2861.00 2720.66 53.00
6625 41.8440 2951.00 2709.04 54.00
6626 41.8500 2839.00 2698.12 53.00
6627 41.8560 2754.00 2684.73 52.00
6628 41.8620 2825.00 2667.78 53.00
6629 41.8680 2851.00 2648.44 53.00
6630 41.8740 2790.00 2628.80 53.00
6631 41.8800 2669.00 2610.35 52.00
6632 41.8860 2623.00 2594.57 51.00
6633 41.8920 2677.00 2581.06 52.00
6634 41.8980 2648.00 2570.34 51.00
6635 41.9040 2620.00 2562.37 51.00
6636 41.9100 2608.00 2557.05 51.00
6637 41.9160 2625.00 2554.30 51.00
6638 41.9220 2608.00 2554.20 51.00
6639 41.9280 2528.00 2556.92 50.00
6640 41.9340 2554.00 2562.81 51.00
6641 41.9400 2610.00 2572.29 51.00
6642 41.9460 2560.00 2585.15 51.00
6643 41.9520 2596.00 2602.89 51.00
6644 41.9580 2655.00 2624.98 52.00
6645 41.9640 2643.00 2650.17 51.00
6646 41.9700 2711.00 2675.95 52.00
6647 41.9760 2757.00 2700.93 53.00
6648 41.9820 2730.00 2720.21 52.00
6649 41.9880 2733.00 2730.47 52.00
6650 41.9940 2744.00 2730.51 52.00
6651 42.0000 2736.00 2722.03 52.00
6652 42.0060 2734.00 2706.83 52.00
6653 42.0120 2722.00 2690.09 52.00
6654 42.0180 2740.00 2675.23 52.00
6655 42.0240 2771.00 2663.81 53.00
6656 42.0300 2765.00 2655.92 53.00
6657 42.0360 2738.00 2650.30 52.00
6658 42.0420 2708.00 2643.90 52.00
6659 42.0480 2742.00 2634.02 52.00
6660 42.0540 2740.00 2621.86 52.00
6661 42.0600 2714.00 2608.57 52.00
6662 42.0660 2704.00 2596.01 52.00
6663 42.0720 2692.00 2584.80 52.00
6664 42.0780 2666.00 2576.84 52.00
6665 42.0840 2623.00 2571.76 51.00
6666 42.0900 2626.00 2568.72 51.00
6667 42.0960 2687.00 2566.24 52.00
6668 42.1020 2667.00 2562.56 52.00
6669 42.1080 2620.00 2556.41 51.00
6670 42.1140 2688.00 2547.79 52.00
6671 42.1200 2696.00 2537.69 52.00
6672 42.1260 2631.00 2527.35 51.00
6673 42.1320 2578.00 2517.66 51.00
6674 42.1380 2592.00 2509.09 51.00
6675 42.1440 2559.00 2501.84 51.00
6676 42.1500 2565.00 2495.90 51.00
6677 42.1560 2601.00 2490.67 51.00
6678 42.1620 2635.00 2486.97 51.00
6679 42.1680 2602.00 2484.10 51.00
6680 42.1740 2521.00 2481.89 50.00
6681 42.1800 2508.00 2480.49 50.00
6682 42.1860 2508.00 2479.17 50.00
6683 42.1920 2502.00 2478.15 50.00
6684 42.1980 2524.00 2477.38 50.00
6685 42.2040 2532.00 2476.81 50.00
6686 42.2100 2515.00 2476.44 50.00
6687 42.2160 2541.00 2476.25 50.00
6688 42.2220 2533.00 2474.96 50.00
6689 42.2280 2530.00 2474.34 50.00
6690 42.2340 2471.00 2474.72 50.00
6691 42.2400 2495.00 2476.00 50.00
6692 42.2460 2533.00 2477.40 50.00
6693 42.2520 2559.00 2479.27 51.00
6694 42.2580 2521.00 2481.46 50.00
6695 42.2640 2528.00 2483.95 50.00
6696 42.2700 2543.00 2486.75 50.00
6697 42.2760 2552.00 2488.91 51.00
6698 42.2820 2588.00 2492.67 51.00
6699 42.2880 2596.00 2497.14 51.00
6700 42.2940 2649.00 2502.49 51.00
6701 42.3000 2636.00 2508.91 51.00
6702 42.3060 2614.00 2517.00 51.00
6703 42.3120 2602.00 2526.49 51.00
6704 42.3180 2579.00 2538.18 51.00
6705 42.3240 2660.00 2552.48 52.00
6706 42.3300 2725.00 2569.59 52.00
6707 42.3360 2668.00 2589.42 52.00
6708 42.3420 2685.00 2611.47 52.00
6709 42.3480 2681.00 2634.44 52.00
6710 42.3540 2730.00 2657.80 52.00
6711 42.3600 2810.00 2680.25 53.00
6712 42.3660 2884.00 2700.21 54.00
6713 42.3720 2838.00 2715.14 53.00
6714 42.3780 2807.00 2721.22 53.00
6715 42.3840 2819.00 2716.36 53.00
6716 42.3900 2774.00 2702.17 53.00
6717 42.3960 2757.00 2680.80 53.00
6718 42.4020 2655.00 2657.64 52.00
6719 42.4080 2658.00 2636.72 52.00
6720 42.4140 2644.00 2620.50 51.00
6721 42.4200 2667.00 2610.28 52.00
6722 42.4260 2550.00 2606.47 50.00
6723 42.4320 2579.00 2608.93 51.00
6724 42.4380 2579.00 2616.97 51.00
6725 42.4440 2605.00 2629.28 51.00
6726 42.4500 2576.00 2643.98 51.00
6727 42.4560 2584.00 2658.93 51.00
6728 42.4620 2635.00 2672.80 51.00
6729 42.4680 2712.00 2686.77 52.00
6730 42.4740 2729.00 2701.84 52.00
6731 42.4800 2731.00 2717.98 52.00
6732 42.4860 2693.00 2736.88 52.00
6733 42.4920 2663.00 2756.47 52.00
6734 42.4980 2726.00 2775.34 52.00
6735 42.5040 2740.00 2790.30 52.00
6736 42.5100 2780.00 2803.39 53.00
6737 42.5160 2807.00 2817.68 53.00
6738 42.5220 2795.00 2835.64 53.00
6739 42.5280 2877.00 2857.62 54.00
6740 42.5340 2836.00 2882.16 53.00
6741 42.5400 2886.00 2907.04 54.00
6742 42.5460 2922.00 2929.73 54.00
6743 42.5520 2942.00 2946.28 54.00
6744 42.5580 2876.00 2950.80 54.00
6745 42.5640 2822.00 2938.19 53.00
6746 42.5700 2831.00 2907.54 53.00
6747 42.5760 2751.00 2862.28 52.00
6748 42.5820 2653.00 2809.75 52.00
6749 42.5880 2612.00 2756.88 51.00
6750 42.5940 2676.00 2708.43 52.00
6751 42.6000 2688.00 2666.78 52.00
6752 42.6060 2609.00 2633.09 51.00
6753 42.6120 2655.00 2607.21 52.00
6754 42.6180 2614.00 2588.57 51.00
6755 42.6240 2581.00 2576.71 51.00
6756 42.6300 2631.00 2570.31 51.00
6757 42.6360 2638.00 2568.99 51.00
6758 42.6420 2648.00 2572.18 51.00
6759 42.6480 2646.00 2579.40 51.00
6760 42.6540 2660.00 2590.09 52.00
6761 42.6600 2689.00 2603.42 52.00
6762 42.6660 2646.00 2618.08 51.00
6763 42.6720 2671.00 2631.95 52.00
6764 42.6780 2593.00 2642.21 51.00
6765 42.6840 2631.00 2646.30 51.00
6766 42.6900 2612.00 2643.55 51.00
6767 42.6960 2662.00 2635.72 52.00
6768 42.7020 2694.00 2625.89 52.00
6769 42.7080 2630.00 2616.85 51.00
6770 42.7140 2643.00 2610.44 51.00
6771 42.7200 2602.00 2607.49 51.00
6772 42.7260 2696.00 2608.00 52.00
6773 42.7320 2677.00 2611.25 52.00
6774 42.7380 2716.00 2615.78 52.00
6775 42.7440 2603.00 2619.74 51.00
6776 42.7500 2594.00 2621.71 51.00
6777 42.7560 2675.00 2621.63 52.00
6778 42.7620 2627.00 2620.95 51.00
6779 42.7680 2555.00 2621.64 51.00
6780 42.7740 2626.00 2625.29 51.00
6781 42.7800 2624.00 2632.78 51.00
6782 42.7860 2646.00 2644.19 51.00
6783 42.7920 2698.00 2658.78 52.00
6784 42.7980 2629.00 2674.82 51.00
6785 42.8040 2761.00 2689.57 53.00
6786 42.8100 2732.00 2700.20 52.00
6787 42.8160 2738.00 2705.34 52.00
6788 42.8220 2781.00 2706.38 53.00
6789 42.8280 2781.00 2706.71 53.00
6790 42.8340 2724.00 2710.04 52.00
6791 42.8400 2765.00 2719.20 53.00
6792 42.8460 2806.00 2736.07 53.00
6793 42.8520 2770.00 2761.67 53.00
6794 42.8580 2834.00 2796.62 53.00
6795 42.8640 2958.00 2839.75 54.00
6796 42.8700 2961.00 2888.86 54.00
6797 42.8760 3039.00 2939.99 55.00
6798 42.8820 2996.00 2987.73 55.00
6799 42.8880 2983.00 3026.18 55.00
6800 42.8940 2959.00 3047.87 54.00
6801 42.9000 2996.00 3048.41 55.00
6802 42.9060 3051.00 3030.14 55.00
6803 42.9120 3023.00 3001.85 55.00
6804 42.9180 2886.00 2974.62 54.00
6805 42.9240 2896.00 2957.97 54.00
6806 42.9300 3029.00 2958.65 55.00
6807 42.9360 2989.00 2980.89 55.00
6808 42.9420 3002.00 3026.81 55.00
6809 42.9480 3234.00 3096.41 57.00
6810 42.9540 3357.00 3187.18 58.00
6811 42.9600 3401.00 3291.90 58.00
6812 42.9660 3619.00 3399.33 60.00
6813 42.9720 3697.00 3492.51 61.00
6814 42.9780 3650.00 3554.50 60.00
6815 42.9840 3737.00 3575.14 61.00
6816 42.9900 3690.00 3555.05 61.00
6817 42.9960 3688.00 3501.20 61.00
6818 43.0020 3472.00 3420.16 59.00
6819 43.0080 3283.00 3320.16 57.00
6820 43.0140 3146.00 3209.85 56.00
6821 43.0200 3072.00 3100.54 55.00
6822 43.0260 2982.00 3001.47 55.00
6823 43.0320 2954.00 2918.33 54.00
6824 43.0380 2820.00 2852.36 53.00
6825 43.0440 2894.00 2804.07 54.00
6826 43.0500 2845.00 2770.88 53.00
6827 43.0560 2946.00 2750.18 54.00
6828 43.0620 2798.00 2738.03 53.00
6829 43.0680 2902.00 2731.07 54.00
6830 43.0740 2835.00 2724.23 53.00
6831 43.0800 2773.00 2715.65 53.00
6832 43.0860 2811.00 2704.27 53.00
6833 43.0920 2749.00 2691.78 52.00
6834 43.0980 2758.00 2680.41 53.00
6835 43.1040 2891.00 2672.21 54.00
6836 43.1100 2808.00 2667.25 53.00
6837 43.1160 2756.00 2665.27 52.00
6838 43.1220 2771.00 2664.60 53.00
6839 43.1280 2763.00 2662.62 53.00
6840 43.1340 2825.00 2656.63 53.00
6841 43.1400 2759.00 2645.39 53.00
6842 43.1460 2729.00 2629.84 52.00
6843 43.1520 2679.00 2612.17 52.00
6844 43.1580 2686.00 2594.40 52.00
6845 43.1640 2642.00 2578.25 51.00
6846 43.1700 2604.00 2563.88 51.00
6847 43.1760 2551.00 2551.82 51.00
6848 43.1820 2513.00 2542.07 50.00
6849 43.1880 2507.00 2534.25 50.00
6850 43.1940 2493.00 2528.46 50.00
6851 43.2000 2474.00 2524.23 50.00
6852 43.2060 2540.00 2521.26 50.00
6853 43.2120 2505.00 2519.35 50.00
6854 43.2180 2444.00 2518.31 49.00
6855 43.2240 2593.00 2518.00 51.00
6856 43.2300 2473.00 2518.28 50.00
6857 43.2360 2463.00 2519.02 50.00
6858 43.2420 2512.00 2520.01 50.00
6859 43.2480 2501.00 2520.98 50.00
6860 43.2540 2537.00 2521.38 50.00
6861 43.2600 2413.00 2521.62 49.00
6862 43.2660 2559.00 2520.07 51.00
6863 43.2720 2520.00 2517.97 50.00
6864 43.2780 2438.00 2515.68 49.00
6865 43.2840 2497.00 2513.53 50.00
6866 43.2900 2421.00 2511.76 49.00
6867 43.2960 2522.00 2510.54 50.00
6868 43.3020 2643.00 2510.01 51.00
6869 43.3080 2590.00 2510.45 51.00
6870 43.3140 2577.00 2512.27 51.00
6871 43.3200 2559.00 2514.31 51.00
6872 43.3260 2602.00 2517.93 51.00
6873 43.3320 2646.00 2523.09 51.00
6874 43.3380 2475.00 2529.56 50.00
6875 43.3440 2569.00 2537.45 51.00
6876 43.3500 2521.00 2546.53 50.00
6877 43.3560 2552.00 2557.04 51.00
6878 43.3620 2481.00 2566.51 50.00
6879 43.3680 2451.00 2574.63 50.00
6880 43.3740 2549.00 2580.67 50.00
6881 43.3800 2574.00 2584.40 51.00
6882 43.3860 2553.00 2585.75 51.00
6883 43.3920 2508.00 2585.17 50.00
6884 43.3980 2640.00 2582.57 51.00
6885 43.4040 2531.00 2577.65 50.00
6886 43.4100 2498.00 2573.16 50.00
6887 43.4160 2565.00 2569.93 51.00
6888 43.4220 2602.00 2569.08 51.00
6889 43.4280 2508.00 2571.43 50.00
6890 43.4340 2643.00 2577.39 51.00
6891 43.4400 2615.00 2586.93 51.00
6892 43.4460 2637.00 2599.56 51.00
6893 43.4520 2633.00 2614.16 51.00
6894 43.4580 2709.00 2629.04 52.00
6895 43.4640 2699.00 2642.22 52.00
6896 43.4700 2706.00 2652.52 52.00
6897 43.4760 2715.00 2661.03 52.00
6898 43.4820 2741.00 2667.58 52.00
6899 43.4880 2717.00 2673.44 52.00
6900 43.4940 2672.00 2680.10 52.00
6901 43.5000 2737.00 2689.19 52.00
6902 43.5060 2795.00 2699.80 53.00
6903 43.5120 2691.00 2710.45 52.00
6904 43.5180 2699.00 2721.89 52.00
6905 43.5240 2863.00 2732.28 54.00
6906 43.5300 2819.00 2741.33 53.00
6907 43.5360 2778.00 2748.62 53.00
6908 43.5420 2776.00 2752.89 53.00
6909 43.5480 2724.00 2752.34 52.00
6910 43.5540 2677.00 2745.80 52.00
6911 43.5600 2714.00 2733.54 52.00
6912 43.5660 2776.00 2717.58 53.00
6913 43.5720 2754.00 2701.09 52.00
6914 43.5780 2884.00 2687.24 54.00
6915 43.5840 2777.00 2678.62 53.00
6916 43.5900 2830.00 2675.28 53.00
6917 43.5960 2877.00 2677.11 54.00
6918 43.6020 2903.00 2682.31 54.00
6919 43.6080 2760.00 2688.23 53.00
6920 43.6140 2910.00 2691.97 54.00
6921 43.6200 2854.00 2691.52 53.00
6922 43.6260 2856.00 2686.85 53.00
6923 43.6320 2741.00 2679.89 52.00
6924 43.6380 2931.00 2673.13 54.00
6925 43.6440 2842.00 2668.19 53.00
6926 43.6500 2856.00 2666.70 53.00
6927 43.6560 2847.00 2668.73 53.00
6928 43.6620 2814.00 2673.87 53.00
6929 43.6680 2809.00 2680.65 53.00
6930 43.6740 2750.00 2686.61 52.00
6931 43.6800 2818.00 2689.07 53.00
6932 43.6860 2724.00 2686.40 52.00
6933 43.6920 2766.00 2678.95 53.00
6934 43.6980 2713.00 2667.54 52.00
6935 43.7040 2625.00 2654.69 51.00
6936 43.7100 2716.00 2641.32 52.00
6937 43.7160 2716.00 2630.14 52.00
6938 43.7220 2710.00 2623.30 52.00
6939 43.7280 2640.00 2622.38 51.00
6940 43.7340 2719.00 2628.35 52.00
6941 43.7400 2716.00 2641.51 52.00
6942 43.7460 2801.00 2661.60 53.00
6943 43.7520 2786.00 2687.35 53.00
6944 43.7580 2705.00 2716.63 52.00
6945 43.7640 2664.00 2745.91 52.00
6946 43.7700 2788.00 2770.71 53.00
6947 43.7760 2774.00 2787.43 53.00
6948 43.7820 2766.00 2796.12 53.00
6949 43.7880 2798.00 2800.42 53.00
6950 43.7940 2787.00 2805.52 53.00
6951 43.8000 2798.00 2816.25 53.00
6952 43.8060 2778.00 2835.01 53.00
6953 43.8120 2927.00 2861.60 54.00
6954 43.8180 2904.00 2893.09 54.00
6955 43.8240 3080.00 2924.28 55.00
6956 43.8300 3069.00 2949.61 55.00
6957 43.8360 3021.00 2966.20 55.00
6958 43.8420 3143.00 2975.18 56.00
6959 43.8480 3073.00 2979.53 55.00
6960 43.8540 2891.00 2981.25 54.00
6961 43.8600 2858.00 2979.73 53.00
6962 43.8660 2805.00 2971.61 53.00
6963 43.8720 2791.00 2951.78 53.00
6964 43.8780 2772.00 2917.16 53.00
6965 43.8840 2747.00 2869.30 52.00
6966 43.8900 2683.00 2814.28 52.00
6967 43.8960 2662.00 2758.62 52.00
6968 43.9020 2669.00 2707.16 52.00
6969 43.9080 2682.00 2662.95 52.00
6970 43.9140 2759.00 2626.59 53.00
6971 43.9200 2712.00 2599.05 52.00
6972 43.9260 2651.00 2579.68 51.00
6973 43.9320 2660.00 2568.38 52.00
6974 43.9380 2679.00 2564.83 52.00
6975 43.9440 2668.00 2568.78 52.00
6976 43.9500 2669.00 2580.13 52.00
6977 43.9560 2770.00 2598.50 53.00
6978 43.9620 2630.00 2623.48 51.00
6979 43.9680 2566.00 2654.00 51.00
6980 43.9740 2734.00 2688.09 52.00
6981 43.9800 2748.00 2721.94 52.00
6982 43.9860 2641.00 2750.51 51.00
6983 43.9920 2738.00 2766.99 52.00
6984 43.9980 2775.00 2766.38 53.00
6985 44.0040 2738.00 2748.53 52.00
6986 44.0100 2684.00 2718.09 52.00
6987 44.0160 2787.00 2681.80 53.00
6988 44.0220 2684.00 2645.28 52.00
6989 44.0280 2648.00 2612.25 51.00
6990 44.0340 2550.00 2584.66 50.00
6991 44.0400 2533.00 2564.07 50.00
6992 44.0460 2523.00 2550.78 50.00
6993 44.0520 2496.00 2544.91 50.00
6994 44.0580 2560.00 2546.51 51.00
6995 44.0640 2496.00 2554.79 50.00
6996 44.0700 2608.00 2569.88 51.00
6997 44.0760 2524.00 2590.48 50.00
6998 44.0820 2666.00 2615.70 52.00
6999 44.0880 2675.00 2642.95 52.00
7000 44.0940 2643.00 2668.54 51.00
7001 44.1000 2727.00 2687.54 52.00
7002 44.1060 2633.00 2695.08 51.00
7003 44.1120 2561.00 2688.87 51.00
7004 44.1180 2541.00 2670.25 50.00
7005 44.1240 2493.00 2643.87 50.00
7006 44.1300 2480.00 2614.89 50.00
7007 44.1360 2563.00 2586.93 51.00
7008 44.1420 2562.00 2563.18 51.00
7009 44.1480 2510.00 2544.86 50.00
7010 44.1540 2441.00 2532.60 49.00
7011 44.1600 2476.00 2527.01 50.00
7012 44.1660 2463.00 2528.31 50.00
7013 44.1720 2473.00 2536.81 50.00
7014 44.1780 2562.00 2552.47 51.00
7015 44.1840 2644.00 2575.15 51.00
7016 44.1900 2705.00 2604.05 52.00
7017 44.1960 2752.00 2637.95 52.00
7018 44.2020 2794.00 2674.11 53.00
7019 44.2080 2880.00 2708.90 54.00
7020 44.2140 2843.00 2736.66 53.00
7021 44.2200 2914.00 2751.80 54.00
7022 44.2260 2862.00 2751.32 53.00
7023 44.2320 2823.00 2735.93 53.00
7024 44.2380 2660.00 2710.21 52.00
7025 44.2440 2714.00 2680.21 52.00
7026 44.2500 2634.00 2651.01 51.00
7027 44.2560 2614.00 2625.76 51.00
7028 44.2620 2638.00 2605.86 51.00
7029 44.2680 2558.00 2591.62 51.00
7030 44.2740 2487.00 2582.96 50.00
7031 44.2800 2553.00 2579.83 51.00
7032 44.2860 2588.00 2581.30 51.00
7033 44.2920 2623.00 2586.15 51.00
7034 44.2980 2540.00 2591.65 50.00
7035 44.3040 2526.00 2595.07 50.00
7036 44.3100 2541.00 2592.89 50.00
7037 44.3160 2489.00 2583.55 50.00
7038 44.3220 2488.00 2567.98 50.00
7039 44.3280 2558.00 2548.82 51.00
7040 44.3340 2537.00 2528.92 50.00
7041 44.3400 2448.00 2510.42 49.00
7042 44.3460 2420.00 2494.63 49.00
7043 44.3520 2498.00 2481.55 50.00
7044 44.3580 2559.00 2472.89 51.00
7045 44.3640 2535.00 2467.99 50.00
7046 44.3700 2479.00 2466.71 50.00
7047 44.3760 2502.00 2468.56 50.00
7048 44.3820 2484.00 2473.41 50.00
7049 44.3880 2517.00 2480.59 50.00
7050 44.3940 2543.00 2488.91 50.00
7051 44.4000 2485.00 2499.96 50.00
7052 44.4060 2474.00 2513.01 50.00
7053 44.4120 2459.00 2527.90 50.00
7054 44.4180 2556.00 2543.84 51.00
7055 44.4240 2554.00 2558.45 51.00
7056 44.4300 2499.00 2569.07 50.00
7057 44.4360 2573.00 2572.94 51.00
7058 44.4420 2537.00 2568.75 50.00
7059 44.4480 2586.00 2557.29 51.00
7060 44.4540 2456.00 2540.89 50.00
7061 44.4600 2414.00 2522.17 49.00
7062 44.4660 2519.00 2503.11 50.00
7063 44.4720 2463.00 2484.78 50.00
7064 44.4780 2490.00 2467.71 50.00
7065 44.4840 2444.00 2452.26 49.00
7066 44.4900 2429.00 2438.77 49.00
7067 44.4960 2419.00 2427.45 49.00
7068 44.5020 2445.00 2418.29 49.00
7069 44.5080 2446.00 2411.17 49.00
7070 44.5140 2465.00 2406.20 50.00
7071 44.5200 2381.00 2401.88 49.00
7072 44.5260 2410.00 2399.87 49.00
7073 44.5320 2408.00 2399.31 49.00
7074 44.5380 2456.00 2400.62 50.00
7075 44.5440 2491.00 2403.19 50.00
7076 44.5500 2507.00 2406.87 50.00
7077 44.5560 2533.00 2411.85 50.00
7078 44.5620 2474.00 2417.95 50.00
7079 44.5680 2472.00 2425.10 50.00
7080 44.5740 2423.00 2432.07 49.00
7081 44.5800 2365.00 2438.23 49.00
7082 44.5860 2427.00 2442.61 49.00
7083 44.5920 2402.00 2445.18 49.00
7084 44.5980 2397.00 2445.74 49.00
7085 44.6040 2369.00 2445.46 49.00
7086 44.6100 2344.00 2445.75 48.00
7087 44.6160 2470.00 2447.46 50.00
7088 44.6220 2458.00 2450.92 50.00
7089 44.6280 2430.00 2455.74 49.00
7090 44.6340 2460.00 2460.92 50.00
7091 44.6400 2476.00 2466.23 50.00
7092 44.6460 2496.00 2470.30 50.00
7093 44.6520 2542.00 2472.92 50.00
7094 44.6580 2553.00 2474.64 51.00
7095 44.6640 2526.00 2475.09 50.00
7096 44.6700 2484.00 2474.34 50.00
7097 44.6760 2483.00 2472.18 50.00
7098 44.6820 2453.00 2468.88 50.00
7099 44.6880 2475.00 2465.25 50.00
7100 44.6940 2490.00 2462.11 50.00
7101 44.7000 2413.00 2460.18 49.00
7102 44.7060 2408.00 2458.27 49.00
7103 44.7120 2442.00 2456.03 49.00
7104 44.7180 2381.00 2452.76 49.00
7105 44.7240 2426.00 2448.11 49.00
7106 44.7300 2391.00 2442.17 49.00
7107 44.7360 2390.00 2435.49 49.00
7108 44.7420 2386.00 2428.68 49.00
7109 44.7480 2363.00 2423.32 49.00
7110 44.7540 2337.00 2419.50 48.00
7111 44.7600 2344.00 2419.48 48.00
7112 44.7660 2404.00 2422.41 49.00
7113 44.7720 2414.00 2428.83 49.00
7114 44.7780 2394.00 2438.82 49.00
7115 44.7840 2362.00 2452.17 49.00
7116 44.7900 2410.00 2468.39 49.00
7117 44.7960 2475.00 2485.93 50.00
7118 44.8020 2502.00 2503.20 50.00
7119 44.8080 2518.00 2517.77 50.00
7120 44.8140 2476.00 2527.34 50.00
7121 44.8200 2503.00 2530.23 50.00
7122 44.8260 2505.00 2525.69 50.00
7123 44.8320 2443.00 2514.22 49.00
7124 44.8380 2419.00 2497.34 49.00
7125 44.8440 2414.00 2478.37 49.00
7126 44.8500 2383.00 2459.33 49.00
7127 44.8560 2373.00 2442.23 49.00
7128 44.8620 2386.00 2427.25 49.00
7129 44.8680 2375.00 2415.13 49.00
7130 44.8740 2355.00 2405.95 49.00
7131 44.8800 2361.00 2399.59 49.00
7132 44.8860 2409.00 2395.88 49.00
7133 44.8920 2421.00 2394.63 49.00
7134 44.8980 2445.00 2395.70 49.00
7135 44.9040 2471.00 2398.95 50.00
7136 44.9100 2473.00 2404.25 50.00
7137 44.9160 2480.00 2411.41 50.00
7138 44.9220 2427.00 2420.07 49.00
7139 44.9280 2383.00 2429.83 49.00
7140 44.9340 2440.00 2439.74 49.00
7141 44.9400 2452.00 2448.49 50.00
7142 44.9460 2419.00 2454.54 49.00
7143 44.9520 2396.00 2456.74 49.00
7144 44.9580 2399.00 2455.16 49.00
7145 44.9640 2427.00 2450.78 49.00
7146 44.9700 2462.00 2445.67 50.00
7147 44.9760 2397.00 2441.56 49.00
7148 44.9820 2339.00 2439.52 48.00
7149 44.9880 2410.00 2440.49 49.00
7150 44.9940 2488.00 2445.22 50.00
7151 45.0000 2447.00 2454.39 49.00
7152 45.0060 2456.00 2468.75 50.00
7153 45.0120 2521.00 2488.53 50.00
7154 45.0180 2560.00 2514.25 51.00
7155 45.0240 2573.00 2545.91 51.00
7156 45.0300 2578.00 2582.99 51.00
7157 45.0360 2650.00 2624.11 51.00
7158 45.0420 2691.00 2667.18 52.00
7159 45.0480 2695.00 2709.93 52.00
7160 45.0540 2741.00 2750.65 52.00
7161 45.0600 2790.00 2787.88 53.00
7162 45.0660 2846.00 2819.43 53.00
7163 45.0720 2911.00 2842.40 54.00
7164 45.0780 2874.00 2854.93 54.00
7165 45.0840 2807.00 2857.88 53.00
7166 45.0900 2875.00 2854.41 54.00
7167 45.0960 2894.00 2847.76 54.00
7168 45.1020 2850.00 2839.81 53.00
7169 45.1080 2857.00 2831.16 53.00
7170 45.1140 2853.00 2821.74 53.00
7171 45.1200 2791.00 2810.15 53.00
7172 45.1260 2813.00 2794.25 53.00
7173 45.1320 2887.00 2770.93 54.00
7174 45.1380 2830.00 2740.38 53.00
7175 45.1440 2727.00 2705.59 52.00
7176 45.1500 2697.00 2671.12 52.00
7177 45.1560 2639.00 2640.90 51.00
7178 45.1620 2624.00 2617.22 51.00
7179 45.1680 2691.00 2600.92 52.00
7180 45.1740 2624.00 2591.36 51.00
7181 45.1800 2574.00 2587.25 51.00
7182 45.1860 2609.00 2586.08 51.00
7183 45.1920 2639.00 2585.79 51.00
7184 45.1980 2577.00 2585.53 51.00
7185 45.2040 2575.00 2585.82 51.00
7186 45.2100 2596.00 2588.07 51.00
7187 45.2160 2615.00 2592.77 51.00
7188 45.2220 2658.00 2599.21 52.00
7189 45.2280 2673.00 2605.27 52.00
7190 45.2340 2715.00 2607.97 52.00
7191 45.2400 2677.00 2604.96 52.00
7192 45.2460 2645.00 2596.12 51.00
7193 45.2520 2650.00 2583.80 51.00
7194 45.2580 2644.00 2571.23 51.00
7195 45.2640 2600.00 2561.02 51.00
7196 45.2700 2548.00 2554.68 50.00
7197 45.2760 2595.00 2552.35 51.00
7198 45.2820 2611.00 2552.89 51.00
7199 45.2880 2590.00 2554.56 51.00
7200 45.2940 2555.00 2555.17 51.00
7201 45.3000 2544.00 2552.87 50.00
7202 45.3060 2577.00 2547.02 51.00
7203 45.3120 2540.00 2537.97 50.00
7204 45.3180 2474.00 2526.93 50.00
7205 45.3240 2454.00 2514.96 50.00
7206 45.3300 2463.00 2502.98 50.00
7207 45.3360 2544.00 2492.27 50.00
7208 45.3420 2619.00 2484.04 51.00
7209 45.3480 2619.00 2480.21 51.00
7210 45.3540 2549.00 2480.36 50.00
7211 45.3600 2590.00 2484.58 51.00
7212 45.3660 2620.00 2492.87 51.00
7213 45.3720 2675.00 2502.93 52.00
7214 45.3780 2692.00 2512.74 52.00
7215 45.3840 2730.00 2519.40 52.00
7216 45.3900 2719.00 2520.03 52.00
7217 45.3960 2653.00 2513.12 52.00
7218 45.4020 2587.00 2499.36 51.00
7219 45.4080 2523.00 2481.18 50.00
7220 45.4140 2472.00 2461.36 50.00
7221 45.4200 2445.00 2442.06 49.00
7222 45.4260 2429.00 2424.61 49.00
7223 45.4320 2383.00 2409.69 49.00
7224 45.4380 2370.00 2397.54 49.00
7225 45.4440 2442.00 2388.13 49.00
7226 45.4500 2412.00 2381.22 49.00
7227 45.4560 2429.00 2376.66 49.00
7228 45.4620 2387.00 2373.76 49.00
7229 45.4680 2325.00 2372.29 48.00
7230 45.4740 2359.00 2371.93 49.00
7231 45.4800 2367.00 2372.35 49.00
7232 45.4860 2384.00 2373.42 49.00
7233 45.4920 2326.00 2375.24 48.00
7234 45.4980 2414.00 2378.05 49.00
7235 45.5040 2423.00 2382.11 49.00
7236 45.5100 2424.00 2387.60 49.00
7237 45.5160 2369.00 2394.52 49.00
7238 45.5220 2395.00 2402.56 49.00
7239 45.5280 2388.00 2411.08 49.00
7240 45.5340 2430.00 2418.95 49.00
7241 45.5400 2357.00 2424.66 49.00
7242 45.5460 2365.00 2426.69 49.00
7243 45.5520 2402.00 2424.36 49.00
7244 45.5580 2414.00 2418.42 49.00
7245 45.5640 2356.00 2409.97 49.00
7246 45.5700 2336.00 2400.77 48.00
7247 45.5760 2338.00 2392.07 48.00
7248 45.5820 2332.00 2384.52 48.00
7249 45.5880 2335.00 2378.78 48.00
7250 45.5940 2332.00 2375.28 48.00
7251 45.6000 2378.00 2374.07 49.00
7252 45.6060 2359.00 2375.26 49.00
7253 45.6120 2399.00 2378.47 49.00
7254 45.6180 2416.00 2385.08 49.00
7255 45.6240 2402.00 2394.68 49.00
7256 45.6300 2327.00 2406.32 48.00
7257 45.6360 2417.00 2419.45 49.00
7258 45.6420 2486.00 2432.99 50.00
7259 45.6480 2383.00 2446.42 49.00
7260 45.6540 2366.00 2458.03 49.00
7261 45.6600 2483.00 2466.37 50.00
7262 45.6660 2450.00 2469.29 49.00
7263 45.6720 2466.00 2467.23 50.00
7264 45.6780 2522.00 2460.96 50.00
7265 45.6840 2448.00 2451.86 49.00
7266 45.6900 2454.00 2441.66 50.00
7267 45.6960 2480.00 2431.80 50.00
7268 45.7020 2395.00 2423.28 49.00
7269 45.7080 2449.00 2416.61 49.00
7270 45.7140 2459.00 2411.85 50.00
7271 45.7200 2448.00 2408.80 49.00
7272 45.7260 2391.00 2407.06 49.00
7273 45.7320 2434.00 2406.01 49.00
7274 45.7380 2462.00 2405.86 50.00
7275 45.7440 2405.00 2406.14 49.00
7276 45.7500 2470.00 2406.73 50.00
7277 45.7560 2419.00 2408.31 49.00
7278 45.7620 2341.00 2409.94 48.00
7279 45.7680 2427.00 2412.40 49.00
7280 45.7740 2391.00 2415.74 49.00
7281 45.7800 2429.00 2419.42 49.00
7282 45.7860 2454.00 2425.07 50.00
7283 45.7920 2414.00 2430.18 49.00
7284 45.7980 2416.00 2435.80 49.00
7285 45.8040 2416.00 2442.15 49.00
7286 45.8100 2454.00 2449.38 50.00
7287 45.8160 2453.00 2457.43 50.00
7288 45.8220 2488.00 2466.23 50.00
7289 45.8280 2560.00 2475.84 51.00
7290 45.8340 2531.00 2486.84 50.00
7291 45.8400 2554.00 2499.47 51.00
7292 45.8460 2465.00 2514.56 50.00
7293 45.8520 2529.00 2531.94 50.00
7294 45.8580 2667.00 2551.45 52.00
7295 45.8640 2608.00 2572.91 51.00
7296 45.8700 2644.00 2595.81 51.00
7297 45.8760 2754.00 2619.17 52.00
7298 45.8820 2733.00 2640.71 52.00
7299 45.8880 2721.00 2657.44 52.00
7300 45.8940 2793.00 2666.57 53.00
7301 45.9000 2789.00 2667.00 53.00
7302 45.9060 2675.00 2658.14 52.00
7303 45.9120 2585.00 2641.53 51.00
7304 45.9180 2488.00 2619.04 50.00
7305 45.9240 2445.00 2593.29 49.00
7306 45.9300 2562.00 2567.39 51.00
7307 45.9360 2501.00 2542.87 50.00
7308 45.9420 2490.00 2522.75 50.00
7309 45.9480 2475.00 2506.95 50.00
7310 45.9540 2488.00 2496.18 50.00
7311 45.9600 2391.00 2490.44 49.00
7312 45.9660 2500.00 2489.53 50.00
7313 45.9720 2490.00 2493.09 50.00
7314 45.9780 2474.00 2500.54 50.00
7315 45.9840 2527.00 2511.06 50.00
7316 45.9900 2555.00 2524.34 51.00
7317 45.9960 2547.00 2537.11 50.00
7318 46.0020 2665.00 2548.46 52.00
7319 46.0080 2492.00 2557.18 50.00
7320 46.0140 2517.00 2562.57 50.00
7321 46.0200 2612.00 2564.28 51.00
7322 46.0260 2575.00 2562.84 51.00
7323 46.0320 2635.00 2558.22 51.00
7324 46.0380 2572.00 2550.98 51.00
7325 46.0440 2610.00 2542.25 51.00
7326 46.0500 2533.00 2532.51 50.00
7327 46.0560 2453.00 2524.08 50.00
7328 46.0620 2565.00 2518.05 51.00
7329 46.0680 2464.00 2515.29 50.00
7330 46.0740 2457.00 2514.82 50.00
7331 46.0800 2552.00 2516.84 51.00
7332 46.0860 2458.00 2520.47 50.00
7333 46.0920 2470.00 2524.39 50.00
7334 46.0980 2468.00 2527.50 50.00
7335 46.1040 2522.00 2527.78 50.00
7336 46.1100 2436.00 2524.85 49.00
7337 46.1160 2457.00 2519.13 50.00
7338 46.1220 2453.00 2511.78 50.00
7339 46.1280 2452.00 2504.13 50.00
7340 46.1340 2441.00 2497.21 49.00
7341 46.1400 2448.00 2491.72 49.00
7342 46.1460 2372.00 2488.09 49.00
7343 46.1520 2365.00 2486.56 49.00
7344 46.1580 2330.00 2487.17 48.00
7345 46.1640 2378.00 2489.96 49.00
7346 46.1700 2515.00 2495.12 50.00
7347 46.1760 2354.00 2502.20 49.00
7348 46.1820 2386.00 2511.07 49.00
7349 46.1880 2369.00 2521.27 49.00
7350 46.1940 2423.00 2532.24 49.00
7351 46.2000 2485.00 2542.83 50.00
7352 46.2060 2496.00 2551.50 50.00
7353 46.2120 2507.00 2557.09 50.00
7354 46.2180 2485.00 2559.77 50.00
7355 46.2240 2524.00 2560.16 50.00
7356 46.2300 2555.00 2560.00 51.00
7357 46.2360 2490.00 2561.04 50.00
7358 46.2420 2499.00 2564.86 50.00
7359 46.2480 2549.00 2572.80 50.00
7360 46.2540 2645.00 2586.02 51.00
7361 46.2600 2669.00 2605.76 52.00
7362 46.2660 2661.00 2632.42 52.00
7363 46.2720 2745.00 2666.95 52.00
7364 46.2780 2785.00 2709.21 53.00
7365 46.2840 2866.00 2758.78 54.00
7366 46.2900 2908.00 2813.79 54.00
7367 46.2960 2971.00 2870.93 55.00
7368 46.3020 3048.00 2925.71 55.00
7369 46.3080 3016.00 2973.72 55.00
7370 46.3140 3052.00 3012.00 55.00
7371 46.3200 3087.00 3038.98 56.00
7372 46.3260 3031.00 3052.60 55.00
7373 46.3320 3069.00 3049.50 55.00
7374 46.3380 2879.00 3026.99 54.00
7375 46.3440 2771.00 2986.39 53.00
7376 46.3500 2775.00 2933.34 53.00
7377 46.3560 2776.00 2875.24 53.00
7378 46.3620 2667.00 2818.55 52.00
7379 46.3680 2642.00 2767.52 51.00
7380 46.3740 2683.00 2724.38 52.00
7381 46.3800 2632.00 2690.23 51.00
7382 46.3860 2654.00 2665.19 52.00
7383 46.3920 2622.00 2648.98 51.00
7384 46.3980 2597.00 2641.10 51.00
7385 46.4040 2651.00 2640.94 51.00
7386 46.4100 2569.00 2648.12 51.00
7387 46.4160 2553.00 2662.02 51.00
7388 46.4220 2528.00 2682.18 50.00
7389 46.4280 2511.00 2707.83 50.00
7390 46.4340 2624.00 2737.71 51.00
7391 46.4400 2582.00 2769.82 51.00
7392 46.4460 2605.00 2802.06 51.00
7393 46.4520 2694.00 2832.19 52.00
7394 46.4580 2602.00 2859.00 51.00
7395 46.4640 2763.00 2882.86 53.00
7396 46.4700 2804.00 2905.06 53.00
7397 46.4760 2855.00 2925.62 53.00
7398 46.4820 2868.00 2943.18 54.00
7399 46.4880 2853.00 2956.99 53.00
7400 46.4940 2737.00 2967.58 52.00
7401 46.5000 2773.00 2977.62 53.00
7402 46.5060 2774.00 2991.13 53.00
7403 46.5120 2848.00 3011.99 53.00
7404 46.5180 2944.00 3043.21 54.00
7405 46.5240 2910.00 3083.34 54.00
7406 46.5300 3014.00 3130.46 55.00
7407 46.5360 3080.00 3179.64 55.00
7408 46.5420 3118.00 3225.47 56.00
7409 46.5480 3139.00 3264.56 56.00
7410 46.5540 3302.00 3296.58 57.00
7411 46.5600 3198.00 3323.81 57.00
7412 46.5660 3286.00 3348.20 57.00
7413 46.5720 3296.00 3371.36 57.00
7414 46.5780 3356.00 3394.61 58.00
7415 46.5840 3422.00 3417.56 58.00
7416 46.5900 3453.00 3437.56 59.00
7417 46.5960 3474.00 3450.10 59.00
7418 46.6020 3422.00 3451.03 58.00
7419 46.6080 3508.00 3437.95 59.00
7420 46.6140 3217.00 3409.87 57.00
7421 46.6200 3249.00 3366.86 57.00
7422 46.6260 3095.00 3310.98 56.00
7423 46.6320 2999.00 3246.72 55.00
7424 46.6380 2959.00 3178.39 54.00
7425 46.6440 2817.00 3109.49 53.00
7426 46.6500 2722.00 3041.62 52.00
7427 46.6560 2711.00 2975.90 52.00
7428 46.6620 2715.00 2914.56 52.00
7429 46.6680 2577.00 2859.82 51.00
7430 46.6740 2566.00 2813.23 51.00
7431 46.6800 2516.00 2775.80 50.00
7432 46.6860 2648.00 2747.62 51.00
7433 46.6920 2598.00 2728.24 51.00
7434 46.6980 2531.00 2716.86 50.00
7435 46.7040 2565.00 2712.44 51.00
7436 46.7100 2402.00 2711.82 49.00
7437 46.7160 2564.00 2711.54 51.00
7438 46.7220 2476.00 2713.33 50.00
7439 46.7280 2590.00 2715.39 51.00
7440 46.7340 2589.00 2716.45 51.00
7441 46.7400 2585.00 2716.01 51.00
7442 46.7460 2550.00 2712.83 50.00
7443 46.7520 2538.00 2706.41 50.00
7444 46.7580 2468.00 2696.39 50.00
7445 46.7640 2530.00 2683.36 50.00
7446 46.7700 2477.00 2669.49 50.00
7447 46.7760 2408.00 2656.75 49.00
7448 46.7820 2539.00 2646.97 50.00
7449 46.7880 2537.00 2640.72 50.00
7450 46.7940 2492.00 2638.13 50.00
7451 46.8000 2544.00 2638.23 50.00
7452 46.8060 2646.00 2639.21 51.00
7453 46.8120 2565.00 2638.66 51.00
7454 46.8180 2483.00 2634.31 50.00
7455 46.8240 2552.00 2624.71 51.00
7456 46.8300 2567.00 2609.80 51.00
7457 46.8360 2424.00 2589.95 49.00
7458 46.8420 2333.00 2567.15 48.00
7459 46.8480 2404.00 2542.73 49.00
7460 46.8540 2361.00 2518.64 49.00
7461 46.8600 2372.00 2495.48 49.00
7462 46.8660 2495.00 2475.09 50.00
7463 46.8720 2288.00 2457.11 48.00
7464 46.8780 2269.00 2441.54 48.00
7465 46.8840 2344.00 2428.15 48.00
7466 46.8900 2364.00 2415.70 49.00
7467 46.8960 2373.00 2405.87 49.00
7468 46.9020 2377.00 2397.60 49.00
7469 46.9080 2376.00 2390.13 49.00
7470 46.9140 2258.00 2383.48 48.00
7471 46.9200 2302.00 2381.87 48.00
7472 46.9260 2255.00 2380.79 47.00
7473 46.9320 2281.00 2380.20 48.00
7474 46.9380 2346.00 2380.05 48.00
7475 46.9440 2258.00 2380.36 48.00
7476 46.9500 2411.00 2381.15 49.00
7477 46.9560 2467.00 2382.52 50.00
7478 46.9620 2430.00 2384.58 49.00
7479 46.9680 2432.00 2387.49 49.00
7480 46.9740 2376.00 2391.46 49.00
7481 46.9800 2327.00 2396.74 48.00
7482 46.9860 2341.00 2403.63 48.00
7483 46.9920 2386.00 2412.43 49.00
7484 46.9980 2451.00 2423.49 50.00
7485 47.0040 2422.00 2437.07 49.00
7486 47.0100 2448.00 2453.05 49.00
7487 47.0160 2541.00 2472.18 50.00
7488 47.0220 2484.00 2493.79 50.00
7489 47.0280 2591.00 2517.21 51.00
7490 47.0340 2575.00 2541.49 51.00
7491 47.0400 2526.00 2565.63 50.00
7492 47.0460 2548.00 2590.03 50.00
7493 47.0520 2629.00 2614.22 51.00
7494 47.0580 2588.00 2638.38 51.00
7495 47.0640 2643.00 2660.35 51.00
7496 47.0700 2642.00 2676.66 51.00
7497 47.0760 2654.00 2683.24 52.00
7498 47.0820 2591.00 2677.46 51.00
7499 47.0880 2518.00 2659.96 50.00
7500 47.0940 2546.00 2634.53 50.00
7501 47.1000 2472.00 2605.32 50.00
7502 47.1060 2442.00 2577.25 49.00
7503 47.1120 2427.00 2552.60 49.00
7504 47.1180 2426.00 2532.76 49.00
7505 47.1240 2437.00 2517.63 49.00
7506 47.1300 2413.00 2507.87 49.00
7507 47.1360 2414.00 2501.96 49.00
7508 47.1420 2459.00 2498.53 50.00
7509 47.1480 2417.00 2496.60 49.00
7510 47.1540 2413.00 2495.14 49.00
7511 47.1600 2442.00 2495.19 49.00
7512 47.1660 2470.00 2496.71 50.00
7513 47.1720 2449.00 2500.16 49.00
7514 47.1780 2442.00 2503.69 49.00
7515 47.1840 2392.00 2508.19 49.00
7516 47.1900 2450.00 2511.38 49.00
7517 47.1960 2477.00 2512.07 50.00
7518 47.2020 2426.00 2510.01 49.00
7519 47.2080 2512.00 2505.58 50.00
7520 47.2140 2463.00 2500.35 50.00
7521 47.2200 2429.00 2494.78 49.00
7522 47.2260 2403.00 2488.58 49.00
7523 47.2320 2480.00 2481.75 50.00
7524 47.2380 2524.00 2474.42 50.00
7525 47.2440 2464.00 2467.35 50.00
7526 47.2500 2431.00 2461.61 49.00
7527 47.2560 2391.00 2458.22 49.00
7528 47.2620 2425.00 2457.84 49.00
7529 47.2680 2437.00 2460.74 49.00
7530 47.2740 2462.00 2466.77 50.00
7531 47.2800 2376.00 2475.38 49.00
7532 47.2860 2399.00 2485.32 49.00
7533 47.2920 2363.00 2495.31 49.00
7534 47.2980 2403.00 2503.26 49.00
7535 47.3040 2443.00 2507.70 49.00
7536 47.3100 2455.00 2508.32 50.00
7537 47.3160 2450.00 2505.90 49.00
7538 47.3220 2499.00 2502.70 50.00
7539 47.3280 2460.00 2499.92 50.00
7540 47.3340 2397.00 2498.37 49.00
7541 47.3400 2496.00 2498.33 50.00
7542 47.3460 2515.00 2499.35 50.00
7543 47.3520 2501.00 2501.60 50.00
7544 47.3580 2560.00 2505.58 51.00
7545 47.3640 2552.00 2512.08 51.00
7546 47.3700 2555.00 2521.76 51.00
7547 47.3760 2537.00 2533.96 50.00
7548 47.3820 2496.00 2548.30 50.00
7549 47.3880 2510.00 2562.54 50.00
7550 47.3940 2486.00 2573.83 50.00
7551 47.4000 2506.00 2579.82 50.00
7552 47.4060 2499.00 2578.74 50.00
7553 47.4120 2484.00 2570.78 50.00
7554 47.4180 2477.00 2557.90 50.00
7555 47.4240 2551.00 2542.91 51.00
7556 47.4300 2530.00 2528.40 50.00
7557 47.4360 2550.00 2516.10 50.00
7558 47.4420 2507.00 2506.66 50.00
7559 47.4480 2420.00 2499.78 49.00
7560 47.4540 2410.00 2494.30 49.00
7561 47.4600 2409.00 2488.48 49.00
7562 47.4660 2385.00 2480.66 49.00
7563 47.4720 2412.00 2470.02 49.00
7564 47.4780 2374.00 2456.97 49.00
7565 47.4840 2383.00 2442.66 49.00
7566 47.4900 2313.00 2428.36 48.00
7567 47.4960 2306.00 2415.04 48.00
7568 47.5020 2377.00 2403.11 49.00
7569 47.5080 2338.00 2392.88 48.00
7570 47.5140 2322.00 2384.40 48.00
7571 47.5200 2255.00 2377.59 47.00
7572 47.5260 2298.00 2372.76 48.00
7573 47.5320 2310.00 2369.31 48.00
7574 47.5380 2321.00 2366.95 48.00
7575 47.5440 2338.00 2365.54 48.00
7576 47.5500 2273.00 2364.95 48.00
7577 47.5560 2294.00 2365.07 48.00
7578 47.5620 2335.00 2365.83 48.00
7579 47.5680 2321.00 2367.24 48.00
7580 47.5740 2291.00 2369.35 48.00
7581 47.5800 2294.00 2372.29 48.00
7582 47.5860 2329.00 2376.24 48.00
7583 47.5920 2367.00 2381.54 49.00
7584 47.5980 2333.00 2388.47 48.00
7585 47.6040 2325.00 2397.20 48.00
7586 47.6100 2372.00 2408.62 49.00
7587 47.6160 2364.00 2423.07 49.00
7588 47.6220 2372.00 2440.94 49.00
7589 47.6280 2436.00 2462.29 49.00
7590 47.6340 2445.00 2487.50 49.00
7591 47.6400 2426.00 2515.97 49.00
7592 47.6460 2499.00 2546.11 50.00
7593 47.6520 2534.00 2577.75 50.00
7594 47.6580 2486.00 2607.40 50.00
7595 47.6640 2473.00 2632.19 50.00
7596 47.6700 2487.00 2650.05 50.00
7597 47.6760 2515.00 2660.63 50.00
7598 47.6820 2540.00 2666.11 50.00
7599 47.6880 2561.00 2670.03 51.00
7600 47.6940 2627.00 2675.80 51.00
7601 47.7000 2563.00 2685.48 51.00
7602 47.7060 2458.00 2699.44 50.00
7603 47.7120 2427.00 2715.75 49.00
7604 47.7180 2495.00 2731.66 50.00
7605 47.7240 2594.00 2743.69 51.00
7606 47.7300 2670.00 2749.01 52.00
7607 47.7360 2671.00 2746.19 52.00
7608 47.7420 2638.00 2735.04 51.00
7609 47.7480 2637.00 2716.58 51.00
7610 47.7540 2571.00 2693.05 51.00
7611 47.7600 2477.00 2667.20 50.00
7612 47.7660 2471.00 2641.97 50.00
7613 47.7720 2476.00 2618.15 50.00
7614 47.7780 2476.00 2595.70 50.00
7615 47.7840 2515.00 2573.86 50.00
7616 47.7900 2510.00 2551.97 50.00
7617 47.7960 2466.00 2529.54 50.00
7618 47.8020 2452.00 2507.13 50.00
7619 47.8080 2410.00 2485.83 49.00
7620 47.8140 2339.00 2466.39 48.00
7621 47.8200 2345.00 2449.39 48.00
7622 47.8260 2325.00 2435.06 48.00
7623 47.8320 2329.00 2423.44 48.00
7624 47.8380 2281.00 2414.46 48.00
7625 47.8440 2270.00 2407.98 48.00
7626 47.8500 2334.00 2403.86 48.00
7627 47.8560 2361.00 2401.97 49.00
7628 47.8620 2355.00 2402.21 49.00
7629 47.8680 2338.00 2404.48 48.00
7630 47.8740 2302.00 2408.43 48.00
7631 47.8800 2306.00 2414.46 48.00
7632 47.8860 2324.00 2422.09 48.00
7633 47.8920 2312.00 2430.91 48.00
7634 47.8980 2283.00 2440.29 48.00
7635 47.9040 2351.00 2449.28 48.00
7636 47.9100 2320.00 2456.86 48.00
7637 47.9160 2325.00 2462.06 48.00
7638 47.9220 2322.00 2464.85 48.00
7639 47.9280 2338.00 2465.13 48.00
7640 47.9340 2380.00 2462.98 49.00
7641 47.9400 2313.00 2458.27 48.00
7642 47.9460 2334.00 2451.09 48.00
7643 47.9520 2346.00 2441.99 48.00
7644 47.9580 2327.00 2431.88 48.00
7645 47.9640 2296.00 2421.72 48.00
7646 47.9700 2249.00 2412.05 47.00
7647 47.9760 2313.00 2403.48 48.00
7648 47.9820 2383.00 2396.60 49.00
7649 47.9880 2344.00 2391.08 48.00
7650 47.9940 2333.00 2387.35 48.00
7651 48.0000 2375.00 2384.50 49.00
7652 48.0060 2342.00 2382.82 48.00
7653 48.0120 2257.00 2382.22 48.00
7654 48.0180 2314.00 2382.38 48.00
7655 48.0240 2350.00 2383.44 48.00
7656 48.0300 2351.00 2385.35 48.00
7657 48.0360 2410.00 2387.79 49.00
7658 48.0420 2337.00 2391.15 48.00
7659 48.0480 2348.00 2395.05 48.00
7660 48.0540 2292.00 2399.27 48.00
7661 48.0600 2315.00 2403.49 48.00
7662 48.0660 2395.00 2407.40 49.00
7663 48.0720 2387.00 2410.76 49.00
7664 48.0780 2330.00 2414.02 48.00
7665 48.0840 2343.00 2416.58 48.00
7666 48.0900 2302.00 2419.40 48.00
7667 48.0960 2347.00 2422.02 48.00
7668 48.1020 2371.00 2424.77 49.00
7669 48.1080 2358.00 2427.72 49.00
7670 48.1140 2355.00 2431.44 49.00
7671 48.1200 2385.00 2435.88 49.00
7672 48.1260 2390.00 2442.00 49.00
7673 48.1320 2372.00 2450.51 49.00
7674 48.1380 2435.00 2461.99 49.00
7675 48.1440 2458.00 2476.96 50.00
7676 48.1500 2398.00 2495.77 49.00
7677 48.1560 2502.00 2518.36 50.00
7678 48.1620 2531.00 2544.66 50.00
7679 48.1680 2536.00 2574.32 50.00
7680 48.1740 2635.00 2606.97 51.00
7681 48.1800 2668.00 2642.30 52.00
7682 48.1860 2713.00 2679.61 52.00
7683 48.1920 2791.00 2717.13 53.00
7684 48.1980 2914.00 2752.95 54.00
7685 48.2040 2874.00 2784.35 54.00
7686 48.2100 2805.00 2807.99 53.00
7687 48.2160 2836.00 2820.88 53.00
7688 48.2220 2813.00 2821.00 53.00
7689 48.2280 2794.00 2808.18 53.00
7690 48.2340 2687.00 2783.73 52.00
7691 48.2400 2547.00 2751.18 50.00
7692 48.2460 2575.00 2713.88 51.00
7693 48.2520 2548.00 2676.31 50.00
7694 48.2580 2540.00 2640.83 50.00
7695 48.2640 2521.00 2609.10 50.00
7696 48.2700 2572.00 2581.95 51.00
7697 48.2760 2475.00 2558.89 50.00
7698 48.2820 2395.00 2538.62 49.00
7699 48.2880 2413.00 2521.20 49.00
7700 48.2940 2413.00 2506.30 49.00
7701 48.3000 2508.00 2494.33 50.00
7702 48.3060 2509.00 2486.06 50.00
7703 48.3120 2473.00 2481.05 50.00
7704 48.3180 2436.00 2478.87 49.00
7705 48.3240 2421.00 2480.07 49.00
7706 48.3300 2442.00 2483.49 49.00
7707 48.3360 2492.00 2488.06 50.00
7708 48.3420 2474.00 2492.89 50.00
7709 48.3480 2518.00 2495.83 50.00
7710 48.3540 2479.00 2496.18 50.00
7711 48.3600 2465.00 2493.73 50.00
7712 48.3660 2432.00 2487.90 49.00
7713 48.3720 2508.00 2479.34 50.00
7714 48.3780 2445.00 2468.58 49.00
7715 48.3840 2460.00 2456.64 50.00
7716 48.3900 2395.00 2444.68 49.00
7717 48.3960 2250.00 2433.30 47.00
7718 48.4020 2311.00 2423.14 48.00
7719 48.4080 2424.00 2414.45 49.00
7720 48.4140 2346.00 2407.29 48.00
7721 48.4200 2340.00 2401.59 48.00
7722 48.4260 2314.00 2397.24 48.00
7723 48.4320 2319.00 2394.08 48.00
7724 48.4380 2379.00 2391.96 49.00
7725 48.4440 2411.00 2390.74 49.00
7726 48.4500 2360.00 2390.31 49.00
7727 48.4560 2266.00 2390.59 48.00
7728 48.4620 2340.00 2390.88 48.00
7729 48.4680 2373.00 2391.71 49.00
7730 48.4740 2332.00 2393.36 48.00
7731 48.4800 2344.00 2395.65 48.00
7732 48.4860 2353.00 2398.99 49.00
7733 48.4920 2382.00 2402.98 49.00
7734 48.4980 2361.00 2408.22 49.00
7735 48.5040 2384.00 2414.69 49.00
7736 48.5100 2382.00 2422.54 49.00
7737 48.5160 2379.00 2431.99 49.00
7738 48.5220 2341.00 2443.19 48.00
7739 48.5280 2474.00 2456.73 50.00
7740 48.5340 2434.00 2472.79 49.00
7741 48.5400 2446.00 2491.11 49.00
7742 48.5460 2452.00 2511.15 50.00
7743 48.5520 2506.00 2531.80 50.00
7744 48.5580 2437.00 2551.17 49.00
7745 48.5640 2560.00 2566.74 51.00
7746 48.5700 2508.00 2576.01 50.00
7747 48.5760 2421.00 2577.65 49.00
7748 48.5820 2495.00 2572.31 50.00
7749 48.5880 2435.00 2562.51 49.00
7750 48.5940 2467.00 2551.48 50.00
7751 48.6000 2489.00 2542.20 50.00
7752 48.6060 2593.00 2536.93 51.00
7753 48.6120 2512.00 2537.23 50.00
7754 48.6180 2467.00 2544.02 50.00
7755 48.6240 2644.00 2557.70 51.00
7756 48.6300 2559.00 2578.07 51.00
7757 48.6360 2682.00 2604.27 52.00
7758 48.6420 2697.00 2634.53 52.00
7759 48.6480 2729.00 2666.06 52.00
7760 48.6540 2774.00 2695.27 53.00
7761 48.6600 2835.00 2718.23 53.00
7762 48.6660 2787.00 2732.13 53.00
7763 48.6720 2855.00 2736.17 53.00
7764 48.6780 2750.00 2731.56 52.00
7765 48.6840 2765.00 2720.57 53.00
7766 48.6900 2730.00 2705.44 52.00
7767 48.6960 2751.00 2687.48 52.00
7768 48.7020 2703.00 2667.54 52.00
7769 48.7080 2650.00 2646.76 51.00
7770 48.7140 2603.00 2626.83 51.00
7771 48.7200 2657.00 2609.62 52.00
7772 48.7260 2511.00 2596.44 50.00
7773 48.7320 2581.00 2588.13 51.00
7774 48.7380 2531.00 2584.33 50.00
7775 48.7440 2500.00 2584.97 50.00
7776 48.7500 2534.00 2589.33 50.00
7777 48.7560 2566.00 2596.40 51.00
7778 48.7620 2541.00 2604.42 50.00
7779 48.7680 2575.00 2611.70 51.00
7780 48.7740 2492.00 2616.95 50.00
7781 48.7800 2644.00 2619.86 51.00
7782 48.7860 2623.00 2621.28 51.00
7783 48.7920 2622.00 2622.18 51.00
7784 48.7980 2626.00 2624.18 51.00
7785 48.8040 2661.00 2629.30 52.00
7786 48.8100 2702.00 2638.45 52.00
7787 48.8160 2686.00 2653.50 52.00
7788 48.8220 2624.00 2675.66 51.00
7789 48.8280 2671.00 2705.63 52.00
7790 48.8340 2746.00 2743.46 52.00
7791 48.8400 2882.00 2787.68 54.00
7792 48.8460 2830.00 2835.23 53.00
7793 48.8520 3027.00 2881.66 55.00
7794 48.8580 3007.00 2922.33 55.00
7795 48.8640 2997.00 2953.81 55.00
7796 48.8700 3063.00 2975.57 55.00
7797 48.8760 3061.00 2987.91 55.00
7798 48.8820 2964.00 2991.31 54.00
7799 48.8880 3085.00 2985.20 56.00
7800 48.8940 3085.00 2969.33 56.00
7801 48.9000 2960.00 2944.68 54.00
7802 48.9060 2970.00 2913.76 54.00
7803 48.9120 2837.00 2879.30 53.00
7804 48.9180 2861.00 2843.01 53.00
7805 48.9240 2757.00 2805.20 53.00
7806 48.9300 2711.00 2765.54 52.00
7807 48.9360 2611.00 2724.58 51.00
7808 48.9420 2727.00 2683.61 52.00
7809 48.9480 2616.00 2643.90 51.00
7810 48.9540 2626.00 2606.70 51.00
7811 48.9600 2458.00 2573.01 50.00
7812 48.9660 2482.00 2542.92 50.00
7813 48.9720 2484.00 2516.27 50.00
7814 48.9780 2374.00 2492.29 49.00
7815 48.9840 2397.00 2470.64 49.00
7816 48.9900 2403.00 2451.26 49.00
7817 48.9960 2261.00 2434.46 48.00
7818 49.0020 2435.00 2420.62 49.00
7819 49.0080 2335.00 2410.03 48.00
7820 49.0140 2313.00 2402.88 48.00
7821 49.0200 2337.00 2399.18 48.00
7822 49.0260 2362.00 2398.83 49.00
7823 49.0320 2355.00 2401.62 49.00
7824 49.0380 2343.00 2407.18 48.00
7825 49.0440 2361.00 2414.91 49.00
7826 49.0500 2424.00 2423.92 49.00
7827 49.0560 2413.00 2432.99 49.00
7828 49.0620 2429.00 2440.71 49.00
7829 49.0680 2433.00 2445.44 49.00
7830 49.0740 2410.00 2446.26 49.00
7831 49.0800 2310.00 2442.99 48.00
7832 49.0860 2359.00 2436.41 49.00
7833 49.0920 2289.00 2427.88 48.00
7834 49.0980 2445.00 2418.73 49.00
7835 49.1040 2335.00 2409.95 48.00
7836 49.1100 2257.00 2401.80 48.00
7837 49.1160 2369.00 2393.99 49.00
7838 49.1220 2334.00 2385.88 48.00
7839 49.1280 2413.00 2376.87 49.00
7840 49.1340 2245.00 2366.79 47.00
7841 49.1400 2290.00 2355.93 48.00
7842 49.1460 2297.00 2344.89 48.00
7843 49.1520 2298.00 2334.22 48.00
7844 49.1580 2231.00 2324.01 47.00
7845 49.1640 2224.00 2315.26 47.00
7846 49.1700 2240.00 2307.64 47.00
7847 49.1760 2177.00 2301.10 47.00
7848 49.1820 2268.00 2295.60 48.00
7849 49.1880 2236.00 2291.03 47.00
7850 49.1940 2238.00 2287.27 47.00
7851 49.2000 2258.00 2284.20 48.00
7852 49.2060 2230.00 2281.72 47.00
7853 49.2120 2190.00 2279.74 47.00
7854 49.2180 2128.00 2278.21 46.00
7855 49.2240 2190.00 2277.08 47.00
7856 49.2300 2145.00 2276.35 46.00
7857 49.2360 2166.00 2276.33 47.00
7858 49.2420 2276.00 2277.35 48.00
7859 49.2480 2210.00 2278.58 47.00
7860 49.2540 2139.00 2280.97 46.00
7861 49.2600 2241.00 2283.97 47.00
7862 49.2660 2173.00 2288.35 47.00
7863 49.2720 2285.00 2293.98 48.00
7864 49.2780 2189.00 2300.99 47.00
7865 49.2840 2220.00 2309.46 47.00
7866 49.2900 2328.00 2319.07 48.00
7867 49.2960 2214.00 2330.17 47.00
7868 49.3020 2290.00 2342.00 48.00
7869 49.3080 2327.00 2353.76 48.00
7870 49.3140 2364.00 2364.44 49.00
7871 49.3200 2335.00 2372.29 48.00
7872 49.3260 2362.00 2376.53 49.00
7873 49.3320 2292.00 2376.73 48.00
7874 49.3380 2335.00 2373.22 48.00
7875 49.3440 2225.00 2366.67 47.00
7876 49.3500 2199.00 2357.76 47.00
7877 49.3560 2290.00 2347.42 48.00
7878 49.3620 2175.00 2336.18 47.00
7879 49.3680 2222.00 2325.31 47.00
7880 49.3740 2113.00 2315.23 46.00
7881 49.3800 2245.00 2306.34 47.00
7882 49.3860 2147.00 2298.95 46.00
7883 49.3920 2156.00 2293.06 46.00
7884 49.3980 2187.00 2288.55 47.00
7885 49.4040 2203.00 2285.54 47.00
7886 49.4100 2178.00 2283.84 47.00
7887 49.4160 2185.00 2283.52 47.00
7888 49.4220 2208.00 2284.14 47.00
7889 49.4280 2157.00 2285.78 46.00
7890 49.4340 2253.00 2288.31 47.00
7891 49.4400 2228.00 2291.62 47.00
7892 49.4460 2302.00 2295.23 48.00
7893 49.4520 2230.00 2299.06 47.00
7894 49.4580 2274.00 2303.34 48.00
7895 49.4640 2195.00 2307.08 47.00
7896 49.4700 2322.00 2310.04 48.00
7897 49.4760 2214.00 2311.82 47.00
7898 49.4820 2271.00 2312.16 48.00
7899 49.4880 2176.00 2311.90 47.00
7900 49.4940 2231.00 2312.00 47.00
7901 49.5000 2247.00 2312.64 47.00
7902 49.5060 2179.00 2314.14 47.00
7903 49.5120 2246.00 2316.68 47.00
7904 49.5180 2253.00 2319.79 47.00
7905 49.5240 2312.00 2323.66 48.00
7906 49.5300 2277.00 2327.41 48.00
7907 49.5360 2311.00 2330.37 48.00
7908 49.5420 2330.00 2332.04 48.00
7909 49.5480 2277.00 2332.39 48.00
7910 49.5540 2266.00 2331.31 48.00
7911 49.5600 2361.00 2328.74 49.00
7912 49.5660 2266.00 2324.68 48.00
7913 49.5720 2338.00 2319.21 48.00
7914 49.5780 2315.00 2313.04 48.00
7915 49.5840 2254.00 2306.68 47.00
7916 49.5900 2289.00 2300.71 48.00
7917 49.5960 2263.00 2295.56 48.00
7918 49.6020 2219.00 2291.60 47.00
7919 49.6080 2205.00 2288.75 47.00
7920 49.6140 2223.00 2287.09 47.00
7921 49.6200 2262.00 2286.58 48.00
7922 49.6260 2272.00 2287.08 48.00
7923 49.6320 2218.00 2288.36 47.00
7924 49.6380 2263.00 2290.08 48.00
7925 49.6440 2290.00 2291.83 48.00
7926 49.6500 2261.00 2293.07 48.00
7927 49.6560 2210.00 2293.19 47.00
7928 49.6620 2244.00 2292.16 47.00
7929 49.6680 2268.00 2289.69 48.00
7930 49.6740 2209.00 2286.51 47.00
7931 49.6800 2268.00 2282.87 48.00
7932 49.6860 2235.00 2279.14 47.00
7933 49.6920 2267.00 2275.59 48.00
7934 49.6980 2142.00 2272.41 46.00
7935 49.7040 2232.00 2269.63 47.00
7936 49.7100 2183.00 2267.29 47.00
7937 49.7160 2191.00 2265.38 47.00
7938 49.7220 2193.00 2263.76 47.00
7939 49.7280 2189.00 2262.56 47.00
7940 49.7340 2146.00 2261.69 46.00
7941 49.7400 2274.00 2261.06 48.00
7942 49.7460 2243.00 2260.62 47.00
7943 49.7520 2257.00 2260.33 48.00
7944 49.7580 2183.00 2260.18 47.00
7945 49.7640 2110.00 2260.12 46.00
7946 49.7700 2171.00 2260.17 47.00
7947 49.7760 2217.00 2260.29 47.00
7948 49.7820 2101.00 2260.50 46.00
7949 49.7880 2136.00 2260.94 46.00
7950 49.7940 2180.00 2261.32 47.00
7951 49.8000 2163.00 2261.90 47.00
7952 49.8060 2184.00 2262.51 47.00
7953 49.8120 2213.00 2263.27 47.00
7954 49.8180 2215.00 2264.20 47.00
7955 49.8240 2228.00 2265.35 47.00
7956 49.8300 2192.00 2266.79 47.00
7957 49.8360 2230.00 2268.59 47.00
7958 49.8420 2192.00 2271.13 47.00
7959 49.8480 2222.00 2273.98 47.00
7960 49.8540 2209.00 2277.50 47.00
7961 49.8600 2241.00 2282.05 47.00
7962 49.8660 2307.00 2287.36 48.00
7963 49.8720 2186.00 2293.58 47.00
7964 49.8780 2141.00 2300.78 46.00
7965 49.8840 2156.00 2308.84 46.00
7966 49.8900 2301.00 2317.54 48.00
7967 49.8960 2311.00 2326.50 48.00
7968 49.9020 2284.00 2334.85 48.00
7969 49.9080 2223.00 2341.74 47.00
7970 49.9140 2261.00 2346.21 48.00
7971 49.9200 2225.00 2347.60 47.00
7972 49.9260 2238.00 2346.26 47.00
7973 49.9320 2295.00 2342.94 48.00
7974 49.9380 2288.00 2338.78 48.00
7975 49.9440 2210.00 2334.75 47.00
7976 49.9500 2319.00 2331.75 48.00
7977 49.9560 2321.00 2330.13 48.00
7978 49.9620 2246.00 2330.08 47.00
7979 49.9680 2236.00 2331.36 47.00
7980 49.9740 2264.00 2333.82 48.00
7981 49.9800 2264.00 2336.99 48.00
7982 49.9860 2233.00 2340.66 47.00
7983 49.9920 2285.00 2344.60 48.00
7984 49.9980 2181.00 2348.53 47.00
7985 50.0040 2251.00 2351.90 47.00
7986 50.0100 2229.00 2353.95 47.00
7987 50.0160 2283.00 2353.93 48.00
7988 50.0220 2287.00 2351.34 48.00
7989 50.0280 2267.00 2346.53 48.00
7990 50.0340 2272.00 2340.31 48.00
7991 50.0400 2277.00 2333.70 48.00
7992 50.0460 2169.00 2327.57 47.00
7993 50.0520 2174.00 2322.54 47.00
7994 50.0580 2234.00 2318.95 47.00
7995 50.0640 2254.00 2316.96 47.00
7996 50.0700 2187.00 2316.42 47.00
7997 50.0760 2286.00 2317.35 48.00
7998 50.0820 2298.00 2319.29 48.00
7999 50.0880 2265.00 2321.79 48.00
8000 50.0940 2290.00 2324.45 48.00
8001 50.1000 2190.00 2326.91 47.00
8002 50.1060 2236.00 2328.94 47.00
8003 50.1120 2217.00 2330.26 47.00
8004 50.1180 2223.00 2330.49 47.00
8005 50.1240 2264.00 2329.32 48.00
8006 50.1300 2296.00 2326.76 48.00
8007 50.1360 2267.00 2322.98 48.00
8008 50.1420 2207.00 2319.00 47.00
8009 50.1480 2204.00 2315.10 47.00
8010 50.1540 2203.00 2311.96 47.00
8011 50.1600 2201.00 2309.93 47.00
8012 50.1660 2210.00 2309.18 47.00
8013 50.1720 2167.00 2309.81 47.00
8014 50.1780 2118.00 2311.68 46.00
8015 50.1840 2127.00 2314.70 46.00
8016 50.1900 2188.00 2318.14 47.00
8017 50.1960 2195.00 2321.55 47.00
8018 50.2020 2225.00 2324.18 47.00
8019 50.2080 2192.00 2325.33 47.00
8020 50.2140 2216.00 2324.65 47.00
8021 50.2200 2276.00 2322.22 48.00
8022 50.2260 2258.00 2318.56 48.00
8023 50.2320 2285.00 2314.33 48.00
8024 50.2380 2247.00 2310.17 47.00
8025 50.2440 2203.00 2306.49 47.00
8026 50.2500 2227.00 2303.16 47.00
8027 50.2560 2224.00 2300.58 47.00
8028 50.2620 2212.00 2298.33 47.00
8029 50.2680 2179.00 2296.64 47.00
8030 50.2740 2164.00 2295.40 47.00
8031 50.2800 2246.00 2294.58 47.00
8032 50.2860 2147.00 2294.19 46.00
8033 50.2920 2142.00 2294.33 46.00
8034 50.2980 2167.00 2294.64 47.00
8035 50.3040 2208.00 2295.22 47.00
8036 50.3100 2206.00 2296.07 47.00
8037 50.3160 2260.00 2297.41 48.00
8038 50.3220 2270.00 2299.24 48.00
8039 50.3280 2243.00 2302.12 47.00
8040 50.3340 2215.00 2306.03 47.00
8041 50.3400 2191.00 2311.08 47.00
8042 50.3460 2195.00 2317.63 47.00
8043 50.3520 2186.00 2325.82 47.00
8044 50.3580 2241.00 2335.56 47.00
8045 50.3640 2263.00 2346.94 48.00
8046 50.3700 2329.00 2359.71 48.00
8047 50.3760 2271.00 2373.92 48.00
8048 50.3820 2339.00 2388.41 48.00
8049 50.3880 2382.00 2402.45 49.00
8050 50.3940 2397.00 2415.18 49.00
8051 50.4000 2364.00 2426.24 49.00
8052 50.4060 2273.00 2435.91 48.00
8053 50.4120 2341.00 2445.06 48.00
8054 50.4180 2423.00 2454.84 49.00
8055 50.4240 2458.00 2466.23 50.00
8056 50.4300 2467.00 2479.58 50.00
8057 50.4360 2458.00 2494.48 50.00
8058 50.4420 2468.00 2509.58 50.00
8059 50.4480 2439.00 2523.00 49.00
8060 50.4540 2494.00 2532.41 50.00
8061 50.4600 2487.00 2536.30 50.00
8062 50.4660 2446.00 2533.99 49.00
8063 50.4720 2454.00 2526.18 50.00
8064 50.4780 2392.00 2513.46 49.00
8065 50.4840 2422.00 2497.89 49.00
8066 50.4900 2433.00 2481.26 49.00
8067 50.4960 2366.00 2464.98 49.00
8068 50.5020 2383.00 2449.62 49.00
8069 50.5080 2354.00 2435.65 49.00
8070 50.5140 2416.00 2423.24 49.00
8071 50.5200 2381.00 2412.20 49.00
8072 50.5260 2353.00 2402.71 49.00
8073 50.5320 2267.00 2394.34 48.00
8074 50.5380 2245.00 2386.81 47.00
8075 50.5440 2322.00 2380.13 48.00
8076 50.5500 2350.00 2374.37 48.00
8077 50.5560 2324.00 2369.47 48.00
8078 50.5620 2281.00 2365.17 48.00
8079 50.5680 2277.00 2361.08 48.00
8080 50.5740 2288.00 2356.79 48.00
8081 50.5800 2291.00 2352.07 48.00
8082 50.5860 2218.00 2346.86 47.00
8083 50.5920 2195.00 2341.50 47.00
8084 50.5980 2181.00 2336.29 47.00
8085 50.6040 2235.00 2331.51 47.00
8086 50.6100 2300.00 2327.30 48.00
8087 50.6160 2251.00 2323.55 47.00
8088 50.6220 2184.00 2319.87 47.00
8089 50.6280 2197.00 2316.31 47.00
8090 50.6340 2246.00 2312.53 47.00
8091 50.6400 2291.00 2308.55 48.00
8092 50.6460 2307.00 2304.57 48.00
8093 50.6520 2286.00 2300.88 48.00
8094 50.6580 2257.00 2297.74 48.00
8095 50.6640 2251.00 2295.33 47.00
8096 50.6700 2267.00 2293.83 48.00
8097 50.6760 2235.00 2293.38 47.00
8098 50.6820 2211.00 2294.18 47.00
8099 50.6880 2217.00 2296.18 47.00
8100 50.6940 2197.00 2299.57 47.00
8101 50.7000 2208.00 2304.41 47.00
8102 50.7060 2211.00 2310.88 47.00
8103 50.7120 2243.00 2318.96 47.00
8104 50.7180 2245.00 2328.57 47.00
8105 50.7240 2191.00 2339.58 47.00
8106 50.7300 2165.00 2351.51 47.00
8107 50.7360 2201.00 2364.42 47.00
8108 50.7420 2284.00 2376.84 48.00
8109 50.7480 2294.00 2388.38 48.00
8110 50.7540 2300.00 2398.43 48.00
8111 50.7600 2296.00 2406.51 48.00
8112 50.7660 2279.00 2412.69 48.00
8113 50.7720 2313.00 2417.25 48.00
8114 50.7780 2281.00 2420.64 48.00
8115 50.7840 2324.00 2423.18 48.00
8116 50.7900 2365.00 2425.03 49.00
8117 50.7960 2359.00 2426.32 49.00
8118 50.8020 2372.00 2427.37 49.00
8119 50.8080 2405.00 2428.90 49.00
8120 50.8140 2382.00 2431.89 49.00
8121 50.8200 2353.00 2437.20 49.00
8122 50.8260 2356.00 2445.63 49.00
8123 50.8320 2372.00 2457.10 49.00
8124 50.8380 2383.00 2471.01 49.00
8125 50.8440 2421.00 2486.08 49.00
8126 50.8500 2492.00 2500.53 50.00
8127 50.8560 2503.00 2512.52 50.00
8128 50.8620 2479.00 2520.73 50.00
8129 50.8680 2464.00 2524.92 50.00
8130 50.8740 2438.00 2525.91 49.00
8131 50.8800 2425.00 2525.30 49.00
8132 50.8860 2444.00 2524.90 49.00
8133 50.8920 2437.00 2526.25 49.00
8134 50.8980 2451.00 2530.24 50.00
8135 50.9040 2488.00 2537.24 50.00
8136 50.9100 2526.00 2546.64 50.00
8137 50.9160 2525.00 2558.02 50.00
8138 50.9220 2518.00 2570.82 50.00
8139 50.9280 2575.00 2584.38 51.00
8140 50.9340 2591.00 2597.10 51.00
8141 50.9400 2597.00 2608.08 51.00
8142 50.9460 2593.00 2616.65 51.00
8143 50.9520 2557.00 2622.95 51.00
8144 50.9580 2566.00 2627.91 51.00
8145 50.9640 2529.00 2632.52 50.00
8146 50.9700 2532.00 2636.87 50.00
8147 50.9760 2564.00 2639.94 51.00
8148 50.9820 2513.00 2639.65 50.00
8149 50.9880 2513.00 2633.76 50.00
8150 50.9940 2539.00 2620.62 50.00
8151 51.0000 2497.00 2600.31 50.00
8152 51.0060 2418.00 2574.43 49.00
8153 51.0120 2378.00 2546.14 49.00
8154 51.0180 2373.00 2517.98 49.00
8155 51.0240 2407.00 2492.66 49.00
8156 51.0300 2436.00 2471.75 49.00
8157 51.0360 2404.00 2456.30 49.00
8158 51.0420 2381.00 2446.61 49.00
8159 51.0480 2367.00 2442.52 49.00
8160 51.0540 2366.00 2443.37 49.00
8161 51.0600 2394.00 2448.09 49.00
8162 51.0660 2371.00 2455.08 49.00
8163 51.0720 2339.00 2463.14 48.00
8164 51.0780 2346.00 2470.19 48.00
8165 51.0840 2356.00 2474.27 49.00
8166 51.0900 2348.00 2474.18 48.00
8167 51.0960 2368.00 2469.08 49.00
8168 51.1020 2415.00 2459.13 49.00
8169 51.1080 2380.00 2445.29 49.00
8170 51.1140 2409.00 2428.79 49.00
8171 51.1200 2390.00 2410.73 49.00
8172 51.1260 2288.00 2392.40 48.00
8173 51.1320 2361.00 2374.62 49.00
8174 51.1380 2308.00 2358.10 48.00
8175 51.1440 2310.00 2342.76 48.00
8176 51.1500 2278.00 2329.03 48.00
8177 51.1560 2267.00 2316.59 48.00
8178 51.1620 2248.00 2305.46 47.00
8179 51.1680 2267.00 2295.61 48.00
8180 51.1740 2238.00 2287.06 47.00
8181 51.1800 2208.00 2279.74 47.00
8182 51.1860 2188.00 2273.52 47.00
8183 51.1920 2203.00 2268.57 47.00
8184 51.1980 2206.00 2264.40 47.00
8185 51.2040 2112.00 2261.19 46.00
8186 51.2100 2186.00 2258.91 47.00
8187 51.2160 2199.00 2257.87 47.00
8188 51.2220 2214.00 2257.85 47.00
8189 51.2280 2217.00 2258.55 47.00
8190 51.2340 2247.00 2259.99 47.00
8191 51.2400 2223.00 2262.17 47.00
8192 51.2460 2246.00 2265.06 47.00
8193 51.2520 2212.00 2268.81 47.00
8194 51.2580 2252.00 2273.35 47.00
8195 51.2640 2197.00 2278.70 47.00
8196 51.2700 2135.00 2284.83 46.00
8197 51.2760 2169.00 2291.67 47.00
8198 51.2820 2200.00 2299.16 47.00
8199 51.2880 2241.00 2307.20 47.00
8200 51.2940 2304.00 2315.95 48.00
8201 51.3000 2260.00 2324.70 48.00
8202 51.3060 2267.00 2333.76 48.00
8203 51.3120 2301.00 2343.36 48.00
8204 51.3180 2288.00 2353.82 48.00
8205 51.3240 2283.00 2365.38 48.00
8206 51.3300 2299.00 2377.93 48.00
8207 51.3360 2355.00 2390.85 49.00
8208 51.3420 2321.00 2402.98 48.00
8209 51.3480 2346.00 2412.75 48.00
8210 51.3540 2445.00 2418.31 49.00
8211 51.3600 2447.00 2418.37 49.00
8212 51.3660 2311.00 2412.97 48.00
8213 51.3720 2208.00 2402.91 47.00
8214 51.3780 2218.00 2390.02 47.00
8215 51.3840 2293.00 2375.66 48.00
8216 51.3900 2269.00 2361.13 48.00
8217 51.3960 2217.00 2347.35 47.00
8218 51.4020 2206.00 2335.10 47.00
8219 51.4080 2174.00 2324.82 47.00
8220 51.4140 2256.00 2316.33 47.00
8221 51.4200 2314.00 2310.04 48.00
8222 51.4260 2222.00 2305.63 47.00
8223 51.4320 2106.00 2302.91 46.00
8224 51.4380 2184.00 2301.51 47.00
8225 51.4440 2151.00 2301.16 46.00
8226 51.4500 2151.00 2301.62 46.00
8227 51.4560 2218.00 2302.80 47.00
8228 51.4620 2175.00 2304.79 47.00
8229 51.4680 2163.00 2307.83 47.00
8230 51.4740 2180.00 2312.13 47.00
8231 51.4800 2181.00 2317.96 47.00
8232 51.4860 2209.00 2325.88 47.00
8233 51.4920 2134.00 2335.87 46.00
8234 51.4980 2144.00 2347.81 46.00
8235 51.5040 2192.00 2361.56 47.00
8236 51.5100 2248.00 2376.67 47.00
8237 51.5160 2200.00 2392.36 47.00
8238 51.5220 2200.00 2407.57 47.00
8239 51.5280 2288.00 2421.13 48.00
8240 51.5340 2335.00 2432.16 48.00
8241 51.5400 2292.00 2439.91 48.00
8242 51.5460 2249.00 2443.86 47.00
8243 51.5520 2329.00 2443.99 48.00
8244 51.5580 2336.00 2440.51 48.00
8245 51.5640 2268.00 2434.07 48.00
8246 51.5700 2157.00 2425.84 46.00
8247 51.5760 2105.00 2417.42 46.00
8248 51.5820 2153.00 2409.68 46.00
8249 51.5880 2222.00 2403.22 47.00
8250 51.5940 2242.00 2398.32 47.00
8251 51.6000 2353.00 2394.87 49.00
8252 51.6060 2363.00 2392.94 49.00
8253 51.6120 2302.00 2391.76 48.00
8254 51.6180 2303.00 2391.44 48.00
8255 51.6240 2310.00 2391.70 48.00
8256 51.6300 2272.00 2392.26 48.00
8257 51.6360 2255.00 2392.96 47.00
8258 51.6420 2281.00 2393.95 48.00
8259 51.6480 2293.00 2395.33 48.00
8260 51.6540 2360.00 2397.16 49.00
8261 51.6600 2348.00 2399.36 48.00
8262 51.6660 2380.00 2401.71 49.00
8263 51.6720 2354.00 2403.90 49.00
8264 51.6780 2234.00 2405.56 47.00
8265 51.6840 2344.00 2406.20 48.00
8266 51.6900 2370.00 2405.23 49.00
8267 51.6960 2296.00 2402.49 48.00
8268 51.7020 2355.00 2398.14 49.00
8269 51.7080 2325.00 2392.71 48.00
8270 51.7140 2341.00 2386.93 48.00
8271 51.7200 2350.00 2382.35 48.00
8272 51.7260 2242.00 2379.35 47.00
8273 51.7320 2177.00 2378.32 47.00
8274 51.7380 2243.00 2379.29 47.00
8275 51.7440 2309.00 2382.33 48.00
8276 51.7500 2326.00 2386.95 48.00
8277 51.7560 2187.00 2392.53 47.00
8278 51.7620 2218.00 2398.29 47.00
8279 51.7680 2239.00 2403.52 47.00
8280 51.7740 2295.00 2407.74 48.00
8281 51.7800 2255.00 2410.92 47.00
8282 51.7860 2356.00 2413.32 49.00
8283 51.7920 2344.00 2415.33 48.00
8284 51.7980 2314.00 2417.27 48.00
8285 51.8040 2232.00 2419.17 47.00
8286 51.8100 2250.00 2420.72 47.00
8287 51.8160 2238.00 2421.43 47.00
8288 51.8220 2270.00 2420.90 48.00
8289 51.8280 2295.00 2418.93 48.00
8290 51.8340 2343.00 2415.55 48.00
8291 51.8400 2307.00 2411.04 48.00
8292 51.8460 2309.00 2405.82 48.00
8293 51.8520 2365.00 2400.59 49.00
8294 51.8580 2297.00 2396.21 48.00
8295 51.8640 2348.00 2393.43 48.00
8296 51.8700 2406.00 2392.83 49.00
8297 51.8760 2355.00 2394.78 49.00
8298 51.8820 2304.00 2399.41 48.00
8299 51.8880 2316.00 2406.63 48.00
8300 51.8940 2285.00 2416.12 48.00
8301 51.9000 2265.00 2427.30 48.00
8302 51.9060 2343.00 2439.26 48.00
8303 51.9120 2390.00 2450.75 49.00
8304 51.9180 2394.00 2460.37 49.00
8305 51.9240 2374.00 2466.93 49.00
8306 51.9300 2341.00 2470.12 48.00
8307 51.9360 2409.00 2470.59 49.00
8308 51.9420 2366.00 2469.64 49.00
8309 51.9480 2445.00 2468.41 49.00
8310 51.9540 2392.00 2467.85 49.00
8311 51.9600 2412.00 2468.28 49.00
8312 51.9660 2409.00 2469.35 49.00
8313 51.9720 2423.00 2470.23 49.00
8314 51.9780 2298.00 2469.79 48.00
8315 51.9840 2294.00 2466.85 48.00
8316 51.9900 2321.00 2461.96 48.00
8317 51.9960 2283.00 2455.30 48.00
8318 52.0020 2270.00 2447.83 48.00
8319 52.0080 2245.00 2440.56 47.00
8320 52.0140 2248.00 2431.94 47.00
8321 52.0200 2322.00 2424.58 48.00
8322 52.0260 2296.00 2418.39 48.00
8323 52.0320 2288.00 2413.00 48.00
8324 52.0380 2431.00 2407.95 49.00
8325 52.0440 2231.00 2402.89 47.00
8326 52.0500 2282.00 2397.80 48.00
8327 52.0560 2209.00 2392.93 47.00
8328 52.0620 2223.00 2388.68 47.00
8329 52.0680 2270.00 2385.47 48.00
8330 52.0740 2255.00 2383.76 47.00
8331 52.0800 2230.00 2383.73 47.00
8332 52.0860 2253.00 2385.76 47.00
8333 52.0920 2323.00 2389.93 48.00
8334 52.0980 2228.00 2395.97 47.00
8335 52.1040 2393.00 2403.59 49.00
8336 52.1100 2338.00 2412.10 48.00
8337 52.1160 2454.00 2420.58 50.00
8338 52.1220 2378.00 2427.96 49.00
8339 52.1280 2392.00 2433.49 49.00
8340 52.1340 2374.00 2437.06 49.00
8341 52.1400 2235.00 2438.96 47.00
8342 52.1460 2273.00 2440.00 48.00
8343 52.1520 2394.00 2441.00 49.00
8344 52.1580 2457.00 2441.87 50.00
8345 52.1640 2335.00 2443.42 48.00
8346 52.1700 2300.00 2445.37 48.00
8347 52.1760 2366.00 2447.62 49.00
8348 52.1820 2384.00 2449.34 49.00
8349 52.1880 2398.00 2450.03 49.00
8350 52.1940 2328.00 2448.39 48.00
8351 52.2000 2329.00 2443.68 48.00
8352 52.2060 2345.00 2435.99 48.00
8353 52.2120 2358.00 2426.21 49.00
8354 52.2180 2357.00 2415.62 49.00
8355 52.2240 2325.00 2405.70 48.00
8356 52.2300 2323.00 2396.82 48.00
8357 52.2360 2325.00 2389.45 48.00
8358 52.2420 2317.00 2383.27 48.00
8359 52.2480 2360.00 2377.66 49.00
8360 52.2540 2321.00 2371.63 48.00
8361 52.2600 2275.00 2364.30 48.00
8362 52.2660 2257.00 2355.19 48.00
8363 52.2720 2282.00 2344.87 48.00
8364 52.2780 2300.00 2333.51 48.00
8365 52.2840 2165.00 2322.16 47.00
8366 52.2900 2219.00 2311.53 47.00
8367 52.2960 2235.00 2302.18 47.00
8368 52.3020 2123.00 2294.16 46.00
8369 52.3080 2153.00 2287.59 46.00
8370 52.3140 2149.00 2282.32 46.00
8371 52.3200 2221.00 2278.03 47.00
8372 52.3260 2208.00 2274.19 47.00
8373 52.3320 2198.00 2270.51 47.00
8374 52.3380 2181.00 2266.52 47.00
8375 52.3440 2173.00 2262.05 47.00
8376 52.3500 2213.00 2257.24 47.00
8377 52.3560 2192.00 2252.37 47.00
8378 52.3620 2204.00 2247.76 47.00
8379 52.3680 2135.00 2243.65 46.00
8380 52.3740 2239.00 2240.19 47.00
8381 52.3800 2127.00 2237.44 46.00
8382 52.3860 2157.00 2235.33 46.00
8383 52.3920 2176.00 2233.74 47.00
8384 52.3980 2130.00 2232.32 46.00
8385 52.4040 2134.00 2231.22 46.00
8386 52.4100 2133.00 2229.56 46.00
8387 52.4160 2144.00 2227.54 46.00
8388 52.4220 2182.00 2225.07 47.00
8389 52.4280 2151.00 2222.29 46.00
8390 52.4340 2162.00 2219.44 46.00
8391 52.4400 2127.00 2216.71 46.00
8392 52.4460 2179.00 2214.26 47.00
8393 52.4520 2167.00 2213.12 47.00
8394 52.4580 2112.00 2212.98 46.00
8395 52.4640 2147.00 2213.01 46.00
8396 52.4700 2204.00 2212.76 47.00
8397 52.4760 2163.00 2212.39 47.00
8398 52.4820 2171.00 2211.54 47.00
8399 52.4880 2191.00 2210.34 47.00
8400 52.4940 2221.00 2208.92 47.00
8401 52.5000 2238.00 2207.55 47.00
8402 52.5060 2201.00 2206.64 47.00
8403 52.5120 2203.00 2206.06 47.00
8404 52.5180 2239.00 2206.13 47.00
8405 52.5240 2193.00 2206.97 47.00
8406 52.5300 2174.00 2208.64 47.00
8407 52.5360 2174.00 2211.22 47.00
8408 52.5420 2223.00 2214.93 47.00
8409 52.5480 2217.00 2219.29 47.00
8410 52.5540 2160.00 2224.44 46.00
8411 52.5600 2224.00 2229.91 47.00
8412 52.5660 2229.00 2236.03 47.00
8413 52.5720 2253.00 2242.17 47.00
8414 52.5780 2273.00 2248.08 48.00
8415 52.5840 2240.00 2253.64 47.00
8416 52.5900 2228.00 2258.96 47.00
8417 52.5960 2211.00 2264.22 47.00
8418 52.6020 2213.00 2269.54 47.00
8419 52.6080 2220.00 2274.82 47.00
8420 52.6140 2307.00 2279.66 48.00
8421 52.6200 2300.00 2283.63 48.00
8422 52.6260 2205.00 2286.32 47.00
8423 52.6320 2244.00 2287.07 47.00
8424 52.6380 2313.00 2285.58 48.00
8425 52.6440 2212.00 2282.36 47.00
8426 52.6500 2187.00 2277.30 47.00
8427 52.6560 2211.00 2271.57 47.00
8428 52.6620 2218.00 2266.01 47.00
8429 52.6680 2192.00 2261.35 47.00
8430 52.6740 2194.00 2258.00 47.00
8431 52.6800 2242.00 2256.47 47.00
8432 52.6860 2249.00 2256.79 47.00
8433 52.6920 2196.00 2258.92 47.00
8434 52.6980 2176.00 2262.64 47.00
8435 52.7040 2271.00 2267.71 48.00
8436 52.7100 2338.00 2273.51 48.00
8437 52.7160 2293.00 2279.54 48.00
8438 52.7220 2218.00 2285.36 47.00
8439 52.7280 2251.00 2290.66 47.00
8440 52.7340 2274.00 2295.43 48.00
8441 52.7400 2241.00 2299.86 47.00
8442 52.7460 2264.00 2304.34 48.00
8443 52.7520 2284.00 2309.31 48.00
8444 52.7580 2260.00 2314.90 48.00
8445 52.7640 2275.00 2320.88 48.00
8446 52.7700 2357.00 2327.28 49.00
8447 52.7760 2321.00 2333.40 48.00
8448 52.7820 2298.00 2338.37 48.00
8449 52.7880 2321.00 2341.48 48.00
8450 52.7940 2300.00 2342.29 48.00
8451 52.8000 2341.00 2340.69 48.00
8452 52.8060 2247.00 2337.11 47.00
8453 52.8120 2231.00 2332.44 47.00
8454 52.8180 2263.00 2327.78 48.00
8455 52.8240 2268.00 2324.23 48.00
8456 52.8300 2294.00 2322.40 48.00
8457 52.8360 2273.00 2322.86 48.00
8458 52.8420 2238.00 2325.87 47.00
8459 52.8480 2364.00 2330.63 49.00
8460 52.8540 2327.00 2336.52 48.00
8461 52.8600 2305.00 2342.66 48.00
8462 52.8660 2346.00 2348.18 48.00
8463 52.8720 2328.00 2352.67 48.00
8464 52.8780 2245.00 2356.35 47.00
8465 52.8840 2340.00 2359.80 48.00
8466 52.8900 2342.00 2363.60 48.00
8467 52.8960 2271.00 2367.83 48.00
8468 52.9020 2224.00 2372.20 47.00
8469 52.9080 2300.00 2376.09 48.00
8470 52.9140 2312.00 2378.49 48.00
8471 52.9200 2351.00 2378.80 48.00
8472 52.9260 2248.00 2376.71 47.00
8473 52.9320 2246.00 2372.36 47.00
8474 52.9380 2274.00 2365.92 48.00
8475 52.9440 2289.00 2357.72 48.00
8476 52.9500 2257.00 2348.21 48.00
8477 52.9560 2277.00 2337.95 48.00
8478 52.9620 2314.00 2327.48 48.00
8479 52.9680 2361.00 2317.19 49.00
8480 52.9740 2259.00 2307.29 48.00
8481 52.9800 2277.00 2298.26 48.00
8482 52.9860 2283.00 2290.45 48.00
8483 52.9920 2269.00 2284.41 48.00
8484 52.9980 2179.00 2280.32 47.00
8485 53.0040 2264.00 2278.63 48.00
8486 53.0100 2297.00 2279.19 48.00
8487 53.0160 2261.00 2281.99 48.00
8488 53.0220 2233.00 2286.73 47.00
8489 53.0280 2293.00 2292.89 48.00
8490 53.0340 2257.00 2299.72 48.00
8491 53.0400 2241.00 2306.29 47.00
8492 53.0460 2188.00 2311.63 47.00
8493 53.0520 2263.00 2315.08 48.00
8494 53.0580 2230.00 2316.70 47.00
8495 53.0640 2205.00 2317.09 47.00
8496 53.0700 2260.00 2317.16 48.00
8497 53.0760 2246.00 2317.82 47.00
8498 53.0820 2211.00 2319.71 47.00
8499 53.0880 2293.00 2323.05 48.00
8500 53.0940 2224.00 2327.66 47.00
8501 53.1000 2241.00 2333.04 47.00
8502 53.1060 2270.00 2338.54 48.00
8503 53.1120 2284.00 2343.54 48.00
8504 53.1180 2311.00 2347.74 48.00
8505 53.1240 2265.00 2351.12 48.00
8506 53.1300 2457.00 2353.96 50.00
8507 53.1360 2302.00 2356.40 48.00
8508 53.1420 2261.00 2358.61 48.00
8509 53.1480 2262.00 2360.32 48.00
8510 53.1540 2352.00 2361.32 48.00
8511 53.1600 2198.00 2361.39 47.00
8512 53.1660 2170.00 2360.60 47.00
8513 53.1720 2259.00 2358.84 48.00
8514 53.1780 2247.00 2355.78 47.00
8515 53.1840 2238.00 2351.03 47.00
8516 53.1900 2295.00 2344.11 48.00
8517 53.1960 2252.00 2334.97 47.00
8518 53.2020 2186.00 2324.18 47.00
8519 53.2080 2173.00 2312.75 47.00
8520 53.2140 2178.00 2301.82 47.00
8521 53.2200 2200.00 2292.31 47.00
8522 53.2260 2188.00 2285.09 47.00
8523 53.2320 2259.00 2280.66 48.00
8524 53.2380 2256.00 2279.08 47.00
8525 53.2440 2229.00 2280.56 47.00
8526 53.2500 2306.00 2285.02 48.00
8527 53.2560 2192.00 2292.24 47.00
8528 53.2620 2173.00 2301.87 47.00
8529 53.2680 2252.00 2313.27 47.00
8530 53.2740 2211.00 2325.37 47.00
8531 53.2800 2247.00 2336.84 47.00
8532 53.2860 2281.00 2346.07 48.00
8533 53.2920 2258.00 2351.64 48.00
8534 53.2980 2254.00 2352.21 47.00
8535 53.3040 2335.00 2347.88 48.00
8536 53.3100 2199.00 2339.66 47.00
8537 53.3160 2253.00 2329.23 47.00
8538 53.3220 2203.00 2317.96 47.00
8539 53.3280 2305.00 2307.16 48.00
8540 53.3340 2271.00 2297.60 48.00
8541 53.3400 2287.00 2289.77 48.00
8542 53.3460 2286.00 2283.76 48.00
8543 53.3520 2233.00 2279.40 47.00
8544 53.3580 2151.00 2276.74 46.00
8545 53.3640 2292.00 2275.72 48.00
8546 53.3700 2213.00 2276.59 47.00
8547 53.3760 2277.00 2279.39 48.00
8548 53.3820 2206.00 2284.11 47.00
8549 53.3880 2157.00 2290.81 46.00
8550 53.3940 2276.00 2299.18 48.00
8551 53.4000 2211.00 2308.86 47.00
8552 53.4060 2309.00 2319.48 48.00
8553 53.4120 2343.00 2330.58 48.00
8554 53.4180 2355.00 2341.62 49.00
8555 53.4240 2280.00 2351.98 48.00
8556 53.4300 2342.00 2361.40 48.00
8557 53.4360 2331.00 2369.67 48.00
8558 53.4420 2358.00 2376.82 49.00
8559 53.4480 2396.00 2383.54 49.00
8560 53.4540 2362.00 2390.01 49.00
8561 53.4600 2302.00 2396.66 48.00
8562 53.4660 2341.00 2403.35 48.00
8563 53.4720 2356.00 2409.46 49.00
8564 53.4780 2365.00 2413.90 49.00
8565 53.4840 2384.00 2415.24 49.00
8566 53.4900 2309.00 2412.19 48.00
8567 53.4960 2320.00 2404.07 48.00
8568 53.5020 2304.00 2391.10 48.00
8569 53.5080 2334.00 2374.35 48.00
8570 53.5140 2210.00 2355.14 47.00
8571 53.5200 2154.00 2335.47 46.00
8572 53.5260 2231.00 2316.39 47.00
8573 53.5320 2203.00 2298.84 47.00
8574 53.5380 2226.00 2283.39 47.00
8575 53.5440 2169.00 2270.29 47.00
8576 53.5500 2145.00 2259.59 46.00
8577 53.5560 2145.00 2251.16 46.00
8578 53.5620 2161.00 2244.51 46.00
8579 53.5680 2125.00 2239.78 46.00
8580 53.5740 2157.00 2236.43 46.00
8581 53.5800 2090.00 2234.27 46.00
8582 53.5860 2080.00 2232.89 46.00
8583 53.5920 2181.00 2232.46 47.00
8584 53.5980 2163.00 2233.33 47.00
8585 53.6040 2298.00 2235.58 48.00
8586 53.6100 2183.00 2239.22 47.00
8587 53.6160 2139.00 2244.16 46.00
8588 53.6220 2191.00 2250.08 47.00
8589 53.6280 2199.00 2256.71 47.00
8590 53.6340 2305.00 2263.37 48.00
8591 53.6400 2214.00 2269.23 47.00
8592 53.6460 2273.00 2273.39 48.00
8593 53.6520 2238.00 2275.11 47.00
8594 53.6580 2224.00 2274.02 47.00
8595 53.6640 2245.00 2270.30 47.00
8596 53.6700 2178.00 2264.58 47.00
8597 53.6760 2090.00 2257.74 46.00
8598 53.6820 2107.00 2250.66 46.00
8599 53.6880 2152.00 2244.01 46.00
8600 53.6940 2129.00 2238.28 46.00
8601 53.7000 2132.00 2233.50 46.00
8602 53.7060 2164.00 2230.15 47.00
8603 53.7120 2150.00 2228.02 46.00
8604 53.7180 2244.00 2226.84 47.00
8605 53.7240 2232.00 2226.61 47.00
8606 53.7300 2191.00 2227.36 47.00
8607 53.7360 2100.00 2229.19 46.00
8608 53.7420 2073.00 2232.28 46.00
8609 53.7480 2073.00 2236.70 46.00
8610 53.7540 2142.00 2242.37 46.00
8611 53.7600 2190.00 2249.05 47.00
8612 53.7660 2222.00 2256.49 47.00
8613 53.7720 2198.00 2263.94 47.00
8614 53.7780 2154.00 2270.90 46.00
8615 53.7840 2230.00 2276.74 47.00
8616 53.7900 2193.00 2281.10 47.00
8617 53.7960 2189.00 2283.91 47.00
8618 53.8020 2197.00 2285.16 47.00
8619 53.8080 2229.00 2284.94 47.00
8620 53.8140 2162.00 2283.38 46.00
8621 53.8200 2043.00 2280.27 45.00
8622 53.8260 2068.00 2275.57 45.00
8623 53.8320 2118.00 2269.46 46.00
8624 53.8380 2098.00 2262.47 46.00
8625 53.8440 2205.00 2255.21 47.00
8626 53.8500 2191.00 2248.77 47.00
8627 53.8560 2069.00 2243.59 45.00
8628 53.8620 2098.00 2239.99 46.00
8629 53.8680 2158.00 2238.04 46.00
8630 53.8740 2164.00 2237.57 47.00
8631 53.8800 2187.00 2238.23 47.00
8632 53.8860 2183.00 2239.56 47.00
8633 53.8920 2199.00 2241.18 47.00
8634 53.8980 2172.00 2242.92 47.00
8635 53.9040 2163.00 2244.86 47.00
8636 53.9100 2202.00 2247.18 47.00
8637 53.9160 2207.00 2249.98 47.00
8638 53.9220 2164.00 2253.23 47.00
8639 53.9280 2166.00 2256.64 47.00
8640 53.9340 2159.00 2259.94 46.00
8641 53.9400 2212.00 2262.84 47.00
8642 53.9460 2213.00 2265.06 47.00
8643 53.9520 2215.00 2266.08 47.00
8644 53.9580 2165.00 2266.54 47.00
8645 53.9640 2174.00 2266.07 47.00
8646 53.9700 2170.00 2264.67 47.00
8647 53.9760 2150.00 2262.28 46.00
8648 53.9820 2212.00 2258.65 47.00
8649 53.9880 2166.00 2253.59 47.00
8650 53.9940 2136.00 2246.98 46.00
8651 54.0000 2148.00 2238.78 46.00
8652 54.0060 2168.00 2228.92 47.00
8653 54.0120 2152.00 2217.87 46.00
8654 54.0180 2151.00 2206.17 46.00
8655 54.0240 2108.00 2194.38 46.00
8656 54.0300 2080.00 2183.10 46.00
8657 54.0360 2075.00 2172.66 46.00
8658 54.0420 2074.00 2163.28 46.00
8659 54.0480 2057.00 2155.24 45.00
8660 54.0540 2076.00 2148.12 46.00
8661 54.0600 2064.00 2142.12 45.00
8662 54.0660 2102.00 2137.20 46.00
8663 54.0720 2118.00 2133.05 46.00
8664 54.0780 2090.00 2129.72 46.00
8665 54.0840 2093.00 2126.81 46.00
8666 54.0900 2096.00 2124.59 46.00
8667 54.0960 2044.00 2122.76 45.00
8668 54.1020 2019.00 2121.14 45.00
8669 54.1080 2088.00 2119.81 46.00
8670 54.1140 2154.00 2118.58 46.00
8671 54.1200 2104.00 2117.34 46.00
8672 54.1260 2046.00 2116.05 45.00
8673 54.1320 2069.00 2114.62 45.00
8674 54.1380 2102.00 2113.16 46.00
8675 54.1440 2072.00 2111.51 46.00
8676 54.1500 2050.00 2109.84 45.00
8677 54.1560 2078.00 2108.46 46.00
8678 54.1620 2075.00 2107.16 46.00
8679 54.1680 2071.00 2106.00 46.00
8680 54.1740 2072.00 2105.72 46.00
8681 54.1800 2098.00 2105.56 46.00
8682 54.1860 2064.00 2105.57 45.00
8683 54.1920 2036.00 2105.71 45.00
8684 54.1980 2061.00 2105.98 45.00
8685 54.2040 2073.00 2106.36 46.00
8686 54.2100 2028.00 2106.78 45.00
8687 54.2160 1985.00 2107.18 45.00
8688 54.2220 2039.00 2107.50 45.00
8689 54.2280 2129.00 2107.67 46.00
8690 54.2340 2164.00 2107.59 47.00
8691 54.2400 2101.00 2107.35 46.00
8692 54.2460 2098.00 2106.95 46.00
8693 54.2520 2107.00 2106.47 46.00
8694 54.2580 2075.00 2105.98 46.00
8695 54.2640 2062.00 2105.54 45.00
8696 54.2700 2115.00 2105.22 46.00
8697 54.2760 2099.00 2105.05 46.00
8698 54.2820 2081.00 2105.07 46.00
8699 54.2880 2075.00 2105.31 46.00
8700 54.2940 2089.00 2105.80 46.00
8701 54.3000 2142.00 2106.55 46.00
8702 54.3060 2097.00 2107.48 46.00
8703 54.3120 2099.00 2108.84 46.00
8704 54.3180 2110.00 2110.40 46.00
8705 54.3240 2080.00 2112.37 46.00
8706 54.3300 2079.00 2114.60 46.00
8707 54.3360 2084.00 2117.04 46.00
8708 54.3420 2104.00 2119.58 46.00
8709 54.3480 2115.00 2122.11 46.00
8710 54.3540 2096.00 2124.47 46.00
8711 54.3600 2053.00 2126.45 45.00
8712 54.3660 2077.00 2127.86 46.00
8713 54.3720 2095.00 2128.49 46.00
8714 54.3780 2078.00 2128.29 46.00
8715 54.3840 2088.00 2127.17 46.00
8716 54.3900 2041.00 2125.37 45.00
8717 54.3960 2071.00 2123.29 46.00
8718 54.4020 2139.00 2120.96 46.00
8719 54.4080 2078.00 2118.70 46.00
8720 54.4140 2048.00 2116.68 45.00
8721 54.4200 2049.00 2115.01 45.00
8722 54.4260 2074.00 2113.79 46.00
8723 54.4320 2083.00 2112.97 46.00
8724 54.4380 2080.00 2112.57 46.00
8725 54.4440 2086.00 2112.64 46.00
8726 54.4500 2073.00 2113.23 46.00
8727 54.4560 2055.00 2114.30 45.00
8728 54.4620 2094.00 2115.75 46.00
8729 54.4680 2100.00 2117.66 46.00
8730 54.4740 2068.00 2119.90 45.00
8731 54.4800 2090.00 2122.38 46.00
8732 54.4860 2102.00 2124.88 46.00
8733 54.4920 2108.00 2127.38 46.00
8734 54.4980 2097.00 2129.55 46.00
8735 54.5040 2120.00 2131.14 46.00
8736 54.5100 2092.00 2131.99 46.00
8737 54.5160 2154.00 2132.08 46.00
8738 54.5220 2126.00 2131.69 46.00
8739 54.5280 2062.00 2130.84 45.00
8740 54.5340 2091.00 2129.91 46.00
8741 54.5400 2099.00 2129.21 46.00
8742 54.5460 2050.00 2128.86 45.00
8743 54.5520 2058.00 2128.96 45.00
8744 54.5580 2069.00 2129.74 45.00
8745 54.5640 2102.00 2131.11 46.00
8746 54.5700 2087.00 2133.10 46.00
8747 54.5760 2113.00 2135.70 46.00
8748 54.5820 2100.00 2138.91 46.00
8749 54.5880 2114.00 2142.69 46.00
8750 54.5940 2120.00 2147.19 46.00
8751 54.6000 2172.00 2152.52 47.00
8752 54.6060 2195.00 2158.88 47.00
8753 54.6120 2188.00 2166.41 47.00
8754 54.6180 2194.00 2175.34 47.00
8755 54.6240 2174.00 2185.72 47.00
8756 54.6300 2181.00 2197.49 47.00
8757 54.6360 2160.00 2210.42 46.00
8758 54.6420 2200.00 2223.85 47.00
8759 54.6480 2262.00 2237.82 48.00
8760 54.6540 2263.00 2251.75 48.00
8761 54.6600 2305.00 2265.43 48.00
8762 54.6660 2331.00 2278.12 48.00
8763 54.6720 2358.00 2289.65 49.00
8764 54.6780 2345.00 2299.46 48.00
8765 54.6840 2346.00 2307.04 48.00
8766 54.6900 2313.00 2312.24 48.00
8767 54.6960 2375.00 2315.10 49.00
8768 54.7020 2415.00 2315.75 49.00
8769 54.7080 2323.00 2314.27 48.00
8770 54.7140 2294.00 2310.58 48.00
8771 54.7200 2345.00 2304.57 48.00
8772 54.7260 2314.00 2296.20 48.00
8773 54.7320 2225.00 2285.67 47.00
8774 54.7380 2158.00 2273.31 46.00
8775 54.7440 2178.00 2259.60 47.00
8776 54.7500 2159.00 2245.11 46.00
8777 54.7560 2127.00 2230.42 46.00
8778 54.7620 2139.00 2216.12 46.00
8779 54.7680 2135.00 2202.71 46.00
8780 54.7740 2115.00 2190.54 46.00
8781 54.7800 2124.00 2179.83 46.00
8782 54.7860 2074.00 2170.65 46.00
8783 54.7920 2157.00 2162.93 46.00
8784 54.7980 2155.00 2156.62 46.00
8785 54.8040 2143.00 2151.62 46.00
8786 54.8100 2050.00 2147.65 45.00
8787 54.8160 2076.00 2144.63 46.00
8788 54.8220 2137.00 2142.41 46.00
8789 54.8280 2088.00 2140.79 46.00
8790 54.8340 2151.00 2139.58 46.00
8791 54.8400 2086.00 2138.58 46.00
8792 54.8460 2048.00 2137.64 45.00
8793 54.8520 2022.00 2136.59 45.00
8794 54.8580 2046.00 2135.41 45.00
8795 54.8640 2113.00 2134.17 46.00
8796 54.8700 2107.00 2132.82 46.00
8797 54.8760 2074.00 2131.38 46.00
8798 54.8820 2082.00 2129.94 46.00
8799 54.8880 2110.00 2128.57 46.00
8800 54.8940 2099.00 2127.29 46.00
8801 54.9000 2113.00 2126.23 46.00
8802 54.9060 2075.00 2125.29 46.00
8803 54.9120 2033.00 2124.56 45.00
8804 54.9180 2098.00 2123.98 46.00
8805 54.9240 2134.00 2123.59 46.00
8806 54.9300 2136.00 2123.42 46.00
8807 54.9360 2051.00 2123.49 45.00
8808 54.9420 2043.00 2123.79 45.00
8809 54.9480 2026.00 2124.34 45.00
8810 54.9540 2081.00 2125.19 46.00
8811 54.9600 2093.00 2126.38 46.00
8812 54.9660 2105.00 2127.95 46.00
8813 54.9720 2083.00 2129.98 46.00
8814 54.9780 2077.00 2132.56 46.00
8815 54.9840 2046.00 2135.82 45.00
8816 54.9900 2049.00 2139.81 45.00
8817 54.9960 2130.00 2144.66 46.00
8818 55.0020 2139.00 2150.45 46.00
8819 55.0080 2119.00 2157.23 46.00
8820 55.0140 2156.00 2165.01 46.00
8821 55.0200 2155.00 2173.70 46.00
8822 55.0260 2212.00 2183.13 47.00
8823 55.0320 2179.00 2192.97 47.00
8824 55.0380 2198.00 2202.72 47.00
8825 55.0440 2159.00 2211.69 46.00
8826 55.0500 2133.00 2219.33 46.00
8827 55.0560 2147.00 2225.10 46.00
8828 55.0620 2163.00 2228.44 47.00
8829 55.0680 2122.00 2229.41 46.00
8830 55.0740 2097.00 2228.20 46.00
8831 55.0800 2209.00 2225.30 47.00
8832 55.0860 2185.00 2221.32 47.00
8833 55.0920 2096.00 2216.75 46.00
8834 55.0980 2178.00 2212.05 47.00
8835 55.1040 2192.00 2207.55 47.00
8836 55.1100 2149.00 2203.54 46.00
8837 55.1160 2132.00 2200.36 46.00
8838 55.1220 2129.00 2198.34 46.00
8839 55.1280 2189.00 2197.80 47.00
8840 55.1340 2169.00 2198.90 47.00
8841 55.1400 2142.00 2201.71 46.00
8842 55.1460 2174.00 2206.15 47.00
8843 55.1520 2130.00 2212.00 46.00
8844 55.1580 2192.00 2218.91 47.00
8845 55.1640 2223.00 2226.46 47.00
8846 55.1700 2271.00 2234.28 48.00
8847 55.1760 2220.00 2242.14 47.00
8848 55.1820 2266.00 2249.67 48.00
8849 55.1880 2293.00 2256.78 48.00
8850 55.1940 2276.00 2263.06 48.00
8851 55.2000 2201.00 2268.18 47.00
8852 55.2060 2228.00 2271.47 47.00
8853 55.2120 2245.00 2273.09 47.00
8854 55.2180 2209.00 2272.78 47.00
8855 55.2240 2223.00 2271.26 47.00
8856 55.2300 2258.00 2269.32 48.00
8857 55.2360 2155.00 2267.94 46.00
8858 55.2420 2129.00 2268.08 46.00
8859 55.2480 2287.00 2270.52 48.00
8860 55.2540 2300.00 2275.80 48.00
8861 55.2600 2268.00 2284.15 48.00
8862 55.2660 2265.00 2295.60 48.00
8863 55.2720 2330.00 2309.80 48.00
8864 55.2780 2348.00 2326.15 48.00
8865 55.2840 2327.00 2343.78 48.00
8866 55.2900 2393.00 2361.58 49.00
8867 55.2960 2384.00 2378.25 49.00
8868 55.3020 2442.00 2392.39 49.00
8869 55.3080 2416.00 2402.63 49.00
8870 55.3140 2461.00 2408.08 50.00
8871 55.3200 2326.00 2408.29 48.00
8872 55.3260 2453.00 2403.76 50.00
8873 55.3320 2501.00 2394.62 50.00
8874 55.3380 2347.00 2381.58 48.00
8875 55.3440 2342.00 2365.21 48.00
8876 55.3500 2235.00 2346.44 47.00
8877 55.3560 2269.00 2326.03 48.00
8878 55.3620 2239.00 2304.73 47.00
8879 55.3680 2142.00 2283.76 46.00
8880 55.3740 2184.00 2263.69 47.00
8881 55.3800 2193.00 2245.09 47.00
8882 55.3860 2139.00 2228.34 46.00
8883 55.3920 2122.00 2213.44 46.00
8884 55.3980 2030.00 2200.82 45.00
8885 55.4040 2150.00 2190.32 46.00
8886 55.4100 2136.00 2181.65 46.00
8887 55.4160 2078.00 2174.91 46.00
8888 55.4220 2133.00 2169.74 46.00
8889 55.4280 2079.00 2166.14 46.00
8890 55.4340 2051.00 2163.92 45.00
8891 55.4400 2149.00 2162.91 46.00
8892 55.4460 2116.00 2162.98 46.00
8893 55.4520 2138.00 2163.96 46.00
8894 55.4580 2155.00 2165.70 46.00
8895 55.4640 2161.00 2168.00 46.00
8896 55.4700 2165.00 2170.64 47.00
8897 55.4760 2125.00 2173.34 46.00
8898 55.4820 2094.00 2175.91 46.00
8899 55.4880 2111.00 2178.20 46.00
8900 55.4940 2143.00 2180.26 46.00
8901 55.5000 2129.00 2182.28 46.00
8902 55.5060 2176.00 2184.46 47.00
8903 55.5120 2109.00 2186.99 46.00
8904 55.5180 2198.00 2189.92 47.00
8905 55.5240 2155.00 2193.13 46.00
8906 55.5300 2144.00 2196.57 46.00
8907 55.5360 2129.00 2199.64 46.00
8908 55.5420 2198.00 2202.10 47.00
8909 55.5480 2195.00 2203.60 47.00
8910 55.5540 2154.00 2203.93 46.00
8911 55.5600 2150.00 2203.05 46.00
8912 55.5660 2153.00 2201.00 46.00
8913 55.5720 2166.00 2197.90 47.00
8914 55.5780 2220.00 2193.86 47.00
8915 55.5840 2233.00 2189.03 47.00
8916 55.5900 2202.00 2183.76 47.00
8917 55.5960 2167.00 2178.34 47.00
8918 55.6020 2133.00 2172.97 46.00
8919 55.6080 2172.00 2168.08 47.00
8920 55.6140 2126.00 2164.00 46.00
8921 55.6200 2178.00 2160.59 47.00
8922 55.6260 2045.00 2157.97 45.00
8923 55.6320 2133.00 2156.06 46.00
8924 55.6380 2167.00 2154.73 47.00
8925 55.6440 2155.00 2153.91 46.00
8926 55.6500 2200.00 2153.33 47.00
8927 55.6560 2029.00 2152.95 45.00
8928 55.6620 2055.00 2152.84 45.00
8929 55.6680 2128.00 2152.85 46.00
8930 55.6740 2045.00 2152.90 45.00
8931 55.6800 2024.00 2153.12 45.00
8932 55.6860 2079.00 2153.67 46.00
8933 55.6920 2099.00 2154.70 46.00
8934 55.6980 2103.00 2156.29 46.00
8935 55.7040 2109.00 2158.49 46.00
8936 55.7100 2161.00 2161.24 46.00
8937 55.7160 2114.00 2164.42 46.00
8938 55.7220 2098.00 2167.79 46.00
8939 55.7280 2096.00 2170.95 46.00
8940 55.7340 2152.00 2173.63 46.00
8941 55.7400 2095.00 2175.43 46.00
8942 55.7460 2180.00 2176.11 47.00
8943 55.7520 2097.00 2175.57 46.00
8944 55.7580 2153.00 2174.25 46.00
8945 55.7640 2112.00 2172.34 46.00
8946 55.7700 2140.00 2170.15 46.00
8947 55.7760 2056.00 2167.94 45.00
8948 55.7820 2088.00 2165.88 46.00
8949 55.7880 2178.00 2164.38 47.00
8950 55.7940 2174.00 2163.48 47.00
8951 55.8000 2134.00 2163.44 46.00
8952 55.8060 2120.00 2164.41 46.00
8953 55.8120 2191.00 2166.50 47.00
8954 55.8180 2165.00 2169.82 47.00
8955 55.8240 2185.00 2174.49 47.00
8956 55.8300 2150.00 2180.61 46.00
8957 55.8360 2178.00 2188.21 47.00
8958 55.8420 2181.00 2197.28 47.00
8959 55.8480 2106.00 2207.55 46.00
8960 55.8540 2130.00 2218.91 46.00
8961 55.8600 2232.00 2230.81 47.00
8962 55.8660 2254.00 2242.69 47.00
8963 55.8720 2258.00 2253.82 48.00
8964 55.8780 2148.00 2263.34 46.00
8965 55.8840 2290.00 2270.12 48.00
8966 55.8900 2193.00 2273.42 47.00
8967 55.8960 2170.00 2272.51 47.00
8968 55.9020 2139.00 2267.27 46.00
8969 55.9080 2265.00 2258.64 48.00
8970 55.9140 2208.00 2247.65 47.00
8971 55.9200 2090.00 2235.61 46.00
8972 55.9260 2149.00 2223.61 46.00
8973 55.9320 2188.00 2212.54 47.00
8974 55.9380 2103.00 2203.00 46.00
8975 55.9440 2162.00 2195.32 46.00
8976 55.9500 2128.00 2189.72 46.00
8977 55.9560 2103.00 2186.23 46.00
8978 55.9620 2147.00 2184.73 46.00
8979 55.9680 2114.00 2185.11 46.00
8980 55.9740 2246.00 2186.96 47.00
8981 55.9800 2340.00 2190.04 48.00
8982 55.9860 2177.00 2193.69 47.00
8983 55.9920 2160.00 2197.35 46.00
8984 55.9980 2096.00 2200.44 46.00
8985 56.0040 2053.00 2202.68 45.00
8986 56.0100 2184.00 2203.42 47.00
8987 56.0160 2119.00 2202.59 46.00
8988 56.0220 2172.00 2200.07 47.00
8989 56.0280 2173.00 2196.64 47.00
8990 56.0340 2206.00 2192.68 47.00
8991 56.0400 2144.00 2188.79 46.00
8992 56.0460 2049.00 2185.11 45.00
8993 56.0520 2080.00 2182.14 46.00
8994 56.0580 2102.00 2179.82 46.00
8995 56.0640 2129.00 2178.03 46.00
8996 56.0700 2168.00 2176.64 47.00
8997 56.0760 2164.00 2175.55 47.00
8998 56.0820 2159.00 2174.25 46.00
8999 56.0880 2145.00 2172.60 46.00
9000 56.0940 2184.00 2170.39 47.00
9001 56.1000 2148.00 2167.61 46.00
9002 56.1060 2155.00 2164.39 46.00
9003 56.1120 2035.00 2160.98 45.00
9004 56.1180 2112.00 2157.72 46.00
9005 56.1240 2155.00 2154.86 46.00
9006 56.1300 2082.00 2152.72 46.00
9007 56.1360 2094.00 2151.27 46.00
9008 56.1420 2190.00 2150.72 47.00
9009 56.1480 2063.00 2151.17 45.00
9010 56.1540 2099.00 2152.62 46.00
9011 56.1600 2114.00 2155.13 46.00
9012 56.1660 2156.00 2158.71 46.00
9013 56.1720 2205.00 2163.16 47.00
9014 56.1780 2226.00 2168.58 47.00
9015 56.1840 2182.00 2174.71 47.00
9016 56.1900 2172.00 2181.41 47.00
9017 56.1960 2144.00 2188.51 46.00
9018 56.2020 2208.00 2195.70 47.00
9019 56.2080 2144.00 2202.75 46.00
9020 56.2140 2069.00 2209.31 45.00
9021 56.2200 2194.00 2215.25 47.00
9022 56.2260 2078.00 2220.56 46.00
9023 56.2320 2177.00 2225.52 47.00
9024 56.2380 2212.00 2230.88 47.00
9025 56.2440 2263.00 2236.97 48.00
9026 56.2500 2220.00 2244.42 47.00
9027 56.2560 2168.00 2253.44 47.00
9028 56.2620 2320.00 2263.96 48.00
9029 56.2680 2340.00 2275.55 48.00
9030 56.2740 2339.00 2287.72 48.00
9031 56.2800 2283.00 2299.56 48.00
9032 56.2860 2218.00 2310.23 47.00
9033 56.2920 2286.00 2319.12 48.00
9034 56.2980 2324.00 2325.98 48.00
9035 56.3040 2346.00 2330.88 48.00
9036 56.3100 2309.00 2334.15 48.00
9037 56.3160 2291.00 2336.21 48.00
9038 56.3220 2321.00 2337.46 48.00
9039 56.3280 2368.00 2338.09 49.00
9040 56.3340 2313.00 2337.98 48.00
9041 56.3400 2359.00 2336.68 49.00
9042 56.3460 2305.00 2333.46 48.00
9043 56.3520 2389.00 2327.66 49.00
9044 56.3580 2220.00 2318.54 47.00
9045 56.3640 2264.00 2306.17 48.00
9046 56.3700 2269.00 2290.98 48.00
9047 56.3760 2255.00 2273.86 47.00
9048 56.3820 2252.00 2255.89 47.00
9049 56.3880 2192.00 2238.20 47.00
9050 56.3940 2118.00 2221.30 46.00
9051 56.4000 2107.00 2205.85 46.00
9052 56.4060 2137.00 2192.18 46.00
9053 56.4120 2194.00 2180.38 47.00
9054 56.4180 2120.00 2170.60 46.00
9055 56.4240 2100.00 2162.53 46.00
9056 56.4300 2117.00 2156.05 46.00
9057 56.4360 2060.00 2151.29 45.00
9058 56.4420 2157.00 2148.02 46.00
9059 56.4480 2152.00 2145.87 46.00
9060 56.4540 2093.00 2144.61 46.00
9061 56.4600 2081.00 2144.00 46.00
9062 56.4660 2070.00 2143.74 45.00
9063 56.4720 2103.00 2143.60 46.00
9064 56.4780 2168.00 2143.29 47.00
9065 56.4840 2164.00 2142.57 47.00
9066 56.4900 2185.00 2141.33 47.00
9067 56.4960 2142.00 2139.58 46.00
9068 56.5020 2071.00 2137.45 46.00
9069 56.5080 2156.00 2135.13 46.00
9070 56.5140 2173.00 2132.75 47.00
9071 56.5200 2118.00 2130.46 46.00
9072 56.5260 2131.00 2128.35 46.00
9073 56.5320 2089.00 2126.53 46.00
9074 56.5380 2152.00 2124.91 46.00
9075 56.5440 2228.00 2123.56 47.00
9076 56.5500 2173.00 2122.48 47.00
9077 56.5560 2164.00 2121.66 47.00
9078 56.5620 2149.00 2121.21 46.00
9079 56.5680 2081.00 2120.85 46.00
9080 56.5740 2096.00 2120.69 46.00
9081 56.5800 2041.00 2120.66 45.00
9082 56.5860 2083.00 2120.87 46.00
9083 56.5920 2095.00 2121.06 46.00
9084 56.5980 2064.00 2121.63 45.00
9085 56.6040 2158.00 2122.41 46.00
9086 56.6100 2113.00 2123.54 46.00
9087 56.6160 2078.00 2124.72 46.00
9088 56.6220 2119.00 2126.28 46.00
9089 56.6280 2083.00 2127.99 46.00
9090 56.6340 2086.00 2130.03 46.00
9091 56.6400 2108.00 2132.45 46.00
9092 56.6460 2093.00 2135.31 46.00
9093 56.6520 2082.00 2138.65 46.00
9094 56.6580 2108.00 2142.53 46.00
9095 56.6640 2105.00 2147.02 46.00
9096 56.6700 2027.00 2152.10 45.00
9097 56.6760 2107.00 2157.87 46.00
9098 56.6820 2129.00 2164.37 46.00
9099 56.6880 2205.00 2171.70 47.00
9100 56.6940 2225.00 2179.77 47.00
9101 56.7000 2185.00 2188.67 47.00
9102 56.7060 2099.00 2198.27 46.00
9103 56.7120 2123.00 2208.44 46.00
9104 56.7180 2222.00 2218.96 47.00
9105 56.7240 2155.00 2229.36 46.00
9106 56.7300 2206.00 2239.09 47.00
9107 56.7360 2244.00 2247.59 47.00
9108 56.7420 2335.00 2254.39 48.00
9109 56.7480 2288.00 2259.13 48.00
9110 56.7540 2294.00 2261.67 48.00
9111 56.7600 2249.00 2262.11 47.00
9112 56.7660 2290.00 2260.70 48.00
9113 56.7720 2312.00 2257.70 48.00
9114 56.7780 2253.00 2253.52 47.00
9115 56.7840 2167.00 2248.55 47.00
9116 56.7900 2153.00 2243.32 46.00
9117 56.7960 2164.00 2238.54 47.00
9118 56.8020 2138.00 2234.58 46.00
9119 56.8080 2132.00 2231.66 46.00
9120 56.8140 2153.00 2229.78 46.00
9121 56.8200 2237.00 2228.73 47.00
9122 56.8260 2237.00 2228.16 47.00
9123 56.8320 2231.00 2227.68 47.00
9124 56.8380 2173.00 2226.99 47.00
9125 56.8440 2186.00 2225.93 47.00
9126 56.8500 2181.00 2224.46 47.00
9127 56.8560 2211.00 2222.59 47.00
9128 56.8620 2134.00 2220.36 46.00
9129 56.8680 2121.00 2217.78 46.00
9130 56.8740 2155.00 2214.97 46.00
9131 56.8800 2197.00 2211.86 47.00
9132 56.8860 2200.00 2208.69 47.00
9133 56.8920 2167.00 2205.47 47.00
9134 56.8980 2161.00 2202.40 46.00
9135 56.9040 2163.00 2199.66 47.00
9136 56.9100 2117.00 2197.34 46.00
9137 56.9160 2110.00 2195.37 46.00
9138 56.9220 2174.00 2193.94 47.00
9139 56.9280 2129.00 2192.73 46.00
9140 56.9340 2128.00 2191.46 46.00
9141 56.9400 2143.00 2189.84 46.00
9142 56.9460 2188.00 2187.66 47.00
9143 56.9520 2127.00 2184.93 46.00
9144 56.9580 2089.00 2181.82 46.00
9145 56.9640 2144.00 2178.63 46.00
9146 56.9700 2106.00 2175.68 46.00
9147 56.9760 2139.00 2173.23 46.00
9148 56.9820 2153.00 2171.46 46.00
9149 56.9880 2097.00 2170.50 46.00
9150 56.9940 2118.00 2170.66 46.00
9151 57.0000 1993.00 2171.89 45.00
9152 57.0060 2078.00 2174.17 46.00
9153 57.0120 2159.00 2177.62 46.00
9154 57.0180 2165.00 2182.15 47.00
9155 57.0240 2154.00 2187.60 46.00
9156 57.0300 2180.00 2193.87 47.00
9157 57.0360 2200.00 2200.72 47.00
9158 57.0420 2122.00 2207.78 46.00
9159 57.0480 2237.00 2214.90 47.00
9160 57.0540 2225.00 2221.60 47.00
9161 57.0600 2187.00 2227.80 47.00
9162 57.0660 2118.00 2233.51 46.00
9163 57.0720 2144.00 2238.77 46.00
9164 57.0780 2168.00 2243.34 47.00
9165 57.0840 2175.00 2247.11 47.00
9166 57.0900 2175.00 2249.88 47.00
9167 57.0960 2149.00 2251.43 46.00
9168 57.1020 2118.00 2251.63 46.00
9169 57.1080 2197.00 2250.49 47.00
9170 57.1140 2207.00 2248.03 47.00
9171 57.1200 2191.00 2244.27 47.00
9172 57.1260 2121.00 2239.29 46.00
9173 57.1320 2061.00 2233.25 45.00
9174 57.1380 2160.00 2226.53 46.00
9175 57.1440 2152.00 2219.62 46.00
9176 57.1500 2147.00 2213.03 46.00
9177 57.1560 2109.00 2207.22 46.00
9178 57.1620 2152.00 2202.53 46.00
9179 57.1680 2159.00 2199.15 46.00
9180 57.1740 2104.00 2197.27 46.00
9181 57.1800 2089.00 2196.99 46.00
9182 57.1860 2073.00 2198.22 46.00
9183 57.1920 2137.00 2200.95 46.00
9184 57.1980 2141.00 2205.28 46.00
9185 57.2040 2165.00 2211.15 47.00
9186 57.2100 2171.00 2218.54 47.00
9187 57.2160 2171.00 2227.21 47.00
9188 57.2220 2183.00 2237.10 47.00
9189 57.2280 2201.00 2248.07 47.00
9190 57.2340 2197.00 2259.95 47.00
9191 57.2400 2197.00 2272.53 47.00
9192 57.2460 2223.00 2285.51 47.00
9193 57.2520 2285.00 2298.57 48.00
9194 57.2580 2281.00 2311.30 48.00
9195 57.2640 2234.00 2323.26 47.00
9196 57.2700 2245.00 2334.07 47.00
9197 57.2760 2262.00 2343.49 48.00
9198 57.2820 2306.00 2351.51 48.00
9199 57.2880 2273.00 2358.19 48.00
9200 57.2940 2225.00 2363.70 47.00
9201 57.3000 2206.00 2368.08 47.00
9202 57.3060 2251.00 2371.07 47.00
9203 57.3120 2284.00 2372.28 48.00
9204 57.3180 2319.00 2371.23 48.00
9205 57.3240 2354.00 2367.67 49.00
9206 57.3300 2374.00 2361.78 49.00
9207 57.3360 2308.00 2354.20 48.00
9208 57.3420 2280.00 2345.78 48.00
9209 57.3480 2307.00 2337.45 48.00
9210 57.3540 2260.00 2329.95 48.00
9211 57.3600 2286.00 2323.66 48.00
9212 57.3660 2261.00 2318.57 48.00
9213 57.3720 2191.00 2314.36 47.00
9214 57.3780 2230.00 2310.44 47.00
9215 57.3840 2253.00 2306.15 47.00
9216 57.3900 2279.00 2300.85 48.00
9217 57.3960 2281.00 2294.21 48.00
9218 57.4020 2244.00 2286.24 47.00
9219 57.4080 2205.00 2277.33 47.00
9220 57.4140 2174.00 2268.02 47.00
9221 57.4200 2200.00 2258.99 47.00
9222 57.4260 2148.00 2250.60 46.00
9223 57.4320 2128.00 2243.10 46.00
9224 57.4380 2150.00 2236.49 46.00
9225 57.4440 2184.00 2230.70 47.00
9226 57.4500 2186.00 2225.33 47.00
9227 57.4560 2197.00 2220.31 47.00
9228 57.4620 2186.00 2215.41 47.00
9229 57.4680 2150.00 2210.62 46.00
9230 57.4740 2158.00 2205.91 46.00
9231 57.4800 2147.00 2201.18 46.00
9232 57.4860 2070.00 2196.69 45.00
9233 57.4920 2070.00 2192.38 45.00
9234 57.4980 2160.00 2188.34 46.00
9235 57.5040 2121.00 2184.73 46.00
9236 57.5100 2060.00 2181.72 45.00
9237 57.5160 2085.00 2179.51 46.00
9238 57.5220 2116.00 2178.18 46.00
9239 57.5280 2144.00 2177.85 46.00
9240 57.5340 2137.00 2178.58 46.00
9241 57.5400 2113.00 2180.29 46.00
9242 57.5460 2112.00 2183.13 46.00
9243 57.5520 2081.00 2186.94 46.00
9244 57.5580 2074.00 2191.52 46.00
9245 57.5640 2172.00 2196.71 47.00
9246 57.5700 2201.00 2202.05 47.00
9247 57.5760 2195.00 2207.22 47.00
9248 57.5820 2159.00 2211.65 46.00
9249 57.5880 2103.00 2214.82 46.00
9250 57.5940 2135.00 2216.41 46.00
9251 57.6000 2168.00 2216.19 47.00
9252 57.6060 2144.00 2214.24 46.00
9253 57.6120 2061.00 2210.83 45.00
9254 57.6180 2020.00 2206.37 45.00
9255 57.6240 2069.00 2201.39 45.00
9256 57.6300 2153.00 2196.40 46.00
9257 57.6360 2167.00 2191.74 47.00
9258 57.6420 2118.00 2187.77 46.00
9259 57.6480 2083.00 2184.71 46.00
9260 57.6540 2098.00 2182.62 46.00
9261 57.6600 2105.00 2181.73 46.00
9262 57.6660 2113.00 2181.93 46.00
9263 57.6720 2091.00 2183.15 46.00
9264 57.6780 2109.00 2185.24 46.00
9265 57.6840 2155.00 2188.00 46.00
9266 57.6900 2125.00 2191.09 46.00
9267 57.6960 2089.00 2194.24 46.00
9268 57.7020 2110.00 2197.14 46.00
9269 57.7080 2155.00 2199.57 46.00
9270 57.7140 2127.00 2201.35 46.00
9271 57.7200 2102.00 2202.39 46.00
9272 57.7260 2100.00 2202.74 46.00
9273 57.7320 2101.00 2202.57 46.00
9274 57.7380 2089.00 2202.12 46.00
9275 57.7440 2097.00 2201.70 46.00
9276 57.7500 2118.00 2201.53 46.00
9277 57.7560 2169.00 2201.88 47.00
9278 57.7620 2168.00 2202.66 47.00
9279 57.7680 2125.00 2203.73 46.00
9280 57.7740 2131.00 2205.00 46.00
9281 57.7800 2184.00 2206.03 47.00
9282 57.7860 2138.00 2206.46 46.00
9283 57.7920 2030.00 2206.00 45.00
9284 57.7980 2068.00 2204.64 45.00
9285 57.8040 2130.00 2202.45 46.00
9286 57.8100 2133.00 2200.02 46.00
9287 57.8160 2103.00 2197.61 46.00
9288 57.8220 2104.00 2195.51 46.00
9289 57.8280 2102.00 2193.92 46.00
9290 57.8340 2112.00 2192.85 46.00
9291 57.8400 2086.00 2192.61 46.00
9292 57.8460 2048.00 2193.07 45.00
9293 57.8520 2085.00 2194.24 46.00
9294 57.8580 2118.00 2196.04 46.00
9295 57.8640 2132.00 2198.34 46.00
9296 57.8700 2104.00 2200.91 46.00
9297 57.8760 2118.00 2203.49 46.00
9298 57.8820 2142.00 2205.70 46.00
9299 57.8880 2188.00 2207.26 47.00
9300 57.8940 2159.00 2207.91 46.00
9301 57.9000 2029.00 2207.50 45.00
9302 57.9060 2044.00 2206.03 45.00
9303 57.9120 2099.00 2203.56 46.00
9304 57.9180 2068.00 2200.30 45.00
9305 57.9240 2073.00 2196.39 46.00
9306 57.9300 2061.00 2192.04 45.00
9307 57.9360 2095.00 2187.55 46.00
9308 57.9420 2040.00 2183.15 45.00
9309 57.9480 2026.00 2179.12 45.00
9310 57.9540 2093.00 2175.59 46.00
9311 57.9600 2075.00 2172.82 46.00
9312 57.9660 2068.00 2170.83 45.00
9313 57.9720 2092.00 2169.60 46.00
9314 57.9780 2051.00 2169.07 45.00
9315 57.9840 2100.00 2169.03 46.00
9316 57.9900 2101.00 2169.60 46.00
9317 57.9960 2106.00 2170.45 46.00
9318 58.0020 2167.00 2171.36 47.00
9319 58.0080 2118.00 2172.36 46.00
9320 58.0140 2102.00 2173.26 46.00
9321 58.0200 2064.00 2174.03 45.00
9322 58.0260 2065.00 2174.71 45.00
9323 58.0320 2102.00 2175.03 46.00
9324 58.0380 2080.00 2175.46 46.00
9325 58.0440 2107.00 2175.61 46.00
9326 58.0500 2090.00 2175.73 46.00
9327 58.0560 2028.00 2175.48 45.00
9328 58.0620 2042.00 2174.84 45.00
9329 58.0680 2007.00 2173.86 45.00
9330 58.0740 2112.00 2172.55 46.00
9331 58.0800 2071.00 2171.08 46.00
9332 58.0860 1993.00 2169.59 45.00
9333 58.0920 2079.00 2168.10 46.00
9334 58.0980 2086.00 2166.71 46.00
9335 58.1040 2101.00 2165.42 46.00
9336 58.1100 2067.00 2163.97 45.00
9337 58.1160 2076.00 2162.66 46.00
9338 58.1220 2067.00 2161.36 45.00
9339 58.1280 2078.00 2159.91 46.00
9340 58.1340 2103.00 2158.35 46.00
9341 58.1400 2039.00 2156.68 45.00
9342 58.1460 2044.00 2154.89 45.00
9343 58.1520 2068.00 2153.11 45.00
9344 58.1580 2101.00 2151.39 46.00
9345 58.1640 2067.00 2149.81 45.00
9346 58.1700 2044.00 2148.41 45.00
9347 58.1760 2130.00 2147.42 46.00
9348 58.1820 2146.00 2146.69 46.00
9349 58.1880 2082.00 2146.31 46.00
9350 58.1940 2088.00 2146.33 46.00
9351 58.2000 2084.00 2146.75 46.00
9352 58.2060 2095.00 2147.43 46.00
9353 58.2120 2091.00 2148.41 46.00
9354 58.2180 1990.00 2149.59 45.00
9355 58.2240 2096.00 2150.84 46.00
9356 58.2300 2075.00 2152.07 46.00
9357 58.2360 2043.00 2153.17 45.00
9358 58.2420 2073.00 2154.09 46.00
9359 58.2480 2038.00 2154.86 45.00
9360 58.2540 2061.00 2155.54 45.00
9361 58.2600 2072.00 2156.24 46.00
9362 58.2660 2078.00 2157.04 46.00
9363 58.2720 2041.00 2158.01 45.00
9364 58.2780 2001.00 2159.26 45.00
9365 58.2840 1996.00 2160.59 45.00
9366 58.2900 2006.00 2162.08 45.00
9367 58.2960 2068.00 2163.72 45.00
9368 58.3020 2098.00 2165.44 46.00
9369 58.3080 2057.00 2167.37 45.00
9370 58.3140 2102.00 2169.39 46.00
9371 58.3200 2139.00 2171.41 46.00
9372 58.3260 2106.00 2173.24 46.00
9373 58.3320 2152.00 2174.69 46.00
9374 58.3380 2058.00 2175.61 45.00
9375 58.3440 2031.00 2175.94 45.00
9376 58.3500 2074.00 2175.63 46.00
9377 58.3560 2139.00 2174.69 46.00
9378 58.3620 2166.00 2173.26 47.00
9379 58.3680 2110.00 2171.51 46.00
9380 58.3740 2069.00 2169.65 45.00
9381 58.3800 2125.00 2167.83 46.00
9382 58.3860 2043.00 2166.17 45.00
9383 58.3920 2075.00 2164.69 46.00
9384 58.3980 2048.00 2163.33 45.00
9385 58.4040 2082.00 2162.03 46.00
9386 58.4100 2022.00 2160.85 45.00
9387 58.4160 2070.00 2159.40 45.00
9388 58.4220 2139.00 2157.99 46.00
9389 58.4280 2093.00 2156.67 46.00
9390 58.4340 2055.00 2155.56 45.00
9391 58.4400 2100.00 2154.76 46.00
9392 58.4460 2077.00 2154.35 46.00
9393 58.4520 2065.00 2154.42 45.00
9394 58.4580 2062.00 2154.80 45.00
9395 58.4640 2033.00 2155.51 45.00
9396 58.4700 2076.00 2156.44 46.00
9397 58.4760 2097.00 2157.48 46.00
9398 58.4820 2065.00 2158.36 45.00
9399 58.4880 2042.00 2158.99 45.00
9400 58.4940 2019.00 2159.26 45.00
9401 58.5000 2048.00 2159.11 45.00
9402 58.5060 2156.00 2158.50 46.00
9403 58.5120 2042.00 2157.33 45.00
9404 58.5180 2014.00 2155.81 45.00
9405 58.5240 2034.00 2153.93 45.00
9406 58.5300 2015.00 2151.84 45.00
9407 58.5360 2122.00 2149.68 46.00
9408 58.5420 2056.00 2147.61 45.00
9409 58.5480 1982.00 2145.63 45.00
9410 58.5540 2092.00 2143.90 46.00
9411 58.5600 2120.00 2142.45 46.00
9412 58.5660 2017.00 2141.28 45.00
9413 58.5720 2051.00 2140.40 45.00
9414 58.5780 2043.00 2139.81 45.00
9415 58.5840 2091.00 2139.47 46.00
9416 58.5900 2126.00 2139.35 46.00
9417 58.5960 2071.00 2139.40 46.00
9418 58.6020 2064.00 2139.53 45.00
9419 58.6080 2009.00 2139.82 45.00
9420 58.6140 1969.00 2140.09 44.00
9421 58.6200 2083.00 2140.38 46.00
9422 58.6260 2114.00 2140.84 46.00
9423 58.6320 2138.00 2141.35 46.00
9424 58.6380 2026.00 2141.83 45.00
9425 58.6440 2109.00 2142.34 46.00
9426 58.6500 2048.00 2142.88 45.00
9427 58.6560 2112.00 2143.57 46.00
9428 58.6620 2216.00 2144.42 47.00
9429 58.6680 2104.00 2145.52 46.00
9430 58.6740 2036.00 2146.91 45.00
9431 58.6800 2029.00 2148.51 45.00
9432 58.6860 2049.00 2150.36 45.00
9433 58.6920 2041.00 2152.40 45.00
9434 58.6980 2049.00 2154.56 45.00
9435 58.7040 2023.00 2156.75 45.00
9436 58.7100 2095.00 2158.95 46.00
9437 58.7160 2085.00 2161.18 46.00
9438 58.7220 2086.00 2163.45 46.00
9439 58.7280 2126.00 2165.89 46.00
9440 58.7340 2161.00 2168.51 46.00
9441 58.7400 2130.00 2171.21 46.00
9442 58.7460 2132.00 2173.91 46.00
9443 58.7520 2102.00 2176.57 46.00
9444 58.7580 2132.00 2179.07 46.00
9445 58.7640 2140.00 2181.26 46.00
9446 58.7700 2131.00 2183.10 46.00
9447 58.7760 2118.00 2184.53 46.00
9448 58.7820 2103.00 2185.50 46.00
9449 58.7880 2160.00 2186.01 46.00
9450 58.7940 2050.00 2186.15 45.00
9451 58.8000 2149.00 2186.02 46.00
9452 58.8060 2181.00 2185.70 47.00
9453 58.8120 2133.00 2185.48 46.00
9454 58.8180 2109.00 2185.43 46.00
9455 58.8240 2146.00 2185.76 46.00
9456 58.8300 2173.00 2186.60 47.00
9457 58.8360 2145.00 2187.81 46.00
9458 58.8420 2160.00 2189.34 46.00
9459 58.8480 2140.00 2190.98 46.00
9460 58.8540 2119.00 2192.60 46.00
9461 58.8600 2159.00 2193.86 46.00
9462 58.8660 2101.00 2194.70 46.00
9463 58.8720 2121.00 2195.10 46.00
9464 58.8780 2153.00 2194.97 46.00
9465 58.8840 2199.00 2194.24 47.00
9466 58.8900 2145.00 2192.88 46.00
9467 58.8960 2075.00 2190.95 46.00
9468 58.9020 2130.00 2188.59 46.00
9469 58.9080 2191.00 2186.03 47.00
9470 58.9140 2101.00 2183.46 46.00
9471 58.9200 2226.00 2181.05 47.00
9472 58.9260 2052.00 2178.88 45.00
9473 58.9320 2053.00 2176.97 45.00
9474 58.9380 2147.00 2175.36 46.00
9475 58.9440 2126.00 2174.09 46.00
9476 58.9500 2091.00 2173.29 46.00
9477 58.9560 2046.00 2173.08 45.00
9478 58.9620 2154.00 2173.65 46.00
9479 58.9680 2152.00 2174.93 46.00
9480 58.9740 2081.00 2177.08 46.00
9481 58.9800 2236.00 2180.01 47.00
9482 58.9860 2111.00 2183.62 46.00
9483 58.9920 2114.00 2187.73 46.00
9484 58.9980 2120.00 2192.10 46.00
9485 59.0040 2150.00 2196.44 46.00
9486 59.0100 2117.00 2200.46 46.00
9487 59.0160 2097.00 2203.94 46.00
9488 59.0220 2152.00 2206.83 46.00
9489 59.0280 2104.00 2209.19 46.00
9490 59.0340 2185.00 2210.94 47.00
9491 59.0400 2127.00 2212.14 46.00
9492 59.0460 2123.00 2212.68 46.00
9493 59.0520 2102.00 2212.44 46.00
9494 59.0580 2116.00 2211.38 46.00
9495 59.0640 2122.00 2209.62 46.00
9496 59.0700 2119.00 2207.44 46.00
9497 59.0760 2096.00 2205.28 46.00
9498 59.0820 2120.00 2203.55 46.00
9499 59.0880 2126.00 2202.66 46.00
9500 59.0940 2121.00 2202.88 46.00
9501 59.1000 2091.00 2204.40 46.00
9502 59.1060 2112.00 2207.33 46.00
9503 59.1120 2057.00 2211.67 45.00
9504 59.1180 2075.00 2217.30 46.00
9505 59.1240 2236.00 2223.98 47.00
9506 59.1300 2182.00 2231.39 47.00
9507 59.1360 2239.00 2238.89 47.00
9508 59.1420 2259.00 2245.86 48.00
9509 59.1480 2159.00 2252.03 46.00
9510 59.1540 2188.00 2256.90 47.00
9511 59.1600 2195.00 2260.39 47.00
9512 59.1660 2210.00 2262.59 47.00
9513 59.1720 2197.00 2263.58 47.00
9514 59.1780 2184.00 2263.39 47.00
9515 59.1840 2163.00 2262.07 47.00
9516 59.1900 2188.00 2259.67 47.00
9517 59.1960 2212.00 2256.41 47.00
9518 59.2020 2145.00 2252.62 46.00
9519 59.2080 2153.00 2248.70 46.00
9520 59.2140 2228.00 2245.00 47.00
9521 59.2200 2172.00 2241.90 47.00
9522 59.2260 2208.00 2239.66 47.00
9523 59.2320 2165.00 2238.33 47.00
9524 59.2380 2196.00 2237.94 47.00
9525 59.2440 2219.00 2238.34 47.00
9526 59.2500 2189.00 2239.19 47.00
9527 59.2560 2158.00 2240.20 46.00
9528 59.2620 2165.00 2240.92 47.00
9529 59.2680 2111.00 2240.97 46.00
9530 59.2740 2096.00 2240.04 46.00
9531 59.2800 2137.00 2238.06 46.00
9532 59.2860 2152.00 2235.05 46.00
9533 59.2920 2174.00 2231.39 47.00
9534 59.2980 2054.00 2227.55 45.00
9535 59.3040 2107.00 2224.04 46.00
9536 59.3100 2192.00 2221.29 47.00
9537 59.3160 2154.00 2219.56 46.00
9538 59.3220 2137.00 2218.93 46.00
9539 59.3280 2186.00 2219.38 47.00
9540 59.3340 2110.00 2220.75 46.00
9541 59.3400 2110.00 2222.66 46.00
9542 59.3460 2118.00 2224.84 46.00
9543 59.3520 2167.00 2226.90 47.00
9544 59.3580 2191.00 2228.36 47.00
9545 59.3640 2105.00 2228.91 46.00
9546 59.3700 2168.00 2228.29 47.00
9547 59.3760 2193.00 2226.45 47.00
9548 59.3820 2193.00 2223.50 47.00
9549 59.3880 2148.00 2219.71 46.00
9550 59.3940 2103.00 2215.35 46.00
9551 59.4000 2090.00 2210.59 46.00
9552 59.4060 2106.00 2205.57 46.00
9553 59.4120 2108.00 2200.34 46.00
9554 59.4180 2095.00 2195.00 46.00
9555 59.4240 2119.00 2189.77 46.00
9556 59.4300 2085.00 2184.86 46.00
9557 59.4360 2065.00 2180.54 45.00
9558 59.4420 2065.00 2176.97 45.00
9559 59.4480 2096.00 2174.38 46.00
9560 59.4540 2025.00 2172.67 45.00
9561 59.4600 2010.00 2171.89 45.00
9562 59.4660 2082.00 2171.78 46.00
9563 59.4720 2060.00 2172.24 45.00
9564 59.4780 2089.00 2173.13 46.00
9565 59.4840 2148.00 2174.32 46.00
9566 59.4900 2119.00 2175.73 46.00
9567 59.4960 2111.00 2177.31 46.00
9568 59.5020 2133.00 2179.01 46.00
9569 59.5080 2136.00 2180.82 46.00
9570 59.5140 2172.00 2182.75 47.00
9571 59.5200 2146.00 2184.76 46.00
9572 59.5260 2081.00 2186.93 46.00
9573 59.5320 2104.00 2189.18 46.00
9574 59.5380 2113.00 2191.30 46.00
9575 59.5440 2077.00 2193.20 46.00
9576 59.5500 2061.00 2194.64 45.00
9577 59.5560 2063.00 2195.46 45.00
9578 59.5620 2141.00 2195.55 46.00
9579 59.5680 2161.00 2194.91 46.00
9580 59.5740 2140.00 2193.38 46.00
9581 59.5800 2066.00 2190.99 45.00
9582 59.5860 2056.00 2187.75 45.00
9583 59.5920 2085.00 2183.59 46.00
9584 59.5980 2091.00 2178.73 46.00
9585 59.6040 2134.00 2173.28 46.00
9586 59.6100 2104.00 2167.48 46.00
9587 59.6160 2062.00 2161.66 45.00
9588 59.6220 2028.00 2156.12 45.00
9589 59.6280 2055.00 2151.01 45.00
9590 59.6340 2048.00 2146.55 45.00
9591 59.6400 2029.00 2142.89 45.00
9592 59.6460 2040.00 2140.05 45.00
9593 59.6520 2013.00 2138.03 45.00
9594 59.6580 2016.00 2136.83 45.00
9595 59.6640 2092.00 2136.32 46.00
9596 59.6700 2173.00 2136.52 47.00
9597 59.6760 2153.00 2137.28 46.00
9598 59.6820 2088.00 2138.58 46.00
9599 59.6880 2035.00 2140.22 45.00
9600 59.6940 2009.00 2142.01 45.00
9601 59.7000 2018.00 2143.77 45.00
9602 59.7060 2051.00 2145.32 45.00
9603 59.7120 2061.00 2146.58 45.00
9604 59.7180 2019.00 2147.56 45.00
9605 59.7240 2057.00 2148.36 45.00
9606 59.7300 2157.00 2149.19 46.00
9607 59.7360 2140.00 2150.17 46.00
9608 59.7420 2047.00 2151.44 45.00
9609 59.7480 2029.00 2153.05 45.00
9610 59.7540 2100.00 2154.81 46.00
9611 59.7600 2114.00 2156.80 46.00
9612 59.7660 2092.00 2158.77 46.00
9613 59.7720 2036.00 2160.52 45.00
9614 59.7780 2034.00 2161.95 45.00
9615 59.7840 2088.00 2163.02 46.00
9616 59.7900 2125.00 2163.84 46.00
9617 59.7960 2097.00 2164.37 46.00
9618 59.8020 2073.00 2165.02 46.00
9619 59.8080 2071.00 2165.80 46.00
9620 59.8140 2047.00 2166.85 45.00
9621 59.8200 2028.00 2168.26 45.00
9622 59.8260 2030.00 2170.14 45.00
9623 59.8320 2052.00 2172.59 45.00
9624 59.8380 2046.00 2175.69 45.00
9625 59.8440 2008.00 2179.48 45.00
9626 59.8500 2063.00 2183.96 45.00
9627 59.8560 2115.00 2189.02 46.00
9628 59.8620 2115.00 2194.41 46.00
9629 59.8680 2172.00 2199.74 47.00
9630 59.8740 2145.00 2204.50 46.00
9631 59.8800 2140.00 2208.13 46.00
9632 59.8860 2101.00 2210.13 46.00
9633 59.8920 2094.00 2210.07 46.00
9634 59.8980 2079.00 2208.22 46.00
9635 59.9040 2124.00 2204.62 46.00
9636 59.9100 2091.00 2199.68 46.00
9637 59.9160 2089.00 2193.87 46.00
9638 59.9220 2113.00 2187.58 46.00
9639 59.9280 2128.00 2181.32 46.00
9640 59.9340 2125.00 2175.22 46.00
9641 59.9400 2060.00 2169.62 45.00
9642 59.9460 2034.00 2164.64 45.00
9643 59.9520 2058.00 2160.25 45.00
9644 59.9580 2078.00 2156.50 46.00
9645 59.9640 2113.00 2153.44 46.00
9646 59.9700 2103.00 2150.96 46.00
9647 59.9760 2086.00 2148.95 46.00
9648 59.9820 2059.00 2147.34 45.00
9649 59.9880 1929.00 2146.10 44.00
9650 59.9940 1943.00 2145.29 44.00
9651 60.0000 2067.00 2144.89 45.00
9652 60.0060 2028.00 2145.02 45.00
9653 60.0120 2056.00 2145.65 45.00
9654 60.0180 2084.00 2146.57 46.00
9655 60.0240 2061.00 2147.88 45.00
9656 60.0300 2087.00 2149.22 46.00
9657 60.0360 2101.00 2150.62 46.00
9658 60.0420 2140.00 2151.89 46.00
9659 60.0480 2143.00 2152.98 46.00
9660 60.0540 2107.00 2153.88 46.00
9661 60.0600 2096.00 2154.50 46.00
9662 60.0660 2137.00 2154.77 46.00
9663 60.0720 2097.00 2154.66 46.00
9664 60.0780 2084.00 2154.00 46.00
9665 60.0840 2115.00 2152.80 46.00
9666 60.0900 2065.00 2150.98 45.00
9667 60.0960 2055.00 2148.66 45.00
9668 60.1020 2061.00 2145.89 45.00
9669 60.1080 1995.00 2142.75 45.00
9670 60.1140 1990.00 2139.51 45.00
9671 60.1200 2041.00 2136.35 45.00
9672 60.1260 2085.00 2133.60 46.00
9673 60.1320 2113.00 2131.41 46.00
9674 60.1380 2040.00 2129.95 45.00
9675 60.1440 2076.00 2129.31 46.00
9676 60.1500 2070.00 2129.58 45.00
9677 60.1560 2140.00 2130.72 46.00
9678 60.1620 2128.00 2132.73 46.00
9679 60.1680 2087.00 2135.60 46.00
9680 60.1740 2109.00 2139.12 46.00
9681 60.1800 2143.00 2143.11 46.00
9682 60.1860 2047.00 2147.25 45.00
9683 60.1920 2040.00 2151.22 45.00
9684 60.1980 2081.00 2154.64 46.00
9685 60.2040 2043.00 2157.19 45.00
9686 60.2100 2018.00 2158.65 45.00
9687 60.2160 2039.00 2158.98 45.00
9688 60.2220 2025.00 2158.28 45.00
9689 60.2280 2004.00 2156.87 45.00
9690 60.2340 2081.00 2155.04 46.00
9691 60.2400 2176.00 2152.98 47.00
9692 60.2460 2120.00 2150.90 46.00
9693 60.2520 2038.00 2148.94 45.00
9694 60.2580 2030.00 2147.31 45.00
9695 60.2640 2136.00 2146.05 46.00
9696 60.2700 2050.00 2145.27 45.00
9697 60.2760 2062.00 2145.08 45.00
9698 60.2820 2076.00 2145.49 46.00
9699 60.2880 2093.00 2146.39 46.00
9700 60.2940 2100.00 2147.63 46.00
9701 60.3000 2061.00 2149.05 45.00
9702 60.3060 2045.00 2150.36 45.00
9703 60.3120 2059.00 2151.22 45.00
9704 60.3180 2080.00 2151.32 46.00
9705 60.3240 2046.00 2150.41 45.00
9706 60.3300 2023.00 2148.51 45.00
9707 60.3360 2088.00 2145.74 46.00
9708 60.3420 2055.00 2142.34 45.00
9709 60.3480 2009.00 2138.54 45.00
9710 60.3540 2049.00 2134.77 45.00
9711 60.3600 2122.00 2131.09 46.00
9712 60.3660 2015.00 2127.61 45.00
9713 60.3720 1976.00 2124.34 44.00
9714 60.3780 1983.00 2121.30 45.00
9715 60.3840 2014.00 2118.46 45.00
9716 60.3900 2063.00 2115.88 45.00
9717 60.3960 2103.00 2113.43 46.00
9718 60.4020 2077.00 2111.16 46.00
9719 60.4080 2069.00 2109.01 45.00
9720 60.4140 2070.00 2106.94 45.00
9721 60.4200 2056.00 2104.94 45.00
9722 60.4260 2023.00 2102.97 45.00
9723 60.4320 2038.00 2101.16 45.00
9724 60.4380 2028.00 2099.46 45.00
9725 60.4440 2016.00 2098.00 45.00
9726 60.4500 2031.00 2096.83 45.00
9727 60.4560 2043.00 2095.99 45.00
9728 60.4620 1959.00 2095.54 44.00
9729 60.4680 1992.00 2095.36 45.00
9730 60.4740 1998.00 2095.47 45.00
9731 60.4800 2065.00 2095.84 45.00
9732 60.4860 2033.00 2096.36 45.00
9733 60.4920 2101.00 2096.98 46.00
9734 60.4980 2073.00 2097.58 46.00
9735 60.5040 1994.00 2098.08 45.00
9736 60.5100 1999.00 2098.43 45.00
9737 60.5160 1985.00 2098.61 45.00
9738 60.5220 2010.00 2098.55 45.00
9739 60.5280 2002.00 2098.22 45.00
9740 60.5340 2090.00 2097.75 46.00
9741 60.5400 2067.00 2097.06 45.00
9742 60.5460 2037.00 2096.12 45.00
9743 60.5520 2014.00 2094.94 45.00
9744 60.5580 1969.00 2093.56 44.00
9745 60.5640 2029.00 2092.03 45.00
9746 60.5700 2092.00 2090.48 46.00
9747 60.5760 2040.00 2089.00 45.00
9748 60.5820 2044.00 2087.73 45.00
9749 60.5880 2099.00 2086.61 46.00
9750 60.5940 2082.00 2085.76 46.00
9751 60.6000 2062.00 2085.20 45.00
9752 60.6060 2083.00 2084.90 46.00
9753 60.6120 1989.00 2084.86 45.00
9754 60.6180 2035.00 2085.06 45.00
9755 60.6240 1916.00 2085.45 44.00
9756 60.6300 2009.00 2085.99 45.00
9757 60.6360 2024.00 2086.56 45.00
9758 60.6420 2006.00 2087.30 45.00
9759 60.6480 2031.00 2088.09 45.00
9760 60.6540 2043.00 2089.04 45.00
9761 60.6600 2045.00 2090.12 45.00
9762 60.6660 1984.00 2091.41 45.00
9763 60.6720 1983.00 2092.90 45.00
9764 60.6780 2004.00 2094.58 45.00
9765 60.6840 2031.00 2096.41 45.00
9766 60.6900 2087.00 2098.23 46.00
9767 60.6960 2057.00 2100.01 45.00
9768 60.7020 2038.00 2101.61 45.00
9769 60.7080 1991.00 2102.98 45.00
9770 60.7140 2016.00 2104.03 45.00
9771 60.7200 2086.00 2104.86 46.00
9772 60.7260 2061.00 2105.57 45.00
9773 60.7320 1993.00 2106.25 45.00
9774 60.7380 2078.00 2107.06 46.00
9775 60.7440 2034.00 2108.01 45.00
9776 60.7500 1997.00 2109.06 45.00
9777 60.7560 2150.00 2110.15 46.00
9778 60.7620 2157.00 2111.17 46.00
9779 60.7680 2039.00 2112.03 45.00
9780 60.7740 2003.00 2112.64 45.00
9781 60.7800 1974.00 2112.91 44.00
9782 60.7860 2147.00 2112.79 46.00
9783 60.7920 2050.00 2112.18 45.00
9784 60.7980 2054.00 2111.19 45.00
9785 60.8040 2131.00 2109.77 46.00
9786 60.8100 2116.00 2107.99 46.00
9787 60.8160 2039.00 2105.89 45.00
9788 60.8220 2028.00 2103.50 45.00
9789 60.8280 2017.00 2100.95 45.00
9790 60.8340 2148.00 2098.23 46.00
9791 60.8400 1948.00 2095.37 44.00
9792 60.8460 2052.00 2092.53 45.00
9793 60.8520 2012.00 2089.77 45.00
9794 60.8580 2038.00 2087.15 45.00
9795 60.8640 2052.00 2084.84 45.00
9796 60.8700 2078.00 2082.86 46.00
9797 60.8760 2129.00 2081.30 46.00
9798 60.8820 2030.00 2080.11 45.00
9799 60.8880 2005.00 2079.31 45.00
9800 60.8940 1963.00 2078.92 44.00
9801 60.9000 1989.00 2078.90 45.00
9802 60.9060 1952.00 2079.23 44.00
9803 60.9120 1961.00 2079.88 44.00
9804 60.9180 2015.00 2080.82 45.00
9805 60.9240 1998.00 2081.92 45.00
9806 60.9300 2002.00 2083.16 45.00
9807 60.9360 1997.00 2084.51 45.00
9808 60.9420 2066.00 2085.96 45.00
9809 60.9480 2022.00 2087.52 45.00
9810 60.9540 2009.00 2089.25 45.00
9811 60.9600 1966.00 2091.20 44.00
9812 60.9660 2036.00 2093.55 45.00
9813 60.9720 1930.00 2096.21 44.00
9814 60.9780 2021.00 2099.38 45.00
9815 60.9840 2051.00 2102.89 45.00
9816 60.9900 1974.00 2106.69 44.00
9817 60.9960 2107.00 2110.57 46.00
9818 61.0020 2039.00 2114.39 45.00
9819 61.0080 2026.00 2117.91 45.00
9820 61.0140 2023.00 2121.01 45.00
9821 61.0200 2077.00 2123.43 46.00
9822 61.0260 2001.00 2125.12 45.00
9823 61.0320 2058.00 2125.94 45.00
9824 61.0380 2048.00 2125.96 45.00
9825 61.0440 2163.00 2125.31 47.00
9826 61.0500 2088.00 2124.09 46.00
9827 61.0560 2117.00 2122.38 46.00
9828 61.0620 2095.00 2120.26 46.00
9829 61.0680 2048.00 2117.88 45.00
9830 61.0740 2071.00 2115.23 46.00
9831 61.0800 2089.00 2112.55 46.00
9832 61.0860 2027.00 2110.00 45.00
9833 61.0920 2031.00 2107.89 45.00
9834 61.0980 2011.00 2106.32 45.00
9835 61.1040 2007.00 2105.38 45.00
9836 61.1100 2036.00 2105.11 45.00
9837 61.1160 2034.00 2105.57 45.00
9838 61.1220 2039.00 2106.66 45.00
9839 61.1280 2080.00 2108.33 46.00
9840 61.1340 1958.00 2110.56 44.00
9841 61.1400 2147.00 2113.25 46.00
9842 61.1460 2088.00 2116.32 46.00
9843 61.1520 2151.00 2119.65 46.00
9844 61.1580 2117.00 2123.08 46.00
9845 61.1640 2130.00 2126.55 46.00
9846 61.1700 2084.00 2129.99 46.00
9847 61.1760 2148.00 2133.38 46.00
9848 61.1820 2175.00 2136.67 47.00
9849 61.1880 2034.00 2139.86 45.00
9850 61.1940 2083.00 2142.83 46.00
9851 61.2000 2051.00 2145.47 45.00
9852 61.2060 2090.00 2147.67 46.00
9853 61.2120 2093.00 2149.35 46.00
9854 61.2180 2112.00 2150.32 46.00
9855 61.2240 2079.00 2150.47 46.00
9856 61.2300 2081.00 2149.69 46.00
9857 61.2360 2114.00 2147.97 46.00
9858 61.2420 2088.00 2145.40 46.00
9859 61.2480 2058.00 2142.18 45.00
9860 61.2540 2093.00 2138.53 46.00
9861 61.2600 2105.00 2134.69 46.00
9862 61.2660 2153.00 2130.90 46.00
9863 61.2720 2078.00 2127.22 46.00
9864 61.2780 2108.00 2123.91 46.00
9865 61.2840 2111.00 2121.04 46.00
9866 61.2900 2107.00 2118.71 46.00
9867 61.2960 2060.00 2117.00 45.00
9868 61.3020 2092.00 2115.92 46.00
9869 61.3080 2103.00 2115.49 46.00
9870 61.3140 2105.00 2115.63 46.00
9871 61.3200 2055.00 2116.19 45.00
9872 61.3260 2057.00 2117.02 45.00
9873 61.3320 2089.00 2117.90 46.00
9874 61.3380 2110.00 2118.63 46.00
9875 61.3440 2125.00 2119.02 46.00
9876 61.3500 2084.00 2118.86 46.00
9877 61.3560 2083.00 2118.08 46.00
9878 61.3620 2045.00 2116.70 45.00
9879 61.3680 2045.00 2114.83 45.00
9880 61.3740 2053.00 2112.66 45.00
9881 61.3800 2087.00 2110.40 46.00
9882 61.3860 2110.00 2108.25 46.00
9883 61.3920 2085.00 2106.37 46.00
9884 61.3980 2022.00 2104.82 45.00
9885 61.4040 1968.00 2103.62 44.00
9886 61.4100 2013.00 2102.72 45.00
9887 61.4160 2032.00 2102.01 45.00
9888 61.4220 2035.00 2101.41 45.00
9889 61.4280 2038.00 2100.84 45.00
9890 61.4340 2130.00 2100.24 46.00
9891 61.4400 2086.00 2099.49 46.00
9892 61.4460 1980.00 2098.50 44.00
9893 61.4520 2100.00 2097.18 46.00
9894 61.4580 2039.00 2095.42 45.00
9895 61.4640 2091.00 2093.24 46.00
9896 61.4700 2053.00 2090.57 45.00
9897 61.4760 2064.00 2087.46 45.00
9898 61.4820 2000.00 2084.05 45.00
9899 61.4880 2017.00 2080.42 45.00
9900 61.4940 1993.00 2076.67 45.00
9901 61.5000 2014.00 2072.93 45.00
9902 61.5060 1974.00 2069.31 44.00
9903 61.5120 1985.00 2065.91 45.00
9904 61.5180 2015.00 2062.82 45.00
9905 61.5240 2049.00 2060.03 45.00
9906 61.5300 2052.00 2057.60 45.00
9907 61.5360 2047.00 2055.50 45.00
9908 61.5420 1957.00 2053.76 44.00
9909 61.5480 1948.00 2052.36 44.00
9910 61.5540 2002.00 2051.26 45.00
9911 61.5600 2022.00 2050.48 45.00
9912 61.5660 2005.00 2049.97 45.00
9913 61.5720 1967.00 2049.77 44.00
9914 61.5780 2022.00 2049.84 45.00
9915 61.5840 2037.00 2050.17 45.00
9916 61.5900 2022.00 2050.78 45.00
9917 61.5960 2046.00 2051.65 45.00
9918 61.6020 2009.00 2052.76 45.00
9919 61.6080 1986.00 2054.15 45.00
9920 61.6140 2058.00 2055.76 45.00
9921 61.6200 2004.00 2057.59 45.00
9922 61.6260 1967.00 2059.57 44.00
9923 61.6320 2015.00 2061.65 45.00
9924 61.6380 2004.00 2063.74 45.00
9925 61.6440 1999.00 2065.76 45.00
9926 61.6500 1929.00 2067.64 44.00
9927 61.6560 2005.00 2069.35 45.00
9928 61.6620 2072.00 2070.93 46.00
9929 61.6680 2133.00 2072.39 46.00
9930 61.6740 2019.00 2073.79 45.00
9931 61.6800 2010.00 2075.16 45.00
9932 61.6860 2029.00 2076.47 45.00
9933 61.6920 2034.00 2077.72 45.00
9934 61.6980 2107.00 2078.92 46.00
9935 61.7040 2047.00 2080.09 45.00
9936 61.7100 2037.00 2081.31 45.00
9937 61.7160 2066.00 2082.69 45.00
9938 61.7220 2002.00 2084.31 45.00
9939 61.7280 2050.00 2086.26 45.00
9940 61.7340 2074.00 2088.64 46.00
9941 61.7400 2041.00 2091.50 45.00
9942 61.7460 1949.00 2094.85 44.00
9943 61.7520 2034.00 2098.67 45.00
9944 61.7580 2055.00 2102.90 45.00
9945 61.7640 2082.00 2107.49 46.00
9946 61.7700 2057.00 2112.27 45.00
9947 61.7760 2049.00 2117.19 45.00
9948 61.7820 2005.00 2122.08 45.00
9949 61.7880 2067.00 2126.79 45.00
9950 61.7940 2068.00 2131.07 45.00
9951 61.8000 2046.00 2134.61 45.00
9952 61.8060 2046.00 2137.33 45.00
9953 61.8120 2015.00 2138.99 45.00
9954 61.8180 2061.00 2139.55 45.00
9955 61.8240 2050.00 2138.97 45.00
9956 61.8300 2064.00 2137.38 45.00
9957 61.8360 2151.00 2134.82 46.00
9958 61.8420 2053.00 2131.44 45.00
9959 61.8480 2049.00 2127.59 45.00
9960 61.8540 2063.00 2123.42 45.00
9961 61.8600 2015.00 2119.15 45.00
9962 61.8660 2042.00 2115.04 45.00
9963 61.8720 2052.00 2111.25 45.00
9964 61.8780 2072.00 2107.81 46.00
9965 61.8840 2023.00 2104.66 45.00
9966 61.8900 2040.00 2101.70 45.00
9967 61.8960 2082.00 2098.65 46.00
9968 61.9020 2125.00 2095.48 46.00
9969 61.9080 2056.00 2092.15 45.00
9970 61.9140 1983.00 2088.72 45.00
9971 61.9200 1982.00 2085.31 45.00
9972 61.9260 2033.00 2082.00 45.00
9973 61.9320 1999.00 2078.85 45.00
9974 61.9380 1989.00 2075.99 45.00
9975 61.9440 2040.00 2073.41 45.00
9976 61.9500 2004.00 2071.09 45.00
9977 61.9560 2000.00 2069.08 45.00
9978 61.9620 2028.00 2067.36 45.00
9979 61.9680 2036.00 2065.98 45.00
9980 61.9740 2041.00 2064.83 45.00
9981 61.9800 1988.00 2063.96 45.00
9982 61.9860 2033.00 2063.24 45.00
9983 61.9920 2027.00 2062.57 45.00
9984 61.9980 2027.00 2061.92 45.00
9985 62.0040 2005.00 2061.20 45.00
9986 62.0100 1982.00 2060.64 45.00
9987 62.0160 1969.00 2060.20 44.00
9988 62.0220 2004.00 2059.91 45.00
9989 62.0280 1967.00 2059.75 44.00
9990 62.0340 1941.00 2059.70 44.00
9991 62.0400 1936.00 2059.74 44.00
9992 62.0460 2032.00 2059.73 45.00
9993 62.0520 2042.00 2059.66 45.00
9994 62.0580 1980.00 2059.46 44.00
9995 62.0640 1978.00 2059.23 44.00
9996 62.0700 2002.00 2058.97 45.00
9997 62.0760 2043.00 2058.72 45.00
9998 62.0820 2013.00 2058.49 45.00
9999 62.0880 1993.00 2058.25 45.00
10000 62.0940 2029.00 2057.93 45.00
10001 62.1000 2070.00 2057.53 45.00
10002 62.1060 2041.00 2056.85 45.00
10003 62.1120 1988.00 2055.99 45.00
10004 62.1180 1983.00 2054.92 45.00
10005 62.1240 1977.00 2053.68 44.00
10006 62.1300 1946.00 2052.22 44.00
10007 62.1360 1972.00 2050.79 44.00
10008 62.1420 2056.00 2049.38 45.00
10009 62.1480 2044.00 2048.07 45.00
10010 62.1540 1985.00 2046.98 45.00
10011 62.1600 1953.00 2046.14 44.00
10012 62.1660 2010.00 2045.60 45.00
10013 62.1720 2037.00 2045.39 45.00
10014 62.1780 1999.00 2045.46 45.00
10015 62.1840 1964.00 2045.84 44.00
10016 62.1900 1907.00 2046.51 44.00
10017 62.1960 1934.00 2047.41 44.00
10018 62.2020 1961.00 2048.56 44.00
10019 62.2080 1973.00 2049.84 44.00
10020 62.2140 2003.00 2051.12 45.00
10021 62.2200 1962.00 2052.30 44.00
10022 62.2260 1976.00 2053.18 44.00
10023 62.2320 2034.00 2053.67 45.00
10024 62.2380 2024.00 2053.78 45.00
10025 62.2440 2011.00 2053.41 45.00
10026 62.2500 2011.00 2052.47 45.00
10027 62.2560 2023.00 2051.11 45.00
10028 62.2620 2025.00 2049.33 45.00
10029 62.2680 1991.00 2047.30 45.00
10030 62.2740 1996.00 2045.13 45.00
10031 62.2800 2045.00 2042.90 45.00
10032 62.2860 2050.00 2040.72 45.00
10033 62.2920 1983.00 2038.56 45.00
10034 62.2980 1953.00 2036.46 44.00
10035 62.3040 1948.00 2034.40 44.00
10036 62.3100 1956.00 2032.38 44.00
10037 62.3160 2012.00 2030.43 45.00
10038 62.3220 1981.00 2028.57 45.00
10039 62.3280 1947.00 2026.83 44.00
10040 62.3340 2025.00 2025.24 45.00
10041 62.3400 2024.00 2023.81 45.00
10042 62.3460 1959.00 2022.57 44.00
10043 62.3520 1942.00 2021.54 44.00
10044 62.3580 1897.00 2020.60 44.00
10045 62.3640 1908.00 2019.83 44.00
10046 62.3700 1936.00 2019.22 44.00
10047 62.3760 1939.00 2018.76 44.00
10048 62.3820 1977.00 2018.41 44.00
10049 62.3880 1996.00 2018.17 45.00
10050 62.3940 1953.00 2018.07 44.00
10051 62.4000 1957.00 2018.04 44.00
10052 62.4060 1989.00 2018.08 45.00
10053 62.4120 1972.00 2018.25 44.00
10054 62.4180 2002.00 2018.49 45.00
10055 62.4240 1954.00 2018.85 44.00
10056 62.4300 1944.00 2019.31 44.00
10057 62.4360 1957.00 2020.00 44.00
10058 62.4420 1961.00 2020.77 44.00
10059 62.4480 1978.00 2021.68 44.00
10060 62.4540 1996.00 2022.71 45.00
10061 62.4600 2002.00 2023.86 45.00
10062 62.4660 2016.00 2025.10 45.00
10063 62.4720 1999.00 2026.43 45.00
10064 62.4780 2014.00 2027.78 45.00
10065 62.4840 2050.00 2029.23 45.00
10066 62.4900 1981.00 2030.75 45.00
10067 62.4960 1978.00 2032.36 44.00
10068 62.5020 1997.00 2034.05 45.00
10069 62.5080 1995.00 2035.90 45.00
10070 62.5140 1987.00 2037.92 45.00
10071 62.5200 1980.00 2040.16 44.00
10072 62.5260 2028.00 2042.65 45.00
10073 62.5320 2034.00 2045.34 45.00
10074 62.5380 2021.00 2048.22 45.00
10075 62.5440 2057.00 2051.21 45.00
10076 62.5500 2073.00 2054.22 46.00
10077 62.5560 2024.00 2057.14 45.00
10078 62.5620 1973.00 2059.99 44.00
10079 62.5680 2012.00 2062.73 45.00
10080 62.5740 2023.00 2065.42 45.00
10081 62.5800 2017.00 2068.13 45.00
10082 62.5860 2044.00 2070.89 45.00
10083 62.5920 2032.00 2073.85 45.00
10084 62.5980 2026.00 2076.94 45.00
10085 62.6040 2036.00 2080.13 45.00
10086 62.6100 2045.00 2083.33 45.00
10087 62.6160 2057.00 2086.25 45.00
10088 62.6220 2054.00 2088.82 45.00
10089 62.6280 2042.00 2090.80 45.00
10090 62.6340 2041.00 2092.07 45.00
10091 62.6400 2052.00 2092.49 45.00
10092 62.6460 2028.00 2092.02 45.00
10093 62.6520 2025.00 2090.72 45.00
10094 62.6580 2017.00 2088.65 45.00
10095 62.6640 2009.00 2085.95 45.00
10096 62.6700 2075.00 2082.76 46.00
10097 62.6760 2095.00 2079.15 46.00
10098 62.6820 2043.00 2075.14 45.00
10099 62.6880 1988.00 2070.92 45.00
10100 62.6940 1983.00 2066.62 45.00
10101 62.7000 2036.00 2062.36 45.00
10102 62.7060 2030.00 2058.31 45.00
10103 62.7120 2016.00 2054.63 45.00
10104 62.7180 1957.00 2051.39 44.00
10105 62.7240 1930.00 2048.63 44.00
10106 62.7300 1972.00 2046.30 44.00
10107 62.7360 2017.00 2044.47 45.00
10108 62.7420 1990.00 2042.98 45.00
10109 62.7480 1958.00 2041.85 44.00
10110 62.7540 1961.00 2041.04 44.00
10111 62.7600 1960.00 2040.58 44.00
10112 62.7660 1922.00 2040.36 44.00
10113 62.7720 2004.00 2040.37 45.00
10114 62.7780 2004.00 2040.53 45.00
10115 62.7840 1946.00 2040.89 44.00
10116 62.7900 1943.00 2041.32 44.00
10117 62.7960 1962.00 2041.81 44.00
10118 62.8020 1925.00 2042.41 44.00
10119 62.8080 1988.00 2043.06 45.00
10120 62.8140 2011.00 2043.81 45.00
10121 62.8200 2029.00 2044.64 45.00
10122 62.8260 2034.00 2045.52 45.00
10123 62.8320 1949.00 2046.39 44.00
10124 62.8380 1959.00 2047.10 44.00
10125 62.8440 1977.00 2047.65 44.00
10126 62.8500 1955.00 2047.93 44.00
10127 62.8560 1940.00 2047.94 44.00
10128 62.8620 1968.00 2047.67 44.00
10129 62.8680 1984.00 2047.15 45.00
10130 62.8740 2027.00 2046.40 45.00
10131 62.8800 2020.00 2045.42 45.00
10132 62.8860 1976.00 2044.13 44.00
10133 62.8920 2003.00 2042.59 45.00
10134 62.8980 1992.00 2040.76 45.00
10135 62.9040 1988.00 2038.71 45.00
10136 62.9100 1918.00 2036.56 44.00
10137 62.9160 1870.00 2034.48 43.00
10138 62.9220 1963.00 2032.64 44.00
10139 62.9280 1972.00 2031.14 44.00
10140 62.9340 1942.00 2030.09 44.00
10141 62.9400 1962.00 2029.55 44.00
10142 62.9460 1998.00 2029.50 45.00
10143 62.9520 1954.00 2029.96 44.00
10144 62.9580 1972.00 2030.87 44.00
10145 62.9640 1950.00 2032.18 44.00
10146 62.9700 1891.00 2033.87 43.00
10147 62.9760 1999.00 2035.93 45.00
10148 62.9820 2047.00 2038.35 45.00
10149 62.9880 2014.00 2041.15 45.00
10150 62.9940 2017.00 2044.36 45.00
10151 63.0000 2036.00 2047.97 45.00
10152 63.0060 2034.00 2051.85 45.00
10153 63.0120 2024.00 2055.81 45.00
10154 63.0180 2054.00 2059.73 45.00
10155 63.0240 1993.00 2063.30 45.00
10156 63.0300 1997.00 2066.30 45.00
10157 63.0360 2020.00 2068.47 45.00
10158 63.0420 1979.00 2069.58 44.00
10159 63.0480 2014.00 2069.62 45.00
10160 63.0540 2008.00 2068.49 45.00
10161 63.0600 1960.00 2066.30 44.00
10162 63.0660 1963.00 2063.26 44.00
10163 63.0720 1993.00 2059.57 45.00
10164 63.0780 2028.00 2055.53 45.00
10165 63.0840 1989.00 2051.33 45.00
10166 63.0900 1911.00 2047.23 44.00
10167 63.0960 1938.00 2043.42 44.00
10168 63.1020 1963.00 2040.14 44.00
10169 63.1080 1985.00 2037.50 45.00
10170 63.1140 1977.00 2035.62 44.00
10171 63.1200 1948.00 2034.53 44.00
10172 63.1260 1974.00 2034.26 44.00
10173 63.1320 2022.00 2034.77 45.00
10174 63.1380 1975.00 2035.98 44.00
10175 63.1440 1934.00 2037.79 44.00
10176 63.1500 2032.00 2040.10 45.00
10177 63.1560 2009.00 2042.78 45.00
10178 63.1620 2028.00 2045.71 45.00
10179 63.1680 2033.00 2048.78 45.00
10180 63.1740 1984.00 2051.81 45.00
10181 63.1800 2007.00 2054.67 45.00
10182 63.1860 2002.00 2057.16 45.00
10183 63.1920 2004.00 2059.11 45.00
10184 63.1980 1982.00 2060.39 45.00
10185 63.2040 1960.00 2060.92 44.00
10186 63.2100 1990.00 2060.66 45.00
10187 63.2160 1962.00 2059.66 44.00
10188 63.2220 2020.00 2057.91 45.00
10189 63.2280 1993.00 2055.53 45.00
10190 63.2340 1937.00 2052.61 44.00
10191 63.2400 2000.00 2049.29 45.00
10192 63.2460 1965.00 2045.75 44.00
10193 63.2520 1998.00 2042.21 45.00
10194 63.2580 2002.00 2038.74 45.00
10195 63.2640 2009.00 2035.53 45.00
10196 63.2700 2037.00 2032.70 45.00
10197 63.2760 1991.00 2030.29 45.00
10198 63.2820 1943.00 2028.34 44.00
10199 63.2880 1968.00 2026.91 44.00
10200 63.2940 1980.00 2025.95 44.00
10201 63.3000 1923.00 2025.49 44.00
10202 63.3060 1984.00 2025.49 45.00
10203 63.3120 1998.00 2025.91 45.00
10204 63.3180 1957.00 2026.55 44.00
10205 63.3240 1977.00 2027.35 44.00
10206 63.3300 1981.00 2028.22 45.00
10207 63.3360 1997.00 2029.07 45.00
10208 63.3420 1977.00 2029.91 44.00
10209 63.3480 1933.00 2030.77 44.00
10210 63.3540 1970.00 2031.77 44.00
10211 63.3600 1972.00 2032.93 44.00
10212 63.3660 2050.00 2034.33 45.00
10213 63.3720 2070.00 2035.98 45.00
10214 63.3780 1988.00 2037.75 45.00
10215 63.3840 1997.00 2039.52 45.00
10216 63.3900 1989.00 2041.20 45.00
10217 63.3960 1958.00 2042.60 44.00
10218 63.4020 2004.00 2043.57 45.00
10219 63.4080 2047.00 2044.02 45.00
10220 63.4140 2048.00 2043.78 45.00
10221 63.4200 1982.00 2042.86 45.00
10222 63.4260 2040.00 2041.24 45.00
10223 63.4320 1957.00 2038.93 44.00
10224 63.4380 1961.00 2036.14 44.00
10225 63.4440 1969.00 2032.90 44.00
10226 63.4500 2010.00 2029.45 45.00
10227 63.4560 2009.00 2025.89 45.00
10228 63.4620 2004.00 2022.37 45.00
10229 63.4680 1929.00 2019.01 44.00
10230 63.4740 1912.00 2015.90 44.00
10231 63.4800 1972.00 2013.16 44.00
10232 63.4860 1961.00 2010.91 44.00
10233 63.4920 1956.00 2009.24 44.00
10234 63.4980 1936.00 2008.18 44.00
10235 63.5040 1886.00 2007.75 43.00
10236 63.5100 1973.00 2007.92 44.00
10237 63.5160 2006.00 2008.64 45.00
10238 63.5220 1968.00 2009.83 44.00
10239 63.5280 1894.00 2011.37 44.00
10240 63.5340 1952.00 2013.13 44.00
10241 63.5400 1935.00 2014.91 44.00
10242 63.5460 1930.00 2016.63 44.00
10243 63.5520 1954.00 2018.13 44.00
10244 63.5580 2011.00 2019.33 45.00
10245 63.5640 1948.00 2020.15 44.00
10246 63.5700 2020.00 2020.57 45.00
10247 63.5760 1925.00 2020.55 44.00
10248 63.5820 2021.00 2020.09 45.00
10249 63.5880 2032.00 2019.16 45.00
10250 63.5940 1995.00 2017.71 45.00
10251 63.6000 2005.00 2015.71 45.00
10252 63.6060 1994.00 2013.21 45.00
10253 63.6120 1914.00 2010.26 44.00
10254 63.6180 1954.00 2006.97 44.00
10255 63.6240 1923.00 2003.47 44.00
10256 63.6300 1972.00 1999.93 44.00
10257 63.6360 1952.00 1996.47 44.00
10258 63.6420 1909.00 1993.24 44.00
10259 63.6480 1931.00 1990.27 44.00
10260 63.6540 1951.00 1987.71 44.00
10261 63.6600 1892.00 1985.45 43.00
10262 63.6660 1938.00 1983.60 44.00
10263 63.6720 2010.00 1982.09 45.00
10264 63.6780 1887.00 1980.92 43.00
10265 63.6840 1935.00 1980.07 44.00
10266 63.6900 1944.00 1979.54 44.00
10267 63.6960 1935.00 1979.24 44.00
10268 63.7020 1941.00 1979.26 44.00
10269 63.7080 1945.00 1979.51 44.00
10270 63.7140 1858.00 1979.95 43.00
10271 63.7200 1905.00 1980.52 44.00
10272 63.7260 2015.00 1981.17 45.00
10273 63.7320 2001.00 1981.87 45.00
10274 63.7380 1967.00 1982.61 44.00
10275 63.7440 1953.00 1983.29 44.00
10276 63.7500 1981.00 1983.97 45.00
10277 63.7560 1969.00 1984.62 44.00
10278 63.7620 1910.00 1985.30 44.00
10279 63.7680 1866.00 1986.06 43.00
10280 63.7740 1905.00 1986.89 44.00
10281 63.7800 1979.00 1987.91 44.00
10282 63.7860 1984.00 1989.04 45.00
10283 63.7920 1921.00 1990.27 44.00
10284 63.7980 1878.00 1991.48 43.00
10285 63.8040 1826.00 1992.59 43.00
10286 63.8100 1786.00 1993.52 42.00
10287 63.8160 1956.00 1994.16 44.00
10288 63.8220 1972.00 1994.49 44.00
10289 63.8280 1944.00 1994.59 44.00
10290 63.8340 1965.00 1994.51 44.00
10291 63.8400 1965.00 1994.23 44.00
10292 63.8460 2043.00 1993.80 45.00
10293 63.8520 1908.00 1993.26 44.00
10294 63.8580 1926.00 1992.50 44.00
10295 63.8640 1924.00 1991.50 44.00
10296 63.8700 1926.00 1990.27 44.00
10297 63.8760 1884.00 1988.77 43.00
10298 63.8820 1943.00 1987.02 44.00
10299 63.8880 1879.00 1985.04 43.00
10300 63.8940 1955.00 1982.93 44.00
10301 63.9000 1928.00 1980.69 44.00
10302 63.9060 1946.00 1978.41 44.00
10303 63.9120 1983.00 1976.22 45.00
10304 63.9180 1903.00 1974.10 44.00
10305 63.9240 1940.00 1972.14 44.00
10306 63.9300 1871.00 1970.38 43.00
10307 63.9360 1918.00 1968.87 44.00
10308 63.9420 1928.00 1967.62 44.00
10309 63.9480 1899.00 1966.66 44.00
10310 63.9540 1917.00 1966.02 44.00
10311 63.9600 1973.00 1965.71 44.00
10312 63.9660 1915.00 1965.74 44.00
10313 63.9720 1883.00 1966.12 43.00
10314 63.9780 1864.00 1966.86 43.00
10315 63.9840 1930.00 1967.93 44.00
10316 63.9900 1982.00 1969.35 45.00
10317 63.9960 1886.00 1971.09 43.00
10318 64.0020 1934.00 1973.06 44.00
10319 64.0080 1938.00 1975.32 44.00
10320 64.0140 1985.00 1977.71 45.00
10321 64.0200 1944.00 1980.16 44.00
10322 64.0260 1903.00 1982.64 44.00
10323 64.0320 1991.00 1985.06 45.00
10324 64.0380 1994.00 1987.37 45.00
10325 64.0440 1920.00 1989.48 44.00
10326 64.0500 1918.00 1991.47 44.00
10327 64.0560 1947.00 1993.25 44.00
10328 64.0620 1974.00 1994.80 44.00
10329 64.0680 1973.00 1996.10 44.00
10330 64.0740 1970.00 1997.14 44.00
10331 64.0800 1916.00 1997.98 44.00
10332 64.0860 1935.00 1998.65 44.00
10333 64.0920 1969.00 1999.27 44.00
10334 64.0980 1997.00 1999.87 45.00
10335 64.1040 1922.00 2000.48 44.00
10336 64.1100 2003.00 2001.11 45.00
10337 64.1160 2004.00 2001.75 45.00
10338 64.1220 1976.00 2002.42 44.00
10339 64.1280 1936.00 2002.98 44.00
10340 64.1340 1963.00 2003.48 44.00
10341 64.1400 1945.00 2003.92 44.00
10342 64.1460 2001.00 2004.36 45.00
10343 64.1520 1960.00 2004.85 44.00
10344 64.1580 1984.00 2005.42 45.00
10345 64.1640 1977.00 2006.09 44.00
10346 64.1700 1966.00 2006.75 44.00
10347 64.1760 1974.00 2007.26 44.00
10348 64.1820 2032.00 2007.45 45.00
10349 64.1880 2056.00 2007.11 45.00
10350 64.1940 2101.00 2006.07 46.00
10351 64.2000 2015.00 2004.31 45.00
10352 64.2060 2023.00 2001.93 45.00
10353 64.2120 1936.00 1998.93 44.00
10354 64.2180 1983.00 1995.54 45.00
10355 64.2240 2051.00 1991.90 45.00
10356 64.2300 2006.00 1988.24 45.00
10357 64.2360 1978.00 1984.67 44.00
10358 64.2420 1946.00 1981.05 44.00
10359 64.2480 1963.00 1977.53 44.00
10360 64.2540 1897.00 1974.08 44.00
10361 64.2600 1942.00 1970.74 44.00
10362 64.2660 1923.00 1967.50 44.00
10363 64.2720 1975.00 1964.42 44.00
10364 64.2780 1921.00 1961.59 44.00
10365 64.2840 1893.00 1958.98 44.00
10366 64.2900 1917.00 1956.67 44.00
10367 64.2960 1919.00 1954.68 44.00
10368 64.3020 1988.00 1952.99 45.00
10369 64.3080 1904.00 1951.61 44.00
10370 64.3140 1892.00 1950.51 43.00
10371 64.3200 1932.00 1949.66 44.00
10372 64.3260 1917.00 1949.02 44.00
10373 64.3320 1970.00 1948.55 44.00
10374 64.3380 1900.00 1948.20 44.00
10375 64.3440 1890.00 1947.92 43.00
10376 64.3500 1883.00 1947.65 43.00
10377 64.3560 1895.00 1947.41 44.00
10378 64.3620 1857.00 1947.16 43.00
10379 64.3680 1969.00 1946.92 44.00
10380 64.3740 1928.00 1946.71 44.00
10381 64.3800 1888.00 1946.64 43.00
10382 64.3860 1889.00 1946.73 43.00
10383 64.3920 1948.00 1947.03 44.00
10384 64.3980 1925.00 1947.58 44.00
10385 64.4040 1866.00 1948.37 43.00
10386 64.4100 1970.00 1949.48 44.00
10387 64.4160 1966.00 1950.89 44.00
10388 64.4220 1862.00 1952.55 43.00
10389 64.4280 1934.00 1954.50 44.00
10390 64.4340 1939.00 1956.67 44.00
10391 64.4400 1949.00 1959.03 44.00
10392 64.4460 1977.00 1961.44 44.00
10393 64.4520 1908.00 1963.82 44.00
10394 64.4580 1924.00 1966.05 44.00
10395 64.4640 1932.00 1967.99 44.00
10396 64.4700 2005.00 1969.49 45.00
10397 64.4760 1993.00 1970.41 45.00
10398 64.4820 1972.00 1970.72 44.00
10399 64.4880 1936.00 1970.40 44.00
10400 64.4940 1947.00 1969.60 44.00
10401 64.5000 1964.00 1968.43 44.00
10402 64.5060 1946.00 1967.10 44.00
10403 64.5120 1915.00 1965.75 44.00
10404 64.5180 1863.00 1964.54 43.00
10405 64.5240 1859.00 1963.56 43.00
10406 64.5300 1894.00 1962.83 44.00
10407 64.5360 1880.00 1962.35 43.00
10408 64.5420 1893.00 1962.06 44.00
10409 64.5480 1889.00 1961.90 43.00
10410 64.5540 1860.00 1961.74 43.00
10411 64.5600 1836.00 1961.49 43.00
10412 64.5660 1830.00 1961.04 43.00
10413 64.5720 1941.00 1960.41 44.00
10414 64.5780 1922.00 1959.56 44.00
10415 64.5840 1942.00 1958.53 44.00
10416 64.5900 1875.00 1957.35 43.00
10417 64.5960 1925.00 1956.10 44.00
10418 64.6020 1963.00 1954.84 44.00
10419 64.6080 1887.00 1953.61 43.00
10420 64.6140 1930.00 1952.44 44.00
10421 64.6200 1950.00 1951.34 44.00
10422 64.6260 1852.00 1950.29 43.00
10423 64.6320 1886.00 1949.34 43.00
10424 64.6380 1900.00 1948.53 44.00
10425 64.6440 1864.00 1947.85 43.00
10426 64.6500 1892.00 1947.38 43.00
10427 64.6560 1923.00 1947.16 44.00
10428 64.6620 1943.00 1947.24 44.00
10429 64.6680 1910.00 1947.65 44.00
10430 64.6740 1893.00 1948.36 44.00
10431 64.6800 1865.00 1949.42 43.00
10432 64.6860 1855.00 1950.77 43.00
10433 64.6920 1930.00 1952.35 44.00
10434 64.6980 1907.00 1954.09 44.00
10435 64.7040 1884.00 1955.86 43.00
10436 64.7100 1900.00 1957.56 44.00
10437 64.7160 1914.00 1959.08 44.00
10438 64.7220 1928.00 1960.27 44.00
10439 64.7280 1940.00 1961.03 44.00
10440 64.7340 1901.00 1961.35 44.00
10441 64.7400 1886.00 1961.24 43.00
10442 64.7460 1876.00 1960.83 43.00
10443 64.7520 1895.00 1960.10 44.00
10444 64.7580 1922.00 1959.17 44.00
10445 64.7640 1948.00 1958.18 44.00
10446 64.7700 1988.00 1957.08 45.00
10447 64.7760 2001.00 1955.93 45.00
10448 64.7820 1962.00 1954.74 44.00
10449 64.7880 1942.00 1953.54 44.00
10450 64.7940 1914.00 1952.32 44.00
10451 64.8000 1937.00 1951.14 44.00
10452 64.8060 1935.00 1950.04 44.00
10453 64.8120 1914.00 1949.03 44.00
10454 64.8180 1875.00 1948.15 43.00
10455 64.8240 1887.00 1947.25 43.00
10456 64.8300 1901.00 1946.35 44.00
10457 64.8360 1935.00 1945.44 44.00
10458 64.8420 1962.00 1944.47 44.00
10459 64.8480 1960.00 1943.52 44.00
10460 64.8540 1968.00 1942.64 44.00
10461 64.8600 1906.00 1941.95 44.00
10462 64.8660 1897.00 1941.50 44.00
10463 64.8720 1911.00 1941.40 44.00
10464 64.8780 1833.00 1941.70 43.00
10465 64.8840 1838.00 1942.40 43.00
10466 64.8900 1906.00 1943.62 44.00
10467 64.8960 1922.00 1945.33 44.00
10468 64.9020 1937.00 1947.50 44.00
10469 64.9080 1941.00 1950.16 44.00
10470 64.9140 1945.00 1953.18 44.00
10471 64.9200 1959.00 1956.50 44.00
10472 64.9260 1933.00 1960.02 44.00
10473 64.9320 1883.00 1963.63 43.00
10474 64.9380 1895.00 1967.19 44.00
10475 64.9440 1976.00 1970.58 44.00
10476 64.9500 2013.00 1973.61 45.00
10477 64.9560 1963.00 1976.35 44.00
10478 64.9620 1958.00 1978.67 44.00
10479 64.9680 1965.00 1980.60 44.00
10480 64.9740 1992.00 1982.18 45.00
10481 64.9800 2011.00 1983.48 45.00
10482 64.9860 1978.00 1984.52 44.00
10483 64.9920 1997.00 1985.43 45.00
10484 64.9980 1987.00 1986.34 45.00
10485 65.0040 1968.00 1987.37 44.00
10486 65.0100 2009.00 1988.59 45.00
10487 65.0160 2076.00 1990.04 46.00
10488 65.0220 2065.00 1991.84 45.00
10489 65.0280 1969.00 1993.83 44.00
10490 65.0340 1957.00 1996.00 44.00
10491 65.0400 1992.00 1998.16 45.00
10492 65.0460 1982.00 2000.24 45.00
10493 65.0520 1980.00 2002.18 44.00
10494 65.0580 1975.00 2003.91 44.00
10495 65.0640 2017.00 2005.35 45.00
10496 65.0700 1953.00 2006.39 44.00
10497 65.0760 2006.00 2006.89 45.00
10498 65.0820 2077.00 2006.74 46.00
10499 65.0880 2083.00 2005.74 46.00
10500 65.0940 2020.00 2003.74 45.00
10501 65.1000 1904.00 2000.65 44.00
10502 65.1060 2029.00 1996.48 45.00
10503 65.1120 1915.00 1991.33 44.00
10504 65.1180 1953.00 1985.45 44.00
10505 65.1240 1950.00 1979.10 44.00
10506 65.1300 1989.00 1972.63 45.00
10507 65.1360 1970.00 1966.24 44.00
10508 65.1420 1959.00 1960.19 44.00
10509 65.1480 1945.00 1954.60 44.00
10510 65.1540 1892.00 1949.57 43.00
10511 65.1600 1877.00 1945.13 43.00
10512 65.1660 1877.00 1941.28 43.00
10513 65.1720 1822.00 1938.00 43.00
10514 65.1780 1862.00 1935.20 43.00
10515 65.1840 1926.00 1932.88 44.00
10516 65.1900 1919.00 1930.91 44.00
10517 65.1960 1888.00 1929.27 43.00
10518 65.2020 1887.00 1927.90 43.00
10519 65.2080 1921.00 1926.77 44.00
10520 65.2140 1932.00 1925.87 44.00
10521 65.2200 1926.00 1925.19 44.00
10522 65.2260 1907.00 1924.72 44.00
10523 65.2320 1892.00 1924.48 43.00
10524 65.2380 1908.00 1924.45 44.00
10525 65.2440 1918.00 1924.62 44.00
10526 65.2500 1921.00 1924.96 44.00
10527 65.2560 1894.00 1925.42 44.00
10528 65.2620 1861.00 1925.97 43.00
10529 65.2680 1880.00 1926.51 43.00
10530 65.2740 1912.00 1927.01 44.00
10531 65.2800 1881.00 1927.46 43.00
10532 65.2860 1854.00 1927.84 43.00
10533 65.2920 1863.00 1928.18 43.00
10534 65.2980 1882.00 1928.47 43.00
10535 65.3040 1895.00 1928.66 44.00
10536 65.3100 1869.00 1928.80 43.00
10537 65.3160 1860.00 1928.75 43.00
10538 65.3220 1866.00 1928.53 43.00
10539 65.3280 1875.00 1928.04 43.00
10540 65.3340 1876.00 1927.29 43.00
10541 65.3400 1835.00 1926.29 43.00
10542 65.3460 1880.00 1925.11 43.00
10543 65.3520 1862.00 1923.83 43.00
10544 65.3580 1825.00 1922.53 43.00
10545 65.3640 1816.00 1921.29 43.00
10546 65.3700 1839.00 1920.17 43.00
10547 65.3760 1876.00 1919.21 43.00
10548 65.3820 1915.00 1918.42 44.00
10549 65.3880 1903.00 1917.78 44.00
10550 65.3940 1868.00 1917.30 43.00
10551 65.4000 1878.00 1916.89 43.00
10552 65.4060 1884.00 1916.55 43.00
10553 65.4120 1913.00 1916.20 44.00
10554 65.4180 1915.00 1915.83 44.00
10555 65.4240 1893.00 1915.41 44.00
10556 65.4300 1887.00 1914.97 43.00
10557 65.4360 1893.00 1914.54 44.00
10558 65.4420 1930.00 1914.16 44.00
10559 65.4480 1916.00 1913.88 44.00
10560 65.4540 1904.00 1913.74 44.00
10561 65.4600 1896.00 1913.77 44.00
10562 65.4660 1865.00 1913.98 43.00
10563 65.4720 1855.00 1914.40 43.00
10564 65.4780 1883.00 1915.07 43.00
10565 65.4840 1906.00 1916.02 44.00
10566 65.4900 1918.00 1917.32 44.00
10567 65.4960 1912.00 1918.96 44.00
10568 65.5020 1922.00 1921.02 44.00
10569 65.5080 1931.00 1923.49 44.00
10570 65.5140 1928.00 1926.38 44.00
10571 65.5200 1924.00 1929.69 44.00
10572 65.5260 1963.00 1933.37 44.00
10573 65.5320 1875.00 1937.37 43.00
10574 65.5380 1913.00 1941.60 44.00
10575 65.5440 1951.00 1945.94 44.00
10576 65.5500 1887.00 1950.28 43.00
10577 65.5560 1971.00 1954.56 44.00
10578 65.5620 1914.00 1958.66 44.00
10579 65.5680 1951.00 1962.48 44.00
10580 65.5740 1910.00 1965.99 44.00
10581 65.5800 1952.00 1969.04 44.00
10582 65.5860 1974.00 1971.58 44.00
10583 65.5920 1899.00 1973.57 44.00
10584 65.5980 1947.00 1975.02 44.00
10585 65.6040 1997.00 1975.98 45.00
10586 65.6100 2003.00 1976.55 45.00
10587 65.6160 1983.00 1976.81 45.00
10588 65.6220 1904.00 1976.94 44.00
10589 65.6280 1965.00 1976.99 44.00
10590 65.6340 1899.00 1976.99 44.00
10591 65.6400 1955.00 1976.91 44.00
10592 65.6460 1948.00 1976.69 44.00
10593 65.6520 1999.00 1976.22 45.00
10594 65.6580 1980.00 1975.42 44.00
10595 65.6640 1964.00 1974.15 44.00
10596 65.6700 1979.00 1972.38 44.00
10597 65.6760 1942.00 1970.17 44.00
10598 65.6820 1931.00 1967.57 44.00
10599 65.6880 1988.00 1964.61 45.00
10600 65.6940 1939.00 1961.40 44.00
10601 65.7000 1949.00 1958.02 44.00
10602 65.7060 2036.00 1954.56 45.00
10603 65.7120 1971.00 1951.14 44.00
10604 65.7180 1971.00 1947.87 44.00
10605 65.7240 1961.00 1944.83 44.00
10606 65.7300 1986.00 1942.09 45.00
10607 65.7360 1963.00 1939.71 44.00
10608 65.7420 1893.00 1937.70 44.00
10609 65.7480 1931.00 1936.00 44.00
10610 65.7540 1987.00 1934.58 45.00
10611 65.7600 1935.00 1933.40 44.00
10612 65.7660 1938.00 1932.38 44.00
10613 65.7720 1905.00 1931.47 44.00
10614 65.7780 1893.00 1930.60 44.00
10615 65.7840 1911.00 1929.62 44.00
10616 65.7900 1985.00 1928.57 45.00
10617 65.7960 1870.00 1927.40 43.00
10618 65.8020 1901.00 1926.06 44.00
10619 65.8080 1925.00 1924.58 44.00
10620 65.8140 1894.00 1923.03 44.00
10621 65.8200 1904.00 1921.42 44.00
10622 65.8260 1936.00 1919.83 44.00
10623 65.8320 1900.00 1918.29 44.00
10624 65.8380 1932.00 1916.87 44.00
10625 65.8440 1861.00 1915.59 43.00
10626 65.8500 1939.00 1914.51 44.00
10627 65.8560 1896.00 1913.60 44.00
10628 65.8620 1900.00 1912.86 44.00
10629 65.8680 1879.00 1912.22 43.00
10630 65.8740 1939.00 1911.60 44.00
10631 65.8800 1878.00 1911.03 43.00
10632 65.8860 1883.00 1910.45 43.00
10633 65.8920 1872.00 1909.86 43.00
10634 65.8980 1928.00 1909.28 44.00
10635 65.9040 1902.00 1908.70 44.00
10636 65.9100 1858.00 1908.23 43.00
10637 65.9160 1834.00 1907.83 43.00
10638 65.9220 1947.00 1907.49 44.00
10639 65.9280 1877.00 1907.14 43.00
10640 65.9340 1862.00 1906.77 43.00
10641 65.9400 1917.00 1906.43 44.00
10642 65.9460 1932.00 1905.94 44.00
10643 65.9520 1890.00 1905.44 43.00
10644 65.9580 1868.00 1904.80 43.00
10645 65.9640 1961.00 1903.99 44.00
10646 65.9700 1909.00 1903.00 44.00
10647 65.9760 1896.00 1901.79 44.00
10648 65.9820 1901.00 1900.39 44.00
10649 65.9880 1910.00 1898.82 44.00
10650 65.9940 1804.00 1897.07 42.00
10651 66.0000 1865.00 1895.21 43.00
10652 66.0060 1859.00 1893.34 43.00
10653 66.0120 1967.00 1891.47 44.00
10654 66.0180 1924.00 1889.69 44.00
10655 66.0240 1867.00 1887.98 43.00
10656 66.0300 1880.00 1886.34 43.00
10657 66.0360 1866.00 1884.80 43.00
10658 66.0420 1909.00 1883.38 44.00
10659 66.0480 1889.00 1882.08 43.00
10660 66.0540 1879.00 1880.91 43.00
10661 66.0600 1896.00 1879.89 44.00
10662 66.0660 1897.00 1879.03 44.00
10663 66.0720 1883.00 1878.32 43.00
10664 66.0780 1927.00 1877.72 44.00
10665 66.0840 1862.00 1877.22 43.00
10666 66.0900 1902.00 1876.79 44.00
10667 66.0960 1899.00 1876.40 44.00
10668 66.1020 1877.00 1876.02 43.00
10669 66.1080 1864.00 1875.59 43.00
10670 66.1140 1909.00 1875.11 44.00
10671 66.1200 1799.00 1874.54 42.00
10672 66.1260 1874.00 1873.90 43.00
10673 66.1320 1846.00 1873.21 43.00
10674 66.1380 1828.00 1872.50 43.00
10675 66.1440 1820.00 1871.80 43.00
10676 66.1500 1833.00 1871.17 43.00
10677 66.1560 1852.00 1870.55 43.00
10678 66.1620 1819.00 1869.99 43.00
10679 66.1680 1850.00 1869.46 43.00
10680 66.1740 1909.00 1869.01 44.00
10681 66.1800 1849.00 1868.63 43.00
10682 66.1860 1858.00 1868.27 43.00
10683 66.1920 1958.00 1867.97 44.00
10684 66.1980 1834.00 1867.71 43.00
10685 66.2040 1831.00 1867.51 43.00
10686 66.2100 1808.00 1867.36 43.00
10687 66.2160 1968.00 1867.28 44.00
10688 66.2220 1894.00 1867.30 44.00
10689 66.2280 1907.00 1867.43 44.00
10690 66.2340 1871.00 1867.70 43.00
10691 66.2400 1885.00 1868.12 43.00
10692 66.2460 1876.00 1868.73 43.00
10693 66.2520 1849.00 1869.54 43.00
10694 66.2580 1880.00 1870.57 43.00
10695 66.2640 1892.00 1872.01 43.00
10696 66.2700 1869.00 1873.68 43.00
10697 66.2760 1901.00 1875.63 44.00
10698 66.2820 1891.00 1877.80 43.00
10699 66.2880 1907.00 1880.19 44.00
10700 66.2940 1847.00 1882.76 43.00
10701 66.3000 1872.00 1885.44 43.00
10702 66.3060 1859.00 1888.17 43.00
10703 66.3120 1868.00 1890.88 43.00
10704 66.3180 1898.00 1893.50 44.00
10705 66.3240 1863.00 1895.98 43.00
10706 66.3300 1886.00 1898.26 43.00
10707 66.3360 1910.00 1900.29 44.00
10708 66.3420 1848.00 1902.00 43.00
10709 66.3480 1803.00 1903.36 42.00
10710 66.3540 1839.00 1904.36 43.00
10711 66.3600 1877.00 1905.02 43.00
10712 66.3660 1814.00 1905.35 43.00
10713 66.3720 1934.00 1905.44 44.00
10714 66.3780 1869.00 1905.33 43.00
10715 66.3840 1936.00 1905.08 44.00
10716 66.3900 1920.00 1904.75 44.00
10717 66.3960 1898.00 1904.37 44.00
10718 66.4020 1905.00 1903.91 44.00
10719 66.4080 1977.00 1903.33 44.00
10720 66.4140 1956.00 1902.62 44.00
10721 66.4200 1923.00 1901.67 44.00
10722 66.4260 1920.00 1900.45 44.00
10723 66.4320 1885.00 1898.88 43.00
10724 66.4380 1957.00 1897.11 44.00
10725 66.4440 1862.00 1895.18 43.00
10726 66.4500 1836.00 1893.14 43.00
10727 66.4560 1895.00 1891.17 44.00
10728 66.4620 1931.00 1889.34 44.00
10729 66.4680 1870.00 1887.70 43.00
10730 66.4740 1929.00 1886.30 44.00
10731 66.4800 1883.00 1885.17 43.00
10732 66.4860 1832.00 1884.30 43.00
10733 66.4920 1868.00 1883.67 43.00
10734 66.4980 1792.00 1883.21 42.00
10735 66.5040 1876.00 1882.80 43.00
10736 66.5100 1926.00 1882.56 44.00
10737 66.5160 1817.00 1882.36 43.00
10738 66.5220 1824.00 1882.21 43.00
10739 66.5280 1942.00 1882.04 44.00
10740 66.5340 1901.00 1881.97 44.00
10741 66.5400 1868.00 1882.03 43.00
10742 66.5460 1925.00 1882.14 44.00
10743 66.5520 1841.00 1882.46 43.00
10744 66.5580 1893.00 1882.95 44.00
10745 66.5640 1859.00 1883.62 43.00
10746 66.5700 1894.00 1884.49 44.00
10747 66.5760 1844.00 1885.52 43.00
10748 66.5820 1801.00 1886.70 42.00
10749 66.5880 1812.00 1888.00 43.00
10750 66.5940 1859.00 1889.38 43.00
10751 66.6000 1914.00 1890.71 44.00
10752 66.6060 1948.00 1892.04 44.00
10753 66.6120 1840.00 1893.28 43.00
10754 66.6180 1847.00 1894.40 43.00
10755 66.6240 1927.00 1895.33 44.00
10756 66.6300 1900.00 1896.01 44.00
10757 66.6360 1886.00 1896.39 43.00
10758 66.6420 1867.00 1896.45 43.00
10759 66.6480 1892.00 1896.14 43.00
10760 66.6540 1881.00 1895.50 43.00
10761 66.6600 1927.00 1894.52 44.00
10762 66.6660 1937.00 1893.24 44.00
10763 66.6720 1883.00 1891.70 43.00
10764 66.6780 1812.00 1889.93 43.00
10765 66.6840 1842.00 1888.03 43.00
10766 66.6900 1871.00 1886.04 43.00
10767 66.6960 1922.00 1884.05 44.00
10768 66.7020 1879.00 1882.14 43.00
10769 66.7080 1933.00 1880.39 44.00
10770 66.7140 1922.00 1878.91 44.00
10771 66.7200 1874.00 1877.69 43.00
10772 66.7260 1891.00 1876.85 43.00
10773 66.7320 1905.00 1876.35 44.00
10774 66.7380 1903.00 1876.31 44.00
10775 66.7440 1837.00 1876.71 43.00
10776 66.7500 1869.00 1877.59 43.00
10777 66.7560 1868.00 1878.95 43.00
10778 66.7620 1902.00 1880.80 44.00
10779 66.7680 1858.00 1883.14 43.00
10780 66.7740 1860.00 1885.95 43.00
10781 66.7800 1833.00 1889.21 43.00
10782 66.7860 1891.00 1892.90 43.00
10783 66.7920 1929.00 1896.97 44.00
10784 66.7980 1919.00 1901.34 44.00
10785 66.8040 1932.00 1905.95 44.00
10786 66.8100 1946.00 1910.76 44.00
10787 66.8160 1929.00 1915.71 44.00
10788 66.8220 1901.00 1920.73 44.00
10789 66.8280 1875.00 1925.72 43.00
10790 66.8340 1907.00 1930.64 44.00
10791 66.8400 1960.00 1935.32 44.00
10792 66.8460 1961.00 1939.62 44.00
10793 66.8520 1954.00 1943.42 44.00
10794 66.8580 1932.00 1946.58 44.00
10795 66.8640 1937.00 1948.98 44.00
10796 66.8700 1945.00 1950.57 44.00
10797 66.8760 1958.00 1951.30 44.00
10798 66.8820 1898.00 1951.17 44.00
10799 66.8880 1914.00 1950.27 44.00
10800 66.8940 2009.00 1948.67 45.00
10801 66.9000 1986.00 1946.57 45.00
10802 66.9060 1979.00 1944.17 44.00
10803 66.9120 1935.00 1941.59 44.00
10804 66.9180 1893.00 1938.97 44.00
10805 66.9240 1964.00 1936.36 44.00
10806 66.9300 1972.00 1933.79 44.00
10807 66.9360 1981.00 1931.29 45.00
10808 66.9420 1940.00 1928.84 44.00
10809 66.9480 1986.00 1926.49 45.00
10810 66.9540 1949.00 1924.26 44.00
10811 66.9600 1910.00 1922.15 44.00
10812 66.9660 1880.00 1920.17 43.00
10813 66.9720 1868.00 1918.32 43.00
10814 66.9780 1827.00 1916.57 43.00
10815 66.9840 1836.00 1914.89 43.00
10816 66.9900 1888.00 1913.28 43.00
10817 66.9960 1921.00 1911.70 44.00
10818 67.0020 1942.00 1910.11 44.00
10819 67.0080 1913.00 1908.53 44.00
10820 67.0140 1903.00 1906.86 44.00
10821 67.0200 1923.00 1905.12 44.00
10822 67.0260 1875.00 1903.27 43.00
10823 67.0320 1885.00 1901.30 43.00
10824 67.0380 1924.00 1899.19 44.00
10825 67.0440 1912.00 1896.95 44.00
10826 67.0500 1872.00 1894.57 43.00
10827 67.0560 1897.00 1892.07 44.00
10828 67.0620 1877.00 1889.46 43.00
10829 67.0680 1870.00 1886.78 43.00
10830 67.0740 1846.00 1884.10 43.00
10831 67.0800 1813.00 1881.49 43.00
10832 67.0860 1884.00 1879.00 43.00
10833 67.0920 1829.00 1876.69 43.00
10834 67.0980 1784.00 1874.62 42.00
10835 67.1040 1796.00 1872.78 42.00
10836 67.1100 1873.00 1871.19 43.00
10837 67.1160 1900.00 1869.85 44.00
10838 67.1220 1861.00 1868.71 43.00
10839 67.1280 1852.00 1867.76 43.00
10840 67.1340 1897.00 1866.95 44.00
10841 67.1400 1891.00 1866.25 43.00
10842 67.1460 1839.00 1865.59 43.00
10843 67.1520 1877.00 1864.93 43.00
10844 67.1580 1842.00 1864.24 43.00
10845 67.1640 1784.00 1863.50 42.00
10846 67.1700 1817.00 1862.70 43.00
10847 67.1760 1862.00 1861.89 43.00
10848 67.1820 1885.00 1861.08 43.00
10849 67.1880 1868.00 1860.30 43.00
10850 67.1940 1820.00 1859.57 43.00
10851 67.2000 1863.00 1858.87 43.00
10852 67.2060 1916.00 1858.28 44.00
10853 67.2120 1852.00 1857.78 43.00
10854 67.2180 1821.00 1857.34 43.00
10855 67.2240 1868.00 1857.01 43.00
10856 67.2300 1912.00 1856.78 44.00
10857 67.2360 1846.00 1856.61 43.00
10858 67.2420 1816.00 1856.52 43.00
10859 67.2480 1834.00 1856.42 43.00
10860 67.2540 1843.00 1856.33 43.00
10861 67.2600 1842.00 1856.21 43.00
10862 67.2660 1841.00 1856.02 43.00
10863 67.2720 1896.00 1855.77 44.00
10864 67.2780 1873.00 1855.44 43.00
10865 67.2840 1834.00 1855.07 43.00
10866 67.2900 1820.00 1854.72 43.00
10867 67.2960 1848.00 1854.41 43.00
10868 67.3020 1853.00 1854.16 43.00
10869 67.3080 1833.00 1854.05 43.00
10870 67.3140 1840.00 1854.08 43.00
10871 67.3200 1834.00 1854.25 43.00
10872 67.3260 1871.00 1854.60 43.00
10873 67.3320 1859.00 1855.14 43.00
10874 67.3380 1823.00 1855.89 43.00
10875 67.3440 1877.00 1856.86 43.00
10876 67.3500 1840.00 1858.03 43.00
10877 67.3560 1830.00 1859.42 43.00
10878 67.3620 1832.00 1861.00 43.00
10879 67.3680 1843.00 1862.74 43.00
10880 67.3740 1840.00 1864.59 43.00
10881 67.3800 1860.00 1866.52 43.00
10882 67.3860 1920.00 1868.46 44.00
10883 67.3920 1902.00 1870.34 44.00
10884 67.3980 1837.00 1872.10 43.00
10885 67.4040 1836.00 1873.66 43.00
10886 67.4100 1872.00 1874.98 43.00
10887 67.4160 1838.00 1876.03 43.00
10888 67.4220 1798.00 1876.83 42.00
10889 67.4280 1816.00 1877.42 43.00
10890 67.4340 1882.00 1877.76 43.00
10891 67.4400 1853.00 1877.91 43.00
10892 67.4460 1801.00 1877.88 42.00
10893 67.4520 1821.00 1877.59 43.00
10894 67.4580 1865.00 1877.01 43.00
10895 67.4640 1893.00 1876.09 44.00
10896 67.4700 1843.00 1874.86 43.00
10897 67.4760 1829.00 1873.34 43.00
10898 67.4820 1860.00 1871.57 43.00
10899 67.4880 1837.00 1869.67 43.00
10900 67.4940 1814.00 1867.75 43.00
10901 67.5000 1832.00 1865.89 43.00
10902 67.5060 1861.00 1864.18 43.00
10903 67.5120 1819.00 1862.73 43.00
10904 67.5180 1817.00 1861.49 43.00
10905 67.5240 1855.00 1860.54 43.00
10906 67.5300 1879.00 1859.87 43.00
10907 67.5360 1871.00 1859.50 43.00
10908 67.5420 1838.00 1859.40 43.00
10909 67.5480 1814.00 1859.55 43.00
10910 67.5540 1828.00 1859.91 43.00
10911 67.5600 1818.00 1860.40 43.00
10912 67.5660 1835.00 1860.99 43.00
10913 67.5720 1838.00 1861.59 43.00
10914 67.5780 1804.00 1862.12 42.00
10915 67.5840 1834.00 1862.50 43.00
10916 67.5900 1867.00 1862.69 43.00
10917 67.5960 1842.00 1862.65 43.00
10918 67.6020 1845.00 1862.34 43.00
10919 67.6080 1873.00 1861.82 43.00
10920 67.6140 1840.00 1861.13 43.00
10921 67.6200 1819.00 1860.33 43.00
10922 67.6260 1852.00 1859.51 43.00
10923 67.6320 1860.00 1858.66 43.00
10924 67.6380 1825.00 1857.87 43.00
10925 67.6440 1797.00 1857.16 42.00
10926 67.6500 1822.00 1856.60 43.00
10927 67.6560 1866.00 1856.19 43.00
10928 67.6620 1836.00 1855.98 43.00
10929 67.6680 1805.00 1855.93 42.00
10930 67.6740 1841.00 1856.12 43.00
10931 67.6800 1843.00 1856.52 43.00
10932 67.6860 1789.00 1857.20 42.00
10933 67.6920 1829.00 1858.14 43.00
10934 67.6980 1801.00 1859.35 42.00
10935 67.7040 1811.00 1860.84 43.00
10936 67.7100 1841.00 1862.60 43.00
10937 67.7160 1846.00 1864.62 43.00
10938 67.7220 1842.00 1866.95 43.00
10939 67.7280 1851.00 1869.57 43.00
10940 67.7340 1858.00 1872.43 43.00
10941 67.7400 1890.00 1875.54 43.00
10942 67.7460 1913.00 1878.80 44.00
10943 67.7520 1859.00 1882.21 43.00
10944 67.7580 1853.00 1885.61 43.00
10945 67.7640 1787.00 1889.02 42.00
10946 67.7700 1819.00 1892.30 43.00
10947 67.7760 1857.00 1895.42 43.00
10948 67.7820 1877.00 1898.32 43.00
10949 67.7880 1875.00 1901.00 43.00
10950 67.7940 1884.00 1903.45 43.00
10951 67.8000 1841.00 1905.63 43.00
10952 67.8060 1853.00 1907.56 43.00
10953 67.8120 1853.00 1909.14 43.00
10954 67.8180 1870.00 1910.32 43.00
10955 67.8240 1883.00 1911.02 43.00
10956 67.8300 1895.00 1911.16 44.00
10957 67.8360 1918.00 1910.74 44.00
10958 67.8420 1893.00 1909.71 44.00
10959 67.8480 1841.00 1908.22 43.00
10960 67.8540 1864.00 1906.27 43.00
10961 67.8600 1850.00 1903.89 43.00
10962 67.8660 1849.00 1901.13 43.00
10963 67.8720 1850.00 1897.98 43.00
10964 67.8780 1828.00 1894.49 43.00
10965 67.8840 1937.00 1890.67 44.00
10966 67.8900 1929.00 1886.68 44.00
10967 67.8960 1871.00 1882.57 43.00
10968 67.9020 1820.00 1878.45 43.00
10969 67.9080 1835.00 1874.44 43.00
10970 67.9140 1892.00 1870.61 43.00
10971 67.9200 1852.00 1867.08 43.00
10972 67.9260 1818.00 1863.85 43.00
10973 67.9320 1795.00 1860.96 42.00
10974 67.9380 1793.00 1858.43 42.00
10975 67.9440 1842.00 1856.13 43.00
10976 67.9500 1796.00 1853.87 42.00
10977 67.9560 1808.00 1851.94 43.00
10978 67.9620 1850.00 1850.34 43.00
10979 67.9680 1834.00 1849.03 43.00
10980 67.9740 1841.00 1848.00 43.00
10981 67.9800 1855.00 1847.22 43.00
10982 67.9860 1813.00 1846.65 43.00
10983 67.9920 1789.00 1846.26 42.00
10984 67.9980 1852.00 1846.02 43.00
10985 68.0040 1863.00 1845.88 43.00
10986 68.0100 1855.00 1845.81 43.00
10987 68.0160 1825.00 1845.75 43.00
10988 68.0220 1848.00 1845.68 43.00
10989 68.0280 1868.00 1845.59 43.00
10990 68.0340 1825.00 1845.43 43.00
10991 68.0400 1829.00 1845.25 43.00
10992 68.0460 1828.00 1845.04 43.00
10993 68.0520 1791.00 1844.82 42.00
10994 68.0580 1829.00 1844.60 43.00
10995 68.0640 1850.00 1844.41 43.00
10996 68.0700 1874.00 1844.25 43.00
10997 68.0760 1901.00 1844.12 44.00
10998 68.0820 1837.00 1844.05 43.00
10999 68.0880 1823.00 1844.06 43.00
11000 68.0940 1863.00 1844.16 43.00
11001 68.1000 1946.00 1844.36 44.00
11002 68.1060 1968.00 1844.67 44.00
11003 68.1120 1887.00 1845.09 43.00
11004 68.1180 1891.00 1845.63 43.00
11005 68.1240 1847.00 1846.24 43.00
11006 68.1300 1861.00 1846.93 43.00
11007 68.1360 1864.00 1847.66 43.00
11008 68.1420 1812.00 1848.40 43.00
11009 68.1480 1799.00 1849.17 42.00
11010 68.1540 1860.00 1849.91 43.00
11011 68.1600 1854.00 1850.58 43.00
11012 68.1660 1861.00 1851.14 43.00
11013 68.1720 1812.00 1851.56 43.00
11014 68.1780 1785.00 1851.81 42.00
11015 68.1840 1882.00 1851.88 43.00
11016 68.1900 1861.00 1851.78 43.00
11017 68.1960 1860.00 1851.51 43.00
11018 68.2020 1836.00 1851.13 43.00
11019 68.2080 1883.00 1850.69 43.00
11020 68.2140 1917.00 1850.26 44.00
11021 68.2200 1843.00 1849.88 43.00
11022 68.2260 1866.00 1849.60 43.00
11023 68.2320 1891.00 1849.47 43.00
11024 68.2380 1876.00 1849.49 43.00
11025 68.2440 1833.00 1849.63 43.00
11026 68.2500 1855.00 1849.85 43.00
11027 68.2560 1887.00 1850.13 43.00
11028 68.2620 1928.00 1850.41 44.00
11029 68.2680 1864.00 1850.63 43.00
11030 68.2740 1908.00 1850.77 44.00
11031 68.2800 1918.00 1850.81 44.00
11032 68.2860 1923.00 1850.68 44.00
11033 68.2920 1919.00 1850.36 44.00
11034 68.2980 1940.00 1849.91 44.00
11035 68.3040 1892.00 1849.32 43.00
11036 68.3100 1885.00 1848.63 43.00
11037 68.3160 1867.00 1847.83 43.00
11038 68.3220 1852.00 1846.94 43.00
11039 68.3280 1839.00 1845.98 43.00
11040 68.3340 1914.00 1844.98 44.00
11041 68.3400 1868.00 1843.97 43.00
11042 68.3460 1857.00 1842.98 43.00
11043 68.3520 1840.00 1842.13 43.00
11044 68.3580 1806.00 1841.40 42.00
11045 68.3640 1820.00 1840.83 43.00
11046 68.3700 1875.00 1840.43 43.00
11047 68.3760 1845.00 1840.22 43.00
11048 68.3820 1830.00 1840.17 43.00
11049 68.3880 1876.00 1840.26 43.00
11050 68.3940 1848.00 1840.48 43.00
11051 68.4000 1896.00 1840.76 44.00
11052 68.4060 1839.00 1841.10 43.00
11053 68.4120 1786.00 1841.45 42.00
11054 68.4180 1888.00 1841.79 43.00
11055 68.4240 1853.00 1842.15 43.00
11056 68.4300 1789.00 1842.47 42.00
11057 68.4360 1909.00 1842.68 44.00
11058 68.4420 1910.00 1842.84 44.00
11059 68.4480 1878.00 1842.94 43.00
11060 68.4540 1863.00 1843.01 43.00
11061 68.4600 1907.00 1843.05 44.00
11062 68.4660 1860.00 1843.05 43.00
11063 68.4720 1893.00 1843.03 44.00
11064 68.4780 1905.00 1842.93 44.00
11065 68.4840 1840.00 1842.74 43.00
11066 68.4900 1873.00 1842.42 43.00
11067 68.4960 1890.00 1841.95 43.00
11068 68.5020 1891.00 1841.33 43.00
11069 68.5080 1863.00 1840.55 43.00
11070 68.5140 1896.00 1839.61 44.00
11071 68.5200 1906.00 1838.48 44.00
11072 68.5260 1863.00 1837.16 43.00
11073 68.5320 1893.00 1835.61 44.00
11074 68.5380 1867.00 1833.81 43.00
11075 68.5440 1810.00 1831.78 43.00
11076 68.5500 1869.00 1829.54 43.00
11077 68.5560 1793.00 1827.12 42.00
11078 68.5620 1792.00 1824.61 42.00
11079 68.5680 1844.00 1822.09 43.00
11080 68.5740 1845.00 1819.61 43.00
11081 68.5800 1846.00 1817.28 43.00
11082 68.5860 1813.00 1815.13 43.00
11083 68.5920 1817.00 1813.19 43.00
11084 68.5980 1929.00 1811.48 44.00
11085 68.6040 1907.00 1809.99 44.00
11086 68.6100 1847.00 1808.69 43.00
11087 68.6160 1867.00 1807.54 43.00
11088 68.6220 1867.00 1806.50 43.00
11089 68.6280 1764.00 1805.51 42.00
11090 68.6340 1833.00 1804.53 43.00
11091 68.6400 1793.00 1803.56 42.00
11092 68.6460 1777.00 1802.54 42.00
11093 68.6520 1838.00 1801.57 43.00
11094 68.6580 1880.00 1800.66 43.00
11095 68.6640 1841.00 1799.76 43.00
11096 68.6700 1862.00 1798.96 43.00
11097 68.6760 1822.00 1798.21 43.00
11098 68.6820 1859.00 1797.51 43.00
11099 68.6880 1886.00 1796.83 43.00
11100 68.6940 1782.00 1796.14 42.00
11101 68.7000 1848.00 1795.40 43.00
11102 68.7060 1817.00 1794.69 43.00
11103 68.7120 1886.00 1793.94 43.00
11104 68.7180 1867.00 1793.19 43.00
11105 68.7240 1855.00 1792.51 43.00
11106 68.7300 1802.00 1791.86 42.00
11107 68.7360 1854.00 1791.24 43.00
11108 68.7420 1863.00 1790.64 43.00
11109 68.7480 1829.00 1790.03 43.00
11110 68.7540 1861.00 1789.42 43.00
11111 68.7600 1880.00 1788.82 43.00
11112 68.7660 1808.00 1788.20 43.00
11113 68.7720 1762.00 1787.56 42.00
11114 68.7780 1831.00 1786.96 43.00
11115 68.7840 1841.00 1786.39 43.00
11116 68.7900 1799.00 1785.82 42.00
11117 68.7960 1744.00 1785.26 42.00
11118 68.8020 1774.00 1784.69 42.00
11119 68.8080 1821.00 1784.10 43.00
11120 68.8140 1814.00 1783.48 43.00
11121 68.8200 1840.00 1782.82 43.00
11122 68.8260 1898.00 1782.15 44.00
11123 68.8320 1866.00 1781.47 43.00
11124 68.8380 1851.00 1780.81 43.00
11125 68.8440 1859.00 1780.16 43.00
11126 68.8500 1828.00 1779.55 43.00
11127 68.8560 1792.00 1778.97 42.00
11128 68.8620 1775.00 1778.42 42.00
11129 68.8680 1801.00 1777.91 42.00
11130 68.8740 1820.00 1777.43 43.00
11131 68.8800 1838.00 1776.96 43.00
11132 68.8860 1874.00 1776.51 43.00
11133 68.8920 1731.00 1776.07 42.00
11134 68.8980 1788.00 1775.63 42.00
11135 68.9040 1780.00 1775.19 42.00
11136 68.9100 1830.00 1774.71 43.00
11137 68.9160 1819.00 1774.21 43.00
11138 68.9220 1790.00 1773.66 42.00
11139 68.9280 1814.00 1773.03 43.00
11140 68.9340 1781.00 1772.31 42.00
11141 68.9400 1799.00 1771.52 42.00
11142 68.9460 1796.00 1770.64 42.00
11143 68.9520 1862.00 1769.71 43.00
11144 68.9580 1839.00 1768.75 43.00
11145 68.9640 1759.00 1767.79 42.00
11146 68.9700 1877.00 1766.86 43.00
11147 68.9760 1814.00 1765.99 43.00
11148 68.9820 1815.00 1765.18 43.00
11149 68.9880 1878.00 1764.46 43.00
11150 68.9940 1837.00 1763.82 43.00
11151 69.0000 1850.00 1763.22 43.00
11152 69.0060 1870.00 1762.64 43.00
11153 69.0120 1750.00 1762.02 42.00
11154 69.0180 1797.00 1761.36 42.00
11155 69.0240 1751.00 1760.60 42.00
11156 69.0300 1807.00 1759.74 43.00
11157 69.0360 1818.00 1758.80 43.00
11158 69.0420 1770.00 1757.79 42.00
11159 69.0480 1811.00 1756.72 43.00
11160 69.0540 1786.00 1755.61 42.00
11161 69.0600 1693.00 1754.50 41.00
11162 69.0660 1760.00 1753.42 42.00
11163 69.0720 1825.00 1752.40 43.00
11164 69.0780 1808.00 1751.46 43.00
11165 69.0840 1857.00 1750.64 43.00
11166 69.0900 1767.00 1749.92 42.00
11167 69.0960 1874.00 1749.35 43.00
11168 69.1020 1828.00 1748.90 43.00
11169 69.1080 1824.00 1748.55 43.00
11170 69.1140 1813.00 1748.28 43.00
11171 69.1200 1850.00 1748.07 43.00
11172 69.1260 1879.00 1747.93 43.00
11173 69.1320 1831.00 1747.81 43.00
11174 69.1380 1796.00 1747.71 42.00
11175 69.1440 1762.00 1747.65 42.00
11176 69.1500 1753.00 1747.57 42.00
11177 69.1560 1763.00 1747.48 42.00
11178 69.1620 1788.00 1747.33 42.00
11179 69.1680 1887.00 1747.09 43.00
11180 69.1740 1766.00 1746.68 42.00
11181 69.1800 1890.00 1746.12 43.00
11182 69.1860 1865.00 1745.37 43.00
11183 69.1920 1718.00 1744.42 41.00
11184 69.1980 1795.00 1743.31 42.00
11185 69.2040 1838.00 1742.05 43.00
11186 69.2100 1838.00 1740.71 43.00
11187 69.2160 1820.00 1739.38 43.00
11188 69.2220 1737.00 1738.08 42.00
11189 69.2280 1813.00 1736.90 43.00
11190 69.2340 1790.00 1735.88 42.00
11191 69.2400 1831.00 1735.09 43.00
11192 69.2460 1829.00 1734.53 43.00
11193 69.2520 1763.00 1734.24 42.00
11194 69.2580 1910.00 1734.23 44.00
11195 69.2640 1844.00 1734.53 43.00
11196 69.2700 1775.00 1735.12 42.00
11197 69.2760 1826.00 1735.99 43.00
11198 69.2820 1786.00 1737.12 42.00
11199 69.2880 1787.00 1738.45 42.00
11200 69.2940 1787.00 1739.91 42.00
11201 69.3000 1801.00 1741.45 42.00
11202 69.3060 1726.00 1742.93 42.00
11203 69.3120 1772.00 1744.24 42.00
11204 69.3180 1766.00 1745.23 42.00
11205 69.3240 1844.00 1745.78 43.00
11206 69.3300 1817.00 1745.73 43.00
11207 69.3360 1821.00 1745.10 43.00
11208 69.3420 1794.00 1743.90 42.00
11209 69.3480 1810.00 1742.21 43.00
11210 69.3540 1811.00 1740.15 43.00
11211 69.3600 1831.00 1737.87 43.00
11212 69.3660 1823.00 1735.45 43.00
11213 69.3720 1855.00 1733.03 43.00
11214 69.3780 1844.00 1730.69 43.00
11215 69.3840 1750.00 1728.45 42.00
11216 69.3900 1786.00 1726.38 42.00
11217 69.3960 1781.00 1724.49 42.00
11218 69.4020 1718.00 1722.79 41.00
11219 69.4080 1678.00 1721.29 41.00
11220 69.4140 1795.00 1719.93 42.00
11221 69.4200 1799.00 1720.38 42.00
11222 69.4260 1829.00 1720.98 43.00
11223 69.4320 1803.00 1721.72 42.00
11224 69.4380 1770.00 1722.57 42.00
11225 69.4440 1783.00 1723.56 42.00
11226 69.4500 1759.00 1724.59 42.00
11227 69.4560 1783.00 1725.73 42.00
11228 69.4620 1755.00 1726.89 42.00
11229 69.4680 1823.00 1728.08 43.00
11230 69.4740 1805.00 1729.23 42.00
11231 69.4800 1747.00 1730.36 42.00
11232 69.4860 1794.00 1731.47 42.00
11233 69.4920 1785.00 1732.56 42.00
11234 69.4980 1803.00 1733.64 42.00
11235 69.5040 1772.00 1734.74 42.00
11236 69.5100 1799.00 1735.87 42.00
11237 69.5160 1711.00 1737.03 41.00
11238 69.5220 1795.00 1738.22 42.00
11239 69.5280 1746.00 1739.45 42.00
11240 69.5340 1791.00 1740.62 42.00
11241 69.5400 1823.00 1741.82 43.00
11242 69.5460 1776.00 1742.96 42.00
11243 69.5520 1735.00 1744.06 42.00
11244 69.5580 1764.00 1745.10 42.00
11245 69.5640 1778.00 1746.09 42.00
11246 69.5700 1685.00 1747.07 41.00
11247 69.5760 1744.00 1747.97 42.00
11248 69.5820 1848.00 1748.85 43.00
11249 69.5880 1842.00 1749.74 43.00
11250 69.5940 1823.00 1750.64 43.00
11251 69.6000 1788.00 1751.60 42.00
11252 69.6060 1761.00 1752.61 42.00
11253 69.6120 1811.00 1753.66 43.00
11254 69.6180 1772.00 1754.75 42.00
11255 69.6240 1813.00 1755.88 43.00
11256 69.6300 1815.00 1757.06 43.00
11257 69.6360 1849.00 1758.28 43.00
11258 69.6420 1799.00 1759.52 42.00
11259 69.6480 1767.00 1760.80 42.00
11260 69.6540 1801.00 1762.07 42.00
11261 69.6600 1762.00 1763.32 42.00
11262 69.6660 1774.00 1764.54 42.00
11263 69.6720 1794.00 1765.68 42.00
11264 69.6780 1813.00 1766.71 43.00
11265 69.6840 1836.00 1767.61 43.00
11266 69.6900 1801.00 1768.38 42.00
11267 69.6960 1789.00 1769.00 42.00
11268 69.7020 1810.00 1769.50 43.00
11269 69.7080 1806.00 1769.93 42.00
11270 69.7140 1791.00 1770.27 42.00
11271 69.7200 1781.00 1770.63 42.00
11272 69.7260 1806.00 1771.03 42.00
11273 69.7320 1792.00 1771.50 42.00
11274 69.7380 1797.00 1772.07 42.00
11275 69.7440 1792.00 1772.73 42.00
11276 69.7500 1731.00 1773.51 42.00
11277 69.7560 1697.00 1774.37 41.00
11278 69.7620 1795.00 1775.31 42.00
11279 69.7680 1792.00 1776.29 42.00
11280 69.7740 1751.00 1777.28 42.00
11281 69.7800 1735.00 1778.25 42.00
11282 69.7860 1731.00 1779.22 42.00
11283 69.7920 1810.00 1780.12 43.00
11284 69.7980 1775.00 1780.96 42.00
11285 69.8040 1823.00 1781.76 43.00
11286 69.8100 1755.00 1782.53 42.00
11287 69.8160 1712.00 1783.24 41.00
11288 69.8220 1749.00 1783.93 42.00
11289 69.8280 1770.00 1784.61 42.00
11290 69.8340 1856.00 1785.33 43.00
11291 69.8400 1804.00 1786.07 42.00
11292 69.8460 1778.00 1786.85 42.00
11293 69.8520 1793.00 1787.71 42.00
11294 69.8580 1832.00 1788.63 43.00
11295 69.8640 1821.00 1789.59 43.00
11296 69.8700 1837.00 1790.62 43.00
11297 69.8760 1821.00 1791.69 43.00
11298 69.8820 1818.00 1792.78 43.00
11299 69.8880 1766.00 1793.89 42.00
11300 69.8940 1833.00 1795.00 43.00
11301 69.9000 1831.00 1796.12 43.00
11302 69.9060 1797.00 1797.23 42.00
11303 69.9120 1835.00 1798.35 43.00
11304 69.9180 1873.00 1799.48 43.00
11305 69.9240 1854.00 1800.67 43.00
11306 69.9300 1843.00 1801.91 43.00
11307 69.9360 1800.00 1803.25 42.00
11308 69.9420 1791.00 1804.64 42.00
11309 69.9480 1742.00 1806.13 42.00
11310 69.9540 1767.00 1807.70 42.00
11311 69.9600 1789.00 1809.33 42.00
11312 69.9660 1833.00 1811.05 43.00
11313 69.9720 1853.00 1812.80 43.00
11314 69.9780 1821.00 1814.57 43.00
11315 69.9840 1801.00 1816.33 42.00
11316 69.9900 1824.00 1818.05 43.00
11317 69.9960 1811.00 1819.85 43.00
loop_
_pd_proc_info_excluded_regions
'from 70 to 80.000'
loop_
_jana_atom_site_adp_c_label
_jana_atom_site_adp_c_type_symbol
_jana_atom_site_adp_c_111
_jana_atom_site_adp_c_112
_jana_atom_site_adp_c_113
_jana_atom_site_adp_c_122
_jana_atom_site_adp_c_123
_jana_atom_site_adp_c_133
_jana_atom_site_adp_c_222
_jana_atom_site_adp_c_223
_jana_atom_site_adp_c_233
_jana_atom_site_adp_c_333
In1 In 0 0 0 0 0 0 0 0 0 0
loop_
_jana_atom_site_adp_d_label
_jana_atom_site_adp_d_type_symbol
_jana_atom_site_adp_d_1111
_jana_atom_site_adp_d_1112
_jana_atom_site_adp_d_1113
_jana_atom_site_adp_d_1122
_jana_atom_site_adp_d_1123
_jana_atom_site_adp_d_1133
_jana_atom_site_adp_d_1222
_jana_atom_site_adp_d_1223
_jana_atom_site_adp_d_1233
_jana_atom_site_adp_d_1333
_jana_atom_site_adp_d_2222
_jana_atom_site_adp_d_2223
_jana_atom_site_adp_d_2233
_jana_atom_site_adp_d_2333
_jana_atom_site_adp_d_3333
In1 In 0 0 0 0 0 0 0 0 0 0 -3.61(12) 0 0 0 0
