#------------------------------------------------------------------------------
#$Date: 2019-11-23 19:52:09 +0200 (Sat, 23 Nov 2019) $
#$Revision: 234728 $
#$URL: file:///home/coder/svn-repositories/cod/cif/7/70/20/7702070.cif $
#------------------------------------------------------------------------------
#
# This file is available in the Crystallography Open Database (COD),
# http://www.crystallography.net/
#
# All data on this site have been placed in the public domain by the
# contributors.
#
data_7702070
loop_
_publ_author_name
'Lee, Jeong Hwan'
'Kim, Eun Jeong'
'L\'opez-Arbeloa, Fernando'
'Hong, Suk Bong'
'Camblor, Miguel A.'
_publ_section_title
;
 Microporous aluminophosphates synthesized with 1,2,3-trimethylimidazolium
 and fluoride.
;
_journal_issue                   18
_journal_name_full
'Dalton transactions (Cambridge, England : 2003)'
_journal_page_first              7616
_journal_page_last               7626
_journal_paper_doi               10.1039/c6dt00734a
_journal_volume                  45
_journal_year                    2016
_chemical_formula_moiety         '(C6N2H11)2 Al6P6O24F2'
_chemical_formula_sum            'C7.83 Al3 F N2 O12 P3'
_chemical_formula_weight         506.95
_chemical_name_common            'aluminophosphate chabazite'
_chemical_name_systematic        'triclinic AlPO4-34'
_space_group_IT_number           2
_space_group_name_Hall           '-P 1'
_space_group_name_H-M_alt        'P -1'
_symmetry_cell_setting           triclinic
_symmetry_space_group_name_H-M   'P -1'
_audit_creation_date             2015-04-29T16:08
_audit_creation_method           'from EXP file using GSAS2CIF'
_audit_update_record
;
2016-02-23 deposited with the CCDC.
2016-03-21 downloaded from the CCDC.
;
_cell_angle_alpha                85.2128(5)
_cell_angle_beta                 77.3119(6)
_cell_angle_gamma                89.3472(6)
_cell_formula_units_Z            2
_cell_length_a                   9.22763(8)
_cell_length_b                   9.28611(7)
_cell_length_c                   9.37888(6)
_cell_volume                     781.285(10)
_computing_structure_refinement  GSAS
_diffrn_ambient_temperature      293
_diffrn_radiation_polarisn_ratio 0.99
_diffrn_radiation_probe          x-ray
_diffrn_radiation_wavelength     0.82548
_exptl_absorpt_correction_T_max  1.00000
_exptl_absorpt_correction_T_min  1.00000
_exptl_absorpt_process_details
;   GSAS Absorption/surface roughness correction: function number 0
 No correction is applied.
;
_exptl_crystal_colour            white
_exptl_crystal_recrystallization_method 'Hydrothermal crystallization'
_pd_block_id
2015-04-29T16:08|CHAREDNOH|M.A._Camblor|BM25A_Spline_ESRF
_pd_calc_method                  'Rietveld Refinement'
_pd_instr_location               ' ?'
_pd_meas_2theta_range_inc        0.01
_pd_meas_2theta_range_max        62.0
_pd_meas_2theta_range_min        2.0
_pd_meas_number_of_points        6001
_pd_phase_name
'from /media/Datos/ESRF/ZM1752_16/ZM1752GSAS/final/withreducedcell/'
_pd_proc_2theta_range_inc        0.01
_pd_proc_2theta_range_max        61.99187
_pd_proc_2theta_range_min        1.99188
_pd_proc_info_datetime           2015-04-29T16:08:17
_pd_proc_info_excluded_regions   ' ?'
_pd_proc_ls_background_function
;   GSAS Background function number 1 with 35 terms.
 Shifted Chebyshev function of 1st kind
      1:    1182.40     2:   -1140.19     3:    792.630     4:   -553.504    
      5:    369.965     6:   -232.054     7:    223.233     8:   -229.297    
      9:    183.812    10:   -88.0086    11:    22.2461    12:    11.0820    
     13:   -22.5875    14:   -2.98670    15:    44.7051    16:   -46.7545    
     17:    20.4240    18:   0.977641    19:   -16.3419    20:    19.1830    
     21:   -9.03041    22:   -3.68260    23:    12.7239    24:   -12.0445    
     25:    9.12837    26:  -0.857521    27:   -3.71134    28:    5.24233    
     29:   -2.06503    30:    1.30446    31:    8.71444    32:   -7.62949    
     33:    2.86713    34:   -1.33815    35:    8.44502    
;
_pd_proc_ls_peak_cutoff          0.00100
_pd_proc_ls_pref_orient_corr
;   March-Dollase
 AXIS  1 Ratio=     1.320 Frac     0.354  h= 1.000  k=-1.000  l= 0.000
 AXIS  2 Ratio=     1.898 Frac     0.117  h= 1.000  k= 0.000  l= 0.000
 AXIS  3 Ratio=     1.044 Frac     0.528  h= 0.000  k= 0.000  l= 1.000
 Prefered orientation correction range: Min=   0.74365, Max=   1.31359
;
_pd_proc_ls_profile_function
;
 CW Profile function number 4 with  27 terms
 Pseudovoigt profile coefficients as parameterized in
 P. Thompson, D.E. Cox & J.B. Hastings (1987). J. Appl. Cryst.,20,79-83.
 Asymmetry correction of L.W. Finger, D.E. Cox & A. P. Jephcoat (1994).
 J. Appl. Cryst.,27,892-900.
 Microstrain broadening by P.W. Stephens,  (1999). J. Appl. Cryst.,32,281-289.
 #1(GU)   =   10.911 #2(GV)   =   -0.550 #3(GW)   =    0.011
 #4(GP)   =    3.554 #5(LX)   =    0.000 #6(ptec) =     0.00
 #7(trns) =     0.00 #8(shft) =   0.0000 #9(sfec) =     0.00
 #10(S/L) =   0.0118 #11(H/L) =   0.0036 #12(eta) =   0.7426
 Peak tails are ignored  where the intensity is below 0.0010 times the peak
   Aniso. broadening axis   0.0   0.0   1.0
;
_pd_proc_ls_prof_R_factor        0.0441
_pd_proc_ls_prof_wR_expected     0.0232
_pd_proc_ls_prof_wR_factor       0.0601
_pd_proc_number_of_points        6001
_pd_spec_mounting                ' ?'
_refine_ls_goodness_of_fit_all   2.61
_refine_ls_matrix_type           full
_refine_ls_number_parameters     119
_refine_ls_number_restraints     0
_refine_ls_R_Fsqd_factor         0.06202
_refine_ls_shift/su_max          0.03
_refine_ls_shift/su_mean         0.00
_reflns_d_resolution_high        0.802
_reflns_d_resolution_low         9.253
_reflns_limit_h_max              11
_reflns_limit_h_min              0
_reflns_limit_k_max              11
_reflns_limit_k_min              -11
_reflns_limit_l_max              11
_reflns_limit_l_min              -11
_reflns_number_total             3186
_cod_data_source_file            c6dt00734a2.cif
_cod_data_source_block           CHAREDNOH_publ
_cod_depositor_comments
;
The following automatic conversions were performed:

data item '_geom_angle_publ_flag' value 'N' was changed to 'n' in
accordance with the
/home/saulius/struct/COD-crude-data/automatic-downloads/DataCite-retrospective/RSC/depositions/lib/dictionaries/cif_core.dic
dictionary named 'cif_core.dic' version 2.4.2 last updated on
2011-04-26 (69 times).

data item '_geom_bond_publ_flag' value 'N' was changed to 'n' in
accordance with the
/home/saulius/struct/COD-crude-data/automatic-downloads/DataCite-retrospective/RSC/depositions/lib/dictionaries/cif_core.dic
dictionary named 'cif_core.dic' version 2.4.2 last updated on
2011-04-26 (90 times).

Automatic conversion script
Id: cif_fix_values 6909 2019-04-08 15:41:33Z antanas 
;
_cod_original_cell_volume        781.284(12)
_cod_database_code               7702070
_gsas_exptl_extinct_corr_t_min   1.00000
_gsas_exptl_extinct_corr_t_max   1.00000
loop_
_symmetry_equiv_pos_site_id
_symmetry_equiv_pos_as_xyz
1 +x,+y,+z
-1 -x,-y,-z
loop_
_atom_site_type_symbol
_atom_site_label
_atom_site_fract_x
_atom_site_fract_y
_atom_site_fract_z
_atom_site_occupancy
_atom_site_thermal_displace_type
_atom_site_U_iso_or_equiv
_atom_site_symmetry_multiplicity
Al Al1 0.8664(4) 0.0653(4) 0.0841(4) 1.0 Uiso 0.0067(10) 2
P P2 0.1700(4) 0.13943(32) 0.13700(32) 1.0 Uiso 0.0064(4) 2
P P3 0.3755(4) 0.12060(33) 0.67611(34) 1.0 Uiso 0.0064(4) 2
P P4 0.6209(4) 0.31593(32) 0.09528(30) 1.0 Uiso 0.0064(4) 2
Al Al5 0.6232(4) 0.65829(34) 0.0856(4) 1.0 Uiso 0.0076(7) 2
Al Al6 0.3956(4) 0.1193(4) 0.3395(4) 1.0 Uiso 0.0076(7) 2
O O1 0.7728(8) 0.2336(7) 0.0668(7) 1.0 Uiso 0.0068(5) 2
F F1 0.0154(6) 0.1050(5) 0.9194(5) 1.0 Uiso 0.0081(15) 2
O O2 0.5271(8) 0.0510(7) 0.6690(6) 1.0 Uiso 0.0068(5) 2
O O3 0.2540(8) 0.0126(7) 0.7460(6) 1.0 Uiso 0.0068(5) 2
O O4 -0.0001(8) 0.1447(6) 0.1855(6) 1.0 Uiso 0.0068(5) 2
O O5 0.4598(8) 0.6877(6) 0.0381(6) 1.0 Uiso 0.0068(5) 2
O O6 0.2329(8) 0.0236(6) 0.0367(6) 1.0 Uiso 0.0068(5) 2
O O7 0.3611(7) 0.1678(6) 0.5172(7) 1.0 Uiso 0.0068(5) 2
O O8 0.6493(7) 0.4751(7) 0.1242(7) 1.0 Uiso 0.0068(5) 2
O O9 0.2278(7) 0.1194(6) 0.2803(6) 1.0 Uiso 0.0068(5) 2
O O10 0.2315(8) 0.2863(6) 0.0597(6) 1.0 Uiso 0.0068(5) 2
O O11 0.3682(8) 0.2552(6) 0.7566(6) 1.0 Uiso 0.0068(5) 2
O O12 0.5117(8) 0.2546(6) 0.2333(6) 1.0 Uiso 0.0068(5) 2
N N1 0.0950(6) 0.5820(5) 0.3051(4) 1.0 Uiso 0.0761(26) 2
C C2 0.0995(5) 0.6838(4) 0.3960(4) 1.0 Uiso 0.0761(26) 2
N N3 0.2073(5) 0.6496(5) 0.4663(5) 1.0 Uiso 0.0761(26) 2
C C4 0.2737(6) 0.5213(6) 0.4183(7) 1.16667 Uiso 0.174(5) 2
C C5 0.2039(7) 0.4793(5) 0.3180(6) 1.16667 Uiso 0.174(5) 2
C C6 -0.0066(8) 0.5737(8) 0.2041(5) 1.5 Uiso 0.1387(27) 2
C C7 -0.0006(7) 0.8118(6) 0.4126(8) 1.5 Uiso 0.1387(27) 2
C C8 0.2563(7) 0.7283(8) 0.5786(6) 1.5 Uiso 0.1387(27) 2
loop_
_atom_type_symbol
_atom_type_number_in_cell
_atom_type_scat_dispersion_real
_atom_type_scat_dispersion_imag
_atom_type_scat_Cromer_Mann_a1
_atom_type_scat_Cromer_Mann_a2
_atom_type_scat_Cromer_Mann_a3
_atom_type_scat_Cromer_Mann_a4
_atom_type_scat_Cromer_Mann_b1
_atom_type_scat_Cromer_Mann_b2
_atom_type_scat_Cromer_Mann_b3
_atom_type_scat_Cromer_Mann_b4
_atom_type_scat_Cromer_Mann_c
_atom_type_scat_source
Al 6.0 0.000 0.000 6.42020 3.03870 1.90020 0.74260 1.59360 31.5472 1.96460
85.0886 1.11510 International_Tables_Vol_C
P 6.0 0.000 0.000 6.43450 1.90670 4.17910 27.1570 1.78000 0.52600 1.49080
68.1645 1.11490 International_Tables_Vol_C
O 24.0 0.000 0.000 3.04850 13.2771 2.28680 5.70110 1.54630 0.32390 0.86700
32.9089 0.25080 International_Tables_Vol_C
F 2.0 0.000 0.000 3.53920 10.2825 2.64120 4.29440 1.51700 0.26150 1.02430
26.1476 0.27760 International_Tables_Vol_C
H 0.0 0.000 0.000 0.49300 10.5109 0.32291 26.1257 0.14019 3.14236 0.04081
57.7997 0.00304 International_Tables_Vol_C
N 4.0 0.000 0.000 12.2126 0.00570 3.13220 9.89330 2.01250 28.9975 1.16630
0.58260 -11.529 International_Tables_Vol_C
C 15.667 0.000 0.000 2.31000 20.8439 1.02000 10.2075 1.58860 0.56870 0.86500
51.6512 0.21560 International_Tables_Vol_C
loop_
_geom_angle_atom_site_label_1
_geom_angle_atom_site_label_2
_geom_angle_atom_site_label_3
_geom_angle
_geom_angle_site_symmetry_1
_geom_angle_site_symmetry_3
_geom_angle_publ_flag
O1 Al1 F1 95.25(32) 1_555 1_654 n
O1 Al1 F1 172.6(4) 1_555 -1_656 n
O1 Al1 O3 98.6(4) 1_555 -1_656 n
O1 Al1 O4 92.69(30) 1_555 1_655 n
O1 Al1 O6 93.67(33) 1_555 -1_655 n
F1 Al1 F1 77.37(30) 1_654 -1_656 n
F1 Al1 O3 166.1(4) 1_654 -1_656 n
F1 Al1 O4 84.79(27) 1_654 1_655 n
F1 Al1 O6 86.50(27) 1_654 -1_655 n
F1 Al1 O3 88.82(31) -1_656 -1_656 n
F1 Al1 O4 86.45(28) -1_656 1_655 n
F1 Al1 O6 86.19(29) -1_656 -1_655 n
O3 Al1 O4 92.74(30) -1_656 1_655 n
O3 Al1 O6 94.38(30) -1_656 -1_655 n
O4 Al1 O6 169.6(4) 1_655 -1_655 n
O4 P2 O6 116.4(4) 1_555 1_555 n
O4 P2 O9 105.7(4) 1_555 1_555 n
O4 P2 O10 110.3(4) 1_555 1_555 n
O6 P2 O9 110.1(4) 1_555 1_555 n
O6 P2 O10 107.6(4) 1_555 1_555 n
O9 P2 O10 106.31(34) 1_555 1_555 n
O2 P3 O3 109.9(4) 1_555 1_555 n
O2 P3 O7 108.2(4) 1_555 1_555 n
O2 P3 O11 109.0(4) 1_555 1_555 n
O3 P3 O7 109.3(4) 1_555 1_555 n
O3 P3 O11 113.0(4) 1_555 1_555 n
O7 P3 O11 107.4(4) 1_555 1_555 n
O1 P4 O5 112.0(4) 1_555 -1_665 n
O1 P4 O8 109.0(4) 1_555 1_555 n
O1 P4 O12 113.0(4) 1_555 1_555 n
O5 P4 O8 110.45(35) -1_665 1_555 n
O5 P4 O12 107.3(4) -1_665 1_555 n
O8 P4 O12 104.9(4) 1_555 1_555 n
O5 Al5 O8 110.77(33) 1_555 1_555 n
O5 Al5 O10 110.3(4) 1_555 -1_665 n
O5 Al5 O11 111.2(4) 1_555 -1_666 n
O8 Al5 O10 105.9(4) 1_555 -1_665 n
O8 Al5 O11 107.39(31) 1_555 -1_666 n
O10 Al5 O11 111.11(34) -1_665 -1_666 n
O2 Al6 O7 109.98(34) -1_656 1_555 n
O2 Al6 O9 109.7(4) -1_656 1_555 n
O2 Al6 O12 113.4(4) -1_656 1_555 n
O7 Al6 O9 109.0(4) 1_555 1_555 n
O7 Al6 O12 106.06(33) 1_555 1_555 n
O9 Al6 O12 108.51(33) 1_555 1_555 n
Al1 O1 P4 146.9(5) 1_555 1_555 n
Al1 F1 Al1 102.63(30) 1_456 -1_656 n
P3 O2 Al6 138.5(4) 1_555 -1_656 n
Al1 O3 P3 146.7(4) -1_656 1_555 n
Al1 O4 P2 124.4(4) 1_455 1_555 n
P4 O5 Al5 142.8(5) -1_665 1_555 n
Al1 O6 P2 125.7(5) -1_655 1_555 n
P3 O7 Al6 144.8(5) 1_555 1_555 n
P4 O8 Al5 148.7(4) 1_555 1_555 n
P2 O9 Al6 140.0(5) 1_555 1_555 n
P2 O10 Al5 135.4(5) 1_555 -1_665 n
P3 O11 Al5 150.8(4) 1_555 -1_666 n
P4 O12 Al6 153.6(5) 1_555 1_555 n
C2 N1 C5 109.3533(5) 1_555 1_555 n
C2 N1 C6 127.3311(4) 1_555 1_555 n
C5 N1 C6 123.3156(5) 1_555 1_555 n
N1 C2 N3 107.5914(5) 1_555 1_555 n
N1 C2 C7 124.7451(5) 1_555 1_555 n
N3 C2 C7 127.6635(4) 1_555 1_555 n
C2 N3 C4 109.2148(5) 1_555 1_555 n
C2 N3 C8 128.5002(4) 1_555 1_555 n
C4 N3 C8 122.2850(5) 1_555 1_555 n
N3 C4 C5 106.9827(5) 1_555 1_555 n
N1 C5 C4 106.8577(5) 1_555 1_555 n
loop_
_geom_bond_atom_site_label_1
_geom_bond_atom_site_label_2
_geom_bond_distance
_geom_bond_site_symmetry_2
_geom_bond_publ_flag
Al1 Al1 2.929(8) -1_755 n
Al1 P2 3.046(5) 1_655 n
Al1 P2 3.000(4) -1_655 n
Al1 O1 1.790(8) 1_555 n
Al1 F1 1.843(5) 1_654 n
Al1 F1 1.910(6) -1_656 n
Al1 O3 1.829(7) -1_656 n
Al1 O4 1.903(6) 1_655 n
Al1 O6 1.853(6) -1_655 n
P2 Al1 3.046(5) 1_455 n
P2 Al1 3.000(4) -1_655 n
P2 Al5 3.034(5) -1_665 n
P2 F1 2.775(6) 1_554 n
P2 O4 1.536(7) 1_555 n
P2 O6 1.515(7) 1_555 n
P2 O9 1.548(6) 1_555 n
P2 O10 1.543(6) 1_555 n
P3 Al6 3.043(5) -1_656 n
P3 O2 1.525(7) 1_555 n
P3 O3 1.512(6) 1_555 n
P3 O7 1.552(6) 1_555 n
P3 O11 1.507(6) 1_555 n
P4 O1 1.570(7) 1_555 n
P4 O5 1.592(6) -1_665 n
P4 O8 1.560(6) 1_555 n
P4 O12 1.527(6) 1_555 n
Al5 P2 3.034(5) -1_665 n
Al5 O5 1.677(7) 1_555 n
Al5 O8 1.735(7) 1_555 n
Al5 O10 1.737(7) -1_665 n
Al5 O11 1.759(6) -1_666 n
Al6 P3 3.043(5) -1_656 n
Al6 O2 1.728(7) -1_656 n
Al6 O7 1.724(7) 1_555 n
Al6 O9 1.756(7) 1_555 n
Al6 O12 1.752(6) 1_555 n
O1 Al1 1.790(8) 1_555 n
O1 P4 1.570(7) 1_555 n
F1 Al1 1.843(5) 1_456 n
F1 Al1 1.910(6) -1_656 n
F1 P2 2.775(6) 1_556 n
F1 F1 2.346(9) -1_557 n
O2 P3 1.525(7) 1_555 n
O2 Al6 1.728(7) -1_656 n
O3 Al1 1.829(7) -1_656 n
O3 P3 1.512(6) 1_555 n
O4 Al1 1.903(6) 1_455 n
O4 P2 1.536(7) 1_555 n
O5 P4 1.592(6) -1_665 n
O5 Al5 1.677(7) 1_555 n
O6 Al1 1.853(6) -1_655 n
O6 P2 1.515(7) 1_555 n
O7 P3 1.552(6) 1_555 n
O7 Al6 1.724(7) 1_555 n
O8 P4 1.560(6) 1_555 n
O8 Al5 1.735(7) 1_555 n
O9 P2 1.548(6) 1_555 n
O9 Al6 1.756(7) 1_555 n
O10 P2 1.543(6) 1_555 n
O10 Al5 1.737(7) -1_665 n
O11 P3 1.507(6) 1_555 n
O11 Al5 1.759(6) -1_666 n
O12 P4 1.527(6) 1_555 n
O12 Al6 1.752(6) 1_555 n
N1 C2 1.331500(10) 1_555 n
N1 N3 2.148340(10) 1_555 n
N1 C4 2.193330(20) 1_555 n
N1 C5 1.394510(10) 1_555 n
N1 C6 1.478730(10) 1_555 n
C2 N1 1.331500(10) 1_555 n
C2 N3 1.330910(10) 1_555 n
C2 C4 2.223350(20) 1_555 n
C2 C5 2.224450(20) 1_555 n
C2 C7 1.494340(10) 1_555 n
N3 N1 2.148340(10) 1_555 n
N3 C2 1.330910(10) 1_555 n
N3 C4 1.396060(10) 1_555 n
N3 C5 2.196370(10) 1_555 n
N3 C8 1.480190(10) 1_555 n
C4 N1 2.193330(20) 1_555 n
C4 C2 2.223350(20) 1_555 n
C4 N3 1.396060(10) 1_555 n
C4 C5 1.336170(10) 1_555 n
C5 N1 1.394510(10) 1_555 n
C5 C2 2.224450(20) 1_555 n
C5 N3 2.196370(10) 1_555 n
C5 C4 1.336170(10) 1_555 n
C6 N1 1.478730(10) 1_555 n
C7 C2 1.494340(10) 1_555 n
C8 N3 1.480190(10) 1_555 n
loop_
_pd_meas_intensity_total
_pd_proc_ls_weight
_pd_proc_intensity_bkg_calc
_pd_calc_intensity_total
5075(71) 0.0 5144. .
5115(71) 0.0001989 5108. 5108.
5087(71) 0.0002001 5073. 5073.
4975(70) 0.0002047 5040. 5040.
5026(70) 0.0002023 5008. 5008.
4867(69) 0.0002088 4977. 4977.
4916(70) 0.0002064 4946. 4946.
4928(70) 0.0002064 4917. 4917.
4896(69) 0.0002082 4889. 4889.
4953(70) 0.0002053 4862. 4862.
4769(69) 0.0002131 4835. 4835.
4721(68) 0.0002156 4809. 4809.
4850(69) 0.0002100 4784. 4784.
4764(69) 0.0002131 4760. 4760.
4723(68) 0.0002150 4736. 4736.
4746(68) 0.0002144 4713. 4713.
4578(67) 0.0002221 4690. 4690.
4739(68) 0.0002144 4668. 4668.
4788(69) 0.0002125 4647. 4647.
4579(67) 0.0002221 4625. 4625.
4640(68) 0.0002188 4605. 4605.
4531(67) 0.0002241 4584. 4584.
4617(67) 0.0002201 4564. 4564.
4462(66) 0.0002275 4545. 4545.
4638(68) 0.0002188 4525. 4525.
4584(67) 0.0002214 4506. 4506.
4488(67) 0.0002261 4488. 4488.
4487(66) 0.0002268 4469. 4469.
4504(67) 0.0002255 4451. 4451.
4389(66) 0.0002317 4433. 4433.
4397(66) 0.0002310 4415. 4415.
4510(67) 0.0002255 4397. 4397.
4288(65) 0.0002374 4380. 4380.
4457(66) 0.0002275 4363. 4363.
4507(67) 0.0002255 4345. 4345.
4391(66) 0.0002317 4328. 4328.
4252(65) 0.0002389 4311. 4311.
4315(65) 0.0002352 4295. 4295.
4341(65) 0.0002345 4278. 4278.
4357(66) 0.0002331 4261. 4261.
4216(64) 0.0002419 4245. 4245.
4196(64) 0.0002426 4229. 4229.
4095(64) 0.0002480 4212. 4212.
4100(64) 0.0002480 4196. 4196.
4149(64) 0.0002449 4180. 4180.
4150(64) 0.0002449 4164. 4164.
4124(64) 0.0002464 4148. 4148.
4214(65) 0.0002404 4132. 4132.
4144(64) 0.0002449 4116. 4116.
4094(64) 0.0002480 4100. 4100.
4092(64) 0.0002480 4084. 4084.
4009(63) 0.0002528 4069. 4069.
4161(64) 0.0002434 4053. 4053.
3961(62) 0.0002568 4037. 4037.
4044(63) 0.0002512 4022. 4022.
4006(63) 0.0002536 4006. 4006.
3999(63) 0.0002536 3991. 3991.
4017(63) 0.0002528 3975. 3975.
3808(61) 0.0002661 3960. 3960.
3860(62) 0.0002627 3944. 3944.
3900(62) 0.0002601 3929. 3929.
3964(62) 0.0002568 3914. 3914.
3949(62) 0.0002568 3899. 3899.
3813(61) 0.0002661 3883. 3883.
3832(61) 0.0002653 3868. 3868.
3904(62) 0.0002601 3853. 3853.
3901(62) 0.0002593 3838. 3838.
3861(62) 0.0002627 3823. 3823.
3782(61) 0.0002687 3808. 3808.
3723(61) 0.0002723 3793. 3793.
3702(60) 0.0002741 3779. 3779.
3722(61) 0.0002723 3764. 3764.
3732(61) 0.0002723 3749. 3749.
3680(60) 0.0002750 3735. 3735.
3758(61) 0.0002696 3720. 3720.
3652(60) 0.0002778 3706. 3706.
3790(61) 0.0002679 3691. 3691.
3609(60) 0.0002815 3677. 3677.
3519(59) 0.0002883 3662. 3662.
3591(60) 0.0002825 3648. 3648.
3689(60) 0.0002750 3634. 3634.
3605(60) 0.0002806 3620. 3620.
3602(60) 0.0002815 3606. 3606.
3600(60) 0.0002815 3592. 3592.
3668(60) 0.0002759 3578. 3578.
3602(60) 0.0002815 3564. 3564.
3504(59) 0.0002892 3551. 3551.
3562(59) 0.0002844 3537. 3537.
3538(59) 0.0002863 3523. 3523.
3481(59) 0.0002912 3510. 3510.
3455(58) 0.0002932 3497. 3497.
3510(59) 0.0002883 3483. 3483.
3414(58) 0.0002962 3470. 3470.
3392(58) 0.0002983 3457. 3457.
3307(57) 0.0003056 3444. 3444.
3254(57) 0.0003111 3431. 3431.
3463(59) 0.0002922 3418. 3418.
3420(58) 0.0002962 3405. 3405.
3285(57) 0.0003089 3393. 3393.
3443(58) 0.0002942 3380. 3380.
3419(58) 0.0002962 3368. 3368.
3341(57) 0.0003035 3355. 3355.
3408(58) 0.0002973 3343. 3343.
3424(58) 0.0002952 3331. 3331.
3274(57) 0.0003089 3318. 3318.
3361(58) 0.0003014 3306. 3306.
3282(57) 0.0003078 3295. 3295.
3264(57) 0.0003100 3283. 3283.
3291(57) 0.0003078 3271. 3271.
3261(57) 0.0003100 3259. 3259.
3307(57) 0.0003056 3248. 3248.
3365(58) 0.0003004 3236. 3236.
3252(57) 0.0003111 3225. 3225.
3336(57) 0.0003035 3214. 3214.
3147(56) 0.0003212 3202. 3202.
3161(56) 0.0003200 3191. 3191.
3157(56) 0.0003212 3180. 3180.
3184(56) 0.0003177 3169. 3169.
3126(56) 0.0003235 3159. 3159.
3252(57) 0.0003111 3148. 3148.
3172(56) 0.0003189 3137. 3137.
3044(55) 0.0003330 3127. 3127.
3209(56) 0.0003155 3116. 3116.
3072(55) 0.0003294 3106. 3106.
3159(56) 0.0003200 3096. 3096.
3100(55) 0.0003270 3086. 3086.
3048(55) 0.0003318 3076. 3076.
3061(55) 0.0003306 3066. 3066.
3087(55) 0.0003282 3056. 3056.
3035(55) 0.0003330 3046. 3046.
3052(55) 0.0003318 3036. 3036.
3150(56) 0.0003212 3027. 3027.
3010(55) 0.0003367 3017. 3017.
3092(55) 0.0003270 3008. 3008.
2988(54) 0.0003392 2998. 2998.
2976(54) 0.0003404 2989. 2989.
2956(54) 0.0003417 2980. 2980.
2968(54) 0.0003417 2971. 2971.
3056(55) 0.0003306 2962. 2962.
3038(55) 0.0003330 2953. 2953.
2969(54) 0.0003404 2944. 2944.
2956(54) 0.0003417 2935. 2935.
3006(55) 0.0003367 2926. 2926.
2870(53) 0.000352 2917. 2917.
2897(54) 0.0003494 2909. 2909.
2792(53) 0.000363 2900. 2900.
2835(53) 0.000356 2892. 2892.
2850(53) 0.000355 2883. 2883.
2920(54) 0.0003468 2875. 2875.
3006(55) 0.0003367 2867. 2867.
2921(54) 0.0003455 2859. 2859.
2795(53) 0.000361 2851. 2851.
2819(53) 0.000359 2843. 2843.
2895(54) 0.0003494 2835. 2835.
2827(53) 0.000359 2827. 2827.
2797(53) 0.000361 2819. 2819.
2860(53) 0.000355 2811. 2811.
2904(54) 0.0003481 2803. 2803.
2858(53) 0.000355 2796. 2796.
2758(52) 0.000367 2788. 2788.
2762(52) 0.000367 2780. 2780.
2819(53) 0.000359 2773. 2773.
2785(53) 0.000363 2765. 2765.
2730(52) 0.000371 2758. 2758.
2793(53) 0.000361 2751. 2751.
2747(52) 0.000368 2743. 2743.
2772(52) 0.000364 2736. 2736.
2688(52) 0.000376 2729. 2729.
2705(52) 0.000374 2722. 2722.
2697(52) 0.000374 2715. 2715.
2669(51) 0.000379 2708. 2708.
2645(51) 0.000381 2701. 2701.
2668(51) 0.000379 2694. 2694.
2673(51) 0.000379 2687. 2687.
2694(52) 0.000374 2680. 2680.
2719(52) 0.000371 2673. 2673.
2672(51) 0.000379 2666. 2666.
2673(51) 0.000379 2659. 2659.
2698(52) 0.000374 2653. 2653.
2622(51) 0.000384 2646. 2646.
2689(52) 0.000376 2639. 2639.
2566(50) 0.000395 2633. 2633.
2636(51) 0.000383 2626. 2626.
2649(51) 0.000381 2620. 2620.
2544(50) 0.000397 2613. 2613.
2651(51) 0.000381 2607. 2607.
2556(50) 0.000395 2600. 2600.
2684(52) 0.000376 2594. 2594.
2600(51) 0.000389 2587. 2587.
2569(51) 0.000392 2581. 2581.
2657(51) 0.000380 2575. 2575.
2571(50) 0.000394 2568. 2568.
2553(50) 0.000395 2562. 2562.
2470(49) 0.000410 2556. 2556.
2490(50) 0.000406 2550. 2550.
2498(50) 0.000405 2544. 2544.
2511(50) 0.000403 2537. 2537.
2437(49) 0.000415 2531. 2531.
2440(49) 0.000413 2525. 2525.
2421(49) 0.000416 2519. 2519.
2437(49) 0.000415 2513. 2513.
2494(50) 0.000405 2507. 2507.
2640(51) 0.000383 2501. 2501.
2380(49) 0.000425 2495. 2495.
2418(49) 0.000418 2489. 2489.
2473(50) 0.000408 2483. 2483.
2499(50) 0.000405 2477. 2477.
2472(50) 0.000408 2471. 2471.
2512(50) 0.000402 2466. 2466.
2538(50) 0.000398 2460. 2460.
2492(50) 0.000405 2454. 2454.
2419(49) 0.000418 2448. 2448.
2460(49) 0.000411 2442. 2442.
2373(49) 0.000425 2437. 2437.
2375(49) 0.000423 2431. 2431.
2486(50) 0.000406 2425. 2425.
2331(48) 0.000432 2419. 2419.
2398(49) 0.000420 2414. 2414.
2376(49) 0.000425 2408. 2408.
2451(49) 0.000411 2402. 2402.
2309(48) 0.000438 2397. 2397.
2302(48) 0.000438 2391. 2391.
2371(49) 0.000425 2386. 2386.
2380(49) 0.000423 2380. 2380.
2338(48) 0.000432 2375. 2375.
2418(49) 0.000416 2369. 2369.
2342(48) 0.000430 2364. 2364.
2299(48) 0.000438 2358. 2358.
2374(49) 0.000425 2353. 2353.
2387(49) 0.000423 2347. 2347.
2335(48) 0.000432 2342. 2342.
2400(49) 0.000420 2336. 2336.
2363(48) 0.000427 2331. 2331.
2323(48) 0.000434 2325. 2325.
2399(49) 0.000420 2320. 2320.
2161(46) 0.000466 2315. 2315.
2408(49) 0.000418 2309. 2309.
2305(48) 0.000438 2304. 2304.
2273(48) 0.000443 2299. 2299.
2340(48) 0.000430 2293. 2293.
2265(47) 0.000445 2288. 2288.
2219(47) 0.000455 2283. 2283.
2299(48) 0.000438 2278. 2278.
2229(47) 0.000453 2272. 2272.
2246(47) 0.000449 2267. 2267.
2158(46) 0.000466 2262. 2262.
2293(48) 0.000440 2257. 2257.
2162(46) 0.000466 2252. 2252.
2214(47) 0.000455 2247. 2247.
2244(47) 0.000449 2242. 2242.
2268(47) 0.000445 2236. 2236.
2214(47) 0.000455 2231. 2231.
2175(47) 0.000462 2226. 2226.
2226(47) 0.000453 2221. 2221.
2230(47) 0.000453 2216. 2216.
2199(47) 0.000459 2211. 2211.
2229(47) 0.000453 2206. 2206.
2220(47) 0.000455 2201. 2201.
2200(47) 0.000459 2196. 2196.
2224(47) 0.000455 2192. 2192.
2123(46) 0.000475 2187. 2187.
2170(46) 0.000464 2182. 2182.
2198(47) 0.000459 2177. 2177.
2204(47) 0.000457 2172. 2172.
2080(45) 0.000485 2167. 2167.
2140(46) 0.000471 2162. 2162.
2129(46) 0.000475 2158. 2158.
2222(47) 0.000453 2153. 2153.
2254(47) 0.000447 2148. 2148.
2115(46) 0.000477 2143. 2143.
2086(46) 0.000483 2139. 2139.
2154(46) 0.000469 2134. 2134.
2116(46) 0.000477 2129. 2129.
2232(47) 0.000453 2125. 2125.
2106(46) 0.000479 2120. 2120.
2120(46) 0.000475 2116. 2116.
2112(46) 0.000477 2111. 2111.
2131(46) 0.000473 2107. 2107.
2060(45) 0.000489 2102. 2102.
2079(45) 0.000485 2098. 2098.
2069(45) 0.000487 2093. 2093.
2157(46) 0.000466 2089. 2089.
2106(46) 0.000479 2084. 2084.
2049(45) 0.000492 2080. 2080.
2021(45) 0.000498 2075. 2075.
2050(45) 0.000492 2071. 2071.
2100(46) 0.000481 2067. 2067.
2158(46) 0.000466 2062. 2062.
2060(45) 0.000487 2058. 2058.
1988(44) 0.000507 2054. 2054.
2029(45) 0.000496 2050. 2050.
2055(45) 0.000492 2045. 2045.
1977(44) 0.000510 2041. 2041.
2071(45) 0.000487 2037. 2037.
2101(46) 0.000481 2033. 2033.
2017(45) 0.000498 2029. 2048.
2081(46) 0.000483 2025. 2046.
2065(45) 0.000487 2021. 2046.
1954(44) 0.000517 2017. 2046.
2047(45) 0.000492 2013. 2051.
2151(46) 0.000469 2009. 2070.
2166(46) 0.000464 2005. 2130.
2548(50) 0.000395 2001. 2317.
3196(56) 0.0003155 1997. 2820.
4186(65) 0.0002404 1993. 3861.
5816(76) 0.0001731 1989. 5776.
8649(93) 0.0001164 1985. 8884.
13350(120) 0.0000755 1981. 13474.
20880(140) 0.0000483 1978. 19664.
29110(170) 0.0000346 1974. 26927.
36260(190) 0.0000278 1970. 33483.
39440(200) 0.0000256 1966. 36591.
36240(190) 0.0000278 1963. 34533.
29040(170) 0.0000347 1959. 28795.
23120(150) 0.0000436 1955. 23509.
20830(140) 0.0000483 1952. 22248.
24860(160) 0.0000405 1948. 25752.
32480(180) 0.0000310 1944. 31948.
38250(200) 0.0000263 1941. 37041.
38260(200) 0.0000263 1937. 37282.
31720(180) 0.0000317 1934. 31492.
22470(150) 0.0000448 1930. 22311.
13920(120) 0.0000723 1927. 13996.
8223(90) 0.0001224 1923. 9007.
6144(78) 0.0001635 1920. 7056.
5998(77) 0.0001678 1917. 6522.
6130(78) 0.0001639 1913. 6030.
5179(72) 0.0001940 1910. 5071.
4236(65) 0.0002374 1907. 3912.
3261(57) 0.0003089 1903. 2944.
2614(51) 0.000384 1900. 2355.
2041(45) 0.000494 1897. 2080.
2033(45) 0.000494 1894. 1977.
1918(44) 0.000524 1890. 1941.
1894(43) 0.000531 1887. 1926.
1943(44) 0.000519 1884. 1917.
1901(44) 0.000528 1881. 1909.
1869(43) 0.000538 1878. 1902.
1893(43) 0.000531 1875. 1896.
1850(43) 0.000543 1872. 1891.
1786(42) 0.000562 1869. 1886.
1914(44) 0.000526 1866. 1881.
1831(43) 0.000551 1863. 1876.
1884(43) 0.000533 1860. 1872.
1858(43) 0.000541 1857. 1868.
1847(43) 0.000543 1854. 1864.
1838(43) 0.000546 1851. 1861.
1871(43) 0.000538 1848. 1857.
1892(43) 0.000531 1845. 1853.
1834(43) 0.000548 1842. 1850.
1802(42) 0.000559 1839. 1847.
1853(43) 0.000543 1836. 1836.
1807(42) 0.000556 1834. 1834.
1841(43) 0.000546 1831. 1831.
1834(43) 0.000546 1828. 1828.
1796(42) 0.000559 1825. 1825.
1881(43) 0.000533 1823. 1823.
1792(42) 0.000559 1820. 1820.
1812(43) 0.000554 1817. 1817.
1782(42) 0.000564 1815. 1815.
1845(43) 0.000543 1812. 1812.
1807(42) 0.000556 1809. 1809.
1739(42) 0.000578 1807. 1807.
1786(42) 0.000562 1804. 1804.
1865(43) 0.000538 1802. 1802.
1774(42) 0.000567 1799. 1799.
1770(42) 0.000567 1797. 1797.
1857(43) 0.000541 1794. 1794.
1683(41) 0.000598 1792. 1792.
1798(42) 0.000559 1789. 1789.
1763(42) 0.000570 1787. 1787.
1794(42) 0.000559 1784. 1784.
1811(43) 0.000554 1782. 1782.
1854(43) 0.000543 1779. 1779.
1789(42) 0.000562 1777. 1777.
1750(42) 0.000572 1774. 1774.
1754(42) 0.000572 1772. 1772.
1734(42) 0.000578 1770. 1770.
1790(42) 0.000562 1767. 1767.
1735(42) 0.000581 1765. 1765.
1754(42) 0.000572 1763. 1763.
1733(42) 0.000581 1760. 1760.
1793(42) 0.000559 1758. 1758.
1761(42) 0.000570 1756. 1756.
1742(42) 0.000578 1754. 1754.
1752(42) 0.000575 1751. 1751.
1770(42) 0.000570 1749. 1749.
1777(42) 0.000567 1747. 1747.
1767(42) 0.000570 1745. 1745.
1731(42) 0.000581 1742. 1742.
1751(42) 0.000575 1740. 1740.
1807(42) 0.000556 1738. 1738.
1800(42) 0.000559 1736. 1736.
1720(41) 0.000583 1734. 1734.
1682(41) 0.000598 1731. 1731.
1698(41) 0.000592 1729. 1729.
1765(42) 0.000570 1727. 1727.
1760(42) 0.000570 1725. 1725.
1678(41) 0.000598 1723. 1723.
1743(42) 0.000578 1721. 1721.
1646(41) 0.000610 1719. 1719.
1782(42) 0.000564 1717. 1717.
1652(41) 0.000607 1715. 1715.
1699(41) 0.000589 1712. 1712.
1721(41) 0.000583 1710. 1710.
1683(41) 0.000598 1708. 1708.
1676(41) 0.000601 1706. 1706.
1708(41) 0.000589 1704. 1704.
1684(41) 0.000598 1702. 1702.
1655(41) 0.000607 1700. 1700.
1714(41) 0.000586 1698. 1698.
1652(41) 0.000607 1696. 1696.
1676(41) 0.000601 1694. 1694.
1714(41) 0.000586 1692. 1692.
1678(41) 0.000598 1690. 1690.
1715(41) 0.000586 1688. 1688.
1584(40) 0.000634 1686. 1686.
1692(41) 0.000595 1684. 1684.
1680(41) 0.000598 1682. 1682.
1651(41) 0.000610 1680. 1680.
1643(40) 0.000613 1678. 1678.
1659(41) 0.000607 1676. 1676.
1685(41) 0.000595 1674. 1674.
1624(40) 0.000619 1672. 1672.
1646(41) 0.000610 1670. 1670.
1587(40) 0.000631 1668. 1668.
1623(40) 0.000619 1667. 1667.
1628(40) 0.000616 1665. 1665.
1628(40) 0.000616 1663. 1663.
1605(40) 0.000625 1661. 1661.
1567(40) 0.000641 1659. 1659.
1622(40) 0.000619 1657. 1657.
1659(41) 0.000604 1655. 1656.
1651(41) 0.000607 1653. 1654.
1650(41) 0.000607 1651. 1652.
1581(40) 0.000634 1649. 1650.
1545(39) 0.000651 1647. 1648.
1610(40) 0.000622 1645. 1646.
1592(40) 0.000628 1643. 1645.
1562(40) 0.000641 1642. 1643.
1658(41) 0.000604 1640. 1641.
1641(41) 0.000610 1638. 1640.
1695(41) 0.000592 1636. 1638.
1643(41) 0.000610 1634. 1638.
1626(40) 0.000616 1632. 1642.
1603(40) 0.000625 1630. 1658.
1712(41) 0.000586 1628. 1702.
1824(43) 0.000548 1626. 1804.
2027(45) 0.000494 1624. 1999.
2416(49) 0.000415 1623. 2318.
3037(55) 0.0003306 1621. 2753.
3558(60) 0.0002825 1619. 3216.
3885(62) 0.0002585 1617. 3523.
3932(63) 0.0002552 1615. 3491.
3399(58) 0.0002942 1613. 3101.
2698(52) 0.000371 1611. 2549.
2166(47) 0.000462 1609. 2076.
1772(42) 0.000564 1608. 1790.
1579(40) 0.000634 1606. 1664.
1628(40) 0.000616 1604. 1620.
1554(39) 0.000647 1602. 1608.
1580(40) 0.000634 1600. 1603.
1591(40) 0.000628 1598. 1601.
1553(39) 0.000644 1596. 1598.
1546(39) 0.000647 1594. 1596.
1578(40) 0.000634 1592. 1594.
1645(41) 0.000610 1591. 1592.
1590(40) 0.000628 1589. 1590.
1542(39) 0.000651 1587. 1588.
1554(39) 0.000644 1585. 1586.
1572(40) 0.000638 1583. 1584.
1509(39) 0.000664 1581. 1582.
1581(40) 0.000634 1579. 1580.
1549(39) 0.000647 1577. 1578.
1527(39) 0.000657 1576. 1576.
1493(39) 0.000671 1574. 1574.
1490(39) 0.000675 1572. 1572.
1533(39) 0.000654 1570. 1570.
1553(39) 0.000644 1568. 1568.
1588(40) 0.000631 1566. 1566.
1540(39) 0.000651 1564. 1564.
1490(39) 0.000671 1562. 1562.
1484(39) 0.000675 1561. 1561.
1433(38) 0.000700 1559. 1559.
1567(40) 0.000638 1557. 1558.
1603(40) 0.000625 1555. 1556.
1547(39) 0.000647 1553. 1554.
1506(39) 0.000664 1551. 1552.
1528(39) 0.000654 1549. 1551.
1557(40) 0.000641 1548. 1551.
1502(39) 0.000668 1546. 1553.
1573(40) 0.000638 1544. 1565.
1670(41) 0.000598 1542. 1594.
1637(41) 0.000610 1540. 1656.
1808(43) 0.000554 1538. 1765.
1927(44) 0.000519 1536. 1924.
2267(48) 0.000441 1535. 2103.
2370(49) 0.000422 1533. 2236.
2385(49) 0.000420 1531. 2250.
2203(47) 0.000455 1529. 2123.
1962(44) 0.000510 1527. 1919.
1721(42) 0.000581 1525. 1730.
1595(40) 0.000625 1524. 1609.
1464(38) 0.000682 1522. 1551.
1482(39) 0.000675 1520. 1529.
1520(39) 0.000657 1518. 1525.
1480(39) 0.000675 1516. 1522.
1495(39) 0.000668 1514. 1520.
1488(39) 0.000671 1513. 1518.
1483(39) 0.000675 1511. 1517.
1560(40) 0.000641 1509. 1515.
1453(38) 0.000689 1507. 1514.
1475(38) 0.000678 1505. 1513.
1446(38) 0.000689 1503. 1511.
1562(40) 0.000641 1502. 1511.
1486(39) 0.000671 1500. 1510.
1468(38) 0.000682 1498. 1510.
1537(39) 0.000651 1496. 1510.
1511(39) 0.000661 1495. 1510.
1494(39) 0.000668 1493. 1511.
1592(40) 0.000628 1491. 1513.
1527(39) 0.000654 1489. 1517.
1603(40) 0.000625 1487. 1527.
1541(39) 0.000651 1486. 1554.
1758(42) 0.000567 1484. 1626.
1931(44) 0.000519 1482. 1795.
2439(49) 0.000410 1480. 2142.
3430(59) 0.0002912 1479. 2749.
4583(68) 0.0002182 1477. 3633.
5450(74) 0.0001836 1475. 4652.
6108(78) 0.0001639 1474. 5472.
6256(79) 0.0001602 1472. 5714.
5881(77) 0.0001700 1470. 5260.
5131(72) 0.0001945 1468. 4423.
4344(66) 0.0002303 1467. 3678.
3519(59) 0.0002844 1465. 3232.
2768(53) 0.000361 1463. 2969.
2398(49) 0.000416 1462. 2681.
2148(46) 0.000464 1460. 2307.
1923(44) 0.000519 1458. 1941.
1567(40) 0.000638 1457. 1682.
1472(38) 0.000678 1455. 1547.
1459(38) 0.000685 1453. 1492.
1440(38) 0.000693 1452. 1476.
1407(38) 0.000711 1450. 1469.
1488(39) 0.000671 1449. 1465.
1441(38) 0.000693 1447. 1462.
1425(38) 0.000700 1445. 1460.
1502(39) 0.000664 1444. 1458.
1448(38) 0.000693 1442. 1458.
1454(38) 0.000685 1441. 1465.
1463(38) 0.000682 1439. 1493.
1574(40) 0.000634 1438. 1581.
1717(42) 0.000581 1436. 1804.
2191(47) 0.000457 1435. 2270.
2994(55) 0.0003342 1433. 3073.
4286(66) 0.0002331 1432. 4182.
5598(75) 0.0001783 1430. 5326.
5972(77) 0.0001674 1429. 5992.
5880(77) 0.0001700 1427. 5761.
4773(69) 0.0002094 1426. 4710.
3381(58) 0.0002952 1424. 3390.
2272(48) 0.000440 1423. 2349.
1567(40) 0.000638 1421. 1766.
1494(39) 0.000668 1420. 1525.
1435(38) 0.000696 1419. 1449.
1432(38) 0.000696 1417. 1429.
1474(38) 0.000678 1416. 1423.
1428(38) 0.000700 1415. 1420.
1453(38) 0.000689 1413. 1418.
1412(38) 0.000707 1412. 1416.
1448(38) 0.000689 1411. 1414.
1379(37) 0.000723 1409. 1412.
1461(38) 0.000685 1408. 1410.
1385(37) 0.000719 1407. 1407.
1432(38) 0.000700 1405. 1405.
1367(37) 0.000730 1404. 1404.
1395(37) 0.000715 1403. 1403.
1436(38) 0.000696 1402. 1402.
1380(37) 0.000723 1400. 1406.
1458(38) 0.000685 1399. 1406.
1468(38) 0.000682 1398. 1405.
1410(38) 0.000707 1397. 1405.
1416(38) 0.000704 1396. 1404.
1432(38) 0.000696 1395. 1404.
1406(38) 0.000711 1393. 1404.
1483(39) 0.000671 1392. 1404.
1451(38) 0.000689 1391. 1404.
1346(37) 0.000742 1390. 1404.
1482(39) 0.000675 1389. 1405.
1484(39) 0.000671 1388. 1406.
1510(39) 0.000661 1387. 1408.
1416(38) 0.000704 1386. 1411.
1440(38) 0.000693 1385. 1414.
1418(38) 0.000704 1384. 1419.
1427(38) 0.000700 1383. 1430.
1436(38) 0.000696 1382. 1462.
1547(39) 0.000644 1381. 1575.
1803(43) 0.000554 1380. 1949.
2622(51) 0.000381 1379. 2996.
4485(67) 0.0002228 1378. 5434.
9408(97) 0.0001063 1378. 10121.
17270(130) 0.0000578 1377. 17398.
25800(160) 0.0000387 1376. 26044.
31730(180) 0.0000315 1375. 32804.
32670(180) 0.0000306 1374. 33950.
27130(170) 0.0000368 1374. 28413.
18730(140) 0.0000533 1373. 19154.
10370(100) 0.0000963 1372. 10588.
4279(66) 0.0002331 1371. 5139.
1796(42) 0.000556 1371. 2610.
1541(39) 0.000647 1370. 1729.
1441(38) 0.000693 1369. 1491.
1439(38) 0.000693 1369. 1438.
1416(38) 0.000704 1368. 1428.
1420(38) 0.000704 1367. 1424.
1404(38) 0.000711 1367. 1420.
1390(37) 0.000719 1366. 1412.
1447(38) 0.000689 1366. 1402.
1390(37) 0.000719 1365. 1392.
1436(38) 0.000696 1364. 1368.
1380(37) 0.000723 1364. 1365.
1421(38) 0.000700 1363. 1364.
1365(37) 0.000730 1363. 1363.
1363(37) 0.000730 1362. 1363.
1372(37) 0.000727 1362. 1362.
1376(37) 0.000727 1362. 1362.
1406(38) 0.000707 1361. 1361.
1391(37) 0.000715 1361. 1361.
1386(37) 0.000719 1360. 1360.
1373(37) 0.000727 1360. 1360.
1475(39) 0.000675 1360. 1360.
1411(38) 0.000707 1359. 1359.
1426(38) 0.000700 1359. 1359.
1395(37) 0.000715 1359. 1359.
1404(38) 0.000711 1359. 1359.
1418(38) 0.000704 1358. 1358.
1338(37) 0.000747 1358. 1358.
1403(38) 0.000711 1358. 1371.
1351(37) 0.000738 1358. 1373.
1422(38) 0.000700 1358. 1375.
1371(37) 0.000727 1358. 1378.
1430(38) 0.000696 1357. 1382.
1477(39) 0.000675 1357. 1387.
1461(38) 0.000682 1357. 1398.
1434(38) 0.000696 1357. 1431.
1563(40) 0.000638 1357. 1550.
2002(45) 0.000498 1357. 1937.
2961(55) 0.0003367 1357. 2999.
5471(74) 0.0001821 1357. 5410.
10720(100) 0.0000930 1357. 9859.
17040(130) 0.0000584 1357. 16333.
22640(150) 0.0000440 1357. 23236.
26630(160) 0.0000374 1357. 27482.
25730(160) 0.0000388 1357. 26474.
19970(140) 0.0000499 1358. 20555.
13330(120) 0.0000747 1358. 12938.
7371(86) 0.0001352 1358. 6855.
2995(55) 0.0003330 1358. 3423.
1539(39) 0.000647 1358. 1993.
1486(39) 0.000671 1358. 1541.
1441(38) 0.000693 1359. 1427.
1394(37) 0.000715 1359. 1400.
1328(37) 0.000751 1359. 1391.
1390(37) 0.000719 1359. 1385.
1434(38) 0.000696 1360. 1381.
1378(37) 0.000723 1360. 1379.
1397(37) 0.000715 1360. 1376.
1360(37) 0.000734 1361. 1375.
1396(37) 0.000715 1361. 1361.
1387(37) 0.000719 1362. 1362.
1410(38) 0.000707 1362. 1362.
1384(37) 0.000723 1362. 1362.
1366(37) 0.000730 1363. 1363.
1433(38) 0.000696 1363. 1363.
1391(37) 0.000715 1364. 1364.
1431(38) 0.000696 1364. 1364.
1367(37) 0.000730 1365. 1365.
1365(37) 0.000730 1365. 1365.
1403(38) 0.000711 1366. 1366.
1373(37) 0.000727 1366. 1366.
1371(37) 0.000727 1367. 1367.
1420(38) 0.000700 1368. 1368.
1350(37) 0.000738 1368. 1368.
1453(38) 0.000685 1369. 1369.
1367(37) 0.000730 1370. 1370.
1402(38) 0.000711 1370. 1370.
1443(38) 0.000689 1371. 1371.
1328(37) 0.000751 1372. 1372.
1444(38) 0.000693 1372. 1372.
1388(37) 0.000719 1373. 1373.
1342(37) 0.000742 1374. 1374.
1373(37) 0.000727 1375. 1375.
1400(38) 0.000711 1375. 1375.
1490(39) 0.000668 1376. 1376.
1415(38) 0.000704 1377. 1377.
1398(38) 0.000711 1378. 1378.
1382(37) 0.000719 1379. 1379.
1444(38) 0.000689 1379. 1379.
1367(37) 0.000730 1380. 1380.
1447(38) 0.000689 1381. 1381.
1399(38) 0.000711 1382. 1382.
1417(38) 0.000704 1383. 1383.
1327(37) 0.000751 1384. 1384.
1460(38) 0.000682 1385. 1385.
1388(37) 0.000715 1386. 1386.
1388(37) 0.000715 1387. 1387.
1368(37) 0.000727 1388. 1388.
1457(38) 0.000682 1389. 1389.
1425(38) 0.000700 1390. 1390.
1420(38) 0.000704 1391. 1391.
1389(37) 0.000719 1392. 1392.
1397(38) 0.000711 1393. 1393.
1435(38) 0.000693 1394. 1394.
1398(37) 0.000715 1395. 1395.
1363(37) 0.000730 1396. 1396.
1408(38) 0.000707 1397. 1397.
1395(37) 0.000715 1398. 1398.
1409(38) 0.000707 1399. 1399.
1424(38) 0.000700 1401. 1401.
1436(38) 0.000696 1402. 1402.
1444(38) 0.000689 1403. 1403.
1386(37) 0.000719 1404. 1439.
1394(37) 0.000715 1405. 1444.
1380(37) 0.000723 1406. 1451.
1437(38) 0.000693 1408. 1460.
1480(39) 0.000675 1409. 1470.
1423(38) 0.000700 1410. 1482.
1424(38) 0.000696 1411. 1499.
1386(37) 0.000719 1412. 1523.
1585(40) 0.000628 1414. 1571.
1655(41) 0.000601 1415. 1690.
2037(45) 0.000489 1416. 2007.
3219(57) 0.0003089 1418. 2784.
5492(74) 0.0001811 1419. 4415.
8495(92) 0.0001171 1420. 7221.
11430(110) 0.0000869 1421. 11000.
13810(120) 0.0000721 1423. 14651.
15180(120) 0.0000656 1424. 16473.
14440(120) 0.0000690 1425. 15322.
11540(110) 0.0000862 1427. 11774.
8602(93) 0.0001154 1428. 7681.
5618(75) 0.0001773 1429. 4540.
2845(54) 0.0003494 1431. 2752.
1671(41) 0.000595 1432. 1963.
1606(40) 0.000619 1433. 1677.
1521(39) 0.000654 1435. 1582.
1457(38) 0.000682 1436. 1545.
1476(39) 0.000675 1438. 1525.
1528(39) 0.000651 1439. 1512.
1493(39) 0.000668 1440. 1502.
1456(38) 0.000682 1442. 1494.
1445(38) 0.000689 1443. 1489.
1546(39) 0.000644 1445. 1484.
1445(38) 0.000689 1446. 1446.
1497(39) 0.000664 1448. 1448.
1471(38) 0.000678 1449. 1449.
1396(37) 0.000715 1450. 1450.
1502(39) 0.000661 1452. 1452.
1499(39) 0.000664 1453. 1453.
1531(39) 0.000651 1455. 1455.
1486(39) 0.000668 1456. 1456.
1476(39) 0.000675 1458. 1458.
1501(39) 0.000661 1459. 1459.
1442(38) 0.000689 1461. 1461.
1490(39) 0.000668 1462. 1462.
1482(39) 0.000671 1464. 1464.
1471(38) 0.000678 1465. 1465.
1557(40) 0.000641 1467. 1467.
1479(39) 0.000671 1468. 1468.
1477(39) 0.000671 1470. 1470.
1476(39) 0.000675 1471. 1471.
1559(40) 0.000638 1473. 1478.
1517(39) 0.000654 1474. 1480.
1424(38) 0.000700 1476. 1483.
1509(39) 0.000657 1477. 1485.
1500(39) 0.000664 1478. 1488.
1401(38) 0.000707 1480. 1492.
1413(38) 0.000704 1481. 1496.
1500(39) 0.000661 1483. 1502.
1460(38) 0.000682 1484. 1519.
1538(39) 0.000647 1486. 1575.
1669(41) 0.000595 1487. 1765.
2165(47) 0.000459 1489. 2310.
3464(59) 0.0002873 1490. 3587.
6182(79) 0.0001606 1492. 5957.
9536(98) 0.0001043 1493. 9307.
12590(110) 0.0000790 1495. 12607.
13980(120) 0.0000711 1496. 14196.
12930(110) 0.0000768 1498. 13036.
9699(99) 0.0001024 1499. 9766.
6462(81) 0.0001536 1501. 6155.
3526(60) 0.0002815 1502. 3562.
1885(44) 0.000526 1504. 2228.
1564(40) 0.000634 1505. 1719.
1576(40) 0.000631 1507. 1570.
1535(39) 0.000647 1508. 1535.
1588(40) 0.000628 1510. 1528.
1543(39) 0.000644 1511. 1525.
1498(39) 0.000664 1513. 1524.
1465(38) 0.000678 1514. 1524.
1508(39) 0.000661 1516. 1524.
1526(39) 0.000651 1517. 1524.
1533(39) 0.000647 1519. 1525.
1532(39) 0.000647 1520. 1520.
1515(39) 0.000654 1522. 1522.
1522(39) 0.000654 1523. 1523.
1516(39) 0.000654 1524. 1524.
1531(39) 0.000647 1526. 1527.
1500(39) 0.000661 1527. 1529.
1540(39) 0.000644 1529. 1530.
1540(39) 0.000644 1530. 1532.
1497(39) 0.000661 1532. 1534.
1502(39) 0.000661 1533. 1535.
1511(39) 0.000657 1534. 1538.
1510(39) 0.000657 1536. 1541.
1566(40) 0.000634 1537. 1547.
1562(40) 0.000634 1539. 1566.
1633(41) 0.000607 1540. 1625.
1782(42) 0.000556 1541. 1783.
2148(47) 0.000460 1543. 2125.
2848(54) 0.0003481 1544. 2701.
3537(60) 0.0002806 1545. 3419.
4071(64) 0.0002434 1547. 3994.
4253(65) 0.0002338 1548. 4099.
3600(60) 0.0002759 1549. 3652.
2995(55) 0.0003306 1551. 2914.
2285(48) 0.000434 1552. 2246.
1826(43) 0.000543 1553. 1835.
1560(40) 0.000634 1555. 1649.
1540(39) 0.000644 1556. 1586.
1598(40) 0.000622 1557. 1571.
1588(40) 0.000625 1558. 1568.
1618(40) 0.000613 1560. 1569.
1521(39) 0.000651 1561. 1571.
1594(40) 0.000622 1562. 1573.
1602(40) 0.000619 1563. 1577.
1576(40) 0.000628 1565. 1582.
1601(40) 0.000619 1566. 1586.
1570(40) 0.000631 1567. 1588.
1521(39) 0.000651 1568. 1589.
1539(39) 0.000644 1569. 1592.
1629(41) 0.000610 1571. 1593.
1609(40) 0.000616 1572. 1595.
1606(40) 0.000616 1573. 1599.
1673(41) 0.000592 1574. 1607.
1590(40) 0.000622 1575. 1626.
1666(41) 0.000592 1576. 1668.
1730(42) 0.000572 1578. 1759.
1962(45) 0.000505 1579. 1932.
2158(47) 0.000459 1580. 2221.
2337(49) 0.000423 1581. 2672.
3084(56) 0.0003212 1582. 3408.
4589(68) 0.0002156 1583. 4663.
7020(84) 0.0001411 1584. 6622.
9536(98) 0.0001039 1585. 8997.
11030(110) 0.0000898 1586. 10781.
11380(110) 0.0000870 1587. 10834.
9276(97) 0.0001065 1588. 8979.
6579(82) 0.0001506 1589. 6279.
4216(65) 0.0002352 1590. 4070.
2713(52) 0.000366 1591. 3063.
3355(58) 0.0002952 1592. 3384.
5652(76) 0.0001754 1593. 5032.
8639(93) 0.0001146 1594. 7877.
11060(110) 0.0000895 1595. 11206.
13110(120) 0.0000756 1596. 13576.
13330(120) 0.0000744 1597. 13600.
10970(110) 0.0000904 1597. 11181.
8365(92) 0.0001184 1598. 7704.
5437(74) 0.0001821 1599. 4728.
3074(56) 0.0003223 1600. 2916.
1758(42) 0.000562 1601. 2087.
1698(41) 0.000583 1602. 1790.
1698(41) 0.000583 1603. 1699.
1706(42) 0.000581 1603. 1670.
1638(41) 0.000604 1604. 1657.
1631(41) 0.000607 1605. 1648.
1664(41) 0.000595 1606. 1642.
1654(41) 0.000598 1606. 1638.
1623(41) 0.000610 1607. 1634.
1633(41) 0.000607 1608. 1632.
1610(40) 0.000613 1608. 1630.
1640(41) 0.000604 1609. 1628.
1700(42) 0.000581 1610. 1627.
1662(41) 0.000595 1610. 1626.
1625(41) 0.000610 1611. 1625.
1634(41) 0.000607 1612. 1624.
1613(40) 0.000613 1612. 1624.
1696(41) 0.000583 1613. 1623.
1683(41) 0.000589 1614. 1623.
1708(42) 0.000581 1614. 1623.
1626(41) 0.000610 1615. 1623.
1567(40) 0.000631 1615. 1630.
1702(42) 0.000581 1616. 1631.
1671(41) 0.000592 1616. 1632.
1622(41) 0.000610 1617. 1634.
1721(42) 0.000575 1617. 1636.
1653(41) 0.000598 1618. 1639.
1571(40) 0.000631 1618. 1642.
1638(41) 0.000604 1619. 1647.
1741(42) 0.000570 1619. 1658.
1643(41) 0.000604 1619. 1689.
1739(42) 0.000570 1620. 1789.
1989(45) 0.000496 1620. 2084.
2601(51) 0.000380 1621. 2759.
3734(62) 0.0002644 1621. 4032.
5273(73) 0.0001877 1621. 5849.
6557(81) 0.0001509 1622. 7656.
7233(86) 0.0001368 1622. 8552.
6755(83) 0.0001466 1622. 7962.
5413(74) 0.0001826 1622. 6229.
3991(64) 0.0002480 1623. 4318.
2710(52) 0.000366 1623. 3012.
2265(48) 0.000438 1623. 2635.
2974(55) 0.0003330 1623. 3386.
5796(77) 0.0001709 1624. 5641.
10430(100) 0.0000948 1624. 9674.
14740(120) 0.0000671 1624. 14807.
18530(140) 0.0000534 1624. 18967.
19540(140) 0.0000507 1624. 19767.
16120(130) 0.0000613 1624. 16598.
11470(110) 0.0000861 1624. 11343.
7015(84) 0.0001411 1625. 6587.
3505(60) 0.0002825 1625. 3631.
1901(44) 0.000519 1625. 2280.
1736(42) 0.000570 1625. 1819.
1775(42) 0.000556 1625. 1694.
1715(42) 0.000578 1625. 1664.
1729(42) 0.000572 1625. 1654.
1730(42) 0.000572 1625. 1650.
1663(41) 0.000595 1625. 1650.
1698(41) 0.000583 1625. 1720.
1779(43) 0.000554 1625. 1766.
1913(44) 0.000517 1624. 1869.
2098(46) 0.000471 1624. 2040.
2497(50) 0.000397 1624. 2282.
2717(52) 0.000364 1624. 2499.
2806(53) 0.000352 1624. 2583.
2648(52) 0.000373 1624. 2500.
2506(50) 0.000394 1624. 2339.
2295(48) 0.000430 1623. 2288.
2405(49) 0.000411 1623. 2615.
3470(59) 0.0002844 1623. 3748.
6609(82) 0.0001494 1623. 6360.
11550(110) 0.0000856 1623. 11019.
16450(130) 0.0000601 1622. 17363.
21000(150) 0.0000471 1622. 23407.
23030(150) 0.0000429 1622. 26185.
21590(150) 0.0000458 1621. 23963.
17070(130) 0.0000579 1621. 18166.
12420(110) 0.0000794 1621. 12132.
8854(95) 0.0001117 1620. 8286.
6768(83) 0.0001459 1620. 6974.
6853(83) 0.0001441 1620. 7011.
7043(84) 0.0001404 1619. 6923.
6125(79) 0.0001615 1619. 5999.
4773(69) 0.0002076 1618. 4526.
3357(58) 0.0002942 1618. 3178.
2191(47) 0.000451 1617. 2335.
1755(42) 0.000562 1617. 1958.
1764(42) 0.000559 1616. 1862.
2051(46) 0.000481 1616. 1936.
2381(49) 0.000415 1615. 2192.
3028(55) 0.0003258 1615. 2651.
3873(63) 0.0002552 1614. 3465.
4833(70) 0.0002047 1614. 4410.
5411(74) 0.0001831 1613. 5117.
5420(74) 0.0001826 1612. 5227.
5201(73) 0.0001902 1612. 4757.
4792(70) 0.0002058 1611. 4172.
4721(69) 0.0002094 1611. 4000.
4772(70) 0.0002070 1610. 4387.
5035(71) 0.0001967 1609. 4995.
5124(72) 0.0001929 1609. 5250.
4848(70) 0.0002041 1608. 4822.
4122(65) 0.0002396 1607. 3914.
3169(57) 0.0003122 1606. 3023.
2681(52) 0.000370 1606. 2507.
2355(49) 0.000420 1605. 2414.
2631(52) 0.000376 1604. 2574.
2841(54) 0.0003481 1603. 2774.
3069(56) 0.0003223 1603. 2920.
3273(58) 0.0003014 1602. 3129.
3785(62) 0.0002610 1601. 3572.
4280(66) 0.0002310 1600. 4190.
4662(69) 0.0002119 1599. 4612.
4356(66) 0.0002268 1598. 4461.
3881(63) 0.0002544 1597. 3752.
3040(56) 0.0003246 1597. 2878.
2194(47) 0.000451 1596. 2235.
1799(43) 0.000548 1595. 1985.
2011(45) 0.000492 1594. 2151.
2655(52) 0.000373 1593. 2750.
3790(62) 0.0002601 1592. 3755.
5044(72) 0.0001956 1591. 4886.
5782(77) 0.0001709 1590. 5622.
5784(77) 0.0001704 1589. 5548.
4948(71) 0.0001995 1588. 4733.
3849(62) 0.0002568 1587. 3650.
2870(54) 0.0003442 1586. 2733.
2160(47) 0.000457 1585. 2146.
1843(43) 0.000536 1584. 1832.
1814(43) 0.000543 1582. 1686.
1686(41) 0.000586 1581. 1626.
1661(41) 0.000595 1580. 1609.
1688(41) 0.000583 1579. 1617.
1732(42) 0.000570 1578. 1647.
1817(43) 0.000543 1577. 1696.
1845(43) 0.000536 1576. 1745.
1950(45) 0.000505 1575. 1768.
1804(43) 0.000546 1573. 1747.
1770(42) 0.000559 1572. 1694.
1783(43) 0.000554 1571. 1638.
1657(41) 0.000598 1570. 1600.
1591(40) 0.000622 1568. 1580.
1557(40) 0.000634 1567. 1572.
1570(40) 0.000628 1566. 1569.
1590(40) 0.000622 1565. 1567.
1590(40) 0.000622 1563. 1565.
1591(40) 0.000622 1562. 1564.
1601(40) 0.000616 1561. 1562.
1607(40) 0.000616 1559. 1561.
1564(40) 0.000631 1558. 1559.
1617(41) 0.000610 1557. 1557.
1546(40) 0.000638 1555. 1555.
1573(40) 0.000628 1554. 1554.
1582(40) 0.000625 1553. 1553.
1611(40) 0.000613 1551. 1551.
1524(39) 0.000647 1550. 1550.
1566(40) 0.000631 1548. 1548.
1532(39) 0.000644 1547. 1547.
1610(40) 0.000613 1546. 1547.
1615(40) 0.000613 1544. 1546.
1573(40) 0.000628 1543. 1545.
1549(40) 0.000638 1541. 1544.
1599(40) 0.000616 1540. 1543.
1534(39) 0.000644 1538. 1542.
1530(39) 0.000644 1537. 1541.
1551(40) 0.000634 1535. 1541.
1548(40) 0.000638 1534. 1542.
1535(39) 0.000644 1532. 1548.
1560(40) 0.000631 1531. 1571.
1613(41) 0.000610 1529. 1642.
1986(45) 0.000496 1528. 1812.
2513(51) 0.000392 1526. 2128.
3117(56) 0.0003155 1524. 2566.
3513(60) 0.0002806 1523. 2981.
3676(61) 0.0002687 1521. 3142.
3522(60) 0.0002796 1520. 2949.
2945(55) 0.0003354 1518. 2516.
2386(49) 0.000413 1516. 2074.
1786(43) 0.000551 1515. 1771.
1605(40) 0.000616 1513. 1618.
1494(39) 0.000661 1511. 1560.
1543(40) 0.000641 1510. 1543.
1533(39) 0.000644 1508. 1541.
1511(39) 0.000651 1506. 1545.
1473(39) 0.000668 1505. 1568.
1558(40) 0.000631 1503. 1629.
1720(42) 0.000572 1501. 1786.
2169(47) 0.000455 1500. 2104.
2591(51) 0.000381 1498. 2594.
3116(56) 0.0003155 1496. 3129.
3392(59) 0.0002902 1494. 3459.
3256(58) 0.0003025 1493. 3399.
2806(53) 0.0003507 1491. 3028.
2614(52) 0.000377 1489. 2684.
2898(54) 0.0003404 1487. 2754.
3787(62) 0.0002601 1486. 3518.
5233(73) 0.0001882 1484. 5023.
6310(80) 0.0001559 1482. 6922.
7352(86) 0.0001340 1480. 8432.
7593(88) 0.0001300 1478. 8704.
6582(82) 0.0001498 1477. 7533.
5411(74) 0.0001821 1475. 5600.
4084(64) 0.0002411 1473. 3791.
2592(51) 0.000380 1471. 2575.
1718(42) 0.000572 1469. 1944.
1557(40) 0.000634 1467. 1679.
1523(39) 0.000647 1466. 1581.
1439(38) 0.000685 1464. 1543.
1440(38) 0.000682 1462. 1525.
1490(39) 0.000661 1460. 1512.
1540(40) 0.000641 1458. 1502.
1376(37) 0.000715 1456. 1494.
1468(39) 0.000671 1454. 1487.
1506(39) 0.000654 1452. 1481.
1480(39) 0.000664 1450. 1476.
1497(39) 0.000657 1449. 1472.
1486(39) 0.000664 1447. 1468.
1489(39) 0.000661 1445. 1464.
1405(38) 0.000700 1443. 1461.
1483(39) 0.000664 1441. 1458.
1460(39) 0.000675 1439. 1456.
1432(38) 0.000685 1437. 1453.
1428(38) 0.000689 1435. 1451.
1431(38) 0.000689 1433. 1449.
1443(38) 0.000682 1431. 1439.
1439(38) 0.000685 1429. 1440.
1427(38) 0.000689 1427. 1446.
1384(38) 0.000711 1425. 1477.
1566(40) 0.000628 1423. 1597.
1851(43) 0.000531 1421. 1967.
3012(55) 0.0003270 1419. 2852.
4641(69) 0.0002119 1417. 4443.
6432(81) 0.0001532 1415. 6481.
7662(88) 0.0001285 1413. 8085.
8146(91) 0.0001208 1411. 8273.
6742(83) 0.0001459 1409. 6889.
5196(73) 0.0001892 1407. 4800.
3233(57) 0.0003046 1405. 3036.
1849(43) 0.000533 1403. 2016.
1449(38) 0.000678 1401. 1587.
1438(38) 0.000685 1399. 1451.
1441(38) 0.000682 1397. 1417.
1426(38) 0.000689 1395. 1408.
1459(39) 0.000675 1393. 1403.
1397(38) 0.000707 1391. 1400.
1266(36) 0.000776 1389. 1397.
1389(38) 0.000707 1387. 1395.
1385(38) 0.000711 1384. 1393.
1441(38) 0.000682 1382. 1392.
1402(38) 0.000700 1380. 1394.
1314(37) 0.000747 1378. 1403.
1384(38) 0.000711 1376. 1433.
1557(40) 0.000631 1374. 1507.
1562(40) 0.000631 1372. 1652.
1798(43) 0.000546 1370. 1863.
1815(43) 0.000541 1368. 2080.
2053(46) 0.000479 1366. 2194.
1897(44) 0.000519 1364. 2146.
1739(42) 0.000564 1361. 1946.
1624(41) 0.000607 1359. 1715.
1533(40) 0.000641 1357. 1541.
1411(38) 0.000696 1355. 1445.
1407(38) 0.000696 1353. 1406.
1321(37) 0.000742 1351. 1395.
1353(37) 0.000727 1349. 1397.
1412(38) 0.000696 1347. 1415.
1422(38) 0.000693 1345. 1495.
1509(39) 0.000651 1342. 1819.
2254(48) 0.000436 1340. 2895.
5324(74) 0.0001846 1338. 5701.
11890(110) 0.0000826 1336. 11283.
19980(140) 0.0000492 1334. 19403.
27780(170) 0.0000353 1332. 27243.
31250(180) 0.0000314 1330. 30459.
27200(170) 0.0000361 1327. 26850.
20370(140) 0.0000482 1325. 18725.
11910(110) 0.0000825 1323. 10590.
5225(73) 0.0001882 1321. 5247.
2302(48) 0.000427 1319. 2747.
1811(43) 0.000543 1317. 1875.
1793(43) 0.000548 1315. 1616.
1599(40) 0.000616 1312. 1511.
1639(41) 0.000601 1310. 1440.
1424(38) 0.000693 1308. 1388.
1362(37) 0.000723 1306. 1355.
1317(37) 0.000747 1304. 1337.
1337(37) 0.000734 1302. 1327.
1311(37) 0.000751 1300. 1320.
1323(37) 0.000742 1297. 1315.
1301(36) 0.000755 1295. 1311.
1349(37) 0.000730 1293. 1308.
1284(36) 0.000763 1291. 1305.
1311(37) 0.000751 1289. 1318.
1179(35) 0.000835 1286.7 1317.0
1358(37) 0.000723 1285. 1319.
1277(36) 0.000772 1282. 1330.
1276(36) 0.000772 1280. 1375.
1375(37) 0.000715 1278. 1516.
1879(44) 0.000524 1276. 1855.
2640(52) 0.000373 1274. 2472.
3379(59) 0.0002912 1272. 3277.
3905(63) 0.0002520 1269. 3939.
4147(65) 0.0002367 1267. 4068.
3782(62) 0.0002601 1265. 3572.
3044(56) 0.0003235 1263. 2762.
2158(47) 0.000455 1261. 2044.
1548(40) 0.000634 1259. 1617.
1372(37) 0.000719 1257. 1439.
1330(37) 0.000738 1254. 1395.
1349(37) 0.000730 1252. 1439.
1321(37) 0.000742 1250. 1529.
1410(38) 0.000696 1248. 1808.
2111(46) 0.000466 1246. 2618.
4468(67) 0.0002201 1244. 4607.
9291(97) 0.0001058 1242. 8496.
14750(120) 0.0000666 1239. 14289.
19940(140) 0.0000492 1237. 20384.
22910(150) 0.0000429 1235. 23893.
21820(150) 0.0000450 1233. 22865.
17560(130) 0.0000559 1231. 18699.
15590(130) 0.0000630 1229. 15578.
18860(140) 0.0000521 1227. 17402.
25860(160) 0.0000380 1224. 25035.
34540(190) 0.0000285 1222. 34988.
40940(200) 0.0000240 1220. 40925.
38320(200) 0.0000256 1218. 38326.
29670(170) 0.0000331 1216. 28500.
18730(140) 0.0000524 1214. 17007.
9055(96) 0.0001085 1212. 8453.
2980(55) 0.0003294 1210. 3898.
1564(40) 0.000628 1207. 2083.
1385(38) 0.000711 1205. 1517.
1272(36) 0.000772 1203. 1367.
1340(37) 0.000734 1201. 1323.
1313(37) 0.000751 1199. 1310.
1264(36) 0.000776 1197. 1328.
1332(37) 0.000738 1195. 1407.
1538(40) 0.000638 1193. 1595.
2004(45) 0.000489 1191. 1910.
2323(49) 0.000423 1188. 2273.
2549(51) 0.000386 1186. 2509.
2636(52) 0.000373 1184. 2468.
2314(49) 0.000425 1182. 2169.
1826(43) 0.000538 1180. 1752.
1500(39) 0.000654 1178. 1450.
1337(37) 0.000734 1176. 1280.
1149(34) 0.000855 1173.8 1208.0
1199(35) 0.000821 1171.8 1183.5
1195(35) 0.000821 1169.7 1175.6
1187(35) 0.000826 1167.6 1172.1
1171(35) 0.000840 1165.5 1169.6
1232(35) 0.000798 1163. 1168.
1175(35) 0.000835 1161.4 1167.3
1166(35) 0.000840 1159.3 1172.7
1120(34) 0.000875 1157.3 1199.0
1277(36) 0.000767 1155. 1283.
1547(40) 0.000634 1153. 1479.
1908(44) 0.000514 1151. 1822.
2227(48) 0.000440 1149. 2243.
2538(51) 0.000386 1147. 2547.
2601(52) 0.000377 1145. 2544.
2173(47) 0.000453 1143. 2229.
1839(43) 0.000533 1141. 1797.
1490(39) 0.000657 1139. 1447.
1257(36) 0.000780 1137. 1251.
1160(34) 0.000850 1134.9 1172.5
1086(33) 0.000902 1132.9 1146.1
1114(34) 0.000881 1130.8 1138.3
1128(34) 0.000870 1128.8 1135.2
1147(34) 0.000855 1126.8 1133.1
1150(34) 0.000855 1124.8 1131.3
1076(33) 0.000913 1122.8 1129.6
1122(34) 0.000875 1120.8 1128.2
1167(35) 0.000840 1118.8 1127.0
1132(34) 0.000865 1116.8 1126.5
1122(34) 0.000875 1114.9 1128.7
1156(34) 0.000850 1112.9 1139.8
1128(34) 0.000870 1110.9 1173.8
1281(36) 0.000767 1109. 1251.
1377(37) 0.000715 1107. 1383.
1510(39) 0.000647 1105. 1542.
1516(39) 0.000647 1103. 1656.
1601(40) 0.000613 1101. 1657.
1466(39) 0.000668 1099. 1547.
1361(37) 0.000719 1097. 1402.
1323(37) 0.000742 1095. 1313.
1355(37) 0.000723 1093. 1341.
1868(44) 0.000526 1091. 1521.
2308(49) 0.000425 1089. 1864.
2746(53) 0.000357 1087. 2316.
3120(56) 0.0003144 1086. 2725.
3233(57) 0.0003035 1084. 2887.
3104(56) 0.0003155 1082. 2695.
2674(52) 0.000366 1080. 2262.
2185(47) 0.000449 1078. 1803.
1667(41) 0.000589 1076. 1459.
1330(37) 0.000738 1074. 1265.
1174(35) 0.000835 1072.2 1191.2
1195(35) 0.000821 1070.4 1203.1
1243(36) 0.000789 1068. 1277.
1272(36) 0.000767 1067. 1381.
1490(39) 0.000657 1065. 1461.
1439(38) 0.000682 1063. 1462.
1331(37) 0.000734 1061. 1380.
1261(36) 0.000776 1059. 1261.
1148(34) 0.000855 1057.3 1161.6
1096(34) 0.000891 1055.4 1101.4
1078(33) 0.000907 1053.6 1073.8
1100(34) 0.000891 1051.7 1063.2
1031(32) 0.000953 1049.9 1058.6
1014(32) 0.000964 1048.1 1055.8
1029(32) 0.000953 1046.2 1053.5
1060(33) 0.000924 1044.4 1051.3
1046(33) 0.000935 1042.6 1049.2
1066(33) 0.000918 1040.8 1047.3
1016(32) 0.000964 1039.0 1045.4
1034(33) 0.000947 1037.2 1043.7
1015(32) 0.000964 1035.4 1039.1
1043(33) 0.000941 1033.6 1037.8
1037(33) 0.000947 1031.8 1036.7
1060(33) 0.000924 1030.0 1035.8
963(31) 0.001021 1028.2 1035.1
1078(33) 0.000907 1026.5 1034.9
1055(33) 0.000930 1024.7 1035.8
983(32) 0.000995 1022.9 1040.1
1068(33) 0.000918 1021.2 1054.5
1101(34) 0.000886 1019.4 1094.9
1344(37) 0.000727 1018. 1188.
1705(42) 0.000575 1016. 1358.
2069(46) 0.000473 1014. 1597.
2422(50) 0.000405 1012. 1832.
2602(52) 0.000376 1011. 1948.
2444(50) 0.000400 1009. 1871.
2071(46) 0.000473 1007. 1646.
1749(42) 0.000559 1006. 1393.
1418(38) 0.000689 1004. 1200.
1020(32) 0.000959 1002.2 1089.0
1028(32) 0.000953 1000.5 1037.7
943(31) 0.001041 998.8 1017.2
985(32) 0.000995 997.1 1008.7
964(31) 0.001014 995.4 1004.2
1076(33) 0.000907 993.8 1000.8
975(32) 0.001008 992.1 998.0
962(31) 0.001014 990.4 995.4
999(32) 0.000983 988.8 993.6
994(32) 0.000983 987.1 991.5
994(32) 0.000983 985.5 989.5
1015(32) 0.000964 983.8 987.6
1019(32) 0.000959 982.2 985.7
1011(32) 0.000970 980.6 984.1
1018(32) 0.000959 978.9 982.7
984(32) 0.000995 977.3 982.3
958(31) 0.001021 975.7 984.2
1001(32) 0.000983 974.1 991.2
1057(33) 0.000924 972.5 1009.5
1048(33) 0.000935 970.9 1054.5
1122(34) 0.000870 969.3 1159.1
1472(39) 0.000664 968. 1365.
1811(43) 0.000541 966. 1681.
2225(48) 0.000440 965. 2009.
2693(52) 0.000364 963. 2176.
2327(49) 0.000422 961. 2068.
1946(45) 0.000503 960. 1752.
1612(41) 0.000607 958. 1407.
1224(35) 0.000803 957. 1162.
993(32) 0.000989 955.2 1036.4
986(32) 0.000989 953.6 984.6
985(32) 0.000995 952.1 964.9
917(31) 0.001068 950.6 956.7
964(31) 0.001014 949.0 953.0
924(31) 0.001061 947.5 950.6
971(32) 0.001008 946.0 949.0
900(30) 0.001089 944.5 949.0
1027(32) 0.000953 943.0 950.2
937(31) 0.001041 941.5 955.5
1013(32) 0.000964 940.0 967.2
1050(33) 0.000935 938.5 985.9
1107(34) 0.000886 937.0 1007.2
1133(34) 0.000860 935.6 1021.4
1055(33) 0.000930 934.1 1019.7
1070(33) 0.000913 932.6 1003.9
1032(33) 0.000947 931.2 989.2
1006(32) 0.000970 929.7 1007.5
1090(33) 0.000896 928.3 1087.6
1318(37) 0.000742 927. 1278.
1657(41) 0.000589 925. 1586.
1901(44) 0.000514 924. 1920.
2137(47) 0.000459 923. 2111.
2101(46) 0.000464 921. 2041.
1892(44) 0.000517 920. 1750.
1505(39) 0.000651 918. 1416.
1120(34) 0.000875 916.9 1186.3
1139(34) 0.000860 915.5 1119.4
1204(35) 0.000812 914. 1235.
1551(40) 0.000631 913. 1528.
1860(44) 0.000526 911. 1988.
2264(48) 0.000432 910. 2495.
2379(49) 0.000411 909. 2843.
2453(50) 0.000398 907. 2911.
2451(50) 0.000398 906. 2896.
3192(57) 0.0003056 904. 3256.
4437(67) 0.0002201 903. 4316.
5888(78) 0.0001661 902. 5849.
7304(87) 0.0001336 900. 7085.
7534(88) 0.0001297 899. 7361.
7207(86) 0.0001355 898. 6859.
6440(81) 0.0001517 896. 6451.
6122(79) 0.0001598 895. 6688.
6086(79) 0.0001606 894. 7173.
6024(79) 0.0001623 892. 7026.
5105(72) 0.0001913 891. 5863.
3732(62) 0.0002618 890. 4154.
2503(51) 0.000391 889. 2626.
1470(39) 0.000664 887. 1652.
992(32) 0.000983 886.0 1183.6
971(32) 0.001008 884.7 1005.4
934(31) 0.001047 883.4 947.2
902(30) 0.001082 882.2 926.8
965(31) 0.001014 880.9 916.9
935(31) 0.001047 879.6 910.1
934(31) 0.001047 878.4 904.9
978(32) 0.000995 877.1 901.0
850(30) 0.001149 875.9 899.6
923(31) 0.001061 874.7 905.4
939(31) 0.001041 873.4 930.2
967(31) 0.001014 872.2 992.8
1037(33) 0.000941 871.0 1106.4
1168(35) 0.000835 869.7 1251.7
1234(36) 0.000789 869. 1366.
1254(36) 0.000780 867. 1382.
1115(34) 0.000875 866.1 1285.5
1126(34) 0.000865 864.9 1136.7
981(32) 0.000995 863.7 1007.6
969(32) 0.001008 862.5 942.4
940(31) 0.001041 861.4 931.0
1046(33) 0.000935 860.2 995.9
1247(36) 0.000785 859. 1184.
1702(42) 0.000575 858. 1541.
2298(49) 0.000425 857. 2027.
2756(53) 0.000355 856. 2452.
3050(56) 0.0003200 854. 2575.
2839(54) 0.0003442 853. 2313.
2180(47) 0.000449 852. 1829.
1617(41) 0.000604 851. 1375.
1168(35) 0.000835 849.8 1086.8
935(31) 0.001047 848.7 959.6
952(31) 0.001027 847.5 930.9
959(31) 0.001021 846.4 966.4
960(31) 0.001021 845.3 1053.9
1103(34) 0.000886 844.2 1191.9
1118(34) 0.000875 843.1 1370.9
1263(36) 0.000772 842. 1607.
1717(42) 0.000570 841. 2026.
2982(55) 0.0003270 840. 2885.
4482(68) 0.0002175 839. 4325.
6103(79) 0.0001598 838. 5974.
7023(85) 0.0001391 837. 6946.
6809(84) 0.0001431 835. 6560.
5560(76) 0.0001754 834. 5066.
3776(62) 0.0002585 833. 3393.
2488(51) 0.000392 832. 2255.
1565(40) 0.000625 831. 1726.
1337(37) 0.000730 830. 1520.
1309(37) 0.000747 829. 1396.
1280(36) 0.000763 828. 1308.
1192(35) 0.000821 827.1 1343.1
1410(38) 0.000693 826. 1670.
2745(53) 0.000356 825. 2550.
4898(71) 0.0001995 824. 4280.
7347(87) 0.0001327 823. 6917.
9362(98) 0.0001043 822. 9917.
10880(110) 0.0000897 821. 12070.
10940(110) 0.0000892 820. 12150.
9414(98) 0.0001037 819. 10079.
7427(87) 0.0001315 818. 7055.
5094(72) 0.0001918 817. 4354.
2771(53) 0.000352 816. 2563.
1316(37) 0.000742 815. 1637.
976(32) 0.001001 814.0 1277.2
1046(33) 0.000935 813.0 1275.0
1360(37) 0.000719 812. 1611.
2331(49) 0.000418 811. 2351.
3495(60) 0.0002787 810. 3400.
4373(67) 0.0002228 809. 4333.
4765(70) 0.0002047 808. 4600.
4445(68) 0.0002195 807. 4022.
3375(59) 0.0002883 806. 3011.
2372(49) 0.000410 805. 2201.
2141(47) 0.000457 804. 1999.
2657(52) 0.000367 803. 2470.
3640(61) 0.0002679 803. 3418.
4591(69) 0.0002125 802. 4480.
5126(73) 0.0001902 801. 5241.
5141(73) 0.0001897 800. 5392.
4483(68) 0.0002175 799. 4841.
3479(60) 0.0002806 798. 3785.
2432(50) 0.000402 797. 2622.
1755(42) 0.000556 796. 1713.
1130(34) 0.000865 795.3 1181.1
915(31) 0.001068 794.4 943.7
876(30) 0.001111 793.5 860.5
900(30) 0.001082 792.6 836.6
909(31) 0.001075 791.7 832.8
948(31) 0.001027 790.8 845.4
936(31) 0.001041 790.0 898.2
1172(35) 0.000831 789.1 1051.2
1528(40) 0.000638 788. 1400.
2230(48) 0.000438 787. 2027.
3022(56) 0.0003223 786. 2882.
3742(62) 0.0002610 786. 3690.
4039(64) 0.0002411 785. 4041.
3647(61) 0.0002670 784. 3733.
2855(54) 0.0003417 783. 2981.
1999(45) 0.000487 782. 2168.
1466(39) 0.000664 781. 1679.
1603(41) 0.000607 781. 1655.
2009(45) 0.000485 780. 2055.
2449(50) 0.000397 779. 2676.
2831(54) 0.0003442 778. 3168.
2881(54) 0.0003379 777. 3209.
2519(51) 0.000386 776. 2781.
2113(47) 0.000460 776. 2213.
1851(44) 0.000526 775. 1934.
2332(49) 0.000418 774. 2289.
3789(62) 0.0002568 773. 3463.
5706(77) 0.0001704 772. 5387.
7645(89) 0.0001274 772. 7521.
8909(96) 0.0001094 771. 8891.
8813(95) 0.0001103 770. 8665.
7380(87) 0.0001321 769. 6973.
5324(74) 0.0001831 769. 4778.
3452(60) 0.0002825 768. 2956.
1724(42) 0.000564 767. 1853.
1100(34) 0.000886 766.2 1366.8
1035(33) 0.000941 765.4 1259.0
1165(35) 0.000835 764.6 1344.7
1300(37) 0.000751 764. 1509.
1386(38) 0.000704 763. 1648.
1413(38) 0.000689 762. 1664.
1364(37) 0.000715 762. 1519.
1173(35) 0.000831 760.9 1286.6
1061(33) 0.000918 760.1 1078.7
930(31) 0.001047 759.4 985.7
929(31) 0.001047 758.6 1120.6
1435(38) 0.000678 758. 1783.
3331(59) 0.0002922 757. 3570.
7341(87) 0.0001324 756. 7094.
12270(110) 0.0000794 756. 12089.
16360(130) 0.0000594 755. 16675.
17950(140) 0.0000542 754. 18221.
15780(130) 0.0000616 754. 15667.
11420(110) 0.0000853 753. 10667.
6610(82) 0.0001473 752. 5897.
2898(55) 0.0003354 751. 2851.
1219(35) 0.000798 751. 1443.
910(31) 0.001068 750.0 955.6
807(29) 0.001206 749.3 823.2
810(29) 0.001197 748.6 782.7
831(29) 0.001173 747.9 773.6
840(29) 0.001157 747.2 769.9
827(29) 0.001181 746.5 767.0
762(28) 0.001276 745.8 765.3
837(29) 0.001165 745.2 765.2
796(29) 0.001223 744.5 769.5
803(29) 0.001214 743.8 788.3
884(30) 0.001104 743.1 843.1
1004(32) 0.000970 742.5 969.6
1109(34) 0.000875 741.8 1184.8
1275(36) 0.000763 741. 1464.
1658(41) 0.000586 740. 1716.
1870(44) 0.000521 740. 1837.
1953(45) 0.000498 739. 1805.
1980(45) 0.000492 738. 1679.
1929(45) 0.000505 738. 1511.
1750(42) 0.000556 737. 1319.
1376(38) 0.000707 737. 1140.
1221(35) 0.000798 736. 1044.
1199(35) 0.000812 735. 1138.
1550(40) 0.000628 735. 1529.
2170(47) 0.000447 734. 2246.
2869(54) 0.0003392 733. 3108.
3343(59) 0.0002902 733. 3709.
3333(59) 0.0002912 732. 3678.
2757(53) 0.000352 731. 3028.
2066(46) 0.000471 731. 2148.
1481(39) 0.000657 730. 1430.
955(31) 0.001021 729.6 1012.8
798(29) 0.001214 729.0 832.3
804(29) 0.001206 728.4 772.2
816(29) 0.001189 727.7 757.1
781(28) 0.001249 727.1 757.1
757(28) 0.001285 726.5 767.5
810(29) 0.001197 725.9 797.7
883(30) 0.001104 725.3 867.1
1022(32) 0.000953 724.7 997.0
1168(35) 0.000831 724.1 1192.6
1331(37) 0.000730 724. 1409.
1394(38) 0.000696 723. 1564.
1468(39) 0.000661 722. 1567.
1385(38) 0.000704 722. 1420.
1361(37) 0.000715 721. 1208.
1221(36) 0.000793 721. 1019.
1129(34) 0.000860 720.0 891.6
951(31) 0.001021 719.4 821.0
912(31) 0.001068 718.9 793.0
862(30) 0.001126 718.3 814.4
870(30) 0.001119 717.7 950.8
1359(37) 0.000715 717. 1365.
2410(50) 0.000403 717. 2277.
3830(63) 0.0002536 716. 3738.
5487(75) 0.0001768 715. 5335.
6377(81) 0.0001520 715. 6260.
6312(81) 0.0001539 714. 5946.
5049(72) 0.0001924 714. 4632.
3589(61) 0.0002705 713. 3118.
2214(48) 0.000438 713. 2045.
1591(41) 0.000610 712. 1563.
1483(39) 0.000654 712. 1534.
1860(44) 0.000521 711. 1807.
2270(48) 0.000427 711. 2259.
2556(51) 0.000380 710. 2690.
2885(55) 0.0003367 709. 2850.
2627(52) 0.000370 709. 2659.
2475(51) 0.000392 708. 2287.
2073(46) 0.000469 708. 1952.
1685(42) 0.000578 707. 1721.
1430(38) 0.000678 707. 1532.
1207(35) 0.000803 706. 1319.
981(32) 0.000989 705.7 1093.8
908(31) 0.001068 705.2 910.4
822(29) 0.001181 704.7 796.5
809(29) 0.001206 704.2 742.0
757(28) 0.001285 703.7 721.1
779(28) 0.001249 703.2 714.4
794(29) 0.001223 702.7 711.7
718(27) 0.001352 702.1 710.2
745(28) 0.001303 701.6 708.2
724(27) 0.001342 701.1 707.3
772(28) 0.001257 700.6 706.5
737(28) 0.001322 700.1 705.8
739(28) 0.001313 699.6 705.2
738(28) 0.001313 699.1 704.7
771(28) 0.001257 698.7 704.4
787(29) 0.001231 698.2 704.1
785(28) 0.001240 697.7 704.0
711(27) 0.001362 697.2 704.0
775(28) 0.001249 696.7 704.5
779(28) 0.001249 696.2 705.3
731(28) 0.001322 695.7 707.8
803(29) 0.001206 695.3 712.9
744(28) 0.001303 694.8 725.1
760(28) 0.001276 694.3 751.4
796(29) 0.001214 693.8 799.1
873(30) 0.001111 693.4 869.2
867(30) 0.001119 692.9 948.6
924(31) 0.001047 692.4 1006.7
942(31) 0.001027 692.0 1013.8
929(31) 0.001047 691.5 963.5
844(30) 0.001149 691.0 884.7
844(30) 0.001149 690.6 810.0
792(29) 0.001223 690.1 756.7
788(29) 0.001231 689.7 726.3
733(28) 0.001322 689.2 713.7
761(28) 0.001276 688.8 708.6
703(27) 0.001382 688.3 709.5
794(29) 0.001223 687.9 720.5
756(28) 0.001285 687.4 760.3
838(29) 0.001157 687.0 871.4
1071(33) 0.000907 686.6 1114.4
1428(38) 0.000678 686. 1519.
1813(43) 0.000536 686. 2002.
2167(47) 0.000449 685. 2352.
2139(47) 0.000455 685. 2358.
1884(44) 0.000514 684. 2015.
1502(39) 0.000647 684. 1528.
1082(33) 0.000896 683.5 1116.8
837(29) 0.001157 683.1 871.9
761(28) 0.001276 682.7 764.8
786(29) 0.001231 682.3 731.1
752(28) 0.001294 681.8 729.7
755(28) 0.001285 681.4 750.1
809(29) 0.001197 681.0 809.5
1026(33) 0.000947 680.6 949.1
1346(37) 0.000719 680. 1218.
1847(44) 0.000524 680. 1632.
2241(48) 0.000432 679. 2112.
2628(52) 0.000368 679. 2480.
2685(53) 0.000361 679. 2552.
2491(51) 0.000389 678. 2314.
2228(48) 0.000434 678. 1968.
2151(47) 0.000451 677. 1761.
1994(45) 0.000485 677. 1790.
2221(48) 0.000436 677. 1941.
2097(47) 0.000462 676. 1994.
1931(45) 0.000500 676. 1817.
1678(42) 0.000578 675. 1481.
1313(37) 0.000738 675. 1166.
963(32) 0.001008 674.6 994.1
888(30) 0.001089 674.2 965.4
879(30) 0.001104 673.9 1000.0
863(30) 0.001119 673.5 1015.3
864(30) 0.001119 673.1 986.0
904(31) 0.001068 672.7 954.1
966(32) 0.001001 672.4 984.4
1146(34) 0.000845 672.0 1109.1
1177(35) 0.000821 671.6 1300.8
1273(36) 0.000763 671. 1475.
1389(38) 0.000696 671. 1532.
1285(36) 0.000755 671. 1431.
1185(35) 0.000816 670.2 1229.5
1074(33) 0.000902 669.8 1021.6
891(30) 0.001089 669.4 865.8
794(29) 0.001223 669.1 774.9
739(28) 0.001313 668.7 735.7
716(27) 0.001352 668.4 736.9
777(28) 0.001249 668.0 786.2
922(31) 0.001047 667.7 910.6
1154(35) 0.000840 667.3 1130.0
1392(38) 0.000696 667. 1411.
1531(40) 0.000631 667. 1645.
1568(40) 0.000619 666. 1700.
1456(39) 0.000664 666. 1538.
1227(36) 0.000789 666. 1259.
1073(33) 0.000902 665.3 998.3
802(29) 0.001206 665.0 827.3
764(28) 0.001266 664.6 746.2
734(28) 0.001322 664.3 731.6
789(29) 0.001223 664.0 773.1
930(31) 0.001041 663.7 906.3
1192(35) 0.000812 663. 1230.
1788(43) 0.000541 663. 1901.
2666(53) 0.000363 663. 3013.
3790(63) 0.0002560 662. 4375.
4547(69) 0.0002125 662. 5421.
4609(69) 0.0002100 662. 5531.
4071(65) 0.0002374 661. 4607.
2878(55) 0.0003367 661. 3189.
1889(44) 0.000512 661. 1953.
1066(33) 0.000907 660.5 1218.4
829(29) 0.001173 660.2 949.2
985(32) 0.000983 659.9 995.1
1252(36) 0.000772 660. 1229.
1525(40) 0.000634 659. 1511.
1651(41) 0.000586 659. 1672.
1601(41) 0.000604 659. 1602.
1461(39) 0.000661 658. 1359.
1172(35) 0.000826 658.2 1112.4
1050(33) 0.000918 657.9 992.7
1019(32) 0.000953 657.6 1017.3
1050(33) 0.000924 657.3 1118.5
1169(35) 0.000826 657.1 1203.0
1163(35) 0.000831 656.8 1217.2
1156(35) 0.000835 656.5 1214.7
1319(37) 0.000734 656. 1357.
1792(43) 0.000541 656. 1804.
2482(51) 0.000389 656. 2534.
3037(56) 0.0003189 655. 3226.
3233(58) 0.0002993 655. 3433.
2882(55) 0.0003354 655. 2984.
2187(48) 0.000441 655. 2168.
1537(40) 0.000631 654. 1422.
962(32) 0.001008 654.1 968.3
802(29) 0.001206 653.9 787.4
753(28) 0.001285 653.6 781.7
913(31) 0.001061 653.4 896.8
1086(34) 0.000891 653.1 1107.0
1346(37) 0.000719 653. 1350.
1537(40) 0.000628 653. 1510.
1606(41) 0.000601 652. 1494.
1462(39) 0.000664 652. 1311.
1078(33) 0.000896 651.9 1065.7
862(30) 0.001126 651.7 862.5
809(29) 0.001197 651.4 740.6
749(28) 0.001294 651.2 684.7
702(27) 0.001382 651.0 664.4
684(27) 0.001413 650.8 658.4
681(27) 0.001413 650.5 656.8
687(27) 0.001403 650.3 657.4
719(27) 0.001352 650.1 657.6
670(26) 0.001446 649.9 658.3
647(26) 0.001491 649.7 660.2
696(27) 0.001392 649.4 664.7
657(26) 0.001479 649.2 675.7
727(27) 0.001332 649.0 699.0
746(28) 0.001294 648.8 741.1
818(29) 0.001181 648.6 802.8
894(30) 0.001082 648.4 873.4
903(31) 0.001068 648.2 931.1
970(32) 0.001001 648.0 959.5
965(32) 0.001001 647.8 974.9
1030(33) 0.000941 647.6 1020.5
1092(34) 0.000886 647.4 1115.5
1148(34) 0.000845 647.2 1219.2
1148(34) 0.000845 647.0 1251.2
1077(33) 0.000902 646.8 1166.9
980(32) 0.000989 646.6 1007.0
850(30) 0.001134 646.5 849.5
750(28) 0.001294 646.3 741.7
673(26) 0.001435 646.1 686.1
678(27) 0.001424 645.9 663.3
674(26) 0.001435 645.8 655.2
656(26) 0.001479 645.6 652.2
678(27) 0.001424 645.4 650.8
621(25) 0.001550 645.2 649.8
677(27) 0.001424 645.1 649.1
674(26) 0.001435 644.9 648.7
700(27) 0.001382 644.8 648.4
707(27) 0.001372 644.6 649.2
693(27) 0.001403 644.4 650.6
718(27) 0.001352 644.3 652.1
746(28) 0.001303 644.1 653.2
758(28) 0.001276 644.0 652.1
645(26) 0.001502 643.8 650.2
643(26) 0.001502 643.7 648.4
670(26) 0.001446 643.5 647.1
679(27) 0.001424 643.4 646.4
681(27) 0.001424 643.2 646.1
674(26) 0.001435 643.1 646.0
693(27) 0.001392 643.0 646.0
651(26) 0.001479 642.8 646.0
651(26) 0.001479 642.7 646.1
660(26) 0.001468 642.6 646.3
643(26) 0.001502 642.4 647.4
666(26) 0.001446 642.3 651.8
707(27) 0.001362 642.2 667.5
750(28) 0.001285 642.1 712.0
825(29) 0.001173 641.9 806.6
1026(33) 0.000941 641.8 952.2
1084(34) 0.000891 641.7 1101.9
1170(35) 0.000826 641.6 1173.6
1105(34) 0.000875 641.5 1119.4
1006(32) 0.000964 641.4 975.3
881(30) 0.001096 641.3 824.8
733(28) 0.001322 641.2 722.8
640(26) 0.001514 641.1 673.9
688(27) 0.001403 641.0 657.3
650(26) 0.001491 640.9 653.7
633(26) 0.001526 640.8 654.4
669(26) 0.001446 640.7 656.6
692(27) 0.001392 640.6 660.2
638(26) 0.001514 640.5 667.5
645(26) 0.001502 640.4 684.7
656(26) 0.001468 640.3 726.3
791(29) 0.001223 640.2 817.4
1045(33) 0.000924 640.1 984.0
1315(37) 0.000734 640. 1228.
1512(40) 0.000641 640. 1499.
1703(42) 0.000567 640. 1700.
1692(42) 0.000570 640. 1735.
1615(41) 0.000598 640. 1588.
1425(38) 0.000678 640. 1335.
1166(35) 0.000831 639.6 1082.0
910(31) 0.001061 639.5 890.6
809(29) 0.001197 639.5 772.1
706(27) 0.001362 639.4 709.5
674(26) 0.001435 639.4 680.7
625(25) 0.001550 639.3 670.7
649(26) 0.001491 639.2 677.4
706(27) 0.001372 639.2 714.5
859(30) 0.001126 639.1 808.8
1078(33) 0.000896 639.1 976.0
1273(36) 0.000759 639. 1183.
1492(39) 0.000647 639. 1349.
1584(41) 0.000610 639. 1420.
1588(41) 0.000610 639. 1437.
1579(40) 0.000613 639. 1475.
1554(40) 0.000622 639. 1517.
1450(39) 0.000668 639. 1468.
1300(37) 0.000742 639. 1286.
1046(33) 0.000924 638.7 1042.5
841(30) 0.001149 638.7 839.2
690(27) 0.001403 638.6 721.0
667(26) 0.001446 638.6 670.9
686(27) 0.001403 638.6 655.2
615(25) 0.001562 638.6 652.2
648(26) 0.001491 638.5 654.9
623(25) 0.001550 638.5 667.8
666(26) 0.001446 638.5 708.9
780(28) 0.001240 638.5 814.8
1013(32) 0.000953 638.5 1029.2
1284(37) 0.000751 638. 1368.
1596(41) 0.000607 638. 1786.
2022(46) 0.000477 638. 2192.
2271(49) 0.000425 638. 2495.
2380(50) 0.000405 638. 2628.
2320(49) 0.000415 638. 2546.
2158(47) 0.000447 638. 2289.
1987(45) 0.000487 638. 1985.
1734(42) 0.000556 638. 1755.
1834(44) 0.000526 638. 1604.
1535(40) 0.000628 638. 1466.
1400(38) 0.000689 638. 1302.
1239(36) 0.000780 638. 1117.
1017(33) 0.000947 638.4 949.4
837(30) 0.001149 638.4 836.5
764(28) 0.001266 638.4 789.8
743(28) 0.001303 638.4 791.8
818(29) 0.001181 638.5 810.3
817(29) 0.001181 638.5 817.3
729(28) 0.001322 638.5 813.0
767(28) 0.001257 638.5 828.1
921(31) 0.001047 638.5 911.3
1165(35) 0.000831 638.6 1110.8
1542(40) 0.000628 639. 1444.
1828(44) 0.000528 639. 1863.
2151(47) 0.000449 639. 2242.
2274(49) 0.000425 639. 2423.
2209(48) 0.000438 639. 2330.
2027(46) 0.000477 639. 2072.
1768(43) 0.000546 639. 1845.
1678(42) 0.000575 639. 1770.
1711(42) 0.000564 639. 1830.
1799(43) 0.000536 639. 1897.
1802(43) 0.000536 639. 1829.
1549(40) 0.000622 639. 1583.
1234(36) 0.000780 639. 1253.
906(31) 0.001068 639.0 965.8
736(28) 0.001313 639.1 786.9
670(26) 0.001446 639.1 702.7
609(25) 0.001587 639.2 671.9
639(26) 0.001514 639.2 662.8
650(26) 0.001479 639.3 661.0
620(25) 0.001550 639.3 663.2
623(25) 0.001550 639.4 671.2
643(26) 0.001502 639.4 691.6
672(26) 0.001435 639.5 736.8
826(29) 0.001165 639.5 824.8
968(32) 0.000995 639.6 967.7
1161(35) 0.000831 639.6 1149.5
1387(38) 0.000696 640. 1312.
1413(38) 0.000682 640. 1377.
1387(38) 0.000696 640. 1301.
1223(36) 0.000789 640. 1126.
1010(32) 0.000953 639.9 940.9
780(28) 0.001240 640.0 806.0
688(27) 0.001403 640.1 735.3
694(27) 0.001392 640.1 714.3
719(27) 0.001342 640.2 724.0
728(28) 0.001322 640.3 749.4
684(27) 0.001413 640.3 779.3
738(28) 0.001303 640.4 808.0
803(29) 0.001197 640.5 846.7
932(31) 0.001034 640.6 926.6
1146(35) 0.000840 640.6 1078.2
1331(37) 0.000723 641. 1293.
1645(41) 0.000586 641. 1513.
1776(43) 0.000543 641. 1637.
1759(43) 0.000548 641. 1608.
1554(40) 0.000619 641. 1450.
1285(37) 0.000751 641. 1234.
1040(33) 0.000930 641.2 1036.0
808(29) 0.001189 641.3 905.1
729(28) 0.001322 641.4 854.4
765(28) 0.001257 641.4 877.7
909(31) 0.001061 641.5 985.4
1410(38) 0.000685 642. 1222.
1924(45) 0.000500 642. 1635.
2437(50) 0.000395 642. 2204.
3018(56) 0.0003200 642. 2786.
3577(61) 0.0002696 642. 3129.
3378(59) 0.0002853 642. 3030.
2920(55) 0.0003306 642. 2546.
2324(49) 0.000415 642. 1931.
1757(43) 0.000548 642. 1403.
1140(34) 0.000845 642.4 1056.9
788(29) 0.001223 642.5 899.1
802(29) 0.001197 642.6 923.6
1091(34) 0.000886 642.7 1169.8
1769(43) 0.000543 643. 1688.
2697(53) 0.000357 643. 2407.
3187(58) 0.0003025 643. 3037.
3617(61) 0.0002661 643. 3212.
3213(58) 0.0002993 643. 2809.
2433(50) 0.000397 643. 2080.
1599(41) 0.000604 643. 1398.
946(31) 0.001014 643.5 964.1
702(27) 0.001372 643.6 761.9
674(27) 0.001424 643.7 690.3
634(26) 0.001514 643.8 670.1
629(26) 0.001526 643.9 665.1
694(27) 0.001392 644.0 663.7
664(26) 0.001457 644.1 670.6
623(25) 0.001550 644.2 671.8
621(25) 0.001550 644.3 674.0
632(26) 0.001526 644.4 678.2
638(26) 0.001514 644.5 688.2
669(26) 0.001435 644.6 715.1
699(27) 0.001372 644.7 785.2
819(29) 0.001173 644.8 945.3
1174(35) 0.000816 644.9 1254.4
1472(39) 0.000654 645. 1758.
2337(49) 0.000411 645. 2459.
3133(57) 0.0003067 645. 3307.
4016(65) 0.0002396 645. 4182.
4650(70) 0.0002064 645. 4873.
4959(72) 0.0001940 646. 5121.
4726(70) 0.0002041 646. 4788.
4049(65) 0.0002374 646. 3965.
2936(55) 0.0003282 646. 2939.
2097(47) 0.000459 646. 2028.
1422(39) 0.000675 646. 1389.
1018(33) 0.000941 646.1 1022.7
764(28) 0.001257 646.2 852.8
769(28) 0.001249 646.4 797.0
769(28) 0.001249 646.5 795.6
774(28) 0.001240 646.6 809.2
840(30) 0.001141 646.7 812.2
769(28) 0.001249 646.8 796.2
761(28) 0.001266 646.9 770.2
742(28) 0.001294 647.0 755.2
706(27) 0.001362 647.1 766.4
703(27) 0.001362 647.2 805.3
767(28) 0.001249 647.3 854.9
802(29) 0.001197 647.4 884.0
791(29) 0.001214 647.5 874.2
766(28) 0.001257 647.6 830.9
711(27) 0.001352 647.7 781.6
683(27) 0.001403 647.8 748.3
686(27) 0.001403 647.9 748.0
757(28) 0.001266 648.0 796.4
963(32) 0.000995 648.1 906.5
1220(36) 0.000789 648. 1067.
1362(38) 0.000707 648. 1222.
1489(39) 0.000644 648. 1292.
1433(39) 0.000671 649. 1238.
1260(36) 0.000763 649. 1110.
1055(33) 0.000907 648.7 1009.1
1011(33) 0.000947 648.8 1024.1
1305(37) 0.000738 649. 1208.
1604(41) 0.000598 649. 1560.
2086(47) 0.000460 649. 1982.
2419(50) 0.000397 649. 2279.
2434(50) 0.000394 649. 2268.
2135(47) 0.000449 649. 1948.
1657(42) 0.000581 650. 1496.
1220(36) 0.000789 650. 1106.
898(31) 0.001068 649.7 862.8
695(27) 0.001382 649.8 748.6
631(26) 0.001526 649.9 709.7
689(27) 0.001392 650.0 703.4
651(26) 0.001479 650.1 706.8
697(27) 0.001382 650.2 711.0
711(27) 0.001352 650.3 718.6
726(28) 0.001322 650.4 746.0
778(29) 0.001231 650.5 822.0
874(30) 0.001096 650.5 984.2
1275(36) 0.000755 651. 1275.
1904(45) 0.000503 651. 1720.
2527(51) 0.000380 651. 2256.
3153(57) 0.0003046 651. 2677.
3302(59) 0.0002902 651. 2722.
2788(54) 0.0003442 651. 2325.
2118(47) 0.000453 651. 1710.
1445(39) 0.000664 651. 1179.
904(31) 0.001061 651.3 863.6
704(27) 0.001362 651.4 728.3
639(26) 0.001502 651.5 684.0
647(26) 0.001479 651.6 671.5
629(26) 0.001526 651.6 667.8
654(26) 0.001468 651.7 667.2
630(26) 0.001526 651.8 671.0
651(26) 0.001468 651.9 688.8
702(27) 0.001362 652.0 740.9
774(28) 0.001240 652.0 877.1
1103(34) 0.000870 652.1 1163.5
1624(41) 0.000592 652. 1641.
2230(48) 0.000430 652. 2255.
2966(56) 0.0003235 652. 2827.
3202(58) 0.0003004 652. 3114.
3002(56) 0.0003200 652. 2971.
2559(52) 0.000374 653. 2459.
1953(45) 0.000492 653. 1822.
1349(38) 0.000711 653. 1308.
1006(32) 0.000953 652.7 1034.5
1003(32) 0.000959 652.8 989.8
1152(35) 0.000831 652.9 1097.7
1384(38) 0.000693 653. 1267.
1487(39) 0.000644 653. 1406.
1507(40) 0.000638 653. 1449.
1446(39) 0.000664 653. 1387.
1359(38) 0.000707 653. 1275.
1360(38) 0.000704 653. 1233.
1614(41) 0.000595 653. 1397.
1996(46) 0.000481 653. 1813.
2501(51) 0.000383 653. 2323.
2753(54) 0.0003481 653. 2608.
2655(53) 0.000361 654. 2455.
2130(47) 0.000451 654. 1980.
1676(42) 0.000572 654. 1500.
1292(37) 0.000742 654. 1228.
1225(36) 0.000780 654. 1169.
1305(37) 0.000734 654. 1234.
1420(39) 0.000675 654. 1345.
1530(40) 0.000625 654. 1430.
1501(40) 0.000638 654. 1413.
1363(38) 0.000704 654. 1267.
1183(35) 0.000812 654. 1051.
915(31) 0.001047 654.0 860.2
734(28) 0.001303 654.0 744.3
699(27) 0.001372 654.1 695.6
656(26) 0.001457 654.1 686.1
624(26) 0.001538 654.1 696.4
625(26) 0.001538 654.2 716.5
648(26) 0.001479 654.2 740.7
677(27) 0.001413 654.2 764.6
714(27) 0.001342 654.2 786.4
740(28) 0.001294 654.3 808.6
725(28) 0.001322 654.3 832.6
779(29) 0.001231 654.3 860.4
786(29) 0.001223 654.3 882.4
820(29) 0.001165 654.4 906.0
906(31) 0.001054 654.4 953.2
983(32) 0.000977 654.4 1040.2
1078(34) 0.000891 654.4 1150.1
1213(36) 0.000789 654. 1227.
1213(36) 0.000789 654. 1216.
1180(35) 0.000812 654. 1114.
1037(33) 0.000924 654.5 973.5
864(30) 0.001111 654.5 850.3
715(27) 0.001342 654.5 773.6
665(26) 0.001446 654.5 738.1
632(26) 0.001514 654.5 723.0
644(26) 0.001491 654.5 711.5
591(25) 0.001626 654.5 698.8
637(26) 0.001502 654.5 687.5
629(26) 0.001526 654.5 680.2
643(26) 0.001491 654.5 678.2
648(26) 0.001479 654.5 682.8
623(26) 0.001538 654.5 698.6
727(28) 0.001313 654.5 736.0
741(28) 0.001294 654.5 809.4
922(31) 0.001041 654.5 926.7
1065(33) 0.000902 654.5 1074.3
1164(35) 0.000821 654.5 1207.3
1260(36) 0.000759 654. 1262.
1192(35) 0.000803 654. 1206.
1132(34) 0.000845 654.4 1073.6
941(31) 0.001021 654.4 930.5
835(30) 0.001149 654.4 823.9
741(28) 0.001294 654.4 770.5
728(28) 0.001313 654.3 765.2
795(29) 0.001206 654.3 794.2
819(29) 0.001173 654.3 842.0
827(29) 0.001157 654.3 894.4
887(30) 0.001082 654.2 945.2
1074(34) 0.000891 654.2 1000.6
1143(35) 0.000840 654.2 1063.5
1117(34) 0.000855 654.2 1105.7
1131(34) 0.000845 654.1 1083.4
944(31) 0.001014 654.1 989.1
847(30) 0.001134 654.0 865.7
737(28) 0.001303 654.0 765.6
717(27) 0.001332 654.0 712.5
699(27) 0.001372 653.9 704.4
698(27) 0.001372 653.9 728.5
790(29) 0.001214 653.8 766.1
750(28) 0.001276 653.8 795.0
793(29) 0.001206 653.8 797.9
774(28) 0.001240 653.7 776.0
769(28) 0.001249 653.7 744.3
669(26) 0.001435 653.6 716.2
650(26) 0.001468 653.6 697.1
667(26) 0.001435 653.5 688.6
683(27) 0.001403 653.4 693.5
777(29) 0.001231 653.4 715.8
771(28) 0.001240 653.3 753.9
845(30) 0.001134 653.3 794.3
856(30) 0.001119 653.2 816.1
837(30) 0.001141 653.1 808.2
768(28) 0.001249 653.1 781.1
778(29) 0.001231 653.0 757.1
715(27) 0.001342 653.0 753.5
695(27) 0.001382 652.9 783.3
804(29) 0.001189 652.8 874.7
1169(35) 0.000816 652.7 1085.8
1604(41) 0.000595 653. 1468.
2210(48) 0.000434 653. 1974.
2738(54) 0.0003494 653. 2401.
2942(55) 0.0003258 652. 2517.
2635(53) 0.000363 652. 2266.
2175(48) 0.000440 652. 1822.
1690(42) 0.000567 652. 1419.
1267(36) 0.000755 652. 1189.
1268(36) 0.000755 652. 1140.
1322(37) 0.000723 652. 1205.
1351(38) 0.000711 652. 1298.
1476(39) 0.000654 652. 1344.
1430(38) 0.000682 652. 1307.
1321(37) 0.000742 652. 1200.
1179(35) 0.000835 651.5 1071.7
1002(32) 0.000995 651.4 974.8
852(29) 0.001173 651.3 946.1
878(30) 0.001141 651.2 991.1
956(31) 0.001068 651.2 1082.8
1045(32) 0.000989 651.1 1173.2
1053(32) 0.000989 651.0 1220.6
1139(33) 0.000930 650.9 1211.0
995(31) 0.001075 650.8 1163.5
955(30) 0.001134 650.7 1104.8
982(30) 0.001111 650.6 1042.3
963(30) 0.001149 650.4 974.6
1017(30) 0.001096 650.3 912.5
1009(30) 0.001119 650.2 877.1
1134(32) 0.001008 650.1 887.2
1133(31) 0.001014 650.0 948.8
1241(33) 0.000941 649.9 1046.6
1346(34) 0.000870 649.8 1139.2
1385(34) 0.000845 649.7 1173.0
1352(34) 0.000870 649.6 1125.1
1273(33) 0.000930 649.5 1029.3
1137(31) 0.001047 649.3 937.6
964(29) 0.001231 649.2 882.7
969(29) 0.001231 649.1 880.4
1044(30) 0.001149 649.0 948.6
1227(32) 0.000983 648.9 1099.8
1535(36) 0.000785 649. 1299.
1606(36) 0.000755 649. 1448.
1555(36) 0.000776 649. 1446.
1437(34) 0.000845 648.4 1283.1
1165(31) 0.001041 648.3 1051.7
908(27) 0.001342 648.1 854.1
739(25) 0.001652 648.0 734.5
650(23) 0.001874 647.9 680.3
642(23) 0.001907 647.8 660.9
660(23) 0.001858 647.6 655.5
661(23) 0.001858 647.5 655.4
618(22) 0.001993 647.4 657.0
630(23) 0.001958 647.2 663.3
587(22) 0.002104 647.1 679.9
728(24) 0.001694 647.0 712.2
733(24) 0.001680 646.8 758.5
854(26) 0.001446 646.7 803.8
901(27) 0.001372 646.6 827.6
922(27) 0.001342 646.4 822.2
932(27) 0.001332 646.3 803.4
836(26) 0.001491 646.1 797.0
883(27) 0.001403 646.0 820.5
932(27) 0.001342 645.9 880.5
1089(30) 0.001141 645.7 979.3
1138(30) 0.001096 645.6 1108.7
1285(32) 0.000970 645.4 1230.4
1253(32) 0.000995 645.3 1279.2
1269(32) 0.000983 645.1 1216.1
1075(29) 0.001165 645.0 1078.5
937(27) 0.001342 644.8 953.6
908(27) 0.001382 644.7 921.3
983(28) 0.001276 644.6 1014.8
1176(31) 0.001068 644.4 1195.5
1245(32) 0.001008 644.3 1354.9
1263(32) 0.000995 644.1 1379.3
1155(30) 0.001089 644.0 1249.3
1035(29) 0.001214 643.8 1062.4
935(27) 0.001352 643.7 951.0
981(28) 0.001285 643.5 1012.4
1298(32) 0.000970 643.4 1280.6
1676(36) 0.000755 643. 1701.
2178(42) 0.000581 643. 2112.
2422(44) 0.000524 643. 2313.
2278(42) 0.000556 643. 2215.
2057(40) 0.000616 643. 1905.
1683(37) 0.000751 642. 1534.
1261(32) 0.001008 642.3 1202.4
1022(28) 0.001240 642.1 950.7
762(25) 0.001666 642.0 788.0
703(24) 0.001811 641.8 701.5
635(22) 0.002011 641.7 664.7
637(22) 0.001993 641.5 652.7
611(22) 0.002085 641.3 649.0
691(23) 0.001842 641.2 647.8
618(22) 0.002066 641.0 647.2
653(23) 0.001958 640.9 646.9
593(22) 0.002163 640.7 646.8
651(23) 0.001958 640.6 646.8
592(22) 0.002163 640.4 647.0
623(22) 0.002047 640.2 647.8
624(22) 0.002047 640.1 650.5
638(22) 0.002011 639.9 659.7
666(23) 0.001924 639.8 685.4
703(23) 0.001826 639.6 743.7
745(24) 0.001722 639.4 846.1
842(26) 0.001526 639.3 979.5
926(27) 0.001382 639.1 1094.8
1014(28) 0.001266 639.0 1130.7
950(27) 0.001352 638.8 1065.6
803(25) 0.001600 638.6 942.5
777(25) 0.001652 638.5 828.8
729(24) 0.001765 638.3 772.8
724(24) 0.001780 638.2 792.7
864(26) 0.001491 638.0 888.1
943(27) 0.001362 637.8 1040.8
1123(30) 0.001149 637.7 1209.6
1204(31) 0.001068 637.5 1335.8
1277(32) 0.001008 637.3 1378.3
1312(32) 0.000983 637.2 1348.8
1189(30) 0.001082 637.0 1276.8
1149(30) 0.001126 636.9 1166.6
1063(29) 0.001214 636.7 1021.7
864(26) 0.001491 636.5 872.7
760(24) 0.001708 636.4 757.9
692(23) 0.001874 636.2 691.3
617(22) 0.002104 636.1 662.0
614(22) 0.002104 635.9 652.0
631(22) 0.002047 635.7 650.1
622(22) 0.002085 635.6 654.8
625(22) 0.002085 635.4 675.3
707(23) 0.001842 635.3 736.8
887(26) 0.001468 635.1 880.1
1199(30) 0.001082 635.0 1126.0
1425(33) 0.000913 634.8 1433.8
1673(36) 0.000776 635. 1679.
1889(38) 0.000689 634. 1732.
1655(36) 0.000785 634. 1574.
1440(33) 0.000902 634.2 1318.4
1169(30) 0.001111 634.0 1098.3
952(27) 0.001372 633.9 966.8
834(25) 0.001562 633.7 904.5
853(26) 0.001526 633.5 875.1
826(25) 0.001575 633.4 867.9
890(26) 0.001468 633.2 902.7
972(27) 0.001342 633.1 999.5
1128(29) 0.001157 632.9 1142.5
1226(31) 0.001068 632.8 1270.4
1302(32) 0.001001 632.6 1309.0
1233(31) 0.001061 632.5 1232.4
1155(30) 0.001134 632.3 1081.5
956(27) 0.001362 632.2 921.3
822(25) 0.001587 632.0 802.1
778(24) 0.001680 631.9 743.8
734(24) 0.001780 631.7 741.4
801(25) 0.001639 631.6 775.3
838(25) 0.001562 631.4 822.1
880(26) 0.001491 631.3 854.2
848(26) 0.001538 631.1 850.8
870(26) 0.001502 631.0 816.9
782(24) 0.001680 630.8 779.4
766(24) 0.001708 630.7 769.1
774(24) 0.001694 630.6 808.4
898(26) 0.001457 630.4 898.8
944(27) 0.001392 630.3 1008.5
1034(28) 0.001266 630.1 1079.2
968(27) 0.001352 630.0 1063.4
907(26) 0.001446 629.8 966.2
812(25) 0.001613 629.7 839.7
720(23) 0.001826 629.6 736.2
666(23) 0.001975 629.4 675.2
622(22) 0.002104 629.3 648.0
630(22) 0.002085 629.2 638.7
598(21) 0.002204 629.0 636.2
649(22) 0.002029 628.9 636.1
624(22) 0.002104 628.8 637.7
638(22) 0.002066 628.6 643.7
650(22) 0.002029 628.5 663.5
717(23) 0.001842 628.4 717.5
830(25) 0.001587 628.2 834.5
1157(30) 0.001134 628.1 1028.1
1367(32) 0.000964 628.0 1262.1
1690(36) 0.000780 628. 1441.
1782(37) 0.000738 628. 1466.
1641(35) 0.000803 628. 1326.
1336(32) 0.000989 627.5 1111.0
1050(28) 0.001257 627.3 926.9
888(26) 0.001491 627.2 821.8
817(25) 0.001613 627.1 779.6
828(25) 0.001600 627.0 761.7
806(25) 0.001639 626.9 739.1
759(24) 0.001736 626.7 709.9
697(23) 0.001890 626.6 682.6
691(23) 0.001907 626.5 663.6
633(22) 0.002085 626.4 654.4
656(22) 0.002011 626.3 652.7
692(23) 0.001907 626.2 655.5
716(23) 0.001842 626.1 662.8
745(24) 0.001780 625.9 684.3
738(24) 0.001795 625.8 747.1
851(25) 0.001550 625.7 904.1
1136(29) 0.001165 625.6 1214.1
1598(35) 0.000831 625.5 1674.7
2041(39) 0.000647 625. 2150.
2328(42) 0.000570 625. 2402.
2211(41) 0.000598 625. 2277.
1848(37) 0.000715 625. 1856.
1402(33) 0.000947 625.0 1383.1
999(28) 0.001322 624.9 1068.5
893(26) 0.001479 624.8 985.9
1054(28) 0.001257 624.7 1096.5
1265(31) 0.001047 624.6 1313.6
1442(33) 0.000918 624.5 1524.1
1508(34) 0.000881 624.4 1625.7
1436(33) 0.000924 624.3 1586.4
1391(32) 0.000953 624.2 1440.2
1223(30) 0.001082 624.2 1260.4
1090(29) 0.001214 624.1 1097.2
990(27) 0.001342 624.0 971.0
896(26) 0.001479 623.9 887.0
891(26) 0.001491 623.8 841.6
828(25) 0.001600 623.7 818.9
785(24) 0.001694 623.7 797.6
764(24) 0.001736 623.6 774.6
742(24) 0.001795 623.5 782.7
864(26) 0.001538 623.4 896.4
1179(30) 0.001126 623.3 1223.4
1693(36) 0.000785 623. 1836.
2435(43) 0.000546 623. 2645.
3017(48) 0.000440 623. 3332.
3348(50) 0.000397 623. 3520.
2866(47) 0.000462 623. 3091.
2295(42) 0.000578 623. 2304.
1618(35) 0.000821 622.8 1547.6
1024(28) 0.001294 622.8 1049.0
788(24) 0.001694 622.7 814.7
704(23) 0.001890 622.7 749.9
774(24) 0.001722 622.6 768.3
828(25) 0.001600 622.5 818.4
865(26) 0.001538 622.5 869.4
909(26) 0.001457 622.4 906.9
900(26) 0.001479 622.4 942.4
903(26) 0.001468 622.3 1011.1
982(27) 0.001352 622.2 1146.4
1216(30) 0.001096 622.2 1353.3
1363(32) 0.000977 622.1 1599.0
1601(35) 0.000831 622.1 1838.1
1776(37) 0.000751 622. 2016.
2077(40) 0.000641 622. 2149.
2244(41) 0.000592 622. 2298.
2393(42) 0.000556 622. 2488.
2451(43) 0.000543 622. 2643.
2536(44) 0.000524 622. 2638.
2344(42) 0.000570 622. 2399.
2045(39) 0.000651 622. 2005.
1757(36) 0.000759 622. 1615.
1442(33) 0.000924 621.7 1350.1
1261(31) 0.001054 621.6 1277.2
1346(32) 0.000989 621.6 1414.8
1680(36) 0.000793 622. 1733.
2137(40) 0.000622 622. 2148.
2595(44) 0.000514 622. 2522.
2763(46) 0.000483 622. 2723.
2726(45) 0.000489 621. 2728.
2638(45) 0.000505 621. 2719.
2955(47) 0.000451 621. 2967.
3544(52) 0.000377 621. 3620.
4419(58) 0.0003014 621. 4520.
5135(62) 0.0002593 621. 5199.
5207(63) 0.0002560 621. 5176.
4382(57) 0.0003046 621. 4380.
3368(50) 0.000397 621. 3223.
2334(42) 0.000572 621. 2217.
1504(34) 0.000886 621.3 1602.3
1211(30) 0.001104 621.3 1307.9
1111(29) 0.001197 621.3 1155.3
1010(28) 0.001322 621.3 1031.6
935(27) 0.001424 621.3 922.8
858(25) 0.001550 621.3 859.4
850(25) 0.001575 621.3 880.4
899(26) 0.001491 621.3 1056.8
1510(34) 0.000886 621.3 1533.7
2572(44) 0.000519 621. 2484.
3791(53) 0.000352 621. 3905.
5180(62) 0.0002576 621. 5425.
6315(69) 0.0002113 621. 6455.
6589(70) 0.0002023 621. 6662.
6248(68) 0.0002137 621. 6197.
5340(63) 0.0002504 621. 5357.
4238(56) 0.0003155 621. 4276.
3018(48) 0.000441 621. 3082.
2073(39) 0.000644 621. 2023.
1362(32) 0.000983 621.3 1308.8
912(26) 0.001468 621.3 945.6
747(24) 0.001780 621.4 809.8
665(22) 0.002011 621.4 778.3
715(23) 0.001874 621.4 793.7
797(24) 0.001680 621.4 856.6
1046(28) 0.001276 621.4 997.4
1378(32) 0.000970 621.5 1250.3
1749(36) 0.000763 621. 1619.
2218(41) 0.000604 622. 2046.
2483(43) 0.000538 622. 2406.
2701(45) 0.000494 622. 2557.
2806(46) 0.000477 622. 2499.
2860(46) 0.000466 622. 2423.
3018(48) 0.000443 622. 2508.
3119(48) 0.000429 622. 2726.
3060(48) 0.000436 622. 2853.
2819(46) 0.000475 622. 2667.
2295(42) 0.000581 622. 2173.
1792(37) 0.000747 622. 1588.
1261(31) 0.001061 621.9 1125.9
925(26) 0.001446 621.9 860.3
792(24) 0.001694 622.0 746.6
810(25) 0.001652 622.0 711.0
788(24) 0.001694 622.0 701.9
726(23) 0.001842 622.1 696.2
744(24) 0.001795 622.1 692.1
690(23) 0.001941 622.2 709.3
774(24) 0.001722 622.2 801.1
1064(28) 0.001257 622.3 1067.3
1706(36) 0.000785 622. 1624.
2815(46) 0.000475 622. 2490.
3649(52) 0.000367 622. 3456.
4317(57) 0.0003100 622. 4134.
4398(57) 0.0003035 623. 4233.
3986(55) 0.0003354 623. 3789.
3205(49) 0.000416 623. 3064.
2310(42) 0.000578 623. 2311.
1595(35) 0.000840 622.8 1668.5
1242(31) 0.001075 622.8 1200.6
949(27) 0.001413 622.9 915.4
785(24) 0.001708 622.9 775.7
776(24) 0.001722 623.0 723.2
755(24) 0.001765 623.1 709.8
800(25) 0.001666 623.1 708.9
848(25) 0.001575 623.2 714.8
807(25) 0.001652 623.3 734.8
894(26) 0.001491 623.3 782.1
1056(28) 0.001266 623.4 861.4
1098(29) 0.001214 623.5 962.8
1208(30) 0.001104 623.5 1055.6
1252(31) 0.001068 623.6 1099.4
1184(30) 0.001134 623.7 1073.8
1050(28) 0.001276 623.7 998.5
1015(28) 0.001322 623.8 909.4
882(26) 0.001514 623.9 836.8
852(25) 0.001575 624.0 790.7
820(25) 0.001626 624.0 776.8
935(26) 0.001435 624.1 798.9
971(27) 0.001382 624.2 860.7
1081(28) 0.001240 624.3 961.6
1188(30) 0.001126 624.3 1095.4
1361(32) 0.000983 624.4 1253.1
1462(33) 0.000913 624.5 1418.9
1575(34) 0.000850 624.6 1561.2
1549(34) 0.000865 624.6 1641.6
1562(34) 0.000855 624.7 1643.8
1549(34) 0.000865 624.8 1639.6
1746(36) 0.000767 625. 1745.
1977(38) 0.000678 625. 2005.
2291(41) 0.000583 625. 2335.
2534(44) 0.000528 625. 2580.
2620(44) 0.000510 625. 2625.
2390(42) 0.000559 625. 2456.
2134(40) 0.000628 625. 2127.
1783(37) 0.000751 625. 1721.
1375(32) 0.000970 625.6 1339.6
1109(29) 0.001206 625.7 1065.4
924(26) 0.001446 625.7 919.9
782(24) 0.001708 625.8 859.5
798(24) 0.001680 625.9 824.2
720(23) 0.001858 626.0 783.8
708(23) 0.001890 626.1 742.3
687(23) 0.001941 626.2 716.7
678(23) 0.001975 626.3 725.0
761(24) 0.001765 626.4 799.3
982(27) 0.001362 626.5 1006.5
1527(34) 0.000875 626.6 1443.2
2374(42) 0.000564 627. 2161.
3460(51) 0.000386 627. 3054.
4183(56) 0.0003200 627. 3817.
4684(59) 0.0002853 627. 4103.
4239(56) 0.0003155 627. 3795.
3551(52) 0.000377 627. 3101.
2783(46) 0.000481 627. 2323.
1920(38) 0.000696 627. 1671.
1242(31) 0.001075 627.4 1217.3
996(27) 0.001342 627.5 941.9
764(24) 0.001751 627.6 790.9
688(23) 0.001941 627.7 715.8
667(22) 0.002011 627.8 682.2
647(22) 0.002066 627.9 670.9
641(22) 0.002085 628.0 677.8
726(23) 0.001842 628.1 713.9
824(25) 0.001626 628.2 800.7
939(27) 0.001424 628.3 953.1
1205(30) 0.001111 628.4 1150.4
1397(32) 0.000959 628.4 1323.3
1529(34) 0.000875 628.5 1388.3
1488(33) 0.000896 628.6 1313.4
1194(30) 0.001119 628.7 1144.7
996(27) 0.001342 628.8 960.7
798(24) 0.001680 628.9 818.5
710(23) 0.001890 629.0 734.8
666(22) 0.002011 629.1 700.7
708(23) 0.001890 629.2 713.0
776(24) 0.001722 629.3 794.5
913(26) 0.001468 629.4 984.6
1110(29) 0.001206 629.5 1289.8
1315(31) 0.001014 629.6 1635.8
1611(35) 0.000831 629.7 1881.2
1635(35) 0.000816 629.8 1923.8
1592(35) 0.000840 629.9 1776.7
1468(33) 0.000913 630.0 1529.8
1245(31) 0.001075 630.1 1279.5
1164(30) 0.001149 630.2 1119.9
1108(29) 0.001206 630.3 1110.2
1215(30) 0.001096 630.4 1253.7
1511(34) 0.000886 630.5 1489.1
1756(36) 0.000763 631. 1716.
1926(38) 0.000693 631. 1860.
1908(38) 0.000700 631. 1870.
1802(37) 0.000742 631. 1726.
1570(34) 0.000850 630.9 1479.0
1353(32) 0.000989 631.0 1238.2
1209(30) 0.001104 631.1 1106.2
1217(30) 0.001096 631.2 1116.2
1269(31) 0.001054 631.3 1224.0
1475(33) 0.000907 631.4 1356.5
1569(34) 0.000850 631.5 1473.3
1620(35) 0.000826 631.6 1612.0
1750(36) 0.000763 632. 1835.
1880(38) 0.000711 632. 2110.
2027(39) 0.000657 632. 2290.
1864(37) 0.000715 632. 2216.
1712(36) 0.000780 632. 1891.
1369(32) 0.000977 632.1 1473.9
1060(28) 0.001257 632.2 1144.8
914(26) 0.001468 632.3 996.3
938(27) 0.001424 632.4 1022.9
1119(29) 0.001189 632.5 1152.9
1139(29) 0.001173 632.6 1283.2
1238(30) 0.001082 632.7 1325.8
1165(30) 0.001149 632.8 1262.5
1158(29) 0.001157 632.8 1153.4
1063(28) 0.001257 632.9 1073.5
1061(28) 0.001257 633.0 1057.6
1094(29) 0.001223 633.1 1094.9
1190(30) 0.001126 633.2 1164.4
1283(31) 0.001041 633.3 1258.5
1351(32) 0.000989 633.4 1370.5
1447(33) 0.000924 633.4 1469.7
1402(32) 0.000953 633.5 1500.8
1341(32) 0.000995 633.6 1426.6
1168(30) 0.001141 633.7 1261.3
969(27) 0.001382 633.8 1066.2
831(25) 0.001600 633.8 899.1
730(23) 0.001826 633.9 788.3
681(23) 0.001958 634.0 732.3
629(22) 0.002124 634.1 719.0
668(22) 0.001993 634.1 742.4
819(25) 0.001639 634.2 809.0
954(27) 0.001403 634.3 941.5
1139(29) 0.001173 634.4 1168.5
1589(35) 0.000840 634.4 1530.2
1952(38) 0.000685 635. 2032.
2528(44) 0.000528 635. 2583.
2955(47) 0.000453 635. 2989.
3002(47) 0.000445 635. 3041.
2804(46) 0.000477 635. 2674.
2171(40) 0.000616 635. 2056.
1513(34) 0.000881 634.9 1456.5
1017(28) 0.001313 635.0 1040.6
767(24) 0.001736 635.1 822.5
700(23) 0.001907 635.1 736.5
687(23) 0.001941 635.2 720.9
717(23) 0.001858 635.3 745.6
786(24) 0.001694 635.3 802.3
951(27) 0.001403 635.4 884.7
1028(28) 0.001294 635.5 974.7
1139(29) 0.001173 635.5 1046.1
1094(29) 0.001223 635.6 1092.0
1138(29) 0.001173 635.6 1167.2
1372(32) 0.000970 635.7 1381.7
1770(36) 0.000755 636. 1828.
2306(42) 0.000578 636. 2473.
2916(47) 0.000457 636. 3098.
3304(50) 0.000403 636. 3402.
3205(49) 0.000416 636. 3239.
2799(46) 0.000477 636. 2759.
2272(41) 0.000586 636. 2223.
1746(36) 0.000763 636. 1777.
1355(32) 0.000983 636.2 1432.4
1133(29) 0.001181 636.2 1168.1
957(27) 0.001392 636.3 974.3
850(25) 0.001562 636.3 848.1
744(24) 0.001795 636.4 783.6
759(24) 0.001765 636.4 769.1
765(24) 0.001751 636.5 787.7
766(24) 0.001736 636.5 817.4
774(24) 0.001722 636.5 836.9
767(24) 0.001736 636.6 834.8
784(24) 0.001694 636.6 813.5
736(24) 0.001811 636.7 784.9
727(23) 0.001842 636.7 760.0
716(23) 0.001858 636.7 741.8
730(23) 0.001826 636.8 724.8
671(22) 0.001993 636.8 706.0
672(22) 0.001993 636.9 687.2
679(23) 0.001958 636.9 671.9
647(22) 0.002066 636.9 663.0
619(22) 0.002163 637.0 663.7
668(22) 0.001993 637.0 681.6
739(24) 0.001811 637.0 729.1
875(26) 0.001526 637.0 816.7
996(27) 0.001342 637.1 942.1
1142(29) 0.001165 637.1 1087.4
1325(32) 0.001008 637.1 1237.2
1393(32) 0.000959 637.1 1388.3
1484(33) 0.000896 637.2 1522.9
1575(34) 0.000845 637.2 1584.8
1525(34) 0.000875 637.2 1516.6
1353(32) 0.000983 637.2 1336.0
1234(31) 0.001075 637.3 1131.2
1061(28) 0.001257 637.3 983.0
948(27) 0.001403 637.3 910.7
957(27) 0.001392 637.3 886.3
1028(28) 0.001294 637.3 869.7
940(27) 0.001413 637.3 835.2
895(26) 0.001491 637.3 781.5
763(24) 0.001751 637.4 726.3
699(23) 0.001907 637.4 686.1
631(22) 0.002104 637.4 665.7
608(21) 0.002184 637.4 662.0
672(22) 0.001993 637.4 671.6
633(22) 0.002104 637.4 693.6
717(23) 0.001858 637.4 726.2
762(24) 0.001751 637.4 763.1
805(25) 0.001652 637.4 791.4
807(25) 0.001652 637.4 801.3
831(25) 0.001600 637.4 800.2
849(25) 0.001562 637.4 814.8
898(26) 0.001479 637.4 870.2
1032(28) 0.001294 637.4 961.9
1014(28) 0.001313 637.4 1049.9
1087(29) 0.001223 637.4 1091.0
1131(29) 0.001181 637.4 1088.4
1117(29) 0.001189 637.4 1064.7
1080(29) 0.001231 637.4 1049.8
976(27) 0.001362 637.4 1030.9
985(27) 0.001352 637.4 982.4
870(26) 0.001538 637.4 904.7
779(24) 0.001708 637.4 823.6
756(24) 0.001765 637.4 765.4
698(23) 0.001907 637.4 746.6
746(24) 0.001780 637.3 776.6
788(24) 0.001694 637.3 867.4
989(27) 0.001352 637.3 1040.6
1303(31) 0.001021 637.3 1317.4
1615(35) 0.000826 637.3 1687.6
2086(40) 0.000638 637. 2071.
2336(42) 0.000570 637. 2316.
2245(41) 0.000592 637. 2281.
1988(39) 0.000671 637. 1978.
1551(34) 0.000860 637.2 1561.9
1131(29) 0.001181 637.2 1201.6
916(26) 0.001457 637.1 1002.7
909(26) 0.001468 637.1 1007.7
1182(30) 0.001126 637.1 1232.4
1584(35) 0.000840 637.1 1643.8
2080(40) 0.000641 637. 2112.
2338(42) 0.000570 637. 2420.
2366(42) 0.000564 637. 2389.
2070(39) 0.000644 637. 2037.
1647(35) 0.000807 637. 1562.
1150(29) 0.001157 636.9 1160.4
886(26) 0.001502 636.9 917.0
763(24) 0.001751 636.8 807.9
712(23) 0.001874 636.8 769.9
716(23) 0.001858 636.8 754.5
702(23) 0.001890 636.7 743.6
671(23) 0.001975 636.7 737.5
750(24) 0.001780 636.7 739.1
692(23) 0.001924 636.6 746.5
740(24) 0.001795 636.6 751.8
653(22) 0.002047 636.6 747.0
699(23) 0.001907 636.5 730.7
644(22) 0.002066 636.5 708.9
639(22) 0.002085 636.4 690.4
641(22) 0.002085 636.4 681.0
630(22) 0.002124 636.4 683.9
696(23) 0.001907 636.3 703.4
763(24) 0.001751 636.3 748.7
898(26) 0.001479 636.2 831.4
1034(28) 0.001285 636.2 956.7
1221(30) 0.001089 636.1 1108.1
1376(32) 0.000964 636.1 1241.0
1509(34) 0.000881 636.0 1302.2
1405(33) 0.000947 636.0 1276.3
1356(32) 0.000983 636.0 1206.7
1326(32) 0.001001 635.9 1160.7
1371(32) 0.000970 635.9 1185.3
1361(32) 0.000977 635.8 1283.6
1540(34) 0.000865 635.8 1413.4
1648(35) 0.000807 636. 1501.
1632(35) 0.000816 635.7 1480.9
1620(35) 0.000821 635.6 1351.1
1381(32) 0.000964 635.6 1170.4
1152(29) 0.001157 635.5 997.7
999(27) 0.001332 635.5 867.8
847(25) 0.001575 635.4 791.3
717(23) 0.001858 635.3 758.7
728(23) 0.001826 635.3 749.9
735(24) 0.001811 635.2 742.9
745(24) 0.001780 635.2 725.8
727(23) 0.001826 635.1 701.9
667(22) 0.001993 635.1 681.3
681(23) 0.001958 635.0 670.3
662(22) 0.002011 635.0 670.2
665(22) 0.001993 634.9 680.5
714(23) 0.001858 634.8 699.5
708(23) 0.001874 634.8 728.7
830(25) 0.001600 634.7 773.3
808(25) 0.001652 634.7 843.6
945(27) 0.001403 634.6 948.4
1067(28) 0.001249 634.6 1084.6
1192(30) 0.001119 634.5 1230.1
1238(31) 0.001075 634.4 1362.4
1209(30) 0.001104 634.4 1467.0
1227(30) 0.001082 634.3 1522.1
1208(30) 0.001096 634.3 1493.9
1098(29) 0.001214 634.2 1370.5
978(27) 0.001362 634.1 1192.9
942(27) 0.001413 634.1 1027.1
854(25) 0.001562 634.0 913.5
817(25) 0.001626 634.0 849.1
813(25) 0.001639 633.9 810.8
834(25) 0.001587 633.8 789.1
845(25) 0.001575 633.8 812.8
1057(28) 0.001257 633.7 957.6
1449(33) 0.000918 633.7 1331.7
2175(41) 0.000610 634. 2004.
3010(48) 0.000441 634. 2903.
3732(53) 0.000356 633. 3782.
4089(56) 0.0003246 633. 4323.
4002(55) 0.0003318 633. 4284.
3420(51) 0.000388 633. 3661.
2613(44) 0.000507 633. 2739.
1948(38) 0.000682 633. 1925.
1621(35) 0.000821 633.1 1519.6
1812(37) 0.000730 633. 1618.
2447(43) 0.000543 633. 2114.
2978(47) 0.000445 633. 2724.
3335(50) 0.000398 633. 3077.
3175(49) 0.000418 633. 2937.
2653(45) 0.000500 633. 2382.
1925(38) 0.000689 633. 1718.
1341(32) 0.000989 632.6 1208.6
959(27) 0.001382 632.6 931.7
768(24) 0.001736 632.5 821.6
755(24) 0.001765 632.5 782.3
771(24) 0.001722 632.4 755.9
712(23) 0.001858 632.4 728.5
737(24) 0.001795 632.3 706.3
668(22) 0.001993 632.2 698.6
682(23) 0.001941 632.2 712.4
781(24) 0.001694 632.1 753.0
902(26) 0.001468 632.1 821.9
946(27) 0.001403 632.0 914.3
1154(30) 0.001149 632.0 1012.0
1217(30) 0.001089 631.9 1083.3
1155(30) 0.001149 631.9 1099.8
1186(30) 0.001119 631.8 1062.4
1078(29) 0.001231 631.7 1000.8
981(27) 0.001352 631.7 954.4
945(27) 0.001403 631.6 950.1
940(27) 0.001413 631.6 987.6
1086(29) 0.001223 631.5 1050.7
1167(30) 0.001141 631.5 1121.8
1316(32) 0.001008 631.4 1200.5
1454(33) 0.000913 631.4 1315.2
1603(35) 0.000831 631.3 1481.9
1798(37) 0.000738 631. 1652.
1886(38) 0.000704 631. 1735.
1789(37) 0.000742 631. 1685.
1644(35) 0.000807 631. 1541.
1525(34) 0.000870 631.1 1377.9
1420(33) 0.000935 631.1 1253.7
1274(31) 0.001041 631.0 1182.7
1281(31) 0.001034 631.0 1143.6
1197(30) 0.001111 630.9 1100.5
1128(29) 0.001173 630.9 1031.8
1029(28) 0.001294 630.9 946.9
860(26) 0.001538 630.8 870.7
909(26) 0.001457 630.8 823.6
843(25) 0.001575 630.7 814.1
808(25) 0.001639 630.7 838.4
913(26) 0.001457 630.7 885.3
900(26) 0.001479 630.6 942.7
993(27) 0.001332 630.6 1002.3
1027(28) 0.001294 630.6 1064.7
1119(29) 0.001189 630.5 1140.4
1264(31) 0.001047 630.5 1247.5
1449(33) 0.000918 630.5 1396.6
1544(34) 0.000860 630.4 1553.6
1667(35) 0.000798 630. 1642.
1635(35) 0.000812 630. 1595.
1463(33) 0.000907 630.3 1417.7
1217(30) 0.001089 630.3 1182.4
1027(28) 0.001294 630.3 972.5
783(24) 0.001694 630.3 830.6
728(23) 0.001826 630.2 754.0
729(23) 0.001826 630.2 723.7
694(23) 0.001907 630.2 729.4
734(24) 0.001811 630.2 784.5
892(26) 0.001491 630.2 914.9
1081(29) 0.001231 630.2 1127.7
1310(31) 0.001014 630.1 1368.1
1421(33) 0.000935 630.1 1521.6
1451(33) 0.000913 630.1 1495.5
1350(32) 0.000983 630.1 1314.9
1135(29) 0.001173 630.1 1102.6
937(27) 0.001413 630.1 969.9
894(26) 0.001479 630.1 961.8
1018(28) 0.001303 630.1 1090.4
1294(31) 0.001027 630.0 1367.2
1734(36) 0.000763 630. 1755.
1989(39) 0.000668 630. 2117.
2247(41) 0.000589 630. 2265.
2081(40) 0.000638 630. 2112.
1759(36) 0.000755 630. 1748.
1315(32) 0.001008 630.0 1357.1
1041(28) 0.001276 630.0 1065.0
860(26) 0.001538 630.0 898.6
790(24) 0.001680 630.1 832.2
789(24) 0.001680 630.1 842.6
897(26) 0.001479 630.1 918.8
1011(28) 0.001313 630.1 1043.4
1107(29) 0.001197 630.1 1178.6
1304(31) 0.001014 630.1 1281.6
1351(32) 0.000983 630.1 1331.0
1271(31) 0.001041 630.1 1349.1
1342(32) 0.000989 630.1 1388.7
1444(33) 0.000918 630.2 1512.6
1795(37) 0.000738 630. 1761.
2125(40) 0.000625 630. 2086.
2568(44) 0.000517 630. 2333.
2487(43) 0.000533 630. 2331.
2267(41) 0.000583 630. 2044.
1723(36) 0.000767 630. 1615.
1272(31) 0.001041 630.3 1240.6
1025(28) 0.001294 630.4 1036.4
1003(28) 0.001322 630.4 1013.1
1154(30) 0.001149 630.4 1121.8
1318(32) 0.001008 630.5 1286.0
1434(33) 0.000924 630.5 1412.2
1443(33) 0.000918 630.5 1419.9
1308(31) 0.001014 630.6 1294.0
1138(29) 0.001165 630.6 1096.5
907(26) 0.001457 630.7 908.6
781(24) 0.001694 630.7 777.6
688(23) 0.001924 630.8 706.6
655(22) 0.002029 630.8 678.9
700(23) 0.001890 630.9 677.6
681(23) 0.001941 630.9 694.8
708(23) 0.001874 631.0 729.7
753(24) 0.001751 631.0 781.8
794(25) 0.001666 631.1 846.4
868(26) 0.001526 631.1 912.8
905(26) 0.001468 631.2 969.3
958(27) 0.001382 631.3 1015.7
1019(28) 0.001303 631.3 1068.0
1065(28) 0.001240 631.4 1130.4
1164(30) 0.001134 631.5 1180.6
1157(30) 0.001141 631.5 1189.4
1156(30) 0.001141 631.6 1156.8
1069(28) 0.001240 631.7 1112.6
1105(29) 0.001197 631.8 1078.8
1037(28) 0.001276 631.8 1046.1
977(27) 0.001352 631.9 993.9
908(26) 0.001457 632.0 927.2
872(26) 0.001514 632.1 877.4
894(26) 0.001479 632.2 885.9
986(27) 0.001342 632.3 974.1
1139(29) 0.001165 632.3 1135.7
1311(32) 0.001008 632.4 1316.2
1454(33) 0.000907 632.5 1438.3
1556(34) 0.000850 632.6 1460.3
1422(33) 0.000930 632.7 1409.3
1426(33) 0.000930 632.8 1335.4
1293(31) 0.001021 632.9 1255.6
1169(30) 0.001134 633.0 1160.6
1091(29) 0.001214 633.1 1067.3
1038(28) 0.001276 633.2 1017.9
1065(28) 0.001240 633.3 1047.6
1122(29) 0.001181 633.4 1158.1
1327(32) 0.000995 633.5 1320.9
1505(34) 0.000875 633.6 1486.1
1628(35) 0.000812 634. 1599.
1640(35) 0.000807 634. 1630.
1576(35) 0.000840 634.0 1594.3
1492(34) 0.000886 634.1 1522.3
1332(32) 0.000989 634.2 1424.3
1205(30) 0.001096 634.4 1316.0
1177(30) 0.001126 634.5 1219.2
1141(29) 0.001157 634.6 1169.9
1148(30) 0.001149 634.7 1180.2
1196(30) 0.001104 634.9 1220.8
1245(31) 0.001061 635.0 1239.8
1187(30) 0.001111 635.1 1210.4
1131(29) 0.001165 635.3 1164.4
1117(29) 0.001181 635.4 1179.0
1253(31) 0.001054 635.6 1348.6
1634(35) 0.000807 636. 1748.
2367(42) 0.000556 636. 2364.
3013(48) 0.000438 636. 3041.
3494(52) 0.000377 636. 3509.
3566(52) 0.000370 636. 3533.
3093(48) 0.000427 636. 3097.
2438(43) 0.000541 637. 2426.
1805(37) 0.000730 637. 1791.
1290(31) 0.001027 636.9 1344.6
1078(29) 0.001223 637.1 1094.4
962(27) 0.001372 637.2 966.6
860(26) 0.001538 637.4 886.5
828(25) 0.001600 637.6 820.0
822(25) 0.001600 637.7 762.8
769(24) 0.001722 637.9 718.7
724(23) 0.001826 638.1 689.5
714(23) 0.001858 638.2 673.1
675(23) 0.001958 638.4 665.7
713(23) 0.001858 638.6 664.3
688(23) 0.001924 638.8 665.0
675(23) 0.001958 638.9 668.0
684(23) 0.001941 639.1 674.2
703(23) 0.001874 639.3 685.0
713(23) 0.001858 639.5 702.6
725(23) 0.001826 639.7 730.7
776(24) 0.001694 639.9 771.0
905(26) 0.001457 640.1 826.3
946(27) 0.001392 640.2 895.6
999(28) 0.001322 640.4 973.8
1113(29) 0.001189 640.6 1050.1
1141(29) 0.001157 640.8 1121.0
1247(31) 0.001061 641.0 1184.8
1249(31) 0.001054 641.2 1236.9
1257(31) 0.001047 641.4 1258.6
1237(31) 0.001068 641.6 1223.0
1094(29) 0.001206 641.9 1125.1
942(27) 0.001403 642.1 995.6
852(25) 0.001550 642.3 882.8
801(25) 0.001652 642.5 830.8
795(25) 0.001666 642.7 875.6
1035(28) 0.001276 642.9 1043.6
1278(31) 0.001034 643.1 1334.2
1681(36) 0.000785 643. 1683.
2012(39) 0.000654 644. 1958.
2047(39) 0.000644 644. 2021.
1858(38) 0.000711 644. 1844.
1594(35) 0.000826 644.2 1527.3
1263(31) 0.001047 644.5 1209.2
918(26) 0.001435 644.7 979.6
825(25) 0.001600 644.9 854.5
815(25) 0.001613 645.2 806.3
828(25) 0.001587 645.4 800.8
919(26) 0.001435 645.6 811.4
914(26) 0.001446 645.9 817.7
885(26) 0.001491 646.1 807.0
812(25) 0.001626 646.3 779.8
782(24) 0.001680 646.6 746.9
803(25) 0.001639 646.8 718.5
736(24) 0.001795 647.1 700.3
690(23) 0.001907 647.3 691.9
667(23) 0.001975 647.6 691.2
688(23) 0.001924 647.8 696.5
667(23) 0.001975 648.1 708.2
669(23) 0.001975 648.3 728.5
751(24) 0.001751 648.6 762.8
818(25) 0.001613 648.8 819.2
946(27) 0.001392 649.1 907.6
1060(28) 0.001240 649.3 1034.2
1204(30) 0.001096 649.6 1193.8
1292(31) 0.001021 649.9 1368.8
1445(33) 0.000913 650.1 1533.5
1696(36) 0.000776 650. 1678.
1893(38) 0.000696 651. 1833.
2042(39) 0.000647 651. 2047.
2405(43) 0.000548 651. 2337.
2693(45) 0.000489 651. 2654.
2863(47) 0.000460 652. 2879.
2836(46) 0.000464 652. 2872.
2658(45) 0.000496 652. 2581.
2175(41) 0.000607 653. 2116.
1742(36) 0.000759 653. 1650.
1353(32) 0.000977 653.1 1313.2
1181(30) 0.001119 653.4 1163.3
1171(30) 0.001126 653.6 1179.7
1205(30) 0.001096 653.9 1270.4
1311(32) 0.001001 654.2 1314.3
1281(31) 0.001027 654.5 1243.7
1140(29) 0.001157 654.8 1095.8
973(27) 0.001352 655.0 961.1
871(26) 0.001514 655.3 901.3
874(26) 0.001502 655.6 920.1
945(27) 0.001392 655.9 985.6
999(28) 0.001322 656.2 1053.8
1084(29) 0.001214 656.5 1091.2
1078(29) 0.001223 656.8 1091.7
991(27) 0.001332 657.1 1083.9
1095(29) 0.001206 657.4 1116.0
1224(31) 0.001075 657.7 1219.1
1404(33) 0.000935 657.9 1370.3
1441(33) 0.000913 658.2 1489.6
1589(35) 0.000831 658.5 1492.0
1403(33) 0.000941 658.8 1358.2
1285(31) 0.001027 659.1 1153.3
1038(28) 0.001266 659.4 960.5
843(25) 0.001562 659.7 825.4
748(24) 0.001765 660.0 750.5
689(23) 0.001907 660.3 718.7
697(23) 0.001890 660.6 712.1
701(23) 0.001874 660.9 722.6
736(24) 0.001795 661.2 748.0
781(24) 0.001680 661.5 787.1
832(25) 0.001587 661.9 835.9
856(26) 0.001538 662.2 885.8
900(26) 0.001468 662.5 928.2
965(27) 0.001362 662.8 958.3
995(28) 0.001322 663.1 980.7
1033(28) 0.001276 663.4 1012.4
1137(29) 0.001157 663.7 1077.4
1301(31) 0.001014 664.0 1196.0
1430(33) 0.000924 664.3 1358.1
1617(35) 0.000812 665. 1503.
1499(34) 0.000875 664.9 1554.2
1476(34) 0.000891 665.3 1491.8
1393(33) 0.000947 665.6 1399.1
1434(33) 0.000918 665.9 1412.1
1633(35) 0.000807 666. 1607.
1901(38) 0.000693 667. 1922.
2096(40) 0.000628 667. 2174.
2128(40) 0.000619 667. 2203.
2089(40) 0.000631 667. 2019.
1945(38) 0.000678 668. 1776.
1711(36) 0.000767 668. 1598.
1573(35) 0.000835 668.4 1488.6
1427(33) 0.000924 668.7 1382.6
1370(32) 0.000959 669.0 1249.6
1239(31) 0.001061 669.3 1105.3
954(27) 0.001382 669.7 976.7
854(26) 0.001538 670.0 882.5
800(25) 0.001639 670.3 831.5
803(25) 0.001639 670.6 829.4
834(25) 0.001575 670.9 897.3
1088(29) 0.001206 671.2 1065.4
1337(32) 0.000983 671.6 1347.4
1629(35) 0.000807 672. 1689.
1792(37) 0.000734 672. 1945.
1768(37) 0.000742 673. 1959.
1612(35) 0.000816 672.8 1724.1
1368(32) 0.000964 673.2 1396.6
1177(30) 0.001119 673.5 1146.9
987(27) 0.001332 673.8 1041.0
971(27) 0.001352 674.1 1050.1
1067(29) 0.001231 674.4 1120.4
1115(29) 0.001181 674.7 1215.0
1228(31) 0.001075 675.1 1303.9
1249(31) 0.001054 675.4 1349.7
1268(31) 0.001041 675.7 1321.8
1188(30) 0.001111 676.0 1229.1
1100(29) 0.001197 676.3 1118.9
1059(28) 0.001240 676.6 1048.2
982(27) 0.001342 677.0 1048.7
1065(28) 0.001240 677.3 1119.2
1152(30) 0.001141 677.6 1235.2
1206(30) 0.001089 677.9 1359.7
1284(31) 0.001027 678.2 1445.0
1312(32) 0.001001 678.5 1441.5
1303(32) 0.001008 678.9 1335.3
1125(29) 0.001173 679.2 1170.1
948(27) 0.001392 679.5 1008.1
856(26) 0.001538 679.8 893.9
768(24) 0.001708 680.1 844.3
821(25) 0.001600 680.4 849.3
831(25) 0.001587 680.7 880.4
912(26) 0.001446 681.0 903.5
880(26) 0.001491 681.4 898.0
873(26) 0.001502 681.7 870.0
882(26) 0.001491 682.0 842.7
845(25) 0.001550 682.3 840.2
811(25) 0.001626 682.6 873.0
937(27) 0.001403 682.9 937.2
1037(28) 0.001266 683.2 1020.3
1151(30) 0.001141 683.5 1104.3
1211(30) 0.001089 683.8 1166.6
1230(31) 0.001068 684.1 1178.0
1218(30) 0.001082 684.4 1131.5
1105(29) 0.001189 684.7 1049.8
1015(28) 0.001294 685.0 965.3
887(26) 0.001491 685.3 902.4
888(26) 0.001479 685.6 873.1
800(25) 0.001639 685.9 878.6
856(26) 0.001538 686.2 912.6
984(27) 0.001342 686.5 962.8
985(27) 0.001332 686.8 1012.0
1067(29) 0.001231 687.1 1039.3
1092(29) 0.001206 687.4 1030.4
1025(28) 0.001285 687.7 993.0
983(27) 0.001342 688.0 947.3
950(27) 0.001382 688.3 909.3
901(26) 0.001457 688.6 887.4
883(26) 0.001491 688.9 888.2
925(27) 0.001424 689.2 921.3
998(28) 0.001322 689.5 998.0
1109(29) 0.001181 689.8 1124.0
1228(31) 0.001068 690.0 1291.6
1426(33) 0.000924 690.3 1477.9
1605(35) 0.000821 690.6 1657.0
1740(36) 0.000755 691. 1807.
1856(38) 0.000707 691. 1895.
1778(37) 0.000738 691. 1873.
1661(36) 0.000793 692. 1726.
1385(32) 0.000953 692.0 1503.2
1148(30) 0.001149 692.3 1282.0
1074(29) 0.001223 692.6 1113.1
958(27) 0.001372 692.8 1005.5
911(26) 0.001446 693.1 944.9
906(26) 0.001446 693.4 917.7
920(27) 0.001424 693.7 920.0
946(27) 0.001392 693.9 948.1
979(27) 0.001342 694.2 988.6
1031(28) 0.001276 694.5 1027.3
1056(28) 0.001249 694.7 1063.6
1086(29) 0.001214 695.0 1114.9
1130(29) 0.001165 695.3 1209.3
1294(31) 0.001014 695.5 1369.0
1454(33) 0.000902 695.8 1595.6
1690(36) 0.000776 696. 1860.
1965(39) 0.000671 696. 2111.
2217(41) 0.000592 697. 2283.
2261(42) 0.000581 697. 2315.
2190(41) 0.000601 697. 2201.
2025(39) 0.000651 697. 2033.
1988(39) 0.000661 698. 1954.
2084(40) 0.000631 698. 2065.
2462(43) 0.000533 698. 2373.
3021(48) 0.000436 698. 2775.
3404(51) 0.000386 699. 3086.
3547(52) 0.000370 699. 3136.
3308(50) 0.000397 699. 2913.
2937(47) 0.000447 699. 2573.
2570(44) 0.000512 699. 2316.
2321(42) 0.000567 700. 2230.
2189(41) 0.000601 700. 2249.
2101(40) 0.000625 700. 2240.
2068(40) 0.000634 700. 2149.
2015(39) 0.000651 701. 2052.
1946(39) 0.000675 701. 2049.
2040(39) 0.000644 701. 2130.
1980(39) 0.000664 701. 2173.
1887(38) 0.000696 702. 2061.
1702(36) 0.000772 702. 1821.
1685(36) 0.000780 702. 1601.
1602(35) 0.000821 702.2 1555.8
1876(38) 0.000700 702. 1751.
2233(41) 0.000589 703. 2103.
2517(44) 0.000524 703. 2384.
2503(44) 0.000526 703. 2362.
2054(40) 0.000641 703. 2016.
1745(36) 0.000755 703. 1542.
1256(31) 0.001047 703.6 1156.5
992(28) 0.001322 703.8 935.8
855(26) 0.001538 704.0 844.5
808(25) 0.001626 704.2 820.1
793(25) 0.001652 704.4 828.5
884(26) 0.001491 704.6 853.6
880(26) 0.001491 704.8 885.2
910(26) 0.001446 705.0 912.4
937(27) 0.001403 705.2 927.1
966(27) 0.001362 705.4 930.5
961(27) 0.001372 705.6 932.5
935(27) 0.001403 705.7 943.0
1019(28) 0.001294 705.9 977.6
1069(29) 0.001231 706.1 1077.9
1256(31) 0.001047 706.3 1327.7
1763(37) 0.000742 706. 1819.
2559(44) 0.000514 707. 2556.
3257(50) 0.000403 707. 3357.
3754(53) 0.0003507 707. 3893.
3795(54) 0.0003468 707. 3890.
3353(51) 0.000392 707. 3369.
2581(44) 0.000510 707. 2615.
1898(38) 0.000693 708. 1928.
1405(33) 0.000935 707.8 1438.4
1103(29) 0.001189 707.9 1133.5
944(27) 0.001392 708.1 960.9
954(27) 0.001382 708.2 889.7
891(26) 0.001479 708.4 911.3
1023(28) 0.001285 708.5 1026.3
1112(29) 0.001181 708.6 1232.4
1491(34) 0.000881 708.8 1519.0
1990(39) 0.000661 709. 1868.
2342(42) 0.000562 709. 2232.
2773(46) 0.000475 709. 2486.
2763(46) 0.000475 709. 2487.
2541(44) 0.000517 709. 2231.
2180(41) 0.000604 710. 1899.
1868(38) 0.000704 710. 1689.
1718(36) 0.000763 710. 1656.
1803(37) 0.000730 710. 1730.
1915(38) 0.000685 710. 1795.
1848(38) 0.000711 710. 1781.
1745(37) 0.000751 710. 1686.
1595(35) 0.000826 710.4 1554.9
1475(34) 0.000891 710.5 1420.2
1368(32) 0.000964 710.7 1294.7
1184(30) 0.001111 710.8 1179.9
1109(29) 0.001181 710.9 1077.1
964(27) 0.001362 711.0 989.0
898(26) 0.001457 711.1 916.1
840(25) 0.001562 711.2 862.9
818(25) 0.001600 711.3 847.0
898(26) 0.001457 711.4 905.3
1154(30) 0.001141 711.5 1087.1
1499(34) 0.000875 711.5 1416.8
1898(38) 0.000693 712. 1824.
2199(41) 0.000598 712. 2131.
2312(42) 0.000567 712. 2173.
2129(40) 0.000616 712. 1957.
1791(37) 0.000734 712. 1643.
1465(33) 0.000896 712.0 1375.2
1266(31) 0.001034 712.1 1196.6
1157(30) 0.001134 712.2 1112.9
1220(31) 0.001075 712.3 1157.8
1470(34) 0.000891 712.3 1370.7
1836(37) 0.000715 712. 1723.
2242(41) 0.000586 712. 2086.
2459(43) 0.000533 713. 2279.
2509(44) 0.000524 713. 2193.
2015(39) 0.000651 713. 1880.
1574(35) 0.000835 712.7 1506.5
1167(30) 0.001126 712.7 1220.7
983(27) 0.001332 712.8 1082.3
1017(28) 0.001294 712.8 1082.3
1174(30) 0.001119 712.9 1186.7
1314(32) 0.000995 712.9 1356.9
1582(35) 0.000831 713.0 1539.7
1701(36) 0.000772 713. 1669.
1769(37) 0.000742 713. 1689.
1670(36) 0.000785 713. 1589.
1401(33) 0.000935 713.1 1406.9
1234(31) 0.001061 713.2 1206.4
1081(29) 0.001214 713.2 1036.2
895(26) 0.001468 713.2 914.1
828(25) 0.001587 713.2 836.3
761(24) 0.001722 713.3 790.9
726(24) 0.001811 713.3 766.2
740(24) 0.001765 713.3 754.3
721(23) 0.001826 713.3 752.7
714(23) 0.001842 713.3 765.5
781(24) 0.001680 713.4 800.9
859(26) 0.001526 713.4 863.5
943(27) 0.001392 713.4 940.2
1043(28) 0.001257 713.4 1000.9
1001(28) 0.001313 713.4 1020.5
981(27) 0.001332 713.4 1005.9
988(28) 0.001322 713.4 988.5
1017(28) 0.001294 713.4 989.7
999(28) 0.001313 713.4 1001.1
1035(28) 0.001266 713.4 995.4
974(27) 0.001352 713.4 958.7
932(27) 0.001403 713.4 901.1
875(26) 0.001502 713.4 843.2
792(25) 0.001652 713.4 799.0
749(24) 0.001751 713.3 775.4
728(24) 0.001795 713.3 773.5
729(24) 0.001795 713.3 791.6
806(25) 0.001626 713.3 826.3
862(26) 0.001526 713.3 872.0
902(26) 0.001457 713.2 924.4
977(27) 0.001342 713.2 981.9
1013(28) 0.001294 713.2 1041.0
995(28) 0.001322 713.2 1088.7
989(28) 0.001322 713.1 1109.5
1004(28) 0.001303 713.1 1102.2
1072(29) 0.001223 713.1 1077.2
1025(28) 0.001276 713.0 1043.4
962(27) 0.001362 713.0 1006.5
994(28) 0.001322 713.0 972.1
891(26) 0.001468 712.9 936.4
874(26) 0.001502 712.9 907.6
904(26) 0.001446 712.8 892.1
916(26) 0.001435 712.8 889.7
952(27) 0.001382 712.7 893.6
961(27) 0.001362 712.7 893.2
934(27) 0.001403 712.6 885.9
908(26) 0.001446 712.6 877.8
879(26) 0.001491 712.5 878.3
871(26) 0.001502 712.5 898.5
924(27) 0.001424 712.4 955.9
1091(29) 0.001197 712.4 1070.3
1244(31) 0.001054 712.3 1250.6
1491(34) 0.000881 712.2 1475.3
1657(36) 0.000789 712. 1686.
1766(37) 0.000742 712. 1823.
1846(38) 0.000711 712. 1885.
1907(38) 0.000685 712. 1949.
2076(40) 0.000631 712. 2073.
2138(40) 0.000613 712. 2203.
2199(41) 0.000595 712. 2212.
2022(39) 0.000647 712. 2017.
1613(35) 0.000812 712. 1672.
1307(32) 0.001001 711.5 1311.4
1016(28) 0.001294 711.5 1041.4
876(26) 0.001502 711.4 886.8
776(24) 0.001694 711.3 816.7
789(25) 0.001666 711.2 794.5
782(24) 0.001680 711.1 804.5
773(24) 0.001694 711.1 852.9
923(27) 0.001413 711.0 958.5
1088(29) 0.001206 710.9 1138.7
1350(32) 0.000970 710.8 1388.8
1681(36) 0.000780 711. 1664.
1999(39) 0.000654 711. 1876.
2058(40) 0.000638 711. 1934.
1936(38) 0.000678 710. 1816.
1715(36) 0.000763 710. 1581.
1346(32) 0.000970 710.2 1316.7
1109(29) 0.001181 710.1 1094.5
945(27) 0.001382 710.0 946.5
879(26) 0.001491 709.9 868.2
853(26) 0.001538 709.8 835.1
846(25) 0.001550 709.7 822.5
844(25) 0.001550 709.6 816.1
795(25) 0.001652 709.5 811.8
785(25) 0.001666 709.4 809.8
806(25) 0.001626 709.3 811.3
858(26) 0.001526 709.2 816.6
897(26) 0.001457 709.1 824.9
853(26) 0.001538 709.0 837.0
875(26) 0.001491 708.9 855.0
901(26) 0.001457 708.8 887.7
938(27) 0.001392 708.7 954.2
1124(29) 0.001165 708.6 1076.0
1258(31) 0.001041 708.4 1253.1
1487(34) 0.000881 708.3 1442.4
1573(35) 0.000831 708.2 1563.3
1645(36) 0.000793 708. 1549.
1400(33) 0.000935 708.0 1405.0
1288(31) 0.001014 707.9 1206.3
1031(28) 0.001266 707.7 1046.5
917(27) 0.001424 707.6 990.4
1006(28) 0.001303 707.5 1073.9
1268(31) 0.001034 707.4 1295.1
1534(34) 0.000855 707.3 1595.8
1821(37) 0.000719 707. 1851.
1909(38) 0.000685 707. 1931.
1789(37) 0.000734 707. 1793.
1489(34) 0.000881 706.8 1523.0
1243(31) 0.001054 706.6 1265.2
1163(30) 0.001126 706.5 1139.1
1303(32) 0.001008 706.4 1212.2
1682(36) 0.000780 706. 1515.
2254(42) 0.000581 706. 2018.
2694(45) 0.000485 706. 2554.
2814(46) 0.000464 706. 2842.
2666(45) 0.000492 706. 2690.
2261(42) 0.000581 706. 2192.
1732(36) 0.000759 705. 1630.
1275(31) 0.001027 705.4 1221.7
1050(28) 0.001249 705.2 1005.9
906(26) 0.001446 705.1 925.6
906(26) 0.001446 705.0 929.5
1049(28) 0.001249 704.8 1006.9
1197(30) 0.001096 704.7 1165.0
1456(33) 0.000896 704.6 1404.2
1836(38) 0.000711 704. 1655.
1981(39) 0.000661 704. 1839.
2049(40) 0.000638 704. 1872.
1814(37) 0.000723 704. 1736.
1584(35) 0.000826 703.9 1501.8
1313(32) 0.000995 703.8 1269.0
1063(29) 0.001231 703.6 1107.7
991(28) 0.001322 703.5 1043.5
1008(28) 0.001303 703.4 1070.0
1089(29) 0.001197 703.2 1173.9
1208(30) 0.001082 703.1 1360.3
1635(35) 0.000803 703. 1657.
2057(40) 0.000638 703. 2086.
2650(45) 0.000494 703. 2634.
3359(51) 0.000389 703. 3255.
4227(57) 0.0003100 702. 3895.
4851(61) 0.0002696 702. 4494.
5174(63) 0.0002528 702. 4929.
5132(63) 0.0002552 702. 5008.
4546(59) 0.0002883 702. 4612.
3751(54) 0.0003481 702. 3835.
2795(46) 0.000469 702. 2956.
2085(40) 0.000628 701. 2254.
1804(37) 0.000727 701. 1851.
1666(36) 0.000785 701. 1701.
1659(36) 0.000789 701. 1670.
1564(35) 0.000835 700.9 1642.4
1619(35) 0.000807 701. 1581.
1527(34) 0.000855 700.7 1510.6
1403(33) 0.000935 700.5 1459.5
1415(33) 0.000924 700.4 1432.4
1399(33) 0.000935 700.3 1411.7
1305(32) 0.001001 700.1 1371.3
1299(32) 0.001008 700.0 1304.6
1234(31) 0.001061 699.9 1226.1
1120(29) 0.001165 699.7 1151.5
1047(28) 0.001249 699.6 1087.9
1033(28) 0.001266 699.5 1040.3
1036(28) 0.001266 699.3 1008.8
973(27) 0.001342 699.2 994.6
953(27) 0.001372 699.1 1006.2
1112(29) 0.001173 698.9 1058.8
1145(30) 0.001141 698.8 1161.1
1240(31) 0.001054 698.7 1294.5
1374(32) 0.000953 698.5 1411.5
1419(33) 0.000918 698.4 1479.4
1520(34) 0.000860 698.3 1544.3
1768(37) 0.000738 698. 1718.
2070(40) 0.000631 698. 2077.
2484(44) 0.000528 698. 2564.
2851(47) 0.000459 698. 2974.
2863(47) 0.000457 698. 3083.
2611(45) 0.000500 697. 2812.
2255(42) 0.000581 697. 2292.
1696(36) 0.000772 697. 1748.
1270(31) 0.001027 697.1 1345.2
1127(29) 0.001157 697.0 1120.2
1017(28) 0.001285 696.9 1024.9
1009(28) 0.001294 696.7 995.4
1040(28) 0.001257 696.6 991.5
994(28) 0.001313 696.5 998.1
1110(29) 0.001181 696.4 1011.9
1155(30) 0.001134 696.2 1037.7
1216(31) 0.001075 696.1 1085.2
1203(30) 0.001089 696.0 1154.0
1239(31) 0.001054 695.9 1230.8
1325(32) 0.000989 695.8 1301.5
1420(33) 0.000924 695.6 1371.6
1412(33) 0.000924 695.5 1434.5
1475(34) 0.000886 695.4 1455.8
1378(33) 0.000947 695.3 1399.9
1299(32) 0.001008 695.2 1275.3
1152(30) 0.001134 695.1 1137.7
1011(28) 0.001294 694.9 1048.2
988(28) 0.001322 694.8 1037.2
1087(29) 0.001206 694.7 1097.1
1196(30) 0.001089 694.6 1211.9
1375(32) 0.000953 694.5 1375.5
1586(35) 0.000826 694.4 1590.8
1869(38) 0.000700 694. 1838.
2138(40) 0.000613 694. 2050.
2138(40) 0.000613 694. 2128.
2061(40) 0.000634 694. 2019.
1687(36) 0.000772 694. 1757.
1459(33) 0.000896 693.7 1446.8
1164(30) 0.001126 693.6 1213.0
1097(29) 0.001189 693.5 1137.8
1179(30) 0.001111 693.4 1223.8
1337(32) 0.000977 693.3 1397.1
1493(34) 0.000875 693.2 1543.3
1495(34) 0.000875 693.1 1563.8
1430(33) 0.000913 693.0 1436.9
1166(30) 0.001119 692.9 1225.1
1086(29) 0.001206 692.8 1017.1
850(26) 0.001538 692.7 868.0
793(25) 0.001652 692.6 787.0
759(24) 0.001722 692.5 753.9
733(24) 0.001780 692.4 743.8
759(24) 0.001722 692.3 741.2
749(24) 0.001751 692.2 741.4
721(24) 0.001811 692.1 747.1
772(24) 0.001694 692.0 763.3
846(25) 0.001550 691.9 792.2
869(26) 0.001502 691.8 832.1
939(27) 0.001392 691.7 874.5
957(27) 0.001362 691.7 907.8
1021(28) 0.001285 691.6 923.4
970(27) 0.001352 691.5 926.1
953(27) 0.001372 691.4 933.4
1000(28) 0.001303 691.3 956.5
1006(28) 0.001303 691.2 995.4
1094(29) 0.001197 691.1 1040.3
1097(29) 0.001189 691.1 1083.9
1182(30) 0.001104 691.0 1140.3
1235(31) 0.001061 690.9 1245.3
1478(34) 0.000886 690.8 1443.5
1761(37) 0.000742 691. 1768.
2184(41) 0.000598 691. 2204.
2688(45) 0.000487 691. 2655.
3060(48) 0.000427 691. 2965.
2943(48) 0.000443 690. 3014.
2635(45) 0.000496 690. 2807.
2374(43) 0.000548 690. 2449.
1929(38) 0.000678 690. 2055.
1621(35) 0.000807 690. 1716.
1463(34) 0.000891 690.1 1493.8
1376(33) 0.000947 690.0 1405.6
1365(32) 0.000959 689.9 1412.4
1437(33) 0.000907 689.9 1446.2
1433(33) 0.000913 689.8 1454.6
1356(32) 0.000964 689.7 1415.2
1224(31) 0.001068 689.7 1327.4
1168(30) 0.001119 689.6 1205.0
1051(28) 0.001240 689.5 1075.4
913(26) 0.001435 689.5 967.0
857(26) 0.001526 689.4 899.9
869(26) 0.001502 689.3 867.7
828(25) 0.001575 689.3 864.0
808(25) 0.001613 689.2 880.9
884(26) 0.001479 689.2 916.2
897(26) 0.001457 689.1 971.3
1009(28) 0.001294 689.0 1048.3
1166(30) 0.001119 689.0 1155.3
1238(31) 0.001054 688.9 1297.6
1477(34) 0.000886 688.9 1461.4
1558(35) 0.000835 688.8 1604.6
1641(36) 0.000793 689. 1678.
1687(36) 0.000772 689. 1676.
1597(35) 0.000816 688.7 1643.0
1582(35) 0.000826 688.6 1615.0
1504(34) 0.000870 688.6 1585.0
1434(33) 0.000907 688.5 1523.4
1316(32) 0.000989 688.5 1427.4
1235(31) 0.001054 688.4 1337.2
1221(31) 0.001068 688.4 1304.7
1257(31) 0.001041 688.3 1361.0
1463(34) 0.000891 688.3 1501.4
1682(36) 0.000776 688. 1687.
1780(37) 0.000734 688. 1853.
1904(38) 0.000685 688. 1930.
1802(37) 0.000727 688. 1874.
1721(36) 0.000759 688. 1696.
1431(33) 0.000913 688.0 1457.4
1148(30) 0.001141 688.0 1228.7
1026(28) 0.001276 688.0 1051.4
886(26) 0.001479 687.9 930.3
872(26) 0.001502 687.9 851.6
809(25) 0.001613 687.9 801.7
738(24) 0.001765 687.8 775.3
807(25) 0.001613 687.8 773.7
827(25) 0.001575 687.8 807.0
903(26) 0.001446 687.7 883.1
974(27) 0.001342 687.7 991.1
1093(29) 0.001197 687.7 1091.7
1143(30) 0.001141 687.6 1135.8
1100(29) 0.001189 687.6 1108.3
1077(29) 0.001214 687.6 1050.5
1001(28) 0.001303 687.5 1030.4
1153(30) 0.001134 687.5 1087.4
1158(30) 0.001126 687.5 1198.5
1343(32) 0.000970 687.4 1292.4
1342(32) 0.000970 687.4 1306.4
1320(32) 0.000989 687.4 1239.0
1177(30) 0.001111 687.4 1155.4
1193(30) 0.001096 687.3 1140.1
1279(31) 0.001021 687.3 1246.9
1493(34) 0.000875 687.3 1471.0
1814(37) 0.000719 687. 1744.
1986(39) 0.000657 687. 1963.
2100(40) 0.000622 687. 2048.
2010(39) 0.000647 687. 2005.
1930(39) 0.000675 687. 1895.
1765(37) 0.000738 687. 1782.
1718(36) 0.000759 687. 1694.
1689(36) 0.000772 687. 1618.
1533(34) 0.000850 687.1 1528.2
1415(33) 0.000918 687.1 1416.0
1325(32) 0.000983 687.1 1301.8
1170(30) 0.001119 687.0 1207.1
1139(30) 0.001141 687.0 1138.4
1083(29) 0.001206 687.0 1087.3
1012(28) 0.001285 687.0 1054.4
1007(28) 0.001294 687.0 1054.9
1107(29) 0.001181 686.9 1101.7
1133(30) 0.001149 686.9 1187.7
1228(31) 0.001061 686.9 1278.5
1249(31) 0.001047 686.9 1319.3
1221(31) 0.001068 686.9 1277.6
1160(30) 0.001119 686.9 1170.0
1024(28) 0.001276 686.8 1047.2
939(27) 0.001382 686.8 956.3
929(27) 0.001403 686.8 920.7
885(26) 0.001468 686.8 939.5
1049(28) 0.001240 686.8 997.0
1062(29) 0.001231 686.8 1075.6
1210(31) 0.001075 686.7 1160.1
1266(31) 0.001027 686.7 1242.9
1390(33) 0.000935 686.7 1335.3
1482(34) 0.000881 686.7 1462.4
1622(35) 0.000803 687. 1634.
1889(38) 0.000689 687. 1818.
1989(39) 0.000654 687. 1952.
2084(40) 0.000625 687. 1989.
1999(39) 0.000651 687. 1939.
1923(38) 0.000678 687. 1856.
1855(38) 0.000704 687. 1782.
1797(37) 0.000727 687. 1725.
1680(36) 0.000776 687. 1664.
1605(35) 0.000812 687. 1584.
1529(34) 0.000855 686.5 1499.7
1460(34) 0.000891 686.5 1452.5
1446(33) 0.000902 686.5 1469.6
1570(35) 0.000831 686.5 1540.2
1621(35) 0.000803 686. 1648.
1905(38) 0.000685 686. 1807.
2005(39) 0.000651 686. 2001.
2237(41) 0.000583 686. 2122.
2026(39) 0.000644 686. 2037.
1714(36) 0.000759 686. 1737.
1399(33) 0.000930 686.3 1356.3
1074(29) 0.001214 686.3 1043.4
879(26) 0.001479 686.3 859.4
765(24) 0.001708 686.3 782.3
747(24) 0.001751 686.3 763.6
779(25) 0.001666 686.2 766.5
773(24) 0.001680 686.2 773.5
780(25) 0.001666 686.2 781.3
810(25) 0.001613 686.2 794.8
822(25) 0.001587 686.1 822.7
879(26) 0.001479 686.1 871.9
975(27) 0.001332 686.1 943.9
1117(29) 0.001165 686.1 1034.8
1171(30) 0.001111 686.0 1140.7
1255(31) 0.001041 686.0 1268.3
1479(34) 0.000881 686.0 1438.2
1806(37) 0.000723 686. 1674.
1998(39) 0.000651 686. 1968.
2341(42) 0.000556 686. 2257.
2477(44) 0.000526 686. 2445.
2473(44) 0.000528 686. 2475.
2350(43) 0.000554 686. 2372.
2112(40) 0.000619 686. 2205.
1924(38) 0.000678 686. 2020.
1824(37) 0.000715 686. 1829.
1653(36) 0.000789 686. 1639.
1431(33) 0.000913 685.7 1456.3
1196(30) 0.001089 685.6 1299.7
1204(30) 0.001082 685.6 1208.0
1201(30) 0.001082 685.6 1225.1
1340(32) 0.000970 685.5 1371.7
1592(35) 0.000816 685.5 1616.0
1919(38) 0.000678 685. 1868.
1978(39) 0.000657 685. 2012.
1986(39) 0.000657 685. 1971.
1845(38) 0.000707 685. 1762.
1427(33) 0.000913 685.3 1474.7
1180(30) 0.001104 685.2 1209.9
1054(28) 0.001240 685.2 1020.9
903(26) 0.001446 685.2 909.7
868(26) 0.001502 685.1 851.6
836(25) 0.001562 685.1 819.4
816(25) 0.001600 685.0 796.8
786(25) 0.001652 685.0 778.9
778(24) 0.001680 684.9 767.7
769(24) 0.001694 684.9 769.4
852(26) 0.001526 684.8 790.9
890(26) 0.001468 684.7 839.9
915(27) 0.001424 684.7 914.2
1039(28) 0.001257 684.6 995.3
1140(30) 0.001141 684.6 1052.5
1114(29) 0.001173 684.5 1062.9
1018(28) 0.001276 684.5 1029.0
991(28) 0.001313 684.4 977.5
1001(28) 0.001303 684.3 938.3
990(28) 0.001313 684.3 929.2
964(27) 0.001352 684.2 954.5
1066(29) 0.001223 684.1 1008.1
1113(29) 0.001173 684.1 1075.5
1208(30) 0.001082 684.0 1142.9
1283(31) 0.001014 683.9 1202.9
1323(32) 0.000983 683.9 1251.4
1257(31) 0.001034 683.8 1281.1
1260(31) 0.001034 683.7 1278.4
1214(31) 0.001075 683.6 1233.1
1108(29) 0.001173 683.6 1150.8
1024(28) 0.001276 683.5 1056.3
968(27) 0.001342 683.4 980.4
953(27) 0.001362 683.3 941.1
960(27) 0.001352 683.2 938.9
914(27) 0.001424 683.1 963.3
973(27) 0.001342 683.1 1003.4
1047(28) 0.001240 683.0 1057.7
1144(30) 0.001141 682.9 1134.7
1334(32) 0.000977 682.8 1231.0
1394(33) 0.000935 682.7 1311.1
1274(31) 0.001021 682.6 1325.6
1267(31) 0.001027 682.5 1259.0
1132(30) 0.001149 682.4 1152.1
1023(28) 0.001276 682.3 1069.0
1018(28) 0.001276 682.2 1043.8
1033(28) 0.001257 682.1 1053.9
991(28) 0.001313 682.0 1052.2
942(27) 0.001382 681.9 1008.3
862(26) 0.001514 681.8 930.3
850(26) 0.001538 681.7 848.0
781(25) 0.001666 681.6 785.1
740(24) 0.001751 681.4 748.7
740(24) 0.001751 681.3 734.6
785(25) 0.001652 681.2 735.9
769(24) 0.001694 681.1 744.3
814(25) 0.001600 681.0 754.8
823(25) 0.001587 680.8 764.5
773(24) 0.001680 680.7 774.5
804(25) 0.001613 680.6 786.8
829(25) 0.001575 680.5 801.5
858(26) 0.001514 680.3 817.9
815(25) 0.001600 680.2 836.3
866(26) 0.001502 680.1 857.1
907(26) 0.001435 679.9 875.3
884(26) 0.001468 679.8 882.2
863(26) 0.001502 679.7 870.4
842(25) 0.001550 679.5 842.5
780(25) 0.001666 679.4 808.0
774(24) 0.001680 679.2 779.1
808(25) 0.001613 679.1 764.3
770(24) 0.001694 678.9 764.5
824(25) 0.001575 678.8 776.9
815(25) 0.001600 678.6 796.4
847(26) 0.001538 678.5 819.8
854(26) 0.001526 678.3 847.9
962(27) 0.001352 678.1 887.6
987(28) 0.001313 678.0 948.0
1043(28) 0.001249 677.8 1031.4
1206(30) 0.001082 677.7 1132.6
1274(31) 0.001021 677.5 1242.2
1348(32) 0.000964 677.3 1376.8
1580(35) 0.000821 677.1 1565.2
1898(38) 0.000685 677. 1814.
2138(41) 0.000607 677. 2081.
2362(43) 0.000551 677. 2289.
2366(43) 0.000551 676. 2365.
2348(43) 0.000554 676. 2297.
2125(40) 0.000613 676. 2150.
2012(39) 0.000647 676. 1999.
1795(37) 0.000727 676. 1867.
1647(36) 0.000789 675. 1730.
1505(34) 0.000865 675.3 1580.6
1407(33) 0.000924 675.1 1438.5
1287(32) 0.001008 674.9 1323.7
1170(30) 0.001111 674.7 1238.0
1153(30) 0.001126 674.5 1182.7
1175(30) 0.001104 674.3 1180.1
1262(31) 0.001027 674.1 1258.3
1428(33) 0.000913 673.9 1428.0
1698(36) 0.000767 674. 1647.
1885(38) 0.000689 673. 1824.
1917(38) 0.000678 673. 1872.
1829(38) 0.000711 673. 1775.
1596(35) 0.000816 672.8 1586.0
1349(32) 0.000964 672.6 1369.0
1120(29) 0.001165 672.4 1163.4
916(27) 0.001413 672.2 990.6
794(25) 0.001639 671.9 862.8
804(25) 0.001613 671.7 781.4
719(24) 0.001811 671.5 737.7
747(24) 0.001736 671.2 718.3
736(24) 0.001765 671.0 712.2
691(23) 0.001890 670.8 714.0
695(23) 0.001874 670.5 723.2
750(24) 0.001736 670.3 744.0
862(26) 0.001514 670.0 781.6
868(26) 0.001502 669.8 840.1
952(27) 0.001362 669.5 920.0
1002(28) 0.001294 669.3 1011.6
1058(29) 0.001231 669.0 1096.2
1163(30) 0.001119 668.8 1153.7
1127(29) 0.001157 668.5 1175.5
1133(30) 0.001149 668.3 1163.4
1086(29) 0.001197 668.0 1124.9
1035(28) 0.001257 667.7 1074.6
962(27) 0.001352 667.5 1036.6
979(27) 0.001332 667.2 1036.4
1081(29) 0.001206 666.9 1100.0
1161(30) 0.001119 666.6 1223.1
1231(31) 0.001054 666.4 1361.0
1313(32) 0.000989 666.1 1446.6
1254(31) 0.001034 665.8 1426.2
1126(29) 0.001157 665.5 1304.4
982(28) 0.001322 665.2 1136.3
878(26) 0.001479 665.0 983.9
827(25) 0.001575 664.7 885.0
810(25) 0.001600 664.4 848.2
818(25) 0.001587 664.1 864.2
889(26) 0.001468 663.8 916.1
966(27) 0.001342 663.5 986.8
1029(28) 0.001266 663.2 1064.5
1057(29) 0.001231 662.9 1150.8
1163(30) 0.001119 662.6 1264.0
1373(33) 0.000947 662.3 1412.2
1498(34) 0.000870 662.0 1565.7
1572(35) 0.000826 661.7 1665.0
1635(35) 0.000798 661. 1661.
1490(34) 0.000875 661.1 1551.1
1315(32) 0.000989 660.7 1372.6
1177(30) 0.001104 660.4 1176.7
1004(28) 0.001294 660.1 1005.8
855(26) 0.001514 659.8 883.3
802(25) 0.001626 659.5 815.8
811(25) 0.001600 659.1 797.8
833(25) 0.001562 658.8 818.6
910(27) 0.001424 658.5 861.4
961(27) 0.001352 658.2 904.0
1004(28) 0.001294 657.8 928.5
908(26) 0.001435 657.5 930.7
957(27) 0.001362 657.2 924.3
954(27) 0.001362 656.8 931.9
1059(29) 0.001223 656.5 963.5
1076(29) 0.001206 656.1 1013.6
1068(29) 0.001214 655.8 1081.6
1139(30) 0.001141 655.4 1191.3
1416(33) 0.000918 655.1 1374.2
1613(35) 0.000807 655. 1616.
1781(37) 0.000730 654. 1836.
1830(38) 0.000711 654. 1927.
1867(38) 0.000696 654. 1859.
1745(37) 0.000747 653. 1699.
1448(33) 0.000896 653.0 1543.9
1461(34) 0.000891 652.6 1438.2
1375(33) 0.000941 652.3 1373.8
1361(32) 0.000953 651.9 1328.4
1281(31) 0.001014 651.5 1288.0
1251(31) 0.001041 651.2 1242.9
1242(31) 0.001047 650.8 1190.4
1180(30) 0.001104 650.4 1139.9
1110(29) 0.001173 650.1 1104.5
1113(29) 0.001165 649.7 1079.0
965(27) 0.001342 649.3 1042.7
1028(28) 0.001266 648.9 981.2
912(27) 0.001424 648.6 905.1
879(26) 0.001479 648.2 841.9
874(26) 0.001491 647.8 817.5
907(26) 0.001435 647.4 847.3
1007(28) 0.001294 647.0 932.9
1141(30) 0.001141 646.6 1060.4
1233(31) 0.001054 646.3 1195.1
1249(31) 0.001041 645.9 1286.3
1274(31) 0.001021 645.5 1297.5
1204(31) 0.001075 645.1 1248.1
1419(33) 0.000913 644.7 1217.6
1447(33) 0.000896 644.3 1289.6
1661(36) 0.000780 644. 1473.
1747(37) 0.000742 644. 1665.
1767(37) 0.000734 643. 1718.
1716(36) 0.000755 643. 1583.
1506(34) 0.000860 642.3 1367.9
1373(33) 0.000947 641.9 1225.7
1326(32) 0.000977 641.5 1224.5
1405(33) 0.000924 641.1 1317.9
1445(33) 0.000896 640.7 1414.7
1478(34) 0.000875 640.3 1462.7
1561(35) 0.000831 639.9 1470.5
1469(34) 0.000881 639.5 1459.6
1474(34) 0.000881 639.1 1426.0
1371(33) 0.000947 638.7 1350.8
1198(30) 0.001082 638.2 1233.9
1139(30) 0.001141 637.8 1103.0
1035(28) 0.001249 637.4 983.1
945(27) 0.001372 637.0 892.5
901(26) 0.001435 636.6 837.3
844(26) 0.001538 636.2 818.9
920(27) 0.001413 635.8 838.5
912(27) 0.001424 635.3 892.8
932(27) 0.001392 634.9 965.2
1014(28) 0.001276 634.5 1025.4
1013(28) 0.001276 634.1 1044.7
1027(28) 0.001266 633.6 1016.5
962(27) 0.001342 633.2 960.5
914(27) 0.001413 632.8 910.5
884(26) 0.001468 632.4 894.1
966(27) 0.001342 632.0 922.6
1062(29) 0.001223 631.5 988.9
1077(29) 0.001206 631.1 1072.5
1168(30) 0.001111 630.7 1150.1
1206(31) 0.001075 630.2 1201.7
1197(30) 0.001082 629.8 1212.1
1130(30) 0.001149 629.4 1182.8
1095(29) 0.001181 629.0 1143.3
1130(30) 0.001149 628.5 1137.2
1158(30) 0.001119 628.1 1191.9
1304(32) 0.000995 627.7 1298.0
1458(34) 0.000891 627.2 1411.0
1553(35) 0.000835 626.8 1476.9
1497(34) 0.000865 626.4 1469.5
1505(34) 0.000860 625.9 1403.4
1375(33) 0.000941 625.5 1305.4
1264(31) 0.001027 625.1 1195.8
1123(29) 0.001157 624.6 1095.3
1011(28) 0.001285 624.2 1027.6
1044(28) 0.001240 623.8 1007.8
1056(29) 0.001231 623.3 1029.1
1054(29) 0.001231 622.9 1062.6
1036(28) 0.001249 622.5 1072.4
951(27) 0.001362 622.0 1036.6
968(27) 0.001342 621.6 961.2
907(27) 0.001424 621.2 873.2
768(24) 0.001680 620.7 803.5
762(24) 0.001694 620.3 771.6
761(24) 0.001708 619.9 788.8
800(25) 0.001613 619.4 857.6
924(27) 0.001403 619.0 970.4
1061(29) 0.001223 618.5 1099.4
1179(30) 0.001096 618.1 1199.2
1115(29) 0.001157 617.7 1225.2
1064(29) 0.001223 617.2 1163.4
961(27) 0.001352 616.8 1045.4
861(26) 0.001502 616.4 926.7
854(26) 0.001514 615.9 850.8
801(25) 0.001613 615.5 828.8
883(26) 0.001468 615.1 843.7
941(27) 0.001372 614.6 867.3
992(28) 0.001303 614.2 878.1
965(27) 0.001342 613.8 871.0
896(26) 0.001446 613.3 855.4
836(25) 0.001550 612.9 840.6
856(26) 0.001514 612.5 827.4
829(25) 0.001562 612.0 809.2
819(25) 0.001575 611.6 780.9
779(25) 0.001666 611.2 744.4
744(24) 0.001736 610.7 708.4
692(23) 0.001874 610.3 680.4
680(23) 0.001907 609.9 665.4
722(24) 0.001795 609.5 664.1
764(24) 0.001694 609.0 674.9
751(24) 0.001722 608.6 694.2
770(24) 0.001680 608.2 717.6
768(24) 0.001680 607.7 741.3
771(24) 0.001680 607.3 768.6
810(25) 0.001600 606.9 814.7
897(26) 0.001446 606.5 903.4
1002(28) 0.001294 606.0 1047.5
1275(31) 0.001014 605.6 1226.2
1323(32) 0.000977 605.2 1386.8
1465(34) 0.000886 604.8 1481.4
1570(35) 0.000826 604.4 1517.9
1562(35) 0.000831 603.9 1567.3
1707(36) 0.000759 604. 1697.
1869(38) 0.000693 603. 1886.
1909(38) 0.000678 603. 2022.
1853(38) 0.000700 602. 1996.
1905(38) 0.000678 602. 1800.
1560(35) 0.000831 601.4 1519.9
1376(33) 0.000941 601.0 1246.8
1079(29) 0.001197 600.6 1032.9
923(27) 0.001403 600.2 890.0
820(25) 0.001575 599.8 809.2
724(24) 0.001780 599.4 773.0
733(24) 0.001765 599.0 763.9
773(24) 0.001680 598.6 771.2
795(25) 0.001626 598.2 789.9
811(25) 0.001600 597.8 823.9
868(26) 0.001491 597.4 876.8
884(26) 0.001468 597.0 943.5
965(27) 0.001342 596.6 1006.1
938(27) 0.001382 596.2 1041.7
975(27) 0.001332 595.8 1039.3
993(28) 0.001303 595.4 1007.4
877(26) 0.001479 595.0 961.9
905(26) 0.001435 594.6 915.9
808(25) 0.001600 594.2 882.0
846(26) 0.001526 593.8 875.3
901(26) 0.001435 593.4 903.1
989(28) 0.001313 593.1 972.6
1054(29) 0.001231 592.7 1071.8
1200(30) 0.001082 592.3 1166.1
1233(31) 0.001047 591.9 1212.9
1180(30) 0.001096 591.5 1186.5
999(28) 0.001294 591.2 1098.1
930(27) 0.001392 590.8 992.5
848(26) 0.001526 590.4 925.7
892(26) 0.001457 590.0 938.4
1027(28) 0.001266 589.7 1043.4
1279(31) 0.001014 589.3 1228.2
1494(34) 0.000865 588.9 1460.8
1654(36) 0.000780 589. 1697.
1830(38) 0.000707 588. 1880.
1889(38) 0.000685 588. 1949.
1746(37) 0.000742 587. 1876.
1588(35) 0.000816 587.1 1679.0
1389(33) 0.000935 586.8 1428.1
1204(31) 0.001075 586.4 1202.0
1077(29) 0.001206 586.0 1044.5
906(26) 0.001435 585.7 954.5
856(26) 0.001514 585.3 914.8
874(26) 0.001479 585.0 915.1
961(27) 0.001352 584.7 952.9
921(27) 0.001403 584.3 1021.8
1060(29) 0.001223 584.0 1101.3
1128(30) 0.001149 583.6 1159.2
1189(30) 0.001089 583.3 1166.8
1136(30) 0.001141 583.0 1117.8
1110(29) 0.001165 582.6 1030.6
953(27) 0.001362 582.3 934.1
893(26) 0.001446 582.0 853.5
819(25) 0.001575 581.6 803.5
812(25) 0.001587 581.3 785.3
788(25) 0.001639 581.0 788.9
792(25) 0.001639 580.7 797.8
805(25) 0.001600 580.4 798.7
749(24) 0.001736 580.1 790.3
808(25) 0.001600 579.7 774.4
752(24) 0.001722 579.4 764.6
741(24) 0.001751 579.1 767.5
784(25) 0.001652 578.8 776.5
717(24) 0.001811 578.5 777.8
738(24) 0.001751 578.2 763.4
734(24) 0.001765 577.9 740.1
695(23) 0.001858 577.6 720.9
707(23) 0.001826 577.3 715.5
743(24) 0.001736 577.0 726.1
751(24) 0.001722 576.7 754.9
846(26) 0.001526 576.5 802.6
897(26) 0.001446 576.2 863.5
944(27) 0.001372 575.9 922.1
976(28) 0.001322 575.6 956.4
949(27) 0.001362 575.3 948.5
888(26) 0.001457 575.1 899.3
779(25) 0.001666 574.8 831.3
793(25) 0.001626 574.5 771.1
683(23) 0.001890 574.2 738.3
727(24) 0.001780 574.0 742.3
798(25) 0.001626 573.7 783.6
853(26) 0.001514 573.5 861.2
994(28) 0.001303 573.2 963.6
1067(29) 0.001214 572.9 1070.8
1166(30) 0.001111 572.7 1147.1
1124(30) 0.001149 572.4 1164.3
1061(29) 0.001223 572.2 1124.3
987(28) 0.001313 571.9 1054.3
980(28) 0.001322 571.7 983.7
905(27) 0.001424 571.5 935.1
875(26) 0.001479 571.2 924.9
955(27) 0.001352 571.0 966.4
1054(29) 0.001223 570.8 1061.6
1135(30) 0.001141 570.5 1196.2
1230(31) 0.001054 570.3 1338.9
1415(33) 0.000913 570.1 1450.9
1510(34) 0.000855 569.9 1499.4
1430(33) 0.000902 569.6 1471.0
1411(33) 0.000918 569.4 1383.0
1212(31) 0.001068 569.2 1272.5
1112(29) 0.001165 569.0 1173.4
1040(28) 0.001240 568.8 1104.6
1026(28) 0.001257 568.6 1075.0
1074(29) 0.001206 568.4 1086.9
1229(31) 0.001054 568.2 1131.3
1236(31) 0.001047 568.0 1188.1
1312(32) 0.000983 567.8 1235.4
1339(32) 0.000964 567.6 1256.7
1295(32) 0.000995 567.4 1238.0
1225(31) 0.001054 567.2 1174.4
1133(30) 0.001141 567.0 1078.7
905(26) 0.001435 566.8 972.0
847(26) 0.001526 566.7 871.2
738(24) 0.001751 566.5 787.3
689(23) 0.001874 566.3 725.7
631(22) 0.002047 566.1 686.7
675(23) 0.001907 566.0 665.8
665(23) 0.001941 565.8 658.4
651(22) 0.001993 565.6 663.5
718(24) 0.001795 565.5 681.5
729(24) 0.001780 565.3 707.9
749(24) 0.001722 565.2 731.6
772(24) 0.001680 565.0 742.1
730(24) 0.001765 564.9 739.2
729(24) 0.001780 564.7 732.3
743(24) 0.001736 564.6 731.7
785(25) 0.001652 564.4 738.9
730(24) 0.001765 564.3 749.5
770(24) 0.001680 564.1 758.1
762(24) 0.001694 564.0 761.7
736(24) 0.001751 563.9 758.7
713(24) 0.001811 563.7 750.0
727(24) 0.001780 563.6 744.5
819(25) 0.001575 563.5 756.8
839(26) 0.001538 563.4 794.7
844(26) 0.001526 563.2 848.5
905(27) 0.001424 563.1 893.2
883(26) 0.001468 563.0 906.8
837(26) 0.001538 562.9 886.5
858(26) 0.001502 562.8 847.8
787(25) 0.001639 562.7 807.7
765(24) 0.001694 562.6 775.0
740(24) 0.001751 562.5 750.4
678(23) 0.001907 562.4 730.7
730(24) 0.001765 562.3 712.2
705(23) 0.001826 562.2 693.6
697(23) 0.001858 562.1 677.4
697(23) 0.001858 562.0 668.4
689(23) 0.001874 561.9 671.0
730(24) 0.001765 561.8 688.0
752(24) 0.001722 561.7 721.7
794(25) 0.001626 561.7 772.5
887(26) 0.001457 561.6 834.3
971(27) 0.001332 561.5 892.3
998(28) 0.001294 561.4 930.6
941(27) 0.001372 561.4 948.9
1055(29) 0.001223 561.3 971.1
1111(29) 0.001165 561.2 1030.9
1203(31) 0.001075 561.2 1135.4
1259(31) 0.001027 561.1 1241.1
1260(31) 0.001027 561.1 1277.3
1250(31) 0.001034 561.0 1210.3
1083(29) 0.001189 560.9 1079.9
1067(29) 0.001214 560.9 959.1
885(26) 0.001457 560.8 893.6
864(26) 0.001491 560.8 883.9
849(26) 0.001526 560.8 905.4
906(27) 0.001424 560.7 935.0
899(26) 0.001435 560.7 961.0
932(27) 0.001382 560.6 976.5
895(26) 0.001446 560.6 974.6
909(27) 0.001424 560.6 952.4
906(27) 0.001424 560.5 914.6
856(26) 0.001514 560.5 869.0
833(25) 0.001550 560.5 821.1
784(25) 0.001652 560.5 771.9
740(24) 0.001751 560.4 723.6
684(23) 0.001890 560.4 682.2
677(23) 0.001907 560.4 653.9
634(22) 0.002029 560.4 641.1
560(21) 0.002311 560.4 644.8
639(22) 0.002029 560.3 661.7
685(23) 0.001890 560.3 686.0
674(23) 0.001924 560.3 710.0
684(23) 0.001890 560.3 724.9
684(23) 0.001890 560.3 726.3
709(23) 0.001826 560.3 714.0
636(22) 0.002029 560.3 691.1
626(22) 0.002066 560.3 663.8
591(21) 0.002184 560.3 639.7
593(21) 0.002184 560.3 625.0
651(22) 0.001993 560.3 622.8
649(22) 0.001993 560.3 631.1
680(23) 0.001907 560.3 642.7
722(24) 0.001795 560.4 648.2
681(23) 0.001890 560.4 642.8
672(23) 0.001924 560.4 628.3
638(22) 0.002029 560.4 612.1
626(22) 0.002066 560.4 600.6
649(22) 0.001993 560.4 597.5
628(22) 0.002066 560.5 603.1
685(23) 0.001874 560.5 617.5
651(23) 0.001975 560.5 642.0
712(24) 0.001811 560.5 678.3
753(24) 0.001722 560.6 726.5
819(25) 0.001575 560.6 782.8
863(26) 0.001502 560.6 838.1
879(26) 0.001468 560.7 881.1
908(27) 0.001424 560.7 903.7
889(26) 0.001457 560.7 907.8
858(26) 0.001502 560.8 906.3
878(26) 0.001468 560.8 917.0
865(26) 0.001491 560.8 958.9
964(27) 0.001342 560.9 1051.2
1199(31) 0.001075 560.9 1201.3
1379(33) 0.000935 561.0 1377.2
1483(34) 0.000870 561.0 1504.1
1484(34) 0.000870 561.1 1515.7
1401(33) 0.000924 561.1 1422.5
1313(32) 0.000983 561.2 1305.0
1182(30) 0.001096 561.2 1232.1
1121(30) 0.001149 561.3 1205.5
1128(30) 0.001141 561.3 1181.2
1098(29) 0.001181 561.4 1126.5
981(28) 0.001313 561.4 1044.5
935(27) 0.001382 561.5 954.6
865(26) 0.001491 561.5 872.1
809(25) 0.001600 561.6 803.5
728(24) 0.001765 561.6 751.0
738(24) 0.001751 561.7 715.7
689(23) 0.001874 561.8 697.8
687(23) 0.001874 561.8 696.5
665(23) 0.001941 561.9 707.4
709(23) 0.001826 562.0 724.8
777(25) 0.001666 562.0 744.6
835(25) 0.001550 562.1 764.3
840(26) 0.001538 562.2 778.3
787(25) 0.001639 562.2 776.5
788(25) 0.001639 562.3 751.1
774(25) 0.001666 562.4 707.5
682(23) 0.001890 562.4 661.6
625(22) 0.002066 562.5 629.6
653(23) 0.001975 562.6 619.3
616(22) 0.002104 562.6 630.1
709(23) 0.001826 562.7 654.0
675(23) 0.001907 562.8 678.5
717(24) 0.001795 562.9 692.5
736(24) 0.001751 562.9 689.5
688(23) 0.001874 563.0 673.9
636(22) 0.002029 563.1 654.7
619(22) 0.002085 563.1 641.7
646(22) 0.001993 563.2 642.1
692(23) 0.001858 563.3 659.9
757(24) 0.001708 563.4 695.0
802(25) 0.001613 563.5 740.6
896(26) 0.001435 563.5 784.9
880(26) 0.001468 563.6 816.0
881(26) 0.001468 563.7 831.7
868(26) 0.001491 563.8 840.1
878(26) 0.001468 563.8 853.0
888(26) 0.001457 563.9 875.3
896(26) 0.001435 564.0 901.8
891(26) 0.001446 564.1 920.3
1001(28) 0.001294 564.2 920.2
979(28) 0.001322 564.2 900.9
923(27) 0.001403 564.3 873.6
834(25) 0.001550 564.4 854.8
858(26) 0.001502 564.5 858.2
875(26) 0.001479 564.5 888.1
922(27) 0.001403 564.6 935.0
972(28) 0.001322 564.7 975.2
1012(28) 0.001276 564.8 983.6
942(27) 0.001372 564.9 952.6
850(26) 0.001514 564.9 898.8
788(25) 0.001639 565.0 849.2
775(25) 0.001666 565.1 821.1
850(26) 0.001514 565.2 814.6
834(25) 0.001550 565.3 817.8
799(25) 0.001613 565.3 822.6
850(26) 0.001514 565.4 831.9
783(25) 0.001652 565.5 849.8
858(26) 0.001502 565.6 867.8
799(25) 0.001613 565.6 866.9
817(25) 0.001575 565.7 837.7
825(25) 0.001562 565.8 791.9
724(24) 0.001780 565.9 749.7
775(25) 0.001666 566.0 722.8
663(23) 0.001941 566.0 710.8
705(23) 0.001826 566.1 707.1
661(23) 0.001958 566.2 706.4
618(22) 0.002085 566.3 706.7
743(24) 0.001736 566.3 709.3
737(24) 0.001751 566.4 717.9
762(24) 0.001694 566.5 736.3
813(25) 0.001587 566.5 764.3
819(25) 0.001575 566.6 796.7
909(27) 0.001424 566.7 827.4
954(27) 0.001352 566.8 853.4
1014(28) 0.001276 566.8 872.8
972(28) 0.001322 566.9 882.0
963(27) 0.001342 567.0 877.4
919(27) 0.001403 567.0 859.8
900(26) 0.001435 567.1 832.8
884(26) 0.001457 567.2 801.8
807(25) 0.001600 567.2 774.3
754(24) 0.001708 567.3 760.9
783(25) 0.001652 567.4 770.8
788(25) 0.001639 567.4 810.3
902(26) 0.001435 567.5 880.9
978(28) 0.001322 567.5 980.1
1153(30) 0.001119 567.6 1100.8
1272(31) 0.001014 567.7 1221.2
1307(32) 0.000989 567.7 1300.6
1318(32) 0.000977 567.8 1301.9
1160(30) 0.001111 567.8 1222.8
1089(29) 0.001189 567.9 1096.2
960(27) 0.001342 567.9 967.4
818(25) 0.001575 568.0 869.2
813(25) 0.001587 568.0 812.6
834(25) 0.001550 568.1 792.5
779(25) 0.001652 568.1 796.4
870(26) 0.001479 568.2 809.8
844(26) 0.001526 568.2 818.4
823(25) 0.001562 568.3 812.8
786(25) 0.001639 568.3 792.2
768(24) 0.001680 568.4 761.3
772(25) 0.001666 568.4 725.8
696(23) 0.001858 568.5 691.3
628(22) 0.002047 568.5 662.8
587(21) 0.002204 568.5 643.6
639(22) 0.002011 568.6 635.0
558(21) 0.002311 568.6 636.4
628(22) 0.002047 568.7 645.7
644(22) 0.002011 568.7 659.1
662(23) 0.001941 568.7 671.1
688(23) 0.001874 568.8 676.5
624(22) 0.002066 568.8 673.6
673(23) 0.001924 568.8 666.9
650(23) 0.001975 568.8 664.2
659(23) 0.001958 568.9 672.2
655(23) 0.001975 568.9 692.4
683(23) 0.001890 568.9 720.6
760(24) 0.001694 568.9 751.0
832(25) 0.001550 569.0 779.1
855(26) 0.001514 569.0 803.5
876(26) 0.001468 569.0 825.8
942(27) 0.001372 569.0 848.7
932(27) 0.001382 569.0 874.0
982(28) 0.001313 569.1 901.7
952(27) 0.001352 569.1 925.7
911(27) 0.001413 569.1 933.2
889(26) 0.001446 569.1 913.6
883(26) 0.001457 569.1 868.8
811(25) 0.001587 569.1 815.2
735(24) 0.001751 569.1 770.4
751(24) 0.001722 569.1 741.8
789(25) 0.001639 569.1 725.2
718(24) 0.001795 569.1 714.3
724(24) 0.001780 569.1 712.4
768(24) 0.001680 569.1 731.4
802(25) 0.001613 569.1 784.1
839(26) 0.001538 569.1 867.9
934(27) 0.001382 569.1 956.5
997(28) 0.001294 569.1 1009.0
923(27) 0.001403 569.1 996.4
868(26) 0.001491 569.1 924.1
750(24) 0.001722 569.1 826.6
649(22) 0.001993 569.1 742.5
681(23) 0.001890 569.0 700.4
647(22) 0.001993 569.0 721.2
838(26) 0.001538 569.0 820.7
1008(28) 0.001276 569.0 996.8
1256(31) 0.001027 569.0 1204.0
1431(33) 0.000902 568.9 1358.2
1456(34) 0.000886 568.9 1386.7
1274(31) 0.001014 568.9 1285.3
1110(29) 0.001165 568.9 1116.9
942(27) 0.001372 568.8 954.8
788(25) 0.001639 568.8 835.5
730(24) 0.001765 568.8 757.9
675(23) 0.001907 568.7 707.6
648(22) 0.001993 568.7 673.7
640(22) 0.002011 568.7 651.1
657(23) 0.001958 568.6 636.4
668(23) 0.001924 568.6 626.4
614(22) 0.002104 568.5 621.4
586(21) 0.002204 568.5 622.5
622(22) 0.002066 568.5 630.8
688(23) 0.001874 568.4 645.6
703(23) 0.001826 568.4 662.9
665(23) 0.001941 568.3 676.2
711(24) 0.001811 568.3 681.4
663(23) 0.001941 568.2 681.2
679(23) 0.001890 568.2 685.5
682(23) 0.001890 568.1 703.7
719(24) 0.001795 568.0 738.8
774(25) 0.001666 568.0 784.2
775(25) 0.001666 567.9 825.2
837(26) 0.001538 567.9 845.5
812(25) 0.001587 567.8 836.6
777(25) 0.001666 567.7 804.7
768(24) 0.001680 567.7 765.2
678(23) 0.001907 567.6 734.8
708(23) 0.001826 567.5 723.6
701(23) 0.001842 567.4 736.2
776(25) 0.001666 567.4 774.7
812(25) 0.001587 567.3 836.9
870(26) 0.001479 567.2 911.4
968(27) 0.001332 567.1 974.2
973(28) 0.001322 567.1 997.8
969(27) 0.001332 567.0 970.8
874(26) 0.001468 566.9 913.2
829(25) 0.001550 566.8 860.7
859(26) 0.001502 566.7 837.6
823(25) 0.001562 566.7 845.1
875(26) 0.001468 566.6 865.9
907(27) 0.001424 566.5 879.2
902(27) 0.001424 566.4 875.8
909(27) 0.001413 566.3 862.7
862(26) 0.001491 566.2 856.5
896(26) 0.001435 566.1 871.6
926(27) 0.001392 566.0 910.7
1016(28) 0.001266 565.9 959.6
1018(28) 0.001266 565.8 992.3
983(28) 0.001313 565.7 988.5
949(27) 0.001362 565.6 946.5
910(27) 0.001413 565.5 881.2
732(24) 0.001765 565.4 812.1
745(24) 0.001722 565.3 753.5
743(24) 0.001736 565.2 713.8
733(24) 0.001751 565.1 698.7
736(24) 0.001751 565.0 712.5
800(25) 0.001613 564.9 754.8
854(26) 0.001502 564.8 814.1
888(26) 0.001446 564.6 864.4
859(26) 0.001502 564.5 876.0
827(25) 0.001562 564.4 838.3
796(25) 0.001613 564.3 770.7
736(24) 0.001751 564.2 705.0
663(23) 0.001941 564.1 660.9
678(23) 0.001890 563.9 639.5
661(23) 0.001941 563.8 631.1
590(21) 0.002184 563.7 626.2
622(22) 0.002066 563.6 619.4
594(22) 0.002163 563.4 609.5
588(21) 0.002184 563.3 598.3
576(21) 0.002246 563.2 588.3
571(21) 0.002246 563.1 581.4
569(21) 0.002268 562.9 578.1
540(21) 0.002380 562.8 579.9
554(21) 0.002334 562.7 588.6
616(22) 0.002085 562.5 605.6
646(22) 0.001993 562.4 627.8
631(22) 0.002047 562.3 648.8
656(23) 0.001958 562.1 661.3
694(23) 0.001858 562.0 664.0
643(22) 0.002011 561.9 662.3
713(24) 0.001811 561.7 661.8
683(23) 0.001890 561.6 662.7
660(23) 0.001958 561.5 661.5
652(23) 0.001975 561.3 657.0
649(23) 0.001975 561.2 649.0
624(22) 0.002066 561.0 641.5
666(23) 0.001924 560.9 638.2
636(22) 0.002029 560.8 641.3
640(22) 0.002011 560.6 650.0
672(23) 0.001924 560.5 660.1
682(23) 0.001890 560.3 667.0
701(23) 0.001842 560.2 668.4
618(22) 0.002085 560.0 668.4
699(23) 0.001842 559.9 675.4
732(24) 0.001751 559.8 701.5
755(24) 0.001708 559.6 760.7
867(26) 0.001479 559.5 861.9
1032(28) 0.001249 559.3 998.0
1136(30) 0.001134 559.2 1138.8
1230(31) 0.001047 559.0 1239.2
1198(31) 0.001075 558.9 1268.1
1199(31) 0.001075 558.7 1234.6
1127(30) 0.001141 558.6 1183.2
1146(30) 0.001126 558.4 1159.0
1219(31) 0.001054 558.3 1179.9
1325(32) 0.000970 558.1 1231.0
1308(32) 0.000983 558.0 1278.2
1302(32) 0.000989 557.8 1292.3
1281(32) 0.001008 557.7 1262.7
1184(30) 0.001089 557.5 1195.3
1076(29) 0.001197 557.4 1106.7
1017(28) 0.001266 557.2 1018.6
925(27) 0.001392 557.1 947.9
921(27) 0.001403 556.9 900.9
832(25) 0.001550 556.7 873.9
840(26) 0.001538 556.6 856.4
784(25) 0.001639 556.4 837.3
798(25) 0.001613 556.3 811.4
817(25) 0.001575 556.1 787.6
790(25) 0.001626 556.0 779.7
789(25) 0.001626 555.8 794.6
826(25) 0.001562 555.7 825.1
889(26) 0.001446 555.5 856.8
880(26) 0.001468 555.4 879.9
852(26) 0.001514 555.2 891.5
879(26) 0.001468 555.1 888.7
850(26) 0.001514 554.9 869.9
830(25) 0.001550 554.8 840.1
803(25) 0.001600 554.6 817.3
809(25) 0.001587 554.4 823.3
950(27) 0.001352 554.3 877.3
1049(29) 0.001231 554.1 987.2
1233(31) 0.001041 554.0 1140.6
1333(32) 0.000964 553.8 1294.2
1330(32) 0.000964 553.7 1385.5
1307(32) 0.000983 553.5 1372.3
1169(30) 0.001104 553.4 1276.9
1136(30) 0.001134 553.2 1179.6
1095(29) 0.001173 553.1 1157.2
1294(32) 0.000995 552.9 1225.9
1445(34) 0.000891 552.8 1334.2
1499(34) 0.000860 552.6 1401.5
1476(34) 0.000870 552.5 1373.2
1263(31) 0.001021 552.3 1252.7
1063(29) 0.001214 552.2 1086.9
849(26) 0.001514 552.0 928.8
769(24) 0.001680 551.9 811.0
699(23) 0.001842 551.8 739.9
671(23) 0.001924 551.6 705.4
693(23) 0.001858 551.5 694.7
688(23) 0.001874 551.3 698.5
703(23) 0.001826 551.2 711.8
713(24) 0.001811 551.0 728.0
736(24) 0.001751 550.9 741.9
730(24) 0.001765 550.8 748.4
701(23) 0.001826 550.6 745.4
708(24) 0.001811 550.5 738.6
746(24) 0.001722 550.3 743.3
790(25) 0.001626 550.2 782.1
956(27) 0.001342 550.1 875.9
1003(28) 0.001285 549.9 1025.7
1201(31) 0.001068 549.8 1196.5
1306(32) 0.000983 549.7 1326.8
1291(32) 0.000995 549.5 1369.4
1196(31) 0.001075 549.4 1328.3
1108(29) 0.001165 549.3 1248.5
1081(29) 0.001189 549.1 1175.3
1043(29) 0.001231 549.0 1127.5
1031(28) 0.001249 548.9 1099.4
1030(28) 0.001249 548.7 1077.8
980(28) 0.001313 548.6 1054.7
967(27) 0.001332 548.5 1030.9
1042(29) 0.001231 548.4 1012.1
931(27) 0.001382 548.2 1005.2
1066(29) 0.001206 548.1 1017.6
1161(30) 0.001111 548.0 1057.2
1202(31) 0.001068 547.9 1121.6
1247(31) 0.001034 547.8 1189.1
1251(31) 0.001027 547.6 1228.1
1233(31) 0.001041 547.5 1220.9
1129(30) 0.001141 547.4 1175.1
1055(29) 0.001223 547.3 1104.5
927(27) 0.001392 547.2 1014.2
861(26) 0.001491 547.1 910.5
831(25) 0.001550 547.0 815.2
734(24) 0.001751 546.8 751.9
755(24) 0.001708 546.7 730.1
759(24) 0.001694 546.6 740.0
806(25) 0.001600 546.5 760.1
788(25) 0.001626 546.4 770.7
764(24) 0.001680 546.3 764.0
739(24) 0.001736 546.2 744.9
725(24) 0.001780 546.1 726.3
729(24) 0.001765 546.0 724.1
742(24) 0.001736 545.9 755.5
841(26) 0.001526 545.8 830.3
975(28) 0.001322 545.7 938.7
1079(29) 0.001189 545.6 1045.9
1098(29) 0.001173 545.6 1105.8
1093(29) 0.001173 545.5 1092.3
1015(28) 0.001266 545.4 1018.4
922(27) 0.001392 545.3 923.7
829(25) 0.001550 545.2 846.3
829(25) 0.001550 545.1 803.8
827(25) 0.001562 545.0 792.8
837(26) 0.001538 545.0 798.9
886(26) 0.001457 544.9 806.2
827(25) 0.001562 544.8 802.8
797(25) 0.001613 544.7 784.2
769(24) 0.001680 544.6 753.9
772(25) 0.001666 544.6 721.7
717(24) 0.001795 544.5 696.1
703(23) 0.001826 544.4 681.4
693(23) 0.001858 544.4 677.9
725(24) 0.001780 544.3 683.3
721(24) 0.001780 544.2 695.6
721(24) 0.001780 544.2 713.9
739(24) 0.001736 544.1 737.2
791(25) 0.001626 544.1 764.5
847(26) 0.001514 544.0 797.7
904(27) 0.001424 543.9 842.6
1039(28) 0.001240 543.9 902.0
1044(29) 0.001231 543.8 965.2
1073(29) 0.001197 543.8 1005.6
1032(28) 0.001249 543.7 996.7
1011(28) 0.001276 543.7 934.8
807(25) 0.001587 543.6 841.4
765(24) 0.001680 543.6 753.2
720(24) 0.001780 543.5 696.2
691(23) 0.001858 543.5 677.9
685(23) 0.001874 543.5 693.5
731(24) 0.001751 543.4 735.8
810(25) 0.001587 543.4 799.6
898(26) 0.001435 543.4 880.3
985(28) 0.001303 543.3 967.4
1052(29) 0.001223 543.3 1041.4
1147(30) 0.001119 543.3 1083.0
1143(30) 0.001126 543.2 1082.6
1069(29) 0.001206 543.2 1048.0
1055(29) 0.001223 543.2 994.0
943(27) 0.001362 543.2 932.2
917(27) 0.001403 543.1 868.2
858(26) 0.001491 543.1 807.9
762(24) 0.001694 543.1 759.6
735(24) 0.001751 543.1 729.0
670(23) 0.001924 543.1 721.8
732(24) 0.001751 543.1 741.2
768(25) 0.001666 543.1 789.6
823(25) 0.001562 543.1 866.0
944(27) 0.001362 543.1 962.3
1048(29) 0.001223 543.0 1062.9
1133(30) 0.001134 543.0 1148.2
1126(30) 0.001141 543.0 1202.6
1123(30) 0.001141 543.0 1224.2
1178(30) 0.001089 543.0 1221.9
1138(30) 0.001126 543.0 1201.4
1091(29) 0.001181 543.1 1158.6
1113(30) 0.001149 543.1 1088.1
964(27) 0.001332 543.1 996.8
853(26) 0.001502 543.1 899.1
776(25) 0.001652 543.1 810.5
767(24) 0.001680 543.1 741.0
668(23) 0.001924 543.1 693.2
657(23) 0.001958 543.1 664.0
587(21) 0.002184 543.2 648.6
607(22) 0.002124 543.2 645.3
651(23) 0.001975 543.2 656.4
678(23) 0.001890 543.2 685.4
747(24) 0.001722 543.3 728.1
791(25) 0.001626 543.3 771.4
849(26) 0.001514 543.3 800.2
824(25) 0.001562 543.3 807.8
849(26) 0.001514 543.4 796.9
810(25) 0.001587 543.4 772.3
753(24) 0.001708 543.4 738.7
749(24) 0.001708 543.5 700.5
639(22) 0.002011 543.5 664.4
658(23) 0.001958 543.6 637.9
604(22) 0.002124 543.6 628.6
635(22) 0.002029 543.6 642.1
649(23) 0.001975 543.7 681.7
722(24) 0.001780 543.7 745.1
849(26) 0.001514 543.8 825.3
917(27) 0.001403 543.8 912.2
1020(28) 0.001257 543.9 996.5
1079(29) 0.001189 543.9 1073.4
1072(29) 0.001197 544.0 1140.7
1112(29) 0.001157 544.0 1191.6
1141(30) 0.001126 544.1 1212.1
1073(29) 0.001197 544.2 1193.7
1095(29) 0.001173 544.2 1146.2
1030(28) 0.001249 544.3 1095.0
1039(29) 0.001231 544.3 1061.9
1068(29) 0.001197 544.4 1046.6
1048(29) 0.001223 544.5 1029.4
956(27) 0.001342 544.5 991.7
931(27) 0.001382 544.6 936.5
899(27) 0.001424 544.7 883.8
869(26) 0.001479 544.7 857.1
931(27) 0.001372 544.8 870.9
1020(28) 0.001257 544.9 924.3
1075(29) 0.001189 544.9 999.3
1138(30) 0.001126 545.0 1064.1
1136(30) 0.001134 545.1 1086.6
1062(29) 0.001206 545.2 1051.4
938(27) 0.001372 545.3 968.3
797(25) 0.001613 545.3 866.9
762(24) 0.001680 545.4 778.3
691(23) 0.001858 545.5 720.9
656(23) 0.001958 545.6 697.7
704(23) 0.001826 545.7 702.5
736(24) 0.001736 545.7 726.5
755(24) 0.001708 545.8 761.2
799(25) 0.001600 545.9 797.4
823(25) 0.001562 546.0 825.6
855(26) 0.001502 546.1 840.8
890(26) 0.001446 546.2 848.9
891(26) 0.001435 546.3 863.9
851(26) 0.001502 546.4 894.4
944(27) 0.001362 546.4 934.1
927(27) 0.001382 546.5 964.0
958(27) 0.001342 546.6 968.2
947(27) 0.001352 546.7 946.0
996(28) 0.001294 546.8 913.4
897(26) 0.001435 546.9 885.0
872(26) 0.001468 547.0 861.7
923(27) 0.001392 547.1 832.6
842(26) 0.001526 547.2 789.6
723(24) 0.001780 547.3 737.2
678(23) 0.001890 547.4 689.8
636(22) 0.002011 547.5 661.0
627(22) 0.002047 547.6 656.2
645(22) 0.001993 547.7 671.8
726(24) 0.001765 547.8 698.1
714(24) 0.001795 547.9 722.6
749(24) 0.001722 548.0 735.9
736(24) 0.001736 548.1 736.3
723(24) 0.001780 548.2 729.9
737(24) 0.001736 548.3 723.9
762(24) 0.001680 548.4 719.4
725(24) 0.001765 548.5 712.1
681(23) 0.001890 548.6 700.1
732(24) 0.001751 548.7 686.6
636(22) 0.002011 548.8 675.9
639(22) 0.002011 548.9 670.0
646(22) 0.001993 549.1 668.2
683(23) 0.001874 549.2 669.7
674(23) 0.001907 549.3 672.7
714(24) 0.001795 549.4 674.5
708(24) 0.001811 549.5 671.8
690(23) 0.001858 549.6 664.1
701(23) 0.001826 549.7 653.8
641(22) 0.001993 549.8 643.9
646(22) 0.001993 549.9 636.9
652(23) 0.001975 550.0 633.4
598(22) 0.002143 550.1 632.1
631(22) 0.002029 550.2 632.1
597(22) 0.002143 550.3 630.3
612(22) 0.002104 550.4 628.9
601(22) 0.002143 550.5 630.0
640(22) 0.002011 550.6 636.3
675(23) 0.001907 550.8 648.5
691(23) 0.001858 550.9 665.9
698(23) 0.001842 551.0 685.6
692(23) 0.001858 551.1 702.7
697(23) 0.001842 551.2 714.7
696(23) 0.001842 551.3 723.8
738(24) 0.001736 551.4 736.7
785(25) 0.001639 551.5 759.2
816(25) 0.001575 551.6 792.1
811(25) 0.001587 551.7 829.5
907(27) 0.001413 551.8 861.7
929(27) 0.001382 551.9 880.2
937(27) 0.001372 552.0 882.4
903(27) 0.001424 552.1 868.3
881(26) 0.001457 552.2 840.3
842(26) 0.001526 552.3 803.9
769(25) 0.001666 552.4 766.9
715(24) 0.001795 552.5 734.8
687(23) 0.001874 552.6 709.8
643(22) 0.001993 552.7 691.9
628(22) 0.002047 552.8 681.6
680(23) 0.001890 552.9 681.0
682(23) 0.001874 553.0 692.2
660(23) 0.001941 553.1 716.5
740(24) 0.001736 553.2 751.8
815(25) 0.001575 553.3 791.8
824(25) 0.001562 553.4 826.5
826(25) 0.001550 553.5 845.1
858(26) 0.001491 553.6 840.3
835(26) 0.001538 553.7 811.0
786(25) 0.001639 553.7 763.7
688(23) 0.001874 553.8 711.2
650(23) 0.001975 553.9 666.6
641(22) 0.001993 554.0 638.5
606(22) 0.002104 554.1 630.0
629(22) 0.002029 554.2 640.4
651(23) 0.001975 554.3 665.6
673(23) 0.001907 554.3 702.2
761(24) 0.001680 554.4 751.8
928(27) 0.001382 554.5 825.0
1075(29) 0.001197 554.6 938.5
1255(31) 0.001021 554.7 1103.5
1460(34) 0.000881 554.7 1308.9
1604(35) 0.000798 555. 1510.
1686(36) 0.000759 555. 1641.
1653(36) 0.000776 555. 1644.
1495(34) 0.000860 555.0 1516.5
1303(32) 0.000983 555.1 1315.3
1081(29) 0.001189 555.2 1121.3
967(28) 0.001322 555.3 987.7
934(27) 0.001372 555.3 918.3
879(26) 0.001457 555.4 887.9
883(26) 0.001457 555.5 869.6
844(26) 0.001514 555.5 853.6
833(26) 0.001538 555.6 840.1
865(26) 0.001479 555.6 832.8
783(25) 0.001639 555.7 833.1
794(25) 0.001613 555.8 837.7
827(25) 0.001550 555.8 841.2
835(26) 0.001538 555.9 840.9
839(26) 0.001526 555.9 839.4
845(26) 0.001514 556.0 838.6
807(25) 0.001587 556.0 833.1
780(25) 0.001639 556.1 814.2
756(24) 0.001694 556.1 781.9
709(24) 0.001811 556.2 748.3
737(24) 0.001736 556.2 726.6
776(25) 0.001652 556.2 720.5
777(25) 0.001652 556.3 723.7
752(24) 0.001708 556.3 725.5
739(24) 0.001736 556.4 722.1
737(24) 0.001736 556.4 715.5
701(23) 0.001826 556.4 711.5
715(24) 0.001795 556.5 714.8
707(24) 0.001811 556.5 727.8
794(25) 0.001613 556.5 748.5
814(25) 0.001575 556.5 771.5
802(25) 0.001600 556.6 791.4
833(26) 0.001538 556.6 805.3
821(25) 0.001562 556.6 817.2
825(25) 0.001550 556.6 831.0
821(25) 0.001562 556.6 848.8
903(27) 0.001413 556.7 868.0
902(27) 0.001424 556.7 882.8
844(26) 0.001514 556.7 885.6
838(26) 0.001526 556.7 873.6
817(25) 0.001575 556.7 852.0
793(25) 0.001613 556.7 830.5
724(24) 0.001765 556.7 816.6
809(25) 0.001587 556.7 813.2
817(25) 0.001562 556.7 818.1
786(25) 0.001626 556.7 826.5
802(25) 0.001600 556.7 834.6
791(25) 0.001613 556.7 841.1
898(27) 0.001424 556.7 846.1
872(26) 0.001468 556.7 846.0
879(26) 0.001457 556.7 837.9
829(25) 0.001550 556.7 821.8
813(25) 0.001575 556.6 804.7
794(25) 0.001613 556.6 796.2
813(25) 0.001575 556.6 802.3
813(25) 0.001575 556.6 821.0
861(26) 0.001491 556.6 841.7
884(26) 0.001446 556.5 851.2
848(26) 0.001514 556.5 844.2
837(26) 0.001526 556.5 830.8
855(26) 0.001502 556.4 829.8
865(26) 0.001479 556.4 859.2
958(27) 0.001342 556.4 929.7
1032(28) 0.001240 556.3 1038.7
1171(30) 0.001096 556.3 1160.1
1208(31) 0.001061 556.2 1244.5
1115(30) 0.001149 556.2 1244.1
1062(29) 0.001206 556.2 1152.1
987(28) 0.001303 556.1 1011.8
816(25) 0.001575 556.1 879.4
750(24) 0.001708 556.0 786.4
774(25) 0.001652 555.9 732.5
737(24) 0.001736 555.9 703.5
692(23) 0.001858 555.8 687.6
680(23) 0.001890 555.8 680.7
627(22) 0.002047 555.7 680.7
673(23) 0.001907 555.6 683.4
648(23) 0.001975 555.6 683.2
639(22) 0.002011 555.5 678.2
664(23) 0.001924 555.4 672.8
661(23) 0.001941 555.4 672.5
683(23) 0.001874 555.3 678.2
713(24) 0.001795 555.2 687.2
716(24) 0.001795 555.1 699.6
711(24) 0.001795 555.0 721.1
738(24) 0.001736 555.0 758.1
802(25) 0.001600 554.9 806.8
850(26) 0.001502 554.8 850.4
921(27) 0.001392 554.7 868.7
898(27) 0.001424 554.6 853.9
868(26) 0.001479 554.5 816.1
825(25) 0.001550 554.4 772.9
745(24) 0.001722 554.3 737.1
694(23) 0.001842 554.2 713.9
676(23) 0.001890 554.1 705.1
731(24) 0.001751 554.0 712.9
770(25) 0.001666 553.9 739.6
811(25) 0.001587 553.8 782.3
837(26) 0.001526 553.7 828.9
855(26) 0.001502 553.6 860.5
876(26) 0.001468 553.5 863.7
858(26) 0.001491 553.4 840.7
855(26) 0.001502 553.2 807.1
771(25) 0.001666 553.1 778.1
782(25) 0.001639 553.0 756.7
794(25) 0.001613 552.9 736.2
681(23) 0.001890 552.8 710.8
703(23) 0.001826 552.6 683.1
676(23) 0.001890 552.5 662.0
629(22) 0.002029 552.4 657.1
670(23) 0.001907 552.2 674.5
710(24) 0.001811 552.1 712.9
813(25) 0.001575 552.0 762.9
827(25) 0.001550 551.8 808.5
877(26) 0.001457 551.7 834.2
825(25) 0.001550 551.6 833.7
837(26) 0.001526 551.4 814.2
786(25) 0.001626 551.3 793.2
814(25) 0.001575 551.1 789.5
801(25) 0.001600 551.0 810.2
864(26) 0.001479 550.8 845.9
896(27) 0.001424 550.7 875.7
892(26) 0.001435 550.5 879.5
803(25) 0.001600 550.4 850.7
775(25) 0.001652 550.2 798.4
745(24) 0.001722 550.1 740.3
631(22) 0.002029 549.9 691.4
627(22) 0.002047 549.8 659.9
653(23) 0.001958 549.6 647.1
620(22) 0.002066 549.4 650.1
648(23) 0.001975 549.3 663.6
682(23) 0.001874 549.1 679.5
719(24) 0.001780 548.9 689.6
686(23) 0.001858 548.8 689.4
674(23) 0.001907 548.6 680.0
650(23) 0.001975 548.4 665.5
674(23) 0.001907 548.3 649.8
650(23) 0.001975 548.1 635.5
596(22) 0.002143 547.9 624.2
606(22) 0.002104 547.7 617.0
559(21) 0.002289 547.6 614.5
626(22) 0.002047 547.4 616.9
631(22) 0.002029 547.2 623.5
656(23) 0.001958 547.0 632.0
687(23) 0.001858 546.9 637.8
687(23) 0.001858 546.7 636.1
630(22) 0.002029 546.5 625.4
645(22) 0.001993 546.3 609.1
599(22) 0.002143 546.1 593.2
596(22) 0.002143 545.9 582.5
576(21) 0.002225 545.7 579.4
588(21) 0.002184 545.6 585.0
596(22) 0.002143 545.4 598.5
662(23) 0.001924 545.2 617.6
655(23) 0.001958 545.0 638.0
645(23) 0.001975 544.8 656.3
702(23) 0.001826 544.6 673.4
680(23) 0.001874 544.4 691.5
677(23) 0.001890 544.2 709.0
681(23) 0.001874 544.0 717.8
684(23) 0.001874 543.8 710.2
685(23) 0.001874 543.6 686.0
625(22) 0.002047 543.4 656.1
658(23) 0.001941 543.2 635.3
683(23) 0.001874 543.0 637.1
619(22) 0.002066 542.8 667.6
694(23) 0.001842 542.6 717.2
713(24) 0.001795 542.4 759.3
721(24) 0.001780 542.2 769.1
719(24) 0.001780 542.0 745.2
700(23) 0.001826 541.8 705.5
656(23) 0.001958 541.6 668.6
639(22) 0.002011 541.4 644.4
623(22) 0.002047 541.2 636.8
608(22) 0.002104 541.0 644.3
685(23) 0.001874 540.8 664.9
701(23) 0.001826 540.6 693.4
739(24) 0.001736 540.4 721.1
721(24) 0.001780 540.2 738.5
705(24) 0.001811 540.0 739.5
690(23) 0.001858 539.8 724.8
701(23) 0.001826 539.6 702.5
686(23) 0.001858 539.4 681.6
653(23) 0.001958 539.2 667.3
630(22) 0.002029 539.0 659.7
626(22) 0.002047 538.8 655.8
637(22) 0.002011 538.6 653.8
654(23) 0.001958 538.4 654.0
719(24) 0.001780 538.2 657.8
682(23) 0.001874 537.9 667.1
730(24) 0.001751 537.7 682.4
734(24) 0.001736 537.5 704.4
793(25) 0.001613 537.3 730.8
820(25) 0.001562 537.1 756.7
761(24) 0.001680 536.9 776.6
842(26) 0.001514 536.7 788.1
835(26) 0.001526 536.5 794.1
820(25) 0.001562 536.3 801.7
880(26) 0.001457 536.1 818.7
899(27) 0.001424 535.9 849.1
947(27) 0.001352 535.7 890.9
980(28) 0.001303 535.5 932.7
998(28) 0.001285 535.3 957.5
915(27) 0.001403 535.1 952.8
887(26) 0.001446 534.9 920.8
873(26) 0.001468 534.7 875.5
831(26) 0.001538 534.5 834.4
815(25) 0.001575 534.3 810.8
825(25) 0.001550 534.1 810.1
826(25) 0.001550 533.9 828.6
844(26) 0.001514 533.7 854.4
903(27) 0.001413 533.5 869.6
893(26) 0.001435 533.3 859.0
833(26) 0.001538 533.1 821.0
843(26) 0.001514 532.9 767.1
685(23) 0.001874 532.7 711.6
656(23) 0.001958 532.5 665.1
599(22) 0.002143 532.3 631.7
611(22) 0.002085 532.1 611.6
570(21) 0.002246 531.9 602.5
556(21) 0.002311 531.7 601.8
571(21) 0.002246 531.5 607.1
644(22) 0.001993 531.3 616.3
648(23) 0.001975 531.1 628.2
628(22) 0.002029 531.0 642.7
648(23) 0.001975 530.8 661.1
645(22) 0.001993 530.6 685.1
725(24) 0.001765 530.4 715.9
733(24) 0.001751 530.2 752.1
759(24) 0.001680 530.0 789.3
804(25) 0.001587 529.8 820.1
749(24) 0.001708 529.7 837.0
775(25) 0.001652 529.5 834.6
717(24) 0.001780 529.3 813.6
769(25) 0.001666 529.1 780.2
735(24) 0.001736 528.9 745.0
721(24) 0.001765 528.8 719.7
676(23) 0.001890 528.6 714.5
769(25) 0.001666 528.4 732.7
821(25) 0.001562 528.2 768.5
806(25) 0.001587 528.1 808.2
823(25) 0.001550 527.9 835.6
821(25) 0.001562 527.7 836.7
778(25) 0.001639 527.6 809.2
728(24) 0.001751 527.4 761.7
715(24) 0.001780 527.2 710.4
665(23) 0.001924 527.1 670.4
683(23) 0.001874 526.9 650.9
643(22) 0.001993 526.7 654.3
687(23) 0.001858 526.6 674.7
733(24) 0.001736 526.4 703.5
730(24) 0.001751 526.2 730.4
781(25) 0.001639 526.1 750.1
753(24) 0.001694 525.9 765.9
732(24) 0.001751 525.8 785.7
832(26) 0.001538 525.6 814.1
878(26) 0.001457 525.5 845.3
846(26) 0.001514 525.3 867.1
851(26) 0.001502 525.2 871.6
886(26) 0.001446 525.0 863.9
876(26) 0.001457 524.9 852.4
949(27) 0.001352 524.7 847.6
878(26) 0.001457 524.6 848.9
938(27) 0.001362 524.5 846.5
871(26) 0.001468 524.3 829.3
779(25) 0.001639 524.2 796.5
760(24) 0.001680 524.0 756.2
700(23) 0.001826 523.9 719.6
640(22) 0.001993 523.8 697.6
688(23) 0.001858 523.6 697.6
699(23) 0.001826 523.5 723.2
778(25) 0.001639 523.4 772.1
890(26) 0.001435 523.2 833.9
888(26) 0.001435 523.1 890.8
906(27) 0.001413 523.0 922.9
891(26) 0.001435 522.9 918.6
821(25) 0.001550 522.8 884.5
769(25) 0.001666 522.6 840.8
748(24) 0.001708 522.5 807.1
715(24) 0.001780 522.4 794.7
758(24) 0.001680 522.3 802.1
757(24) 0.001680 522.2 818.2
789(25) 0.001613 522.1 828.5
814(25) 0.001562 521.9 822.8
752(24) 0.001694 521.8 799.5
791(25) 0.001613 521.7 765.1
742(24) 0.001722 521.6 729.4
679(23) 0.001874 521.5 700.2
694(23) 0.001842 521.4 681.8
711(24) 0.001795 521.3 672.9
671(23) 0.001907 521.2 670.2
689(23) 0.001842 521.1 670.2
636(22) 0.002011 521.0 670.4
678(23) 0.001874 520.9 671.4
673(23) 0.001890 520.8 677.5
670(23) 0.001907 520.7 698.9
721(24) 0.001765 520.6 751.9
812(25) 0.001575 520.6 853.3
1011(28) 0.001266 520.5 1008.2
1239(31) 0.001027 520.4 1199.7
1390(33) 0.000918 520.3 1387.1
1561(35) 0.000816 520.2 1518.9
1515(35) 0.000840 520.1 1556.9
1438(34) 0.000886 520.1 1498.2
1309(32) 0.000977 520.0 1374.7
1104(29) 0.001157 519.9 1230.8
993(28) 0.001285 519.8 1099.0
946(27) 0.001352 519.8 990.0
889(26) 0.001435 519.7 900.5
787(25) 0.001626 519.6 825.0
716(24) 0.001780 519.5 762.3
669(23) 0.001907 519.5 712.9
658(23) 0.001941 519.4 676.9
644(23) 0.001975 519.3 652.6
604(22) 0.002104 519.3 637.5
634(22) 0.002011 519.2 629.5
628(22) 0.002029 519.2 626.0
634(22) 0.002011 519.1 625.0
650(23) 0.001958 519.0 626.1
619(22) 0.002066 519.0 632.9
692(23) 0.001842 518.9 650.8
695(23) 0.001842 518.9 682.5
775(25) 0.001652 518.8 722.8
811(25) 0.001575 518.8 758.3
826(25) 0.001550 518.7 774.0
781(25) 0.001626 518.7 763.3
775(25) 0.001652 518.6 732.9
744(24) 0.001708 518.6 696.3
735(24) 0.001736 518.5 665.1
692(23) 0.001842 518.5 643.5
657(23) 0.001941 518.4 629.0
699(23) 0.001826 518.4 617.7
688(23) 0.001858 518.4 606.8
638(22) 0.001993 518.3 596.1
645(23) 0.001975 518.3 587.2
575(21) 0.002225 518.3 581.9
573(21) 0.002225 518.2 581.4
606(22) 0.002104 518.2 585.8
563(21) 0.002268 518.2 594.6
645(23) 0.001975 518.1 607.0
645(23) 0.001975 518.1 621.7
661(23) 0.001924 518.1 636.2
710(24) 0.001795 518.0 647.4
672(23) 0.001890 518.0 653.8
649(23) 0.001958 518.0 655.8
706(24) 0.001811 517.9 654.2
687(23) 0.001858 517.9 649.8
676(23) 0.001890 517.9 644.6
637(22) 0.002011 517.9 642.3
637(22) 0.002011 517.9 646.9
669(23) 0.001907 517.8 660.4
671(23) 0.001907 517.8 679.9
707(24) 0.001811 517.8 697.4
684(23) 0.001858 517.8 703.8
658(23) 0.001941 517.8 695.7
667(23) 0.001907 517.7 678.6
668(23) 0.001907 517.7 662.8
668(23) 0.001907 517.7 655.3
712(24) 0.001795 517.7 656.0
695(23) 0.001842 517.7 658.7
688(23) 0.001858 517.7 656.8
653(23) 0.001958 517.6 647.7
683(23) 0.001874 517.6 632.9
606(22) 0.002104 517.6 616.9
574(21) 0.002225 517.6 603.6
603(22) 0.002124 517.6 596.9
637(22) 0.002011 517.6 599.1
666(23) 0.001924 517.6 610.8
701(23) 0.001826 517.6 630.7
750(24) 0.001708 517.5 655.9
746(24) 0.001708 517.5 682.0
752(24) 0.001694 517.5 705.0
762(24) 0.001680 517.5 724.8
804(25) 0.001587 517.5 746.6
769(25) 0.001652 517.5 778.3
829(26) 0.001538 517.5 823.6
889(26) 0.001435 517.5 876.7
1011(28) 0.001266 517.5 920.6
937(27) 0.001362 517.5 936.8
947(27) 0.001342 517.5 917.3
914(27) 0.001392 517.5 870.9
798(25) 0.001600 517.4 817.2
772(25) 0.001652 517.4 776.1
745(24) 0.001708 517.4 760.8
797(25) 0.001600 517.4 775.1
786(25) 0.001626 517.4 812.1
882(26) 0.001446 517.4 855.5
867(26) 0.001468 517.4 884.8
883(26) 0.001446 517.4 886.2
824(25) 0.001550 517.4 859.0
759(24) 0.001680 517.4 814.4
719(24) 0.001765 517.4 765.3
622(22) 0.002047 517.4 719.3
682(23) 0.001874 517.4 680.4
637(22) 0.002011 517.4 653.1
601(22) 0.002124 517.3 641.8
638(22) 0.001993 517.3 648.7
640(22) 0.001993 517.3 669.0
713(24) 0.001795 517.3 691.1
702(24) 0.001811 517.3 703.6
729(24) 0.001751 517.3 704.6
704(24) 0.001811 517.3 702.4
702(24) 0.001811 517.3 706.3
675(23) 0.001890 517.3 717.4
680(23) 0.001874 517.3 728.1
709(24) 0.001795 517.2 728.1
704(24) 0.001811 517.2 711.5
700(23) 0.001826 517.2 680.0
648(23) 0.001975 517.2 642.0
594(22) 0.002143 517.2 607.4
619(22) 0.002066 517.2 582.2
549(21) 0.002334 517.2 567.3
549(21) 0.002334 517.2 560.8
603(22) 0.002124 517.1 560.7
588(22) 0.002163 517.1 566.9
590(22) 0.002163 517.1 580.9
574(21) 0.002225 517.1 605.5
639(22) 0.001993 517.1 643.7
706(24) 0.001811 517.1 694.5
793(25) 0.001613 517.0 745.7
849(26) 0.001502 517.0 774.5
799(25) 0.001600 517.0 766.5
791(25) 0.001613 517.0 735.2
752(24) 0.001694 517.0 710.2
783(25) 0.001626 516.9 711.4
797(25) 0.001600 516.9 734.0
787(25) 0.001626 516.9 760.4
810(25) 0.001575 516.9 773.3
789(25) 0.001613 516.8 763.7
735(24) 0.001736 516.8 733.3
685(23) 0.001858 516.8 693.1
620(22) 0.002047 516.7 656.7
597(22) 0.002143 516.7 635.4
652(23) 0.001958 516.7 636.9
636(22) 0.002011 516.7 665.5
713(24) 0.001795 516.6 721.4
845(26) 0.001514 516.6 796.9
937(27) 0.001362 516.6 875.2
956(27) 0.001332 516.5 934.9
948(27) 0.001342 516.5 959.5
896(27) 0.001424 516.4 944.5
903(27) 0.001413 516.4 896.8
746(24) 0.001708 516.4 829.3
697(23) 0.001826 516.3 755.8
648(23) 0.001975 516.3 687.8
629(22) 0.002029 516.2 632.9
563(21) 0.002268 516.2 593.7
574(21) 0.002225 516.2 568.7
601(22) 0.002124 516.1 555.1
546(21) 0.002334 516.1 549.8
562(21) 0.002268 516.0 553.8
595(22) 0.002143 516.0 562.6
624(22) 0.002047 515.9 576.2
621(22) 0.002047 515.9 588.4
583(21) 0.002184 515.8 591.4
572(21) 0.002225 515.8 582.5
590(22) 0.002163 515.7 567.4
578(21) 0.002204 515.7 555.3
547(21) 0.002334 515.6 552.3
594(22) 0.002143 515.5 559.7
572(21) 0.002225 515.5 577.9
589(22) 0.002163 515.4 607.6
631(22) 0.002011 515.4 649.5
668(23) 0.001907 515.3 703.8
756(24) 0.001680 515.2 766.3
822(25) 0.001550 515.2 830.6
848(26) 0.001502 515.1 885.9
873(26) 0.001457 515.0 923.9
906(27) 0.001403 515.0 940.2
867(26) 0.001468 514.9 934.3
890(26) 0.001435 514.8 911.7
843(26) 0.001514 514.8 883.3
858(26) 0.001479 514.7 858.8
825(26) 0.001538 514.6 842.4
781(25) 0.001626 514.5 835.6
815(25) 0.001562 514.5 842.8
825(26) 0.001538 514.4 871.5
918(27) 0.001382 514.3 921.7
935(27) 0.001362 514.2 976.9
963(28) 0.001322 514.2 1008.5
962(28) 0.001322 514.1 995.0
896(27) 0.001413 514.0 937.8
775(25) 0.001639 513.9 860.3
756(24) 0.001680 513.8 790.9
760(24) 0.001680 513.7 746.7
741(24) 0.001722 513.7 728.6
693(23) 0.001842 513.6 727.6
748(24) 0.001694 513.5 731.6
678(23) 0.001874 513.4 730.8
709(24) 0.001795 513.3 722.2
695(23) 0.001826 513.2 708.0
671(23) 0.001890 513.1 694.5
675(23) 0.001890 513.0 688.6
683(23) 0.001858 512.9 693.1
694(23) 0.001826 512.8 705.7
735(24) 0.001736 512.7 721.3
726(24) 0.001751 512.7 735.0
710(24) 0.001795 512.6 746.0
715(24) 0.001780 512.5 755.7
749(24) 0.001694 512.4 765.6
738(24) 0.001722 512.3 774.1
837(26) 0.001514 512.2 775.9
754(24) 0.001680 512.1 765.0
753(24) 0.001694 512.0 739.7
689(23) 0.001842 511.9 703.9
648(23) 0.001958 511.8 665.2
590(22) 0.002143 511.6 630.3
560(21) 0.002268 511.5 603.6
586(22) 0.002163 511.4 586.1
555(21) 0.002289 511.3 577.0
608(22) 0.002085 511.2 575.6
579(21) 0.002204 511.1 582.6
643(23) 0.001975 511.0 600.1
655(23) 0.001941 510.9 628.4
703(24) 0.001811 510.8 665.4
714(24) 0.001780 510.7 704.2
727(24) 0.001751 510.6 736.6
724(24) 0.001751 510.5 756.1
731(24) 0.001736 510.4 762.5
753(24) 0.001694 510.2 760.7
778(25) 0.001639 510.1 756.5
757(24) 0.001680 510.0 752.7
766(25) 0.001666 509.9 749.4
742(24) 0.001708 509.8 744.9
746(24) 0.001708 509.7 737.4
697(23) 0.001826 509.6 726.5
698(23) 0.001826 509.5 714.5
651(23) 0.001958 509.4 704.5
634(22) 0.002011 509.2 696.8
666(23) 0.001907 509.1 688.0
626(22) 0.002029 509.0 674.0
638(22) 0.001993 508.9 653.7
632(22) 0.002011 508.8 631.2
625(22) 0.002029 508.7 613.9
663(23) 0.001924 508.6 609.3
614(22) 0.002066 508.4 622.3
674(23) 0.001890 508.3 654.7
724(24) 0.001751 508.2 704.8
823(25) 0.001550 508.1 766.6
858(26) 0.001479 508.0 829.8
960(28) 0.001322 507.9 882.3
956(27) 0.001332 507.8 918.5
963(28) 0.001322 507.6 943.6
922(27) 0.001382 507.5 967.2
945(27) 0.001342 507.4 990.9
1007(28) 0.001266 507.3 1002.1
984(28) 0.001294 507.2 980.8
869(26) 0.001468 507.1 917.2
802(25) 0.001587 507.0 823.8
705(24) 0.001811 506.9 726.1
605(22) 0.002104 506.8 646.5
565(21) 0.002246 506.6 593.7
585(21) 0.002184 506.5 564.2
545(21) 0.002334 506.4 549.8
575(21) 0.002204 506.3 543.5
564(21) 0.002246 506.2 541.4
555(21) 0.002289 506.1 542.4
569(21) 0.002225 506.0 546.6
587(22) 0.002163 505.9 554.0
563(21) 0.002268 505.8 564.3
575(21) 0.002204 505.7 576.7
618(22) 0.002066 505.6 590.8
647(23) 0.001958 505.5 606.9
663(23) 0.001924 505.4 626.5
724(24) 0.001751 505.3 649.1
688(23) 0.001842 505.2 670.7
715(24) 0.001780 505.1 684.6
728(24) 0.001751 505.0 685.5
677(23) 0.001874 504.9 674.2
638(22) 0.001993 504.8 658.5
682(23) 0.001858 504.7 649.1
697(23) 0.001826 504.6 654.2
693(23) 0.001842 504.5 677.3
805(25) 0.001575 504.4 716.1
826(26) 0.001538 504.3 765.6
816(25) 0.001550 504.2 819.5
903(27) 0.001403 504.1 873.2
958(28) 0.001322 504.0 924.9
963(28) 0.001322 504.0 972.3
985(28) 0.001294 503.9 1008.8
1003(28) 0.001266 503.8 1023.9
986(28) 0.001294 503.7 1008.7
864(26) 0.001468 503.6 962.9
826(26) 0.001538 503.5 898.7
803(25) 0.001587 503.5 835.4
788(25) 0.001613 503.4 788.6
768(25) 0.001652 503.3 762.7
726(24) 0.001751 503.2 750.2
708(24) 0.001795 503.2 738.8
727(24) 0.001751 503.1 720.6
646(23) 0.001975 503.0 696.7
698(23) 0.001826 503.0 672.9
652(23) 0.001958 502.9 654.3
652(23) 0.001958 502.8 643.5
644(23) 0.001975 502.8 640.9
612(22) 0.002085 502.7 645.8
655(23) 0.001941 502.6 657.9
687(23) 0.001858 502.6 677.4
666(23) 0.001907 502.5 703.0
731(24) 0.001736 502.5 730.6
757(24) 0.001680 502.4 754.4
741(24) 0.001722 502.4 769.4
772(25) 0.001652 502.3 774.1
755(24) 0.001680 502.3 769.0
789(25) 0.001613 502.2 755.4
757(24) 0.001680 502.2 735.1
710(24) 0.001795 502.1 711.1
686(23) 0.001858 502.1 687.6
666(23) 0.001907 502.0 668.4
675(23) 0.001890 502.0 653.9
621(22) 0.002047 502.0 644.3
616(22) 0.002066 501.9 639.7
664(23) 0.001907 501.9 642.0
644(23) 0.001975 501.9 653.3
680(23) 0.001874 501.8 674.0
700(24) 0.001811 501.8 699.8
701(24) 0.001811 501.8 723.0
712(24) 0.001780 501.8 734.7
732(24) 0.001736 501.7 730.3
691(23) 0.001842 501.7 712.0
684(23) 0.001858 501.7 686.5
634(22) 0.002011 501.7 662.0
609(22) 0.002085 501.7 646.9
624(22) 0.002029 501.6 650.1
691(23) 0.001842 501.6 679.5
764(25) 0.001666 501.6 735.6
838(26) 0.001514 501.6 806.2
911(27) 0.001392 501.6 870.5
971(28) 0.001313 501.6 912.9
953(27) 0.001332 501.6 930.1
920(27) 0.001382 501.6 926.3
914(27) 0.001392 501.6 908.4
914(27) 0.001392 501.6 885.3
922(27) 0.001382 501.6 862.0
902(27) 0.001413 501.6 838.8
869(26) 0.001468 501.6 811.2
767(25) 0.001652 501.6 775.8
676(23) 0.001874 501.7 733.7
664(23) 0.001907 501.7 690.6
581(21) 0.002184 501.7 655.0
608(22) 0.002085 501.7 633.3
608(22) 0.002085 501.7 628.3
639(22) 0.001993 501.7 638.3
679(23) 0.001874 501.8 658.2
692(23) 0.001842 501.8 680.7
696(23) 0.001826 501.8 697.1
732(24) 0.001736 501.9 700.8
684(23) 0.001858 501.9 691.2
691(23) 0.001842 501.9 673.0
651(23) 0.001958 501.9 652.2
625(22) 0.002029 502.0 632.4
648(23) 0.001958 502.0 615.4
638(22) 0.001993 502.1 603.1
629(22) 0.002011 502.1 597.2
664(23) 0.001907 502.1 598.9
608(22) 0.002085 502.2 606.4
647(23) 0.001958 502.2 615.5
648(23) 0.001958 502.3 621.3
646(23) 0.001975 502.3 620.8
639(22) 0.001993 502.4 614.5
625(22) 0.002029 502.4 605.9
593(22) 0.002143 502.5 599.4
615(22) 0.002066 502.5 598.7
613(22) 0.002066 502.6 605.1
621(22) 0.002047 502.6 618.7
611(22) 0.002085 502.7 637.5
671(23) 0.001890 502.8 659.4
670(23) 0.001890 502.8 681.4
716(24) 0.001780 502.9 700.6
761(25) 0.001666 502.9 713.0
713(24) 0.001780 503.0 714.4
734(24) 0.001736 503.1 702.3
728(24) 0.001751 503.1 679.4
706(24) 0.001795 503.2 653.0
647(23) 0.001958 503.3 631.1
614(22) 0.002066 503.3 620.4
636(22) 0.001993 503.4 623.4
650(23) 0.001958 503.5 637.2
627(22) 0.002029 503.5 653.9
652(23) 0.001941 503.6 664.5
656(23) 0.001941 503.7 662.9
635(22) 0.001993 503.8 650.1
614(22) 0.002066 503.8 632.8
616(22) 0.002066 503.9 618.7
615(22) 0.002066 504.0 612.4
591(22) 0.002143 504.1 612.2
609(22) 0.002085 504.1 611.3
634(22) 0.002011 504.2 604.6
557(21) 0.002289 504.3 595.4
595(22) 0.002143 504.4 590.3
604(22) 0.002104 504.5 591.2
621(22) 0.002047 504.5 595.1
582(21) 0.002184 504.6 598.8
586(22) 0.002163 504.7 602.3
609(22) 0.002085 504.8 607.5
611(22) 0.002085 504.9 615.7
655(23) 0.001941 504.9 626.7
650(23) 0.001958 505.0 638.3
658(23) 0.001924 505.1 647.7
685(23) 0.001858 505.2 652.1
651(23) 0.001941 505.3 650.2
637(22) 0.001993 505.3 642.3
635(22) 0.001993 505.4 630.4
601(22) 0.002104 505.5 616.7
585(22) 0.002163 505.6 602.7
551(21) 0.002311 505.7 588.8
532(21) 0.002380 505.7 575.8
588(22) 0.002163 505.8 565.2
570(21) 0.002225 505.9 557.9
584(22) 0.002163 506.0 554.2
563(21) 0.002268 506.1 553.4
543(21) 0.002334 506.1 555.6
539(21) 0.002356 506.2 562.6
578(21) 0.002204 506.3 577.7
637(22) 0.001993 506.4 604.6
656(23) 0.001941 506.4 642.8
674(23) 0.001890 506.5 684.3
684(23) 0.001858 506.6 714.6
686(23) 0.001842 506.7 721.0
712(24) 0.001780 506.7 703.5
684(23) 0.001858 506.8 675.7
651(23) 0.001958 506.9 656.1
673(23) 0.001890 506.9 655.5
688(23) 0.001842 507.0 672.3
688(23) 0.001842 507.1 695.5
721(24) 0.001765 507.1 712.0
700(24) 0.001811 507.2 714.7
683(23) 0.001858 507.3 705.8
671(23) 0.001890 507.3 693.8
712(24) 0.001780 507.4 686.2
647(23) 0.001958 507.4 683.9
665(23) 0.001907 507.5 682.8
664(23) 0.001907 507.6 677.6
676(23) 0.001874 507.6 666.9
644(23) 0.001975 507.7 653.6
629(22) 0.002011 507.7 641.4
652(23) 0.001941 507.8 633.0
634(22) 0.001993 507.8 628.2
669(23) 0.001890 507.9 626.0
618(22) 0.002047 507.9 626.6
665(23) 0.001907 508.0 632.4
669(23) 0.001890 508.0 646.6
659(23) 0.001924 508.0 670.5
733(24) 0.001736 508.1 702.0
742(24) 0.001708 508.1 735.9
768(25) 0.001652 508.2 766.3
801(25) 0.001587 508.2 788.5
803(25) 0.001575 508.2 798.2
777(25) 0.001626 508.2 791.3
794(25) 0.001600 508.3 767.8
726(24) 0.001751 508.3 732.2
695(23) 0.001826 508.3 692.9
649(23) 0.001958 508.3 657.4
626(22) 0.002029 508.4 629.3
589(22) 0.002163 508.4 608.2
631(22) 0.002011 508.4 592.7
564(21) 0.002246 508.4 582.9
589(22) 0.002143 508.4 580.5
576(21) 0.002204 508.4 588.7
657(23) 0.001924 508.4 610.3
677(23) 0.001874 508.4 646.6
773(25) 0.001639 508.4 695.5
810(25) 0.001562 508.4 753.5
920(27) 0.001382 508.4 816.8
933(27) 0.001362 508.4 880.2
942(27) 0.001342 508.4 932.3
895(27) 0.001413 508.4 952.9
830(26) 0.001526 508.4 926.5
800(25) 0.001587 508.4 858.7
748(24) 0.001694 508.4 775.7
638(22) 0.001993 508.3 704.2
655(23) 0.001941 508.3 655.4
610(22) 0.002085 508.3 627.4
570(21) 0.002225 508.3 613.8
584(22) 0.002163 508.2 611.9
574(21) 0.002204 508.2 621.4
635(22) 0.001993 508.2 640.8
598(22) 0.002124 508.1 664.1
678(23) 0.001874 508.1 683.3
683(23) 0.001858 508.1 692.6
662(23) 0.001907 508.0 692.6
678(23) 0.001874 508.0 689.6
684(23) 0.001858 507.9 690.2
677(23) 0.001874 507.9 696.3
704(24) 0.001795 507.8 703.7
649(23) 0.001958 507.8 704.7
708(24) 0.001795 507.7 693.6
645(23) 0.001975 507.6 670.7
613(22) 0.002066 507.6 640.4
585(22) 0.002163 507.5 608.8
580(21) 0.002184 507.4 581.7
529(20) 0.002403 507.4 562.9
569(21) 0.002225 507.3 552.5
559(21) 0.002268 507.2 548.9
573(21) 0.002204 507.1 549.6
596(22) 0.002124 507.1 552.4
594(22) 0.002143 507.0 556.1
543(21) 0.002334 506.9 560.4
561(21) 0.002268 506.8 566.4
575(21) 0.002204 506.7 575.7
561(21) 0.002268 506.6 589.6
653(23) 0.001941 506.6 607.7
645(23) 0.001975 506.5 627.4
656(23) 0.001941 506.4 644.7
664(23) 0.001907 506.3 656.4
694(23) 0.001826 506.2 661.9
628(22) 0.002011 506.1 662.8
648(23) 0.001958 506.0 660.8
646(23) 0.001958 505.9 657.3
644(23) 0.001975 505.8 653.2
656(23) 0.001941 505.7 648.4
674(23) 0.001890 505.5 642.1
651(23) 0.001958 505.4 633.2
621(22) 0.002047 505.3 622.6
591(22) 0.002143 505.2 613.0
632(22) 0.002011 505.1 607.4
644(23) 0.001975 505.0 606.4
588(22) 0.002163 504.9 608.0
604(22) 0.002104 504.7 609.2
583(21) 0.002184 504.6 608.0
573(21) 0.002225 504.5 604.7
592(22) 0.002143 504.4 602.0
586(22) 0.002163 504.2 602.2
629(22) 0.002011 504.1 606.3
620(22) 0.002047 504.0 613.3
624(22) 0.002029 503.9 622.8
659(23) 0.001924 503.7 637.8
693(23) 0.001826 503.6 663.9
726(24) 0.001751 503.5 702.3
726(24) 0.001751 503.4 745.0
754(24) 0.001680 503.2 776.7
727(24) 0.001751 503.1 782.8
731(24) 0.001736 503.0 757.8
683(23) 0.001858 502.8 709.4
660(23) 0.001924 502.7 654.8
599(22) 0.002104 502.6 610.1
606(22) 0.002085 502.4 583.6
570(21) 0.002225 502.3 575.9
587(22) 0.002163 502.2 585.8
591(22) 0.002143 502.0 612.5
659(23) 0.001924 501.9 655.2
722(24) 0.001765 501.8 708.9
745(24) 0.001708 501.6 762.7
819(25) 0.001550 501.5 803.2
794(25) 0.001600 501.4 820.3
758(24) 0.001680 501.2 813.7
763(25) 0.001666 501.1 792.7
773(25) 0.001639 501.0 770.4
786(25) 0.001613 500.9 757.1
833(26) 0.001526 500.7 754.2
794(25) 0.001600 500.6 754.5
822(25) 0.001550 500.5 747.5
712(24) 0.001780 500.3 726.9
707(24) 0.001795 500.2 694.8
711(24) 0.001780 500.1 659.2
632(22) 0.002011 500.0 628.4
612(22) 0.002066 499.9 608.0
590(22) 0.002143 499.7 599.2
571(21) 0.002225 499.6 599.7
595(22) 0.002143 499.5 604.8
590(22) 0.002143 499.4 611.8
666(23) 0.001907 499.3 622.4
664(23) 0.001907 499.2 640.9
721(24) 0.001765 499.0 669.1
722(24) 0.001751 498.9 701.7
720(24) 0.001765 498.8 727.8
765(25) 0.001666 498.7 736.7
712(24) 0.001780 498.6 724.0
659(23) 0.001924 498.5 694.9
665(23) 0.001907 498.4 660.1
578(21) 0.002204 498.3 630.3
622(22) 0.002029 498.2 611.3
564(21) 0.002246 498.1 603.4
593(22) 0.002143 498.0 603.7
619(22) 0.002047 498.0 609.8
650(23) 0.001958 497.9 622.1
618(22) 0.002047 497.8 644.0
687(23) 0.001842 497.7 678.8
702(24) 0.001811 497.6 724.5
772(25) 0.001639 497.6 770.9
794(25) 0.001600 497.5 805.6
804(25) 0.001575 497.4 821.7
819(25) 0.001550 497.3 822.3
820(25) 0.001550 497.3 814.3
848(26) 0.001502 497.2 802.9
779(25) 0.001626 497.2 788.8
759(25) 0.001666 497.1 772.2
725(24) 0.001751 497.1 756.4
738(24) 0.001722 497.0 746.3
714(24) 0.001780 497.0 742.1
723(24) 0.001751 496.9 736.2
717(24) 0.001765 496.9 720.3
688(23) 0.001842 496.8 696.4
728(24) 0.001736 496.8 676.4
671(23) 0.001890 496.8 669.0
701(24) 0.001811 496.8 672.8
670(23) 0.001890 496.7 678.8
705(24) 0.001795 496.7 678.1
663(23) 0.001907 496.7 666.3
652(23) 0.001941 496.7 645.1
628(22) 0.002011 496.7 620.2
591(22) 0.002143 496.7 598.2
549(21) 0.002311 496.7 583.3
602(22) 0.002104 496.7 577.3
589(22) 0.002143 496.7 580.8
633(22) 0.002011 496.7 596.7
645(23) 0.001958 496.7 628.9
665(23) 0.001907 496.7 677.8
739(24) 0.001708 496.7 733.1
787(25) 0.001613 496.8 776.1
867(26) 0.001457 496.8 793.1
766(25) 0.001652 496.8 786.9
777(25) 0.001626 496.9 770.5
755(24) 0.001680 496.9 756.0
750(24) 0.001694 496.9 746.4
761(25) 0.001666 497.0 739.7
711(24) 0.001780 497.0 734.0
743(24) 0.001708 497.1 727.5
737(24) 0.001722 497.1 718.0
721(24) 0.001765 497.2 704.3
661(23) 0.001924 497.3 687.2
667(23) 0.001907 497.3 670.4
683(23) 0.001858 497.4 658.3
655(23) 0.001941 497.5 653.2
678(23) 0.001874 497.5 654.0
638(22) 0.001993 497.6 656.7
664(23) 0.001907 497.7 657.4
641(23) 0.001975 497.8 655.0
668(23) 0.001890 497.9 651.3
652(23) 0.001941 497.9 649.7
637(22) 0.001993 498.0 652.5
651(23) 0.001941 498.1 659.3
687(23) 0.001842 498.2 668.5
716(24) 0.001765 498.3 678.1
669(23) 0.001890 498.4 687.4
708(24) 0.001780 498.5 695.8
767(25) 0.001652 498.6 701.5
684(23) 0.001858 498.8 700.9
682(23) 0.001858 498.9 691.7
683(23) 0.001858 499.0 674.5
645(23) 0.001958 499.1 652.1
603(22) 0.002104 499.2 627.6
599(22) 0.002124 499.3 603.2
558(21) 0.002268 499.5 581.0
542(21) 0.002334 499.6 562.0
557(21) 0.002268 499.7 546.8
538(21) 0.002356 499.8 536.4
506(20) 0.002500 500.0 530.8
533(21) 0.002380 500.1 531.1
565(21) 0.002246 500.2 537.4
559(21) 0.002268 500.4 549.0
555(21) 0.002289 500.5 563.8
631(22) 0.002011 500.6 578.9
586(22) 0.002163 500.8 591.3
596(22) 0.002124 500.9 599.5
616(22) 0.002047 501.0 603.4
622(22) 0.002029 501.2 603.6
624(22) 0.002029 501.3 600.3
624(22) 0.002029 501.5 594.5
598(22) 0.002124 501.6 588.0
580(21) 0.002184 501.7 582.1
580(21) 0.002184 501.9 577.9
536(21) 0.002356 502.0 574.8
547(21) 0.002311 502.2 571.4
563(21) 0.002246 502.3 567.4
559(21) 0.002268 502.4 564.8
567(21) 0.002225 502.6 565.1
604(22) 0.002085 502.7 571.1
613(22) 0.002066 502.8 584.2
610(22) 0.002066 503.0 604.6
664(23) 0.001907 503.1 631.2
737(24) 0.001722 503.2 660.9
733(24) 0.001722 503.4 689.1
726(24) 0.001736 503.5 711.4
751(24) 0.001680 503.6 725.0
754(24) 0.001680 503.8 731.7
738(24) 0.001708 503.9 736.2
742(24) 0.001708 504.0 744.0
779(25) 0.001626 504.1 757.7
784(25) 0.001613 504.2 775.8
784(25) 0.001613 504.4 793.6
827(26) 0.001526 504.5 806.1
828(26) 0.001526 504.6 810.8
815(25) 0.001550 504.7 806.4
756(25) 0.001666 504.8 791.2
754(24) 0.001680 504.9 763.8
740(24) 0.001708 505.0 725.7
663(23) 0.001907 505.1 683.0
622(22) 0.002029 505.2 644.3
594(22) 0.002124 505.3 616.0
604(22) 0.002085 505.3 601.0
566(21) 0.002225 505.4 598.3
615(22) 0.002047 505.5 604.7
614(22) 0.002066 505.6 617.5
615(22) 0.002047 505.6 634.8
656(23) 0.001924 505.7 657.1
668(23) 0.001890 505.8 686.8
700(24) 0.001795 505.8 729.3
778(25) 0.001626 505.9 790.3
860(26) 0.001468 505.9 873.5
994(28) 0.001266 506.0 973.9
1106(30) 0.001141 506.0 1078.6
1156(30) 0.001089 506.1 1164.4
1121(30) 0.001126 506.1 1205.9
1121(30) 0.001126 506.1 1187.5
1031(29) 0.001223 506.1 1112.3
925(27) 0.001362 506.2 1001.0
791(25) 0.001600 506.2 882.9
755(25) 0.001666 506.2 784.7
651(23) 0.001941 506.2 723.1
678(23) 0.001858 506.2 701.5
713(24) 0.001765 506.2 712.2
779(25) 0.001626 506.2 742.5
855(26) 0.001479 506.2 780.0
882(26) 0.001435 506.1 814.5
841(26) 0.001502 506.1 837.9
875(26) 0.001446 506.1 845.5
815(25) 0.001550 506.1 837.0
806(25) 0.001562 506.0 816.1
766(25) 0.001652 506.0 788.1
703(24) 0.001795 505.9 758.0
701(24) 0.001795 505.9 729.1
737(24) 0.001708 505.8 702.8
682(23) 0.001858 505.8 679.9
660(23) 0.001907 505.7 661.4
633(22) 0.001993 505.6 648.8
610(22) 0.002066 505.6 643.0
664(23) 0.001907 505.5 643.4
638(23) 0.001975 505.4 647.6
648(23) 0.001958 505.3 653.2
682(23) 0.001858 505.2 659.1
690(23) 0.001826 505.1 666.9
691(23) 0.001826 505.1 680.0
770(25) 0.001639 505.0 701.7
798(25) 0.001587 504.9 731.0
799(25) 0.001575 504.8 760.8
759(25) 0.001666 504.6 779.9
746(24) 0.001694 504.5 781.4
802(25) 0.001575 504.4 764.5
707(24) 0.001780 504.3 739.3
694(24) 0.001811 504.2 720.3
737(24) 0.001708 504.1 709.8
663(23) 0.001907 504.0 712.0
779(25) 0.001626 503.8 723.8
790(25) 0.001600 503.7 740.2
774(25) 0.001639 503.6 756.6
803(25) 0.001575 503.5 769.8
735(24) 0.001722 503.3 778.8
698(24) 0.001811 503.2 785.9
715(24) 0.001765 503.1 796.0
743(24) 0.001694 503.0 814.0
838(26) 0.001514 502.8 841.7
878(26) 0.001435 502.7 876.4
912(27) 0.001382 502.6 912.1
1022(28) 0.001240 502.5 941.9
1001(28) 0.001257 502.3 960.5
951(27) 0.001332 502.2 966.1
993(28) 0.001276 502.1 960.8
939(27) 0.001342 502.0 947.1
877(26) 0.001446 501.9 922.2
828(26) 0.001526 501.8 881.4
728(24) 0.001736 501.6 824.1
725(24) 0.001736 501.5 758.0
663(23) 0.001907 501.4 695.2
627(22) 0.002011 501.4 645.0
608(22) 0.002085 501.3 610.9
590(22) 0.002143 501.2 591.4
621(22) 0.002029 501.1 582.6
597(22) 0.002124 501.0 580.6
591(22) 0.002143 501.0 582.4
573(21) 0.002204 500.9 586.8
644(23) 0.001958 500.8 594.4
602(22) 0.002104 500.8 605.6
602(22) 0.002104 500.7 619.5
653(23) 0.001941 500.7 632.9
706(24) 0.001795 500.7 641.6
626(22) 0.002011 500.7 643.0
631(22) 0.001993 500.7 637.3
646(23) 0.001958 500.6 626.9
661(23) 0.001907 500.7 615.7
611(22) 0.002066 500.7 606.5
605(22) 0.002085 500.7 600.4
674(23) 0.001874 500.7 596.0
615(22) 0.002047 500.8 590.6
588(22) 0.002143 500.8 582.5
585(22) 0.002163 500.9 572.5
578(21) 0.002184 501.0 564.2
591(22) 0.002124 501.1 561.6
572(21) 0.002204 501.2 566.7
560(21) 0.002246 501.3 578.4
615(22) 0.002047 501.4 593.3
617(22) 0.002047 501.6 608.4
630(22) 0.002011 501.7 623.8
652(23) 0.001941 501.9 641.9
703(24) 0.001795 502.0 665.5
735(24) 0.001722 502.2 693.8
764(25) 0.001652 502.4 721.4
762(25) 0.001652 502.6 740.0
713(24) 0.001765 502.9 743.2
784(25) 0.001600 503.1 730.9
651(23) 0.001941 503.4 708.7
662(23) 0.001907 503.6 684.6
653(23) 0.001924 503.9 665.7
609(22) 0.002066 504.2 656.5
651(23) 0.001941 504.5 658.2
689(23) 0.001826 504.8 668.2
699(24) 0.001795 505.2 679.8
717(24) 0.001765 505.5 684.9
691(23) 0.001826 505.9 678.1
654(23) 0.001924 506.3 660.6
635(22) 0.001993 506.6 638.9
594(22) 0.002124 507.0 620.7
610(22) 0.002066 507.5 611.7
659(23) 0.001907 507.9 614.8
654(23) 0.001924 508.3 629.7
641(23) 0.001958 508.8 653.7
667(23) 0.001890 509.2 679.2
707(24) 0.001780 509.7 695.9
694(24) 0.001811 510.2 695.6
663(23) 0.001907 510.6 678.4
659(23) 0.001907 511.1 651.7
679(23) 0.001858 511.7 624.4
597(22) 0.002104 512.2 602.2
565(21) 0.002225 512.7 586.7
587(22) 0.002143 513.2 577.7
579(21) 0.002184 513.8 574.3
584(22) 0.002163 514.3 576.5
586(22) 0.002143 514.8 583.8
568(21) 0.002204 515.4 595.4
594(22) 0.002124 516.0 610.3
635(23) 0.001975 516.5 626.3
681(23) 0.001842 517.1 641.4
660(23) 0.001907 517.6 654.3
666(23) 0.001890 518.2 664.4
652(23) 0.001941 518.8 670.8
626(22) 0.002011 519.3 672.3
638(23) 0.001975 519.9 668.2
635(23) 0.001975 520.4 659.3
617(22) 0.002047 521.0 647.7
605(22) 0.002085 521.5 635.3
657(23) 0.001924 522.1 623.6
591(22) 0.002124 522.6 613.6
624(22) 0.002011 523.1 606.2
565(21) 0.002225 523.6 601.8
588(22) 0.002143 524.1 601.3
607(22) 0.002066 524.6 605.5
631(22) 0.001993 525.1 614.4
635(23) 0.001975 525.5 626.3
679(23) 0.001858 526.0 638.3
681(23) 0.001858 526.4 646.9
651(23) 0.001941 526.8 649.4
648(23) 0.001941 527.2 645.4
657(23) 0.001924 527.5 637.0
600(22) 0.002104 527.9 627.8
639(23) 0.001975 528.2 621.3
618(22) 0.002029 528.5 618.4
630(22) 0.001993 528.7 619.8
644(23) 0.001958 529.0 624.6
638(23) 0.001975 529.2 630.7
618(22) 0.002047 529.3 636.2
620(22) 0.002029 529.5 639.9
636(23) 0.001975 529.6 642.5
661(23) 0.001907 529.7 646.8
621(22) 0.002029 529.7 657.2
629(22) 0.001993 529.7 677.7
761(25) 0.001652 529.7 709.7
704(24) 0.001795 529.6 747.9
798(25) 0.001575 529.6 779.9
796(25) 0.001587 529.4 794.4
740(24) 0.001708 529.2 789.2
722(24) 0.001751 529.0 771.3
724(24) 0.001736 528.8 748.8
706(24) 0.001780 528.5 726.8
685(23) 0.001842 528.2 707.3
663(23) 0.001907 527.8 691.0
622(22) 0.002029 527.4 678.1
702(24) 0.001795 527.0 668.7
709(24) 0.001780 526.5 663.4
613(22) 0.002047 526.0 663.8
671(23) 0.001874 525.5 673.6
709(24) 0.001780 524.9 699.1
771(25) 0.001626 524.3 744.9
894(27) 0.001403 523.7 806.7
905(27) 0.001392 523.1 865.9
909(27) 0.001382 522.4 895.0
874(26) 0.001435 521.7 877.8
864(26) 0.001457 521.0 824.1
774(25) 0.001626 520.3 760.8
709(24) 0.001780 519.6 710.0
704(24) 0.001780 518.9 678.1
661(23) 0.001907 518.2 659.6
642(23) 0.001958 517.5 646.6
662(23) 0.001907 516.8 633.6
660(23) 0.001907 516.1 620.8
636(23) 0.001975 515.5 609.1
616(22) 0.002047 514.9 599.8
592(22) 0.002124 514.4 593.2
598(22) 0.002104 513.9 588.6
572(21) 0.002204 513.4 585.4
592(22) 0.002124 513.1 583.5
553(21) 0.002268 512.8 583.9
607(22) 0.002066 512.7 589.1
623(22) 0.002029 512.6 602.6
643(23) 0.001958 512.7 627.0
648(23) 0.001941 512.9 661.3
689(23) 0.001826 513.3 699.3
687(23) 0.001826 513.9 729.8
725(24) 0.001736 514.6 742.5
725(24) 0.001736 515.6 733.7
676(23) 0.001858 516.8 709.4
679(23) 0.001858 518.3 680.4
667(23) 0.001890 520.0 657.0
684(23) 0.001842 522.0 645.2
622(22) 0.002029 524.4 646.4
630(22) 0.001993 527.1 657.6
698(24) 0.001811 530.2 672.0
682(23) 0.001842 533.7 682.0
703(24) 0.001795 537.6 682.9
686(23) 0.001842 542.1 675.5
640(23) 0.001975 547.0 664.8
611(22) . . .
loop_
_gsas_i100_meas
99.17
11.90
100.00
5.46
1.99
13.87
3.11
11.62
78.65
0.24
65.00
40.24
30.43
6.39
2.25
0.01
31.64
22.99
14.13
43.63
2.33
59.60
11.73
6.94
3.90
9.50
2.58
7.17
1.57
9.43
0.87
5.58
15.35
4.41
2.17
16.00
1.52
0.69
69.45
6.78
54.90
77.18
18.23
3.35
3.40
1.15
6.53
0.83
4.13
0.00
0.43
0.09
3.56
0.04
1.57
2.94
4.20
14.14
11.91
0.03
0.91
1.01
5.15
30.75
0.05
0.00
14.42
0.99
0.26
2.08
5.92
8.80
4.64
5.12
0.85
0.33
6.88
0.21
22.70
1.39
0.25
40.78
1.66
2.53
2.55
6.76
0.53
0.11
4.07
10.91
3.25
0.45
1.12
1.38
1.08
2.31
1.47
3.11
2.85
1.80
0.37
0.50
3.38
2.45
0.00
0.64
9.69
2.33
0.75
1.37
6.12
0.01
1.56
0.43
0.84
0.05
0.95
0.13
1.32
1.43
2.02
1.68
1.69
1.92
0.06
0.34
0.26
1.97
4.05
3.08
0.30
0.53
0.72
0.25
0.40
0.73
1.95
0.29
0.15
8.52
0.11
0.39
1.44
0.07
0.03
0.50
1.13
0.58
0.12
6.65
0.19
0.31
0.00
1.92
0.47
1.45
0.32
4.94
0.12
4.80
0.01
1.46
0.04
0.03
0.10
0.07
1.91
0.91
3.27
5.41
4.13
0.01
2.53
1.32
0.01
1.35
0.00
0.08
4.88
0.86
1.07
1.78
0.00
0.00
0.00
0.22
0.42
0.60
0.07
1.61
0.00
0.23
0.10
0.84
0.41
0.05
0.08
0.11
4.25
1.14
0.96
0.00
1.39
0.43
0.58
0.61
0.05
0.30
0.24
0.02
2.28
2.27
0.28
0.41
0.09
0.58
0.96
0.47
3.98
1.64
0.88
0.00
1.50
0.76
0.74
2.34
0.33
0.36
0.00
0.37
0.87
0.69
1.53
0.27
0.07
0.26
0.22
2.75
0.10
0.06
0.11
0.17
0.19
0.02
0.90
4.02
0.29
0.00
0.33
0.89
0.43
0.54
2.54
5.01
6.47
0.03
0.67
0.41
0.64
0.90
0.02
0.05
1.56
0.11
1.11
0.50
0.66
0.03
0.12
4.75
4.56
0.77
0.44
6.56
8.27
0.78
6.13
0.05
0.02
0.21
0.01
5.57
6.21
0.01
0.00
0.71
0.09
0.26
0.06
6.21
0.11
2.65
1.21
0.15
0.38
2.06
2.22
0.01
2.12
1.06
0.12
0.43
0.48
1.38
0.03
0.00
8.87
0.32
1.40
2.13
0.06
0.00
0.44
1.94
0.89
0.02
0.24
1.92
1.20
1.93
1.01
0.07
0.04
1.37
0.21
0.51
0.06
0.48
0.02
2.09
1.08
0.51
3.50
0.01
0.30
1.41
0.42
1.07
0.74
2.12
0.00
0.10
0.00
0.13
1.35
1.42
1.02
0.06
2.63
0.03
0.06
3.81
0.28
0.15
0.14
0.02
0.78
0.01
0.16
0.00
0.40
2.09
0.18
0.08
0.43
0.06
0.86
0.22
0.07
0.83
0.00
0.12
0.05
0.37
0.20
4.38
4.09
0.06
0.01
0.78
0.35
3.57
0.07
1.18
0.04
0.02
0.87
0.79
0.59
0.17
0.16
0.20
5.00
0.04
2.39
0.30
0.39
0.00
1.67
0.41
0.94
6.69
0.03
0.20
1.43
0.02
0.00
0.00
0.06
0.18
1.00
1.34
1.10
1.90
0.08
0.13
0.30
0.05
0.03
0.73
0.74
1.38
0.20
0.11
0.21
0.73
0.08
0.22
1.05
0.00
1.01
0.59
1.89
0.24
0.42
3.32
0.09
0.15
0.79
0.05
3.57
0.46
0.20
0.14
0.72
0.12
0.06
0.33
0.30
1.48
0.05
0.79
0.74
0.03
0.25
0.23
0.42
0.01
0.49
0.05
0.00
0.00
1.43
0.57
0.44
1.84
0.18
0.43
0.76
0.41
0.14
0.60
0.15
0.08
1.20
0.20
0.68
0.35
2.33
3.78
0.00
0.82
0.01
0.00
0.27
0.01
0.01
0.13
0.31
0.09
1.55
0.50
0.92
0.15
0.33
0.16
0.02
0.35
4.56
1.18
2.55
0.27
0.38
0.86
0.08
0.28
0.33
0.17
0.03
1.71
0.41
0.21
0.30
0.23
0.33
0.35
0.08
0.40
0.51
1.34
0.01
0.16
0.56
1.66
0.51
0.55
1.83
0.01
0.39
0.01
0.02
0.22
0.28
1.92
1.64
0.00
1.54
0.95
0.08
0.14
0.00
0.22
0.23
0.09
0.34
0.46
0.42
0.30
0.02
0.03
0.12
1.70
0.02
0.90
1.65
0.03
0.48
1.22
0.69
0.40
0.01
0.04
0.21
0.19
0.53
0.10
0.29
0.02
0.15
0.00
3.37
0.02
0.72
0.20
4.19
0.13
0.06
0.01
0.00
0.26
0.17
0.33
0.03
0.15
0.33
1.57
1.14
0.24
0.78
0.02
0.39
0.70
0.18
3.76
0.00
0.13
0.41
1.88
0.65
0.52
1.08
0.49
0.17
4.01
0.24
0.00
0.01
0.11
6.16
1.71
0.75
0.09
0.05
0.73
3.89
0.07
0.21
0.29
1.27
1.99
1.18
0.13
0.97
0.07
0.03
0.69
0.72
0.56
0.32
0.59
0.01
0.15
3.49
1.12
0.18
0.49
0.08
2.22
0.05
0.39
0.05
0.95
0.56
0.02
0.40
0.57
0.43
0.18
0.84
0.15
0.00
0.02
0.00
0.00
0.11
0.02
3.01
0.81
0.19
0.00
0.00
0.16
0.00
0.00
0.31
2.36
3.43
0.25
0.10
0.14
0.12
0.02
0.00
0.16
0.03
0.13
1.93
0.25
3.16
0.15
0.01
0.12
0.04
0.00
0.39
1.84
2.61
0.38
0.18
0.16
0.01
0.42
0.24
0.12
2.45
4.74
0.20
0.05
0.34
1.58
0.11
5.29
0.20
0.12
0.45
0.01
0.05
0.63
1.15
0.10
0.01
0.01
0.55
0.86
3.75
0.20
0.00
0.00
2.63
0.15
1.22
0.61
0.08
0.04
0.28
0.16
0.00
0.19
1.70
0.13
0.00
0.33
0.29
0.01
0.74
0.23
3.38
1.84
0.01
0.01
0.90
0.30
0.03
0.29
0.02
0.53
0.21
0.11
1.17
0.46
0.32
0.84
0.04
0.21
0.00
1.46
2.46
0.95
0.78
0.01
1.33
0.70
2.19
0.27
0.15
0.03
0.28
0.31
0.02
0.06
2.05
0.00
0.25
0.00
0.00
0.02
0.65
0.41
2.65
0.02
0.02
0.06
0.00
0.12
0.57
0.03
0.70
0.22
0.18
0.10
0.02
1.72
0.03
0.23
0.02
0.00
1.01
0.02
0.61
1.65
1.09
0.30
0.20
1.00
0.03
0.02
0.42
0.18
0.36
1.00
0.30
0.15
0.19
0.48
0.97
0.17
0.00
0.24
0.03
0.00
0.87
0.00
0.00
0.85
0.08
1.53
0.77
0.59
0.14
0.07
0.17
0.90
0.00
0.35
0.48
0.21
0.02
0.13
1.12
0.44
0.18
0.53
0.07
0.52
0.03
0.05
0.41
0.29
0.23
1.18
1.41
2.45
0.20
0.10
0.12
0.11
0.10
0.00
1.09
0.05
1.38
0.06
0.08
2.05
0.54
0.01
3.35
0.00
0.01
0.68
0.65
0.08
0.21
0.18
0.00
0.69
0.29
0.06
1.17
0.11
0.03
0.19
0.12
0.65
0.03
0.35
0.39
0.15
0.04
0.20
0.01
0.25
0.39
0.00
0.28
0.99
0.01
0.11
0.41
0.24
0.00
0.07
0.06
0.06
0.55
0.12
0.10
2.04
0.00
0.04
0.03
0.01
0.38
0.50
0.02
0.00
0.04
0.87
0.00
0.43
0.01
0.19
0.05
0.01
0.01
0.00
0.23
0.01
1.40
0.68
1.05
1.31
0.23
0.50
0.24
1.94
0.90
0.97
1.04
0.79
0.05
0.00
0.06
0.16
0.69
0.02
0.13
0.05
0.80
0.11
0.03
0.02
0.00
0.13
0.00
0.65
0.17
0.75
0.05
0.21
0.82
0.19
0.34
0.45
0.13
0.44
0.24
0.85
0.05
0.05
1.39
0.53
0.89
0.01
0.10
0.44
0.25
2.42
0.21
0.00
0.00
0.70
0.36
2.26
0.00
0.00
0.15
1.41
0.34
0.01
0.51
0.39
0.11
0.01
0.78
0.35
0.59
0.39
0.52
0.36
0.20
0.00
1.40
0.10
0.25
0.06
0.29
0.02
0.01
0.11
0.01
0.12
0.71
0.05
0.11
0.09
0.08
0.30
0.03
0.26
0.03
0.34
0.05
0.37
0.02
0.00
1.91
0.00
0.00
0.06
0.22
0.00
1.17
0.09
0.08
0.01
0.21
0.27
0.00
0.02
0.37
0.04
0.14
0.25
0.60
0.08
0.17
1.09
0.17
0.01
0.12
0.25
0.34
0.03
0.14
2.42
0.32
0.21
0.49
0.03
0.01
0.00
0.07
0.42
0.32
0.01
0.80
0.41
1.84
0.58
0.05
0.44
0.12
0.22
0.18
0.02
0.05
0.39
0.00
0.05
0.43
0.00
0.00
0.31
0.06
0.02
0.22
0.01
0.24
0.14
0.20
0.10
0.04
0.04
0.09
0.14
0.11
0.36
0.00
0.91
0.24
0.03
0.00
0.03
0.17
0.10
0.32
0.36
1.92
1.08
0.47
0.26
0.06
0.06
0.00
0.32
0.09
0.00
0.18
0.00
0.14
0.15
0.03
0.00
2.20
0.30
0.01
0.52
0.29
0.00
0.00
0.00
0.05
0.00
0.00
0.02
0.33
0.00
0.00
0.07
1.05
0.26
0.50
0.66
0.08
0.47
0.49
0.01
0.01
0.13
0.09
0.01
0.14
0.07
0.01
0.08
0.50
0.04
0.80
0.31
0.16
0.00
0.00
0.00
0.01
0.00
0.01
0.62
0.10
0.11
0.03
0.01
0.06
0.00
0.18
0.00
0.22
0.17
0.00
0.21
0.78
0.73
0.05
0.08
0.01
0.26
0.12
0.05
0.01
0.00
0.02
0.40
0.12
0.03
0.17
0.10
0.28
0.07
0.50
0.21
0.08
0.02
0.22
0.15
0.02
0.00
0.50
0.54
0.04
0.00
0.04
0.20
0.00
0.02
0.00
0.01
0.03
0.71
0.05
0.20
0.26
0.00
0.09
0.01
0.00
0.01
0.03
0.04
0.40
0.01
0.14
0.14
0.30
0.20
0.25
0.00
0.14
0.13
0.13
0.00
0.01
0.13
0.05
0.00
0.04
0.44
0.00
0.16
0.01
1.54
0.61
0.21
0.37
0.04
0.32
0.07
0.07
0.13
0.12
0.07
0.18
0.00
0.00
0.11
0.05
0.33
0.18
0.04
0.00
0.11
0.00
0.14
0.90
0.59
0.16
0.09
0.00
0.03
0.41
0.00
0.00
0.13
0.19
1.14
0.00
0.03
0.09
0.03
0.00
0.07
0.08
0.09
0.12
1.50
0.06
0.24
0.05
0.08
0.04
0.45
0.03
0.00
0.11
0.00
0.00
0.09
0.45
0.10
0.01
0.00
0.01
0.06
0.05
0.12
0.01
0.42
0.00
0.20
0.16
0.00
0.00
0.12
0.06
0.03
0.06
0.05
0.02
0.21
0.42
0.41
0.00
0.01
0.86
0.18
0.00
0.02
0.13
0.09
0.00
0.00
0.00
0.05
0.05
0.34
0.06
0.20
0.55
0.00
0.02
0.04
0.03
0.16
0.01
0.01
0.19
0.02
0.07
0.13
0.50
0.02
0.08
0.01
0.32
0.06
0.12
0.00
0.01
0.01
0.11
0.02
0.01
0.01
0.53
0.05
0.08
0.03
0.02
0.04
0.08
0.02
1.56
0.00
0.01
0.00
0.06
0.00
0.00
0.13
0.01
0.12
0.04
0.13
0.02
0.00
0.01
0.15
0.02
0.09
0.13
0.01
0.38
0.34
0.28
0.80
0.26
0.06
0.02
0.05
0.62
0.02
0.00
0.08
0.05
0.34
0.00
0.17
0.09
0.00
0.45
0.01
0.04
0.10
0.12
0.70
0.13
0.05
0.33
0.14
0.03
0.00
0.09
0.36
0.14
0.34
0.00
0.51
0.14
0.20
0.12
0.18
0.27
0.04
0.01
0.99
0.00
0.52
0.63
0.00
0.17
0.06
0.24
0.00
0.05
0.00
0.01
0.01
0.52
0.14
0.39
0.35
0.18
0.00
0.18
0.42
0.15
0.00
0.34
0.00
0.42
0.11
0.00
0.01
0.01
0.32
0.01
0.04
0.01
0.03
0.00
0.85
0.10
1.19
0.00
0.10
0.06
0.34
0.13
0.64
0.02
0.18
0.32
0.09
0.47
0.01
0.07
0.13
0.05
0.08
0.03
0.01
0.07
0.22
0.21
0.02
0.67
1.80
0.24
0.32
0.23
0.02
0.03
0.02
0.00
0.47
0.00
0.00
0.02
0.04
0.03
0.01
0.11
0.00
0.77
0.03
0.10
0.18
0.28
0.02
0.36
0.05
0.09
0.02
0.33
0.00
0.00
0.33
0.04
0.09
0.00
0.11
0.05
0.03
0.00
0.02
0.08
0.05
0.04
0.23
0.02
0.05
0.09
0.09
0.07
0.09
0.30
0.00
0.01
0.09
0.27
0.29
0.03
1.13
0.02
0.66
0.84
0.11
0.01
0.01
0.02
0.07
0.18
0.14
0.00
0.05
0.00
0.04
0.47
0.25
0.10
0.01
0.02
0.27
0.00
0.13
0.21
0.03
0.01
0.00
0.00
0.83
0.14
0.07
0.08
0.21
0.54
0.12
0.06
0.76
0.02
0.02
0.05
0.09
0.04
0.01
0.16
0.03
0.06
0.51
0.00
0.10
0.03
0.03
0.04
0.10
0.02
0.14
0.19
0.78
0.05
0.11
0.00
0.15
0.14
0.07
0.00
0.00
0.01
0.02
0.13
0.33
0.38
0.01
0.02
0.01
0.01
0.02
0.07
0.15
0.01
0.26
1.15
0.02
0.04
0.34
0.07
0.10
0.00
0.06
0.28
0.00
0.00
0.76
0.26
0.00
0.01
0.77
0.04
0.05
0.26
0.02
0.08
0.08
0.58
0.02
0.06
0.11
0.03
0.02
0.07
0.03
0.12
0.40
0.07
0.19
0.24
0.04
0.35
0.09
0.01
0.03
0.15
0.06
0.03
0.01
0.11
0.07
0.05
0.09
0.15
0.03
0.00
0.06
0.59
0.10
0.06
0.10
0.05
0.00
0.40
0.66
0.01
0.05
0.00
0.00
0.72
0.30
0.02
1.07
0.03
0.01
0.07
0.06
0.00
0.06
0.03
0.07
0.05
0.02
0.03
0.03
0.00
0.18
0.05
0.40
0.10
0.02
0.00
0.27
0.09
0.21
0.35
0.02
0.09
0.25
0.14
0.08
0.26
0.00
0.24
0.00
0.02
0.00
0.05
0.19
0.18
0.01
0.02
0.23
0.01
0.07
0.30
0.00
0.05
0.02
0.01
0.01
0.06
0.00
0.12
0.00
0.18
0.01
0.05
0.01
0.04
0.02
0.00
0.01
0.15
1.11
0.17
0.03
0.12
0.03
0.02
0.01
0.05
0.00
0.25
0.01
0.04
0.06
0.00
0.10
0.11
0.16
0.62
0.06
0.04
0.06
0.03
0.00
0.02
0.15
0.30
0.26
0.02
0.05
0.29
0.01
0.01
0.05
0.05
0.60
0.16
0.03
0.07
0.26
0.06
0.05
0.41
0.01
0.39
0.31
0.00
0.05
0.31
0.04
0.11
0.41
0.17
0.11
0.04
0.02
0.93
0.01
0.08
0.08
0.12
0.00
0.03
0.01
0.01
0.25
0.01
0.34
0.02
0.03
0.03
0.11
0.06
0.02
0.01
0.04
0.02
0.01
0.01
0.00
0.30
0.07
0.06
0.00
0.02
0.10
0.00
0.00
0.09
0.02
0.03
0.09
0.02
0.08
0.01
0.19
0.08
0.09
0.13
0.38
0.12
0.00
0.04
0.40
0.00
0.01
0.13
0.22
0.01
0.09
0.10
0.07
0.00
0.00
0.04
0.10
0.11
0.19
0.05
0.02
0.12
0.10
0.04
0.14
0.01
0.00
0.26
0.17
0.00
0.23
0.05
0.00
0.00
0.08
0.01
0.00
0.01
0.18
0.12
0.09
0.03
0.02
0.05
0.19
0.01
0.08
0.02
0.00
0.00
0.03
0.04
0.01
0.01
0.24
0.02
0.00
0.15
0.03
0.01
0.01
0.11
0.03
0.04
0.21
0.00
0.01
0.09
0.04
0.03
0.09
0.54
0.01
0.01
0.31
0.02
0.01
0.00
0.15
0.12
0.00
0.01
0.34
0.02
0.32
0.00
1.25
0.06
0.40
0.41
0.00
0.14
0.00
0.06
0.01
0.05
0.10
0.01
0.06
0.03
0.00
0.55
0.00
0.00
0.07
0.03
0.00
0.02
0.02
0.01
0.01
0.10
0.14
0.00
0.10
0.20
0.00
0.00
0.05
0.04
0.00
0.18
0.02
0.61
0.02
0.00
0.02
0.27
0.11
0.38
0.05
0.32
0.03
0.03
0.11
0.06
0.03
0.03
0.01
0.03
0.10
0.04
0.02
0.06
0.08
0.00
0.41
0.24
0.15
0.01
0.00
0.06
0.02
0.01
0.07
0.68
0.04
0.00
0.03
0.00
0.02
0.12
0.15
0.00
0.00
0.00
0.04
0.48
0.00
0.00
0.11
0.01
0.03
0.09
0.13
0.00
0.00
0.03
0.03
0.07
0.02
0.05
0.32
0.73
0.08
0.05
1.34
0.14
0.07
0.21
0.43
0.00
0.01
0.02
0.08
0.16
0.04
0.00
0.03
0.04
0.16
0.23
0.07
0.16
0.00
0.01
0.11
0.35
0.19
0.41
0.08
0.02
0.03
0.00
0.25
0.23
0.08
0.04
0.12
0.36
0.07
0.07
0.00
0.02
0.02
0.10
0.06
0.06
0.00
0.11
0.02
0.03
0.08
0.04
0.05
0.12
0.04
0.29
0.06
0.07
0.01
0.01
0.10
0.06
0.27
0.00
0.01
0.02
0.00
0.03
0.01
0.00
0.03
0.06
0.15
0.02
0.05
0.00
0.04
0.37
0.00
0.11
0.18
0.09
0.05
0.05
0.01
0.01
0.00
0.00
0.06
0.02
0.07
0.00
0.18
0.19
0.02
0.17
0.00
0.02
0.11
0.01
0.00
0.04
0.07
0.00
0.07
0.03
0.00
0.00
0.24
0.03
0.15
0.46
0.22
0.06
0.01
0.36
0.32
0.05
0.01
0.04
0.00
0.16
0.07
0.00
0.03
0.00
0.24
0.02
0.05
0.01
0.06
0.01
0.08
0.00
0.00
0.01
0.01
0.08
0.03
0.03
0.00
0.15
0.07
0.02
0.20
0.01
0.00
0.05
0.02
0.23
0.01
0.02
0.00
0.01
0.01
0.04
0.15
0.03
0.14
0.09
0.29
0.01
0.22
0.01
0.00
0.01
0.04
0.41
0.00
0.03
0.06
0.00
0.01
0.00
0.00
0.03
0.12
0.10
0.00
0.11
0.18
0.01
0.08
0.02
0.01
0.07
0.06
0.06
0.00
0.08
0.00
0.04
0.00
0.00
0.07
0.00
0.00
0.02
0.00
0.00
0.19
0.00
0.00
0.69
0.06
0.26
0.01
0.00
0.03
0.19
0.13
0.05
0.50
0.77
0.05
0.12
0.08
0.02
0.27
0.12
0.01
0.06
0.17
0.07
0.05
0.06
0.17
0.08
0.41
0.11
0.13
0.01
0.03
0.19
0.08
0.04
0.00
0.00
0.04
0.00
0.17
0.10
0.01
0.04
0.06
0.12
0.00
0.08
0.00
0.03
0.02
0.05
0.33
0.15
0.04
0.17
0.18
0.21
0.00
0.05
0.01
0.09
0.26
0.10
0.01
0.20
0.01
0.01
0.04
0.08
0.27
0.07
0.01
0.00
0.00
0.12
0.05
0.00
0.05
0.00
0.17
0.00
0.00
0.00
0.05
0.74
0.07
0.00
0.03
0.02
0.00
0.00
0.01
0.06
0.00
0.34
0.06
0.01
0.05
0.02
0.00
0.03
0.00
0.19
0.00
0.09
0.00
0.02
0.00
0.09
0.00
0.01
0.02
0.06
0.00
0.01
0.15
0.04
0.70
0.22
0.04
0.06
0.09
0.00
0.00
0.01
0.21
0.08
0.01
0.23
0.01
0.22
0.15
0.26
0.36
0.00
0.01
0.13
0.05
0.01
0.01
0.13
0.17
0.05
0.10
0.16
0.00
0.01
0.09
0.05
0.25
0.00
0.02
0.05
0.04
0.05
0.08
0.00
0.14
0.08
0.03
0.05
0.10
0.01
0.01
0.02
0.20
0.03
0.03
0.05
0.62
0.14
0.13
0.09
0.02
0.45
0.05
0.01
0.12
0.21
0.01
0.00
0.19
0.11
0.05
0.00
0.00
0.01
0.03
0.15
0.31
0.01
0.00
0.03
0.20
0.05
0.12
0.06
0.03
0.03
0.02
0.03
0.01
0.04
0.05
0.02
0.00
0.07
0.04
0.07
0.02
0.00
0.03
0.00
0.00
0.04
0.10
0.01
0.06
0.00
0.03
0.29
0.17
0.08
0.00
0.08
0.00
0.09
0.01
0.26
0.01
0.00
0.00
0.06
0.00
0.04
0.60
0.09
0.02
0.13
0.01
0.00
0.00
0.13
0.07
0.11
0.03
0.00
0.00
0.00
0.00
0.05
0.02
0.00
0.05
0.05
0.02
0.01
0.00
0.00
0.08
0.02
0.01
0.04
0.00
0.01
0.00
0.15
0.16
0.04
0.01
0.02
0.02
0.01
0.03
0.01
0.08
0.02
0.08
0.03
0.06
0.02
0.00
0.03
0.02
0.33
0.00
0.04
0.01
0.19
0.08
0.23
0.00
0.01
0.00
0.02
0.00
0.03
0.00
0.01
0.42
0.00
0.03
0.00
0.01
0.12
0.06
0.02
0.02
0.14
0.00
0.03
0.09
0.10
0.22
0.00
0.07
0.00
0.10
0.00
0.01
0.12
0.05
0.21
0.05
0.07
0.16
0.00
0.05
0.03
0.04
0.10
0.00
0.03
0.04
0.00
0.19
0.02
0.53
0.01
0.00
0.01
0.04
0.02
0.07
0.00
0.00
0.00
0.20
0.23
0.05
0.01
0.03
0.05
0.01
0.09
0.02
0.40
0.03
0.08
0.01
0.05
0.03
0.04
0.02
0.01
0.00
0.54
0.44
0.09
0.00
0.00
0.05
0.32
0.24
0.00
0.00
0.08
0.02
0.07
0.01
0.02
0.00
0.02
0.00
0.09
0.12
0.07
0.06
0.05
0.10
0.03
0.04
0.00
0.03
0.00
0.02
0.03
0.14
0.01
0.01
0.02
0.11
0.01
0.01
0.07
0.00
0.00
0.04
0.01
0.01
0.06
0.00
0.02
0.24
0.00
0.01
0.06
0.06
0.03
0.06
0.06
0.00
0.42
0.12
0.06
0.03
0.02
0.04
0.00
0.03
0.10
0.00
0.00
0.05
0.13
0.03
0.01
0.01
0.09
0.01
0.00
0.00
0.02
0.01
0.26
0.02
0.04
0.25
0.05
0.04
0.06
0.05
0.06
0.20
0.00
0.01
0.01
0.03
0.00
0.05
0.17
0.08
0.02
0.07
0.01
0.03
0.18
0.02
0.01
0.00
0.12
0.07
0.01
0.07
0.01
0.05
0.00
0.02
0.28
0.01
0.03
0.17
0.00
0.18
0.02
0.20
0.02
0.01
0.20
0.00
0.04
0.07
0.01
0.02
0.18
0.00
0.09
0.07
0.01
0.14
0.05
0.03
0.05
0.08
0.03
0.22
0.09
0.02
0.00
0.01
0.02
0.00
0.25
0.12
0.01
0.01
0.08
0.03
0.20
0.06
0.02
0.00
0.03
0.00
0.01
0.08
0.18
0.08
0.04
0.06
0.08
0.26
0.00
0.16
0.04
0.00
0.06
0.02
0.21
0.07
0.06
0.13
0.00
0.01
0.00
0.00
0.03
0.00
0.00
0.04
0.01
0.20
0.00
0.01
0.00
0.07
0.00
0.16
0.01
0.05
0.13
0.02
0.11
0.16
0.04
0.06
0.01
0.07
0.01
0.12
0.12
0.06
0.00
0.01
0.09
0.04
0.50
0.06
0.00
0.00
0.00
0.01
0.05
0.01
0.00
0.04
0.02
0.15
0.09
0.02
0.04
0.13
0.00
0.04
0.00
0.05
0.02
0.02
0.03
0.00
0.11
0.26
0.02
0.03
0.12
0.00
0.04
0.00
0.04
0.05
0.02
0.03
0.12
0.00
0.01
0.08
0.01
0.06
0.00
0.04
0.02
0.11
0.18
0.00
0.19
0.00
0.30
0.07
0.04
0.01
0.06
0.12
0.01
0.38
0.01
0.00
0.01
0.01
0.10
0.00
0.00
0.02
0.06
0.07
0.18
0.00
0.10
0.08
0.02
0.00
0.06
0.34
0.00
1.19
0.04
0.25
0.11
0.00
0.31
0.00
0.00
0.14
0.00
0.01
0.01
0.00
0.02
0.01
0.16
0.01
0.02
0.00
0.12
0.17
0.10
0.00
0.07
0.00
0.00
0.02
0.00
0.01
0.02
0.01
0.06
0.02
0.00
0.02
0.04
0.00
0.10
0.09
0.05
0.01
0.04
0.01
0.01
0.00
0.00
0.03
0.00
0.02
0.04
0.23
0.23
0.19
0.01
0.11
0.00
0.00
0.02
0.03
0.04
0.03
0.21
0.21
0.11
0.04
0.00
0.13
0.00
0.00
0.19
0.00
0.02
0.08
0.00
0.02
0.10
0.18
0.13
0.06
0.00
0.05
0.00
0.02
0.15
0.01
0.04
0.11
0.20
0.13
0.11
0.01
0.00
0.00
0.04
0.02
0.40
0.02
0.11
0.22
0.03
0.15
0.00
0.06
0.00
0.01
0.09
0.01
0.00
0.00
0.95
0.11
0.01
0.16
0.03
0.04
0.02
0.00
0.00
0.00
0.00
0.22
0.02
0.01
0.00
0.04
0.01
0.09
0.12
0.04
0.00
0.00
0.09
0.04
0.05
0.09
0.00
0.02
0.02
0.01
0.00
0.00
0.01
0.00
0.19
0.00
0.03
0.10
0.17
0.00
0.32
0.06
0.07
0.00
0.01
0.12
0.14
0.01
0.01
0.13
0.01
0.04
0.04
0.01
0.01
0.05
0.02
0.01
0.00
0.06
0.09
0.09
0.00
0.00
0.00
0.00
0.03
0.02
0.02
0.00
0.06
0.00
0.00
0.02
0.05
0.01
0.40
0.03
0.00
0.05
0.00
0.01
0.00
0.13
0.00
0.12
0.01
0.02
0.25
0.16
0.04
0.02
0.00
0.01
0.00
0.00
0.09
0.20
0.04
0.01
0.01
0.01
0.00
0.08
0.09
0.01
0.07
0.03
0.15
0.01
0.13
0.01
0.14
0.00
0.13
0.03
0.00
0.04
0.03
0.03
0.07
0.00
0.01
0.02
0.02
0.01
0.13
0.01
0.00
0.00
0.05
0.01
0.04
0.32
0.02
0.01
0.03
0.00
0.00
0.00
0.08
0.08
0.12
0.00
0.17
0.02
0.04
0.00
0.04
0.03
0.01
0.03
0.07
0.02
0.02
0.03
0.01
0.08
0.02
0.00
0.03
0.07
0.00
0.01
0.02
0.29
0.17
0.06
0.05
0.01
0.04
0.14
0.02
0.04
