#------------------------------------------------------------------------------
#$Date: 2019-11-23 19:59:07 +0200 (Sat, 23 Nov 2019) $
#$Revision: 234749 $
#$URL: file:///home/coder/svn-repositories/cod/cif/7/70/20/7702094.cif $
#------------------------------------------------------------------------------
#
# This file is available in the Crystallography Open Database (COD),
# http://www.crystallography.net/
#
# All data on this site have been placed in the public domain by the
# contributors.
#
data_7702094
loop_
_publ_author_name
'Wegeberg, Christina'
'Frank&#x00E6;r, Christian Grundahl'
'McKenzie, Christine J.'
_publ_section_title
;
 Reduction of hypervalent iodine by coordination to iron(iii) and the
 crystal structures of PhIO and PhIO<sub>2</sub>.
;
_journal_issue                   44
_journal_name_full
'Dalton transactions (Cambridge, England : 2003)'
_journal_page_first              17714
_journal_page_last               17722
_journal_paper_doi               10.1039/c6dt02937j
_journal_volume                  45
_journal_year                    2016
_chemical_formula_sum            'C6 H5 I O'
_chemical_formula_weight         220.01
_chemical_name_common            Iodosobenzene
_chemical_name_systematic        Iodosylbenzene
_space_group_IT_number           14
_space_group_name_Hall           '-P 2ybc'
_space_group_name_H-M_alt        'P 1 21/c 1'
_symmetry_cell_setting           monoclinic
_symmetry_space_group_name_H-M   'P 1 21/c 1'
_audit_creation_date             2016-09-13T23:05
_audit_creation_method           'created in GSAS-II'
_audit_update_record
;
2016-09-26 deposited with the CCDC.
2016-10-20 downloaded from the CCDC.
;
_cell_angle_alpha                90
_cell_angle_beta                 101.04(3)
_cell_angle_gamma                90
_cell_formula_units_Z            4
_cell_length_a                   14.306(4)
_cell_length_b                   5.8675(13)
_cell_length_c                   7.407(4)
_cell_volume                     610.2(4)
_computing_structure_refinement
'GSAS-II (Toby & Von Dreele, J. Appl. Cryst. 46, 544-549, 2013)'
_diffrn_ambient_pressure         100
_diffrn_ambient_temperature      300
_diffrn_radiation_polarisn_ratio 0.9000
_diffrn_radiation_probe          x-ray
_diffrn_radiation_type           K\a~1,2~
_exptl_crystal_colour            Yellow
_pd_block_id
2016-09-13T23:05|PhIO_13092016|noname|StoeStadiP
_pd_calc_method                  'Rietveld Refinement'
_pd_instr_location               ' ?'
_pd_meas_2theta_range_inc        0.01000
_pd_meas_2theta_range_max        99.98000
_pd_meas_2theta_range_min        3.00000
_pd_phase_name                   PhIO
_pd_proc_2theta_range_inc        0.01000
_pd_proc_2theta_range_max        99.94844
_pd_proc_2theta_range_min        2.96844
_pd_proc_info_datetime           2016-09-13T23:05
_pd_proc_info_excluded_regions   ' ?'
_pd_proc_ls_background_function
; Background function: "chebyschev" function with 20 terms:
    335(4), -2.1(3)e2, -7(2)e2, 5(12)e2, 8(5)e3, -9(19)e3, -1(5)e4, 
    2(15)e4, 7363(3), -10963(6), 278(8), -929(17), 2836(13), 
    94(3), -839(14), -2450(3), 577(8), -116(13), -2113(17), 3091(3), 
;
_pd_proc_ls_pref_orient_corr
'March-Dollase correction coef. = 1.000 axis = [0, 0, 1]'
_pd_proc_ls_profile_function
; Finger-Cox-Jephcoat function parameters U, V, W, X, Y, SH/L:
  peak variance(Gauss) = Utan(Th)^2^+Vtan(Th)+W:
  peak HW(Lorentz) = X/cos(Th)+Ytan(Th); SH/L = S/L+H/L
  U, V, W in (centideg)^2^, X & Y in centideg
    5.8(17)e2, 3.1(6)e2, -3(4), 21.4(3), 0.000, 0.0293(8), 
  Crystallite size model "isotropic" for PhIO (microns)
  parameters: Size, G/L mix
    1.000, 1.000, 
  Mustrain model "isotropic" for PhIO (10^6^)
    parameters: Mustrain, G/L mix
    1000.000, 1.000, 

;
_pd_proc_ls_prof_R_factor        0.07098
_pd_proc_ls_prof_wR_expected     0.03736
_pd_proc_ls_prof_wR_factor       0.10026
_pd_proc_number_of_points        9699
_pd_spec_mounting                ' ?'
_refine_ls_goodness_of_fit_all   7.279
_refine_ls_matrix_type           full
_refine_ls_number_parameters     42
_refine_ls_R_Fsqd_factor         0.14546
_refine_ls_wR_factor_obs         0.10058
_reflns_d_resolution_high        1.006
_reflns_d_resolution_low         14.041
_reflns_limit_h_max              1
_reflns_limit_h_min              1
_reflns_limit_k_max              1
_reflns_limit_k_min              1
_reflns_limit_l_max              7
_reflns_limit_l_min              7
_reflns_number_total             626
_cod_data_source_file            c6dt02937j2.cif
_cod_data_source_block           PhIO_13092016
_cod_original_cell_volume        610.3(3)
_cod_database_code               7702094
_refine_ls_r_f_factor            0.04800
_gsas_proc_ls_prof_r_b_factor    0.10346
_gsas_proc_ls_prof_wr_b_factor   0.15276
loop_
_space_group_symop_id
_space_group_symop_operation_xyz
1 x,y,z
2 -x,1/2+y,1/2-z
3 -x,-y,-z
4 x,1/2-y,1/2+z
loop_
_atom_site_label
_atom_site_type_symbol
_atom_site_fract_x
_atom_site_fract_y
_atom_site_fract_z
_atom_site_occupancy
_atom_site_adp_type
_atom_site_U_iso_or_equiv
_atom_site_symmetry_multiplicity
I1 I 0.42373 0.27778 1.10757 1.000 Uiso 0.0381(14) 4
O1 O 0.414(2) 0.0528(7) 1.3135(9) 1.000 Uiso 0.039(13) 4
C1 C 0.29553 0.11772 0.98619 1.000 Uiso 0.038(8) 4
C2 C 0.20898 0.21607 1.00790 1.000 Uiso 0.038(8) 4
C3 C 0.12259 0.10745 0.93570 1.000 Uiso 0.038(8) 4
C4 C 0.12249 -0.09996 0.84206 1.000 Uiso 0.038(8) 4
C5 C 0.20910 -0.19828 0.82014 1.000 Uiso 0.038(8) 4
C6 C 0.29556 -0.08973 0.89241 1.000 Uiso 0.038(8) 4
H1 H 0.20896 0.35692 1.07155 1.000 Uiso 0.300 4
H2 H 0.06447 0.17799 0.95081 1.000 Uiso 0.300000 4
H3 H 0.06395 -0.17370 0.79307 1.000 Uiso 0.300000 4
H4 H 0.20906 -0.33916 0.75671 1.000 Uiso 0.300000 4
H5 H 0.35424 -0.15666 0.87746 1.000 Uiso 0.300000 4
loop_
_atom_type_symbol
_atom_type_number_in_cell
C 24
H 20
I 4
O 4
loop_
_diffrn_radiation_wavelength
_diffrn_radiation_wavelength_wt
_diffrn_radiation_wavelength_id
1.54051 1.0 1
1.54433 0.0000 2
loop_
_geom_angle_atom_site_label_1
_geom_angle_atom_site_label_2
_geom_angle_atom_site_label_3
_geom_angle
_geom_angle_site_symmetry_1
_geom_angle_site_symmetry_2
_geom_angle_site_symmetry_3
_geom_angle_publ_flag
O1 I1 C1 68.1(3) 1_555 1_555 1_555 yes
I1 C1 C2 24.569 1_555 1_555 1_555 yes
I1 C1 C6 74.243 1_555 1_555 1_555 yes
C2 C1 C6 76.993 1_555 1_555 1_555 yes
C1 C2 C3 120.139 1_555 1_555 1_555 yes
C1 C2 H1 76.529 1_555 1_555 1_555 yes
C3 C2 H1 80.95 1_555 1_555 1_555 yes
C2 C3 C4 76.596 1_555 1_555 1_555 yes
C2 C3 H2 112.586 1_555 1_555 1_555 yes
C4 C3 H2 67.215 1_555 1_555 1_555 yes
C3 C4 C5 36.065 1_555 1_555 1_555 yes
C3 C4 H3 32.845 1_555 1_555 1_555 yes
C5 C4 H3 21.614 1_555 1_555 1_555 yes
C4 C5 C6 21.246 1_555 1_555 1_555 yes
C4 C5 H4 13.836 1_555 1_555 1_555 yes
C6 C5 H4 13.197 1_555 1_555 1_555 yes
C1 C6 C5 35.19 1_555 1_555 1_555 yes
C1 C6 H5 33.545 1_555 1_555 1_555 yes
C5 C6 H5 21.598 1_555 1_555 1_555 yes
loop_
_geom_bond_atom_site_label_1
_geom_bond_atom_site_label_2
_geom_bond_distance
_geom_bond_site_symmetry_1
_geom_bond_site_symmetry_2
_geom_bond_publ_flag
I1 O1 2.0436(8) 1_555 1_555 yes
I1 O1 2.3733(8) 1_555 4_554 yes
I1 C1 2.10298 1_555 1_555 yes
O1 I1 2.0436(8) 1_555 1_555 yes
O1 I1 2.3733(8) 1_555 4_555 yes
C1 I1 2.10298 1_555 1_555 yes
C1 C2 1.40288 1_555 1_555 yes
C1 C6 1.40157 1_555 1_555 yes
C2 C1 1.40288 1_555 1_555 yes
C2 C3 1.40228 1_555 1_555 yes
C2 H1 0.95152 1_555 1_555 yes
C3 C2 1.40228 1_555 1_555 yes
C3 C4 1.40066 1_555 1_555 yes
C3 H2 0.95433 1_555 1_555 yes
C4 C3 1.40066 1_555 1_555 yes
C4 C5 1.40412 1_555 1_555 yes
C4 H3 0.95074 1_555 1_555 yes
C5 C4 1.40412 1_555 1_555 yes
C5 C6 1.40294 1_555 1_555 yes
C5 H4 0.95073 1_555 1_555 yes
C6 C1 1.40157 1_555 1_555 yes
C6 C5 1.40294 1_555 1_555 yes
C6 H5 0.95229 1_555 1_555 yes
H1 C2 0.95152 1_555 1_555 yes
H2 C3 0.95433 1_555 1_555 yes
H3 C4 0.95074 1_555 1_555 yes
H4 C5 0.95073 1_555 1_555 yes
H5 C6 0.95229 1_555 1_555 yes
loop_
_pd_meas_intensity_total
_pd_calc_intensity_total
_pd_proc_intensity_bkg_calc
_pd_proc_ls_weight
1458 1355.11617 1331.49042 0.000685871
1441 1357.16253 1333.38984 0.000693963
1455 1359.18982 1335.26882 0.000687285
1412 1361.19819 1337.12748 0.000708215
1433 1363.18775 1338.96594 0.000697837
1386 1365.15866 1340.78431 0.000721501
1423 1367.11104 1342.58271 0.000702741
1398 1369.04504 1344.36126 0.000715308
1417 1370.96077 1346.12006 0.000705716
1411 1372.85838 1347.85925 0.000708717
1348 1374.738 1349.57892 0.00074184
1476 1376.59977 1351.2792 0.000677507
1380 1378.44381 1352.96019 0.000724638
1367 1380.27026 1354.62202 0.000731529
1454 1382.07926 1356.26479 0.000687758
1469 1383.87093 1357.88861 0.000680735
1473 1385.64541 1359.49361 0.000678887
1421 1387.40283 1361.07988 0.00070373
1369 1389.14332 1362.64753 0.00073046
1431 1390.86702 1364.19669 0.000698812
1422 1392.57405 1365.72746 0.000703235
1454 1394.26456 1367.23994 0.000687758
1438 1395.93866 1368.73425 0.00069541
1434 1397.59649 1370.21049 0.00069735
1377 1399.2382 1371.66877 0.000726216
1387 1400.8639 1373.1092 0.000720981
1436 1402.47372 1374.53189 0.000696379
1411 1404.06781 1375.93694 0.000708717
1377 1405.64628 1377.32445 0.000726216
1410 1407.20928 1378.69454 0.00070922
1422 1408.75694 1380.0473 0.000703235
1411 1410.28937 1381.38285 0.000708717
1441 1411.80672 1382.70128 0.000693963
1427 1413.30912 1384.0027 0.000700771
1407 1414.7967 1385.28721 0.000710732
1425 1416.2696 1386.55492 0.000701754
1433 1417.72793 1387.80592 0.000697837
1414 1419.17184 1389.04032 0.000707214
1474 1420.60145 1390.25822 0.000678426
1464 1422.0169 1391.45972 0.00068306
1370 1423.41832 1392.64492 0.000729927
1442 1424.80584 1393.81392 0.000693481
1408 1426.17959 1394.96682 0.000710227
1353 1427.53971 1396.10371 0.000739098
1392 1428.88633 1397.22471 0.000718391
1381 1430.21958 1398.32989 0.000724113
1369 1431.53959 1399.41937 0.00073046
1428 1432.8465 1400.49324 0.00070028
1405 1434.14043 1401.55159 0.000711744
1393 1435.42153 1402.59453 0.000717875
1474 1436.68993 1403.62214 0.000678426
1398 1437.94575 1404.63453 0.000715308
1477 1439.18914 1405.63179 0.000677048
1477 1440.42023 1406.614 0.000677048
1378 1441.63915 1407.58128 0.000725689
1401 1442.84604 1408.53371 0.000713776
1421 1444.04103 1409.47138 0.00070373
1435 1445.22427 1410.39438 0.000696864
1371 1446.39588 1411.30282 0.000729395
1375 1447.556 1412.19677 0.000727273
1464 1448.70478 1413.07634 0.00068306
1408 1449.84234 1413.94162 0.000710227
1411 1450.96882 1414.79268 0.000708717
1375 1452.08438 1415.62964 0.000727273
1467 1453.18913 1416.45256 0.000681663
1432 1454.28322 1417.26156 0.000698324
1388 1455.36679 1418.0567 0.000720461
1415 1456.44 1418.83809 0.000706714
1435 1457.50296 1419.60581 0.000696864
1454 1458.55584 1420.35994 0.000687758
1408 1459.59875 1421.10058 0.000710227
1469 1460.63186 1421.82782 0.000680735
1386 1461.65531 1422.54173 0.000721501
1439 1462.66924 1423.24241 0.000694927
1488 1463.67379 1423.92994 0.000672043
1424 1464.66912 1424.60441 0.000702247
1446 1465.65537 1425.2659 0.000691563
1421 1466.63268 1425.9145 0.00070373
1405 1467.60122 1426.55029 0.000711744
1376 1468.56111 1427.17336 0.000726744
1418 1469.51253 1427.78378 0.000705219
1396 1470.45562 1428.38165 0.000716332
1461 1471.39052 1428.96704 0.000684463
1480 1472.31741 1429.54003 0.000675676
1440 1473.23641 1430.10072 0.000694444
1416 1474.14772 1430.64917 0.000706215
1399 1475.05147 1431.18548 0.000714796
1445 1475.94782 1431.70972 0.000692042
1358 1476.83693 1432.22198 0.000736377
1367 1477.71897 1432.72233 0.000731529
1452 1478.59409 1433.21085 0.000688705
1325 1479.46246 1433.68762 0.000754717
1431 1480.32425 1434.15272 0.000698812
1434 1481.17963 1434.60624 0.00069735
1440 1482.02876 1435.04824 0.000694444
1408 1482.87182 1435.47881 0.000710227
1481 1483.70896 1435.89802 0.000675219
1461 1484.54037 1436.30596 0.000684463
1445 1485.36622 1436.70269 0.000692042
1474 1486.1867 1437.08829 0.000678426
1485 1487.00196 1437.46285 0.000673401
1455 1487.81221 1437.82643 0.000687285
1447 1488.61762 1438.17911 0.000691085
1458 1489.41837 1438.52097 0.000685871
1430 1490.21467 1438.85208 0.000699301
1477 1491.00669 1439.17251 0.000677048
1497 1491.79462 1439.48234 0.000668003
1512 1492.57867 1439.78165 0.000661376
1494 1493.35902 1440.0705 0.000669344
1487 1494.13587 1440.34897 0.000672495
1445 1494.90943 1440.61713 0.000692042
1489 1495.67991 1440.87505 0.000671592
1437 1496.44751 1441.12281 0.000695894
1532 1497.21242 1441.36048 0.000652742
1475 1497.97488 1441.58812 0.000677966
1424 1498.7351 1441.80582 0.000702247
1407 1499.4933 1442.01363 0.000710732
1425 1500.24968 1442.21163 0.000701754
1519 1501.0045 1442.39989 0.000658328
1492 1501.75797 1442.57848 0.000670241
1451 1502.51035 1442.74747 0.00068918
1463 1503.26183 1442.90693 0.000683527
1474 1504.01266 1443.05691 0.000678426
1456 1504.76312 1443.19751 0.000686813
1546 1505.51343 1443.32877 0.000646831
1505 1506.26384 1443.45077 0.000664452
1507 1507.01462 1443.56358 0.00066357
1477 1507.76603 1443.66726 0.000677048
1502 1508.51834 1443.76188 0.000665779
1487 1509.2718 1443.84751 0.000672495
1503 1510.0267 1443.9242 0.000665336
1450 1510.78333 1443.99204 0.000689655
1461 1511.54197 1444.05107 0.000684463
1503 1512.3029 1444.10137 0.000665336
1511 1513.06643 1444.14301 0.000661813
1480 1513.83286 1444.17604 0.000675676
1472 1514.60249 1444.20052 0.000679348
1514 1515.37566 1444.21654 0.000660502
1492 1516.15267 1444.22413 0.000670241
1487 1516.93385 1444.22338 0.000672495
1514 1517.71954 1444.21434 0.000660502
1492 1518.5101 1444.19708 0.000670241
1490 1519.30585 1444.17165 0.000671141
1527 1520.10716 1444.13812 0.000654879
1525 1520.9144 1444.09656 0.000655738
1518 1521.72794 1444.04701 0.000658762
1455 1522.54816 1443.98955 0.000687285
1510 1523.37547 1443.92422 0.000662252
1474 1524.21024 1443.85111 0.000678426
1419 1525.0529 1443.77025 0.000704722
1552 1525.90385 1443.68172 0.00064433
1525 1526.76354 1443.58557 0.000655738
1469 1527.63241 1443.48186 0.000680735
1477 1528.51091 1443.37066 0.000677048
1525 1529.39949 1443.25201 0.000655738
1500 1530.29864 1443.12598 0.000666667
1483 1531.20882 1442.99262 0.000674309
1479 1532.13054 1442.85199 0.000676133
1560 1533.06431 1442.70416 0.000641026
1472 1534.01069 1442.54917 0.000679348
1481 1534.97017 1442.38709 0.000675219
1508 1535.94332 1442.21797 0.00066313
1470 1536.93072 1442.04186 0.000680272
1468 1537.93294 1441.85883 0.000681199
1497 1538.95057 1441.66892 0.000668003
1455 1539.98426 1441.4722 0.000687285
1479 1541.03461 1441.26871 0.000676133
1556 1542.10229 1441.05852 0.000642674
1490 1543.18799 1440.84168 0.000671141
1453 1544.29236 1440.61824 0.000688231
1568 1545.41613 1440.38826 0.000637755
1550 1546.56002 1440.15178 0.000645161
1491 1547.72482 1439.90887 0.000670691
1488 1548.91127 1439.65957 0.000672043
1565 1550.12021 1439.40395 0.000638978
1542 1551.35241 1439.14205 0.000648508
1536 1552.60877 1438.87392 0.000651042
1571 1553.89015 1438.59961 0.000636537
1543 1555.19746 1438.31919 0.000648088
1531 1556.53162 1438.03269 0.000653168
1520 1557.89361 1437.74018 0.000657895
1542 1559.28443 1437.4417 0.000648508
1541 1560.70511 1437.1373 0.000648929
1561 1562.1567 1436.82703 0.000640615
1555 1563.64033 1436.51095 0.000643087
1526 1565.15709 1436.1891 0.000655308
1456 1566.70823 1435.86153 0.000686813
1560 1568.29489 1435.5283 0.000641026
1491 1569.91839 1435.18945 0.000670691
1504 1571.58 1434.84503 0.000664894
1560 1573.28105 1434.49509 0.000641026
1579 1575.02298 1434.13968 0.000633312
1546 1576.80727 1433.77884 0.000646831
1555 1578.63534 1433.41263 0.000643087
1567 1580.50878 1433.04109 0.000638162
1543 1582.42923 1432.66426 0.000648088
1519 1584.39837 1432.28221 0.000658328
1587 1586.41793 1431.89497 0.00063012
1516 1588.48971 1431.50259 0.000659631
1557 1590.61556 1431.10511 0.000642261
1575 1592.79748 1430.70259 0.000634921
1599 1595.03747 1430.29506 0.000625391
1529 1597.33762 1429.88259 0.000654022
1557 1599.70018 1429.4652 0.000642261
1599 1602.12738 1429.04294 0.000625391
1594 1604.62162 1428.61587 0.000627353
1628 1607.18533 1428.18402 0.000614251
1623 1609.82111 1427.74744 0.000616143
1637 1612.53162 1427.30617 0.000610874
1740 1615.31972 1426.86026 0.000574713
1664 1618.18821 1426.40976 0.000600962
1728 1621.14027 1425.95469 0.000578704
1620 1624.17893 1425.49512 0.000617284
1614 1627.30757 1425.03108 0.000619579
1650 1630.52971 1424.56261 0.000606061
1596 1633.84881 1424.08976 0.000626566
1673 1637.26874 1423.61257 0.000597729
1661 1640.79343 1423.13108 0.000602047
1627 1644.42697 1422.64533 0.000614628
1669 1648.17378 1422.15537 0.000599161
1633 1652.03825 1421.66124 0.00061237
1668 1656.02525 1421.16298 0.00059952
1703 1660.13964 1420.66062 0.000587199
1775 1664.38665 1420.15421 0.00056338
1650 1668.77176 1419.6438 0.000606061
1713 1673.30063 1419.12942 0.000583771
1718 1677.97942 1418.6111 0.000582072
1746 1682.81431 1418.0889 0.000572738
1750 1687.81194 1417.56285 0.000571429
1765 1692.97928 1417.03299 0.000566572
1716 1698.32367 1416.49936 0.000582751
1759 1703.85296 1415.962 0.000568505
1736 1709.57509 1415.42095 0.000576037
1788 1715.4988 1414.87624 0.000559284
1802 1721.63295 1414.32792 0.000554939
1796 1727.98715 1413.77602 0.000556793
1748 1734.57148 1413.22059 0.000572082
1869 1741.39648 1412.66165 0.000535045
1834 1748.47342 1412.09925 0.000545256
1808 1755.81406 1411.53342 0.000553097
1929 1763.43103 1410.96421 0.000518403
1990 1771.3375 1410.39164 0.000502513
1920 1779.54763 1409.81576 0.000520833
1953 1788.07632 1409.23659 0.000512033
1927 1796.93919 1408.65419 0.000518941
1885 1806.15318 1408.06858 0.000530504
1884 1815.73594 1407.4798 0.000530786
1985 1825.7064 1406.88789 0.000503778
1970 1836.08481 1406.29288 0.000507614
1961 1846.89246 1405.6948 0.000509944
2043 1858.15208 1405.0937 0.000489476
2062 1869.88801 1404.4896 0.000484966
2050 1882.12611 1403.88255 0.000487805
2104 1894.89406 1403.27257 0.000475285
2139 1908.2215 1402.6597 0.000467508
2138 1922.13974 1402.04398 0.000467727
2158 1936.68282 1401.42543 0.000463392
2160 1951.88674 1400.8041 0.000462963
2165 1967.79036 1400.18001 0.000461894
2262 1984.43529 1399.55321 0.000442087
2297 2001.86616 1398.92371 0.00043535
2261 2020.13116 1398.29156 0.000442282
2354 2039.28185 1397.65679 0.000424809
2295 2059.37399 1397.01943 0.00043573
2373 2080.46759 1396.37952 0.000421408
2473 2102.62758 1395.73708 0.000404367
2587 2125.92393 1395.09215 0.000386548
2535 2150.43297 1394.44475 0.000394477
2542 2176.23695 1393.79493 0.000393391
2495 2203.42525 1393.14272 0.000400802
2706 2232.0958 1392.48813 0.000369549
2737 2262.35459 1391.83121 0.000365364
2739 2294.31829 1391.17199 0.000365097
2798 2328.11487 1390.5105 0.000357398
2868 2363.88424 1389.84676 0.000348675
2907 2401.78164 1389.18081 0.000343997
2987 2441.97911 1388.51268 0.000334784
3038 2484.66748 1387.8424 0.000329164
3155 2530.05989 1387.17 0.000316957
3104 2578.39467 1386.4955 0.000322165
3234 2629.94102 1385.81895 0.000309215
3274 2685.00071 1385.14036 0.000305437
3382 2743.91741 1384.45976 0.000295683
3536 2807.07993 1383.7772 0.000282805
3632 2874.93167 1383.09268 0.00027533
3825 2947.97632 1382.40625 0.000261438
3823 3026.78983 1381.71793 0.000261575
4047 3112.02873 1381.02775 0.000247097
4024 3204.43889 1380.33574 0.000248509
4245 3304.87178 1379.64192 0.000235571
4399 3414.28959 1378.94633 0.000227324
4439 3533.78194 1378.24898 0.000225276
4581 3664.57263 1377.54992 0.000218293
4801 3808.03251 1376.84916 0.00020829
4873 3965.6858 1376.14674 0.000205212
5111 4139.21953 1375.44268 0.000195656
5140 4330.48138 1374.737 0.000194553
5438 4541.4853 1374.02973 0.000183891
5714 4774.40319 1373.32091 0.000175009
6071 5031.55782 1372.61055 0.000164718
6213 5315.40577 1371.89869 0.000160953
6489 5628.51396 1371.18534 0.000154107
6752 5973.53109 1370.47054 0.000148104
7090 6353.14152 1369.75431 0.000141044
7417 6770.00543 1369.03668 0.000134825
7685 7226.69315 1368.31766 0.000130124
8053 7725.56897 1367.59729 0.000124177
8455 8268.66124 1366.8756 0.000118273
9061 8857.47437 1366.1526 0.000110363
9349 9492.73642 1365.42832 0.000106963
10142 10174.07583 1364.70278 0.0000986
10445 10899.58149 1363.97602 0.00009574
11060 11665.27832 1363.24805 0.000090416
11705 12464.48277 1362.5189 0.000085434
12151 13287.09132 1361.78859 0.000082298
12943 14118.91652 1361.05715 0.000077262
13625 14941.15077 1360.32459 0.000073394
14627 15730.2306 1359.59095 0.000068367
15115 16458.37481 1358.85625 0.000066159
15744 17094.98379 1358.12051 0.000063516
16560 17609.07516 1357.38375 0.000060386
17448 17972.52881 1356.646 0.000057313
18046 18163.70219 1355.90727 0.000055414
18479 18170.58166 1355.1676 0.000054115
19055 17992.68481 1354.427 0.00005248
19195 17641.12886 1353.6855 0.000052097
19342 17136.87768 1352.94311 0.000051701
19181 16507.65104 1352.19987 0.000052135
18732 15784.33664 1351.45579 0.000053385
18392 14997.66401 1350.71089 0.000054371
17455 14175.71617 1349.9652 0.00005729
16353 13342.42576 1349.21873 0.000061151
15608 12516.99105 1348.47152 0.00006407
14446 11713.96869 1347.72357 0.000069223
13055 10943.76398 1346.97492 0.000076599
11886 10213.31737 1346.22557 0.000084133
10716 9526.79881 1345.47556 0.000093318
9511 8886.26495 1344.72491 0.000105141
8511 8292.19677 1343.97362 0.000117495
7581 7743.94341 1343.22173 0.000131909
6927 7240.05178 1342.46926 0.000144363
6262 6778.53067 1341.71622 0.000159693
5647 6357.0349 1340.96264 0.000177085
5158 5973.01028 1340.20852 0.000193874
4741 5623.79815 1339.45391 0.000210926
4391 5306.7137 1338.6988 0.000227739
4022 5019.10559 1337.94323 0.000248633
3940 4758.39693 1337.18722 0.000253807
3545 4522.12242 1336.43077 0.000282087
3356 4307.94735 1335.67392 0.000297974
3148 4113.68742 1334.91667 0.000317662
3025 3937.3153 1334.15905 0.000330579
3065 3776.96847 1333.40108 0.000326264
2806 3630.94942 1332.64278 0.000356379
2665 3497.71912 1331.88416 0.000375235
2654 3375.89538 1331.12524 0.00037679
2549 3264.24214 1330.36604 0.000392311
2520 3161.65968 1329.60658 0.000396825
2329 3067.175 1328.84688 0.000429369
2283 2979.92911 1328.08695 0.00043802
2230 2899.16763 1327.32681 0.00044843
2266 2824.22773 1326.56648 0.000441306
2159 2754.52644 1325.80598 0.000463177
2237 2689.5546 1325.04532 0.000447027
2155 2628.86497 1324.28452 0.000464037
2160 2572.06364 1323.5236 0.000462963
2100 2518.80469 1322.76258 0.00047619
2071 2468.78211 1322.00147 0.000482859
1922 2421.72478 1321.24029 0.000520291
1910 2377.39213 1320.47905 0.00052356
1947 2335.56884 1319.71777 0.000513611
1868 2296.06273 1318.95647 0.000535332
1865 2258.70023 1318.19517 0.000536193
1880 2223.32517 1317.43387 0.000531915
1821 2189.79589 1316.6726 0.000549149
1893 2157.98395 1315.91138 0.000528262
1821 2127.77191 1315.15021 0.000549149
1792 2099.05269 1314.38911 0.000558036
1812 2071.72802 1313.62811 0.000551876
1753 2045.70802 1312.8672 0.000570451
1787 2020.90934 1312.10642 0.000559597
1794 1997.25599 1311.34577 0.000557414
1766 1974.67719 1310.58527 0.000566251
1687 1953.10766 1309.82494 0.000592768
1794 1932.48709 1309.06479 0.000557414
1739 1912.75942 1308.30483 0.000575043
1692 1893.87265 1307.54507 0.000591017
1670 1875.77859 1306.78555 0.000598802
1659 1858.43251 1306.02626 0.000602773
1692 1841.7923 1305.26722 0.000591017
1683 1825.81905 1304.50845 0.000594177
1625 1810.47658 1303.74996 0.000615385
1639 1795.73074 1302.99176 0.000610128
1614 1781.55012 1302.23387 0.000619579
1595 1767.90498 1301.4763 0.000626959
1572 1754.76738 1300.71907 0.000636132
1629 1742.11154 1299.96219 0.000613874
1580 1729.913 1299.20567 0.000632911
1582 1718.14899 1298.44952 0.000632111
1582 1706.79802 1297.69377 0.000632111
1525 1695.83987 1296.93841 0.000655738
1553 1685.25565 1296.18348 0.000643915
1519 1675.02754 1295.42897 0.000658328
1535 1665.13876 1294.6749 0.000651466
1562 1655.57335 1293.92128 0.000640205
1555 1646.31663 1293.16813 0.000643087
1549 1637.35434 1292.41546 0.000645578
1555 1628.67326 1291.66328 0.000643087
1515 1620.26094 1290.91161 0.000660066
1549 1612.10536 1290.16045 0.000645578
1532 1604.19543 1289.40982 0.000652742
1541 1596.52053 1288.65972 0.000648929
1503 1589.07058 1287.91018 0.000665336
1477 1581.8361 1287.16121 0.000677048
1530 1574.80804 1286.4128 0.000653595
1500 1567.97785 1285.66499 0.000666667
1468 1561.33745 1284.91777 0.000681199
1487 1554.87914 1284.17117 0.000672495
1487 1548.59556 1283.42518 0.000672495
1530 1542.47979 1282.67983 0.000653595
1436 1536.52518 1281.93512 0.000696379
1461 1530.72549 1281.19106 0.000684463
1501 1525.07472 1280.44768 0.000666223
1489 1519.56719 1279.70496 0.000671592
1519 1514.19741 1278.96294 0.000658328
1533 1508.96034 1278.22161 0.000652316
1499 1503.8509 1277.48099 0.000667111
1493 1498.86448 1276.7411 0.000669792
1432 1493.99654 1276.00193 0.000698324
1459 1489.24284 1275.2635 0.000685401
1427 1484.59929 1274.52582 0.000700771
1465 1480.06197 1273.7889 0.000682594
1410 1475.62709 1273.05275 0.00070922
1483 1471.29117 1272.31738 0.000674309
1432 1467.05072 1271.58281 0.000698324
1454 1462.90256 1270.84903 0.000687758
1505 1458.84349 1270.11606 0.000664452
1444 1454.87048 1269.38391 0.000692521
1403 1450.98079 1268.65259 0.000712758
1451 1447.1715 1267.92211 0.00068918
1414 1443.44013 1267.19248 0.000707214
1466 1439.78411 1266.4637 0.000682128
1393 1436.20099 1265.73579 0.000717875
1459 1432.6884 1265.00876 0.000685401
1378 1429.2442 1264.28261 0.000725689
1423 1425.86619 1263.55735 0.000702741
1453 1422.55231 1262.833 0.000688231
1419 1419.30059 1262.10955 0.000704722
1405 1416.10915 1261.38703 0.000711744
1402 1412.97615 1260.66543 0.000713267
1386 1409.89985 1259.94477 0.000721501
1424 1406.87846 1259.22506 0.000702247
1411 1403.91049 1258.5063 0.000708717
1457 1400.99431 1257.7885 0.000686342
1395 1398.12841 1257.07168 0.000716846
1370 1395.31139 1256.35583 0.000729927
1435 1392.54177 1255.64096 0.000696864
1480 1389.81824 1254.9271 0.000675676
1425 1387.13952 1254.21423 0.000701754
1394 1384.50436 1253.50238 0.00071736
1414 1381.91152 1252.79154 0.000707214
1370 1379.35984 1252.08173 0.000729927
1409 1376.84821 1251.37295 0.000709723
1402 1374.37555 1250.66521 0.000713267
1429 1371.94084 1249.95852 0.00069979
1402 1369.543 1249.25289 0.000713267
1364 1367.18113 1248.54831 0.000733138
1415 1364.85424 1247.84481 0.000706714
1379 1362.56141 1247.14239 0.000725163
1350 1360.30181 1246.44105 0.000740741
1365 1358.07458 1245.7408 0.000732601
1394 1355.87884 1245.04165 0.00071736
1447 1353.71386 1244.34361 0.000691085
1434 1351.57887 1243.64667 0.00069735
1372 1349.47307 1242.95086 0.000728863
1472 1347.39581 1242.25617 0.000679348
1399 1345.34635 1241.56261 0.000714796
1381 1343.32402 1240.87019 0.000724113
1431 1341.32818 1240.17892 0.000698812
1338 1339.35819 1239.48879 0.000747384
1400 1337.41345 1238.79983 0.000714286
1377 1335.49333 1238.11203 0.000726216
1395 1333.59731 1237.42539 0.000716846
1366 1331.72479 1236.73994 0.000732064
1282 1329.87528 1236.05566 0.000780031
1331 1328.0482 1235.37257 0.000751315
1367 1326.24306 1234.69068 0.000731529
1382 1324.45937 1234.00999 0.000723589
1457 1322.69669 1233.3305 0.000686342
1293 1320.95448 1232.65222 0.000773395
1363 1319.23236 1231.97516 0.000733676
1413 1317.52989 1231.29932 0.000707714
1397 1315.84659 1230.62471 0.00071582
1336 1314.18209 1229.95133 0.000748503
1386 1312.53599 1229.27919 0.000721501
1417 1310.90789 1228.60829 0.000705716
1381 1309.29744 1227.93865 0.000724113
1378 1307.70424 1227.27025 0.000725689
1341 1306.12794 1226.60312 0.000745712
1332 1304.56821 1225.93725 0.000750751
1296 1303.02473 1225.27265 0.000771605
1303 1301.49714 1224.60932 0.00076746
1333 1299.98512 1223.94727 0.000750188
1327 1298.48838 1223.2865 0.00075358
1270 1297.00663 1222.62703 0.000787402
1311 1295.53955 1221.96884 0.000762777
1312 1294.08688 1221.31196 0.000762195
1306 1292.64831 1220.65637 0.000765697
1344 1291.22361 1220.0021 0.000744048
1334 1289.8125 1219.34913 0.000749625
1246 1288.41474 1218.69748 0.000802568
1279 1287.03005 1218.04715 0.000781861
1348 1285.65821 1217.39814 0.00074184
1310 1284.299 1216.75046 0.000763359
1326 1282.95216 1216.10412 0.000754148
1297 1281.61748 1215.45911 0.00077101
1274 1280.29474 1214.81544 0.000784929
1317 1278.98374 1214.17311 0.000759301
1373 1277.68426 1213.53214 0.000728332
1343 1276.3961 1212.89251 0.000744602
1312 1275.11907 1212.25424 0.000762195
1300 1273.85296 1211.61733 0.000769231
1284 1272.59762 1210.98178 0.000778816
1324 1271.35283 1210.3476 0.000755287
1353 1270.11844 1209.7148 0.000739098
1308 1268.89426 1209.08336 0.000764526
1261 1267.68013 1208.4533 0.000793021
1315 1266.47588 1207.82462 0.000760456
1298 1265.28136 1207.19733 0.000770416
1296 1264.09641 1206.57143 0.000771605
1386 1262.92086 1205.94691 0.000721501
1258 1261.75457 1205.32379 0.000794913
1290 1260.59741 1204.70206 0.000775194
1284 1259.44922 1204.08174 0.000778816
1291 1258.30986 1203.46282 0.000774593
1303 1257.17921 1202.8453 0.00076746
1252 1256.05712 1202.2292 0.000798722
1343 1254.94347 1201.6145 0.000744602
1334 1253.83815 1201.00122 0.000749625
1313 1252.741 1200.38936 0.000761615
1302 1251.65192 1199.77892 0.000768049
1321 1250.57078 1199.1699 0.000757002
1292 1249.49749 1198.56231 0.000773994
1249 1248.43191 1197.95614 0.000800641
1250 1247.37395 1197.3514 0.0008
1323 1246.32348 1196.7481 0.000755858
1255 1245.28041 1196.14623 0.000796813
1361 1244.24464 1195.5458 0.000734754
1249 1243.21606 1194.94682 0.000800641
1239 1242.19457 1194.34927 0.000807103
1243 1241.1801 1193.75317 0.000804505
1273 1240.17252 1193.15851 0.000785546
1271 1239.17175 1192.56531 0.000786782
1319 1238.17772 1191.97355 0.00075815
1307 1237.19031 1191.38325 0.000765111
1211 1236.20945 1190.7944 0.000825764
1320 1235.23505 1190.20701 0.000757576
1262 1234.26703 1189.62108 0.000792393
1266 1233.6912 1189.03661 0.000789889
1271 1232.73763 1188.4536 0.000786782
1252 1231.79021 1187.87206 0.000798722
1219 1230.84888 1187.29198 0.000820345
1287 1229.91356 1186.71337 0.000777001
1304 1228.98416 1186.13623 0.000766871
1270 1228.06063 1185.56056 0.000787402
1232 1227.14289 1184.98637 0.000811688
1248 1226.23086 1184.41364 0.000801282
1259 1225.32451 1183.8424 0.000794281
1241 1224.42373 1183.27263 0.000805802
1227 1223.52848 1182.70434 0.000814996
1288 1222.63868 1182.13752 0.000776398
1236 1221.7543 1181.57219 0.000809061
1200 1220.87525 1181.00834 0.000833333
1251 1220.00147 1180.44598 0.000799361
1265 1219.13293 1179.8851 0.000790514
1293 1218.26955 1179.3257 0.000773395
1218 1217.41128 1178.7678 0.000821018
1258 1216.55805 1178.21138 0.000794913
1308 1215.70983 1177.65644 0.000764526
1230 1214.86656 1177.103 0.000813008
1269 1214.02817 1176.55105 0.000788022
1270 1213.19463 1176.00059 0.000787402
1274 1212.36587 1175.45163 0.000784929
1293 1211.54187 1174.90415 0.000773395
1233 1210.72256 1174.35817 0.00081103
1220 1209.9079 1173.81369 0.000819672
1235 1209.09784 1173.2707 0.000809717
1206 1208.29234 1172.72921 0.000829187
1255 1207.49134 1172.18921 0.000796813
1235 1206.69481 1171.65071 0.000809717
1278 1205.90271 1171.11371 0.000782473
1233 1205.115 1170.57821 0.00081103
1255 1204.33162 1170.0442 0.000796813
1221 1203.55254 1169.5117 0.000819001
1265 1202.77772 1168.98069 0.000790514
1270 1202.00712 1168.45119 0.000787402
1243 1201.24071 1167.92319 0.000804505
1251 1200.47844 1167.39668 0.000799361
1215 1199.72027 1166.87168 0.000823045
1279 1198.96617 1166.34818 0.000781861
1180 1198.2161 1165.82617 0.000847458
1200 1197.47004 1165.30568 0.000833333
1242 1196.72794 1164.78668 0.000805153
1222 1195.98976 1164.26918 0.000818331
1229 1195.25548 1163.75319 0.00081367
1207 1194.52506 1163.23869 0.0008285
1170 1193.79847 1162.7257 0.000854701
1208 1193.07568 1162.21421 0.000827815
1181 1192.35666 1161.70422 0.00084674
1203 1191.64137 1161.19573 0.000831255
1132 1190.92978 1160.68875 0.000883392
1237 1190.22187 1160.18326 0.000808407
1174 1189.5176 1159.67928 0.000851789
1210 1188.81695 1159.17679 0.000826446
1150 1188.11989 1158.67581 0.000869565
1138 1187.42639 1158.17632 0.000878735
1197 1186.73641 1157.67834 0.000835422
1243 1186.04995 1157.18185 0.000804505
1167 1185.36695 1156.68687 0.000856898
1264 1184.68742 1156.19338 0.000791139
1217 1184.0113 1155.70139 0.000821693
1199 1183.33859 1155.21089 0.000834028
1200 1182.66925 1154.72189 0.000833333
1219 1182.00326 1154.23439 0.000820345
1217 1181.3406 1153.74839 0.000821693
1215 1180.68124 1153.26388 0.000823045
1201 1180.02516 1152.78086 0.000832639
1172 1179.37233 1152.29933 0.000853242
1190 1178.72273 1151.8193 0.000840336
1172 1178.07635 1151.34077 0.000853242
1212 1177.43315 1150.86372 0.000825083
1189 1176.79311 1150.38816 0.000841043
1187 1176.15623 1149.91409 0.00084246
1177 1175.52246 1149.44151 0.000849618
1134 1174.89179 1148.97042 0.000881834
1244 1174.26421 1148.50082 0.000803859
1193 1173.63968 1148.0327 0.000838223
1214 1173.01819 1147.56607 0.000823723
1115 1172.39973 1147.10092 0.000896861
1169 1171.78427 1146.63725 0.000855432
1177 1171.17179 1146.17507 0.000849618
1121 1170.56227 1145.71436 0.000892061
1159 1169.95569 1145.25514 0.000862813
1179 1169.35205 1144.79739 0.000848176
1171 1168.7513 1144.34112 0.000853971
1164 1168.15345 1143.88633 0.000859107
1134 1167.55847 1143.43301 0.000881834
1217 1166.96634 1142.98117 0.000821693
1131 1166.37706 1142.5308 0.000884173
1196 1165.79059 1142.0819 0.00083612
1187 1165.20693 1141.63447 0.00084246
1169 1164.62605 1141.18851 0.000855432
1199 1164.04794 1140.74401 0.000834028
1190 1163.47259 1140.30098 0.000840336
1183 1162.89998 1139.85942 0.000845309
1148 1162.33009 1139.41932 0.00087108
1204 1161.76291 1138.98068 0.000830565
1189 1161.19842 1138.54349 0.000841043
1215 1160.63661 1138.10777 0.000823045
1088 1160.07746 1137.67351 0.000919118
1171 1159.52096 1137.2407 0.000853971
1186 1158.96709 1136.80934 0.00084317
1123 1158.41585 1136.37943 0.000890472
1127 1157.8672 1135.95098 0.000887311
1151 1157.32115 1135.52397 0.00086881
1140 1156.77768 1135.09842 0.000877193
1177 1156.23677 1134.6743 0.000849618
1123 1155.69841 1134.25163 0.000890472
1185 1155.16259 1133.83041 0.000843882
1161 1154.62928 1133.41062 0.000861326
1154 1154.0985 1132.99227 0.000866551
1138 1153.57021 1132.57536 0.000878735
1175 1153.04441 1132.15988 0.000851064
1168 1152.52108 1131.74583 0.000856164
1176 1152.00021 1131.33322 0.00085034
1154 1151.48179 1130.92204 0.000866551
1118 1150.96581 1130.51228 0.000894454
1178 1150.45225 1130.10395 0.000848896
1121 1149.94111 1129.69704 0.000892061
1180 1149.43237 1129.29155 0.000847458
1205 1148.92602 1128.88748 0.000829876
1146 1148.42205 1128.48483 0.0008726
1169 1147.92045 1128.08359 0.000855432
1142 1147.4212 1127.68377 0.000875657
1141 1146.9243 1127.28536 0.000876424
1102 1146.42974 1126.88836 0.000907441
1150 1145.9375 1126.49276 0.000869565
1132 1145.44758 1126.09857 0.000883392
1131 1144.95996 1125.70578 0.000884173
1110 1144.47463 1125.31439 0.000900901
1204 1143.99159 1124.92441 0.000830565
1154 1143.51082 1124.53581 0.000866551
1140 1143.03232 1124.14861 0.000877193
1086 1142.55607 1123.7628 0.00092081
1108 1142.08206 1123.37839 0.000902527
1178 1141.61029 1122.99535 0.000848896
1147 1141.14075 1122.61371 0.00087184
1149 1140.67342 1122.23344 0.000870322
1212 1140.2083 1121.85456 0.000825083
1130 1139.74537 1121.47705 0.000884956
1140 1139.28464 1121.10092 0.000877193
1166 1138.82609 1120.72616 0.000857633
1134 1138.3697 1120.35278 0.000881834
1214 1137.91548 1119.98076 0.000823723
1158 1137.46342 1119.6101 0.000863558
1117 1137.0135 1119.24081 0.000895255
1122 1136.56572 1118.87288 0.000891266
1178 1136.12007 1118.50631 0.000848896
1170 1135.67654 1118.1411 0.000854701
1168 1135.23512 1117.77723 0.000856164
1139 1134.79581 1117.41472 0.000877963
1196 1134.3586 1117.05356 0.00083612
1134 1133.92347 1116.69374 0.000881834
1182 1133.49043 1116.33527 0.000846024
1134 1133.05947 1115.97814 0.000881834
1130 1132.63057 1115.62234 0.000884956
1140 1132.20373 1115.26788 0.000877193
1203 1131.77895 1114.91475 0.000831255
1102 1131.35621 1114.56295 0.000907441
1107 1130.93551 1114.21248 0.000903342
1155 1130.51684 1113.86334 0.000865801
1151 1130.1002 1113.51552 0.00086881
1169 1129.68557 1113.16901 0.000855432
1131 1129.27296 1112.82382 0.000884173
1106 1128.86236 1112.47995 0.000904159
1106 1128.45375 1112.13739 0.000904159
1130 1128.04714 1111.79613 0.000884956
1121 1127.64251 1111.45618 0.000892061
1134 1127.23987 1111.11753 0.000881834
1093 1126.8392 1110.78019 0.000914913
1072 1126.4405 1110.44414 0.000932836
1172 1126.04376 1110.10938 0.000853242
1114 1125.64898 1109.77592 0.000897666
1132 1125.25615 1109.44374 0.000883392
1088 1124.86526 1109.11285 0.000919118
1122 1124.47632 1108.78325 0.000891266
1095 1124.08932 1108.45492 0.000913242
1141 1123.70424 1108.12787 0.000876424
1092 1123.32109 1107.80209 0.000915751
1125 1122.93986 1107.47759 0.000888889
1141 1122.56055 1107.15435 0.000876424
1170 1122.18315 1106.83238 0.000854701
1109 1121.80765 1106.51167 0.000901713
1159 1121.43406 1106.19222 0.000862813
1109 1121.06236 1105.87403 0.000901713
1100 1120.69256 1105.55709 0.000909091
1117 1120.32465 1105.2414 0.000895255
1174 1119.95862 1104.92696 0.000851789
1106 1119.59447 1104.61376 0.000904159
1085 1119.2322 1104.3018 0.000921659
1119 1118.87181 1103.99109 0.000893655
1101 1118.51328 1103.6816 0.000908265
1150 1118.15662 1103.37335 0.000869565
1097 1117.80183 1103.06633 0.000911577
1101 1117.44889 1102.76053 0.000908265
1121 1117.09781 1102.45596 0.000892061
1117 1116.74859 1102.1526 0.000895255
1169 1116.40122 1101.85047 0.000855432
1048 1116.05569 1101.54954 0.000954198
1138 1115.71201 1101.24983 0.000878735
1122 1115.37018 1100.95132 0.000891266
1072 1115.03019 1100.65402 0.000932836
1086 1114.69203 1100.35792 0.00092081
1152 1114.35572 1100.06301 0.000868056
1070 1114.02124 1099.7693 0.000934579
1086 1113.6886 1099.47678 0.00092081
1091 1113.35779 1099.18545 0.00091659
1102 1113.02881 1098.8953 0.000907441
1100 1112.70166 1098.60634 0.000909091
1090 1112.37635 1098.31855 0.000917431
1076 1112.05286 1098.03194 0.000929368
1121 1111.7312 1097.7465 0.000892061
1144 1111.41136 1097.46223 0.000874126
1112 1111.09336 1097.17912 0.000899281
1171 1110.77718 1096.89718 0.000853971
1067 1110.46284 1096.61639 0.000937207
1132 1110.15032 1096.33676 0.000883392
1095 1109.83963 1096.05829 0.000913242
1109 1109.53077 1095.78096 0.000901713
1125 1109.22374 1095.50477 0.000888889
1152 1108.91855 1095.22973 0.000868056
1055 1108.61519 1094.95583 0.000947867
1082 1108.31366 1094.68306 0.000924214
1126 1108.01397 1094.41143 0.000888099
1063 1107.71612 1094.14092 0.000940734
1112 1107.42012 1093.87154 0.000899281
1056 1107.12596 1093.60328 0.00094697
1123 1106.83366 1093.33614 0.000890472
1071 1106.5432 1093.07012 0.000933707
1091 1106.2546 1092.8052 0.00091659
1096 1105.96786 1092.5414 0.000912409
1079 1105.68298 1092.2787 0.000926784
1112 1105.39998 1092.0171 0.000899281
1095 1105.11885 1091.7566 0.000913242
1068 1104.8396 1091.4972 0.00093633
1085 1104.56223 1091.23889 0.000921659
1160 1104.28676 1090.98166 0.000862069
1076 1104.01318 1090.72552 0.000929368
1073 1103.74151 1090.47046 0.000931966
1101 1103.47175 1090.21648 0.000908265
1159 1103.20391 1089.96358 0.000862813
1103 1102.938 1089.71174 0.000906618
1100 1102.67403 1089.46097 0.000909091
1134 1102.41201 1089.21127 0.000881834
1143 1102.15193 1088.96262 0.000874891
1122 1101.89383 1088.71503 0.000891266
1124 1101.63771 1088.4685 0.00088968
1142 1101.38357 1088.22301 0.000875657
1113 1101.13143 1087.97858 0.000898473
1100 1100.8813 1087.73518 0.000909091
1183 1100.6332 1087.49283 0.000845309
1074 1100.38714 1087.25151 0.000931099
1073 1100.14313 1087.01122 0.000931966
1102 1099.90119 1086.77196 0.000907441
1164 1089.4757 1086.53373 0.000859107
1115 1089.27924 1086.29652 0.000896861
1093 1089.08465 1086.06032 0.000914913
1108 1088.89195 1085.82514 0.000902527
1163 1088.70115 1085.59098 0.000859845
1124 1088.51229 1085.35782 0.00088968
1136 1088.32538 1085.12566 0.000880282
1138 1088.14044 1084.89451 0.000878735
1094 1087.95751 1084.66435 0.000914077
1109 1087.77661 1084.43519 0.000901713
1099 1087.59776 1084.20701 0.000909918
1080 1087.42099 1083.97982 0.000925926
1143 1087.24633 1083.75362 0.000874891
1163 1087.07381 1083.52839 0.000859845
1149 1086.90347 1083.30414 0.000870322
1095 1086.73533 1083.08086 0.000913242
1091 1086.56943 1082.85855 0.00091659
1086 1086.4058 1082.63721 0.00092081
1152 1086.24449 1082.41682 0.000868056
1083 1086.08552 1082.1974 0.000923361
1100 1085.92895 1081.97893 0.000909091
1123 1085.77481 1081.7614 0.000890472
1094 1085.62315 1081.54483 0.000914077
1083 1085.474 1081.3292 0.000923361
1077 1085.32743 1081.11451 0.000928505
1086 1085.18348 1080.90075 0.00092081
1061 1085.04221 1080.68793 0.000942507
1082 1084.90365 1080.47603 0.000924214
1096 1084.76789 1080.26506 0.000912409
1107 1084.63496 1080.05502 0.000903342
1103 1084.50494 1079.84589 0.000906618
1120 1084.37788 1079.63767 0.000892857
1056 1084.25387 1079.43037 0.00094697
1094 1084.13296 1079.22397 0.000914077
1060 1084.01524 1079.01848 0.000943396
1079 1083.90077 1078.81388 0.000926784
1121 1083.78964 1078.61018 0.000892061
1049 1083.68194 1078.40738 0.000953289
1097 1083.57776 1078.20546 0.000911577
1067 1083.47718 1078.00443 0.000937207
1132 1083.38031 1077.80428 0.000883392
1113 1083.28724 1077.60501 0.000898473
1121 1083.19809 1077.40661 0.000892061
1078 1083.11297 1077.20909 0.000927644
1088 1083.032 1077.01243 0.000919118
1129 1082.95529 1076.81663 0.00088574
1058 1082.88298 1076.6217 0.00094518
1071 1082.81522 1076.42762 0.000933707
1051 1082.75213 1076.23439 0.000951475
1132 1082.69387 1076.04201 0.000883392
1099 1082.64061 1075.85048 0.000909918
1098 1082.59251 1075.65979 0.000910747
1080 1082.54974 1075.46994 0.000925926
1087 1082.51249 1075.28092 0.000919963
1090 1082.48096 1075.09273 0.000917431
1084 1082.45535 1074.90537 0.000922509
1103 1082.43589 1074.71883 0.000906618
1129 1082.42279 1074.53311 0.00088574
1049 1082.4163 1074.34821 0.000953289
1064 1082.41669 1074.16412 0.00093985
1089 1082.42421 1073.98084 0.000918274
1146 1082.43915 1073.79836 0.0008726
1083 1082.46182 1073.61669 0.000923361
1058 1082.49254 1073.43581 0.00094518
1065 1082.53165 1073.25573 0.000938967
1068 1082.5795 1073.07643 0.00093633
1096 1082.63647 1072.89793 0.000912409
1074 1082.70298 1072.72021 0.000931099
1103 1082.77944 1072.54326 0.000906618
1048 1082.86632 1072.3671 0.000954198
1091 1082.9641 1072.1917 0.00091659
1083 1083.07329 1072.01707 0.000923361
1115 1083.19445 1071.84321 0.000896861
1095 1083.32815 1071.67011 0.000913242
1065 1083.47502 1071.49777 0.000938967
1087 1083.63573 1071.32618 0.000919963
1073 1083.81098 1071.15534 0.000931966
1129 1084.00154 1070.98525 0.00088574
1096 1084.20823 1070.8159 0.000912409
1103 1084.4319 1070.64729 0.000906618
1086 1084.6735 1070.47942 0.00092081
1108 1084.93404 1070.31228 0.000902527
1104 1085.2146 1070.14587 0.000905797
1108 1085.51636 1069.98018 0.000902527
1098 1085.84058 1069.81521 0.000910747
1049 1086.18864 1069.65096 0.000953289
1078 1086.56204 1069.48743 0.000927644
1087 1086.96242 1069.3246 0.000919963
1101 1087.39156 1069.16248 0.000908265
1099 1087.85145 1069.00107 0.000909918
1083 1088.34426 1068.84035 0.000923361
1075 1090.14126 1068.68033 0.000930233
1086 1090.71333 1068.521 0.00092081
1129 1091.32643 1068.36236 0.00088574
1114 1091.98397 1068.2044 0.000897666
1124 1092.68971 1068.04713 0.00088968
1051 1093.44794 1067.89053 0.000951475
1080 1094.2635 1067.73461 0.000925926
1134 1095.14189 1067.57936 0.000881834
1126 1096.08935 1067.42477 0.000888099
1144 1097.11298 1067.27085 0.000874126
1076 1098.22086 1067.11759 0.000929368
1098 1099.42218 1066.96498 0.000910747
1148 1100.72734 1066.81302 0.00087108
1129 1102.14812 1066.66172 0.00088574
1119 1103.69786 1066.51106 0.000893655
1107 1105.39151 1066.36104 0.000903342
1143 1107.24585 1066.21166 0.000874891
1145 1109.27956 1066.06291 0.000873362
1119 1111.51337 1065.91479 0.000893655
1115 1113.9701 1065.7673 0.000896861
1109 1116.67472 1065.62043 0.000901713
1091 1119.65439 1065.47419 0.00091659
1070 1122.93837 1065.32856 0.000934579
1079 1126.55794 1065.18354 0.000926784
1149 1130.54624 1065.03913 0.000870322
1158 1134.938 1064.89533 0.000863558
1162 1139.76933 1064.75213 0.000860585
1220 1145.0772 1064.60953 0.000819672
1164 1150.89896 1064.46752 0.000859107
1187 1157.27194 1064.3261 0.00084246
1169 1164.23255 1064.18527 0.000855432
1146 1171.81564 1064.04503 0.0008726
1204 1180.05348 1063.90536 0.000830565
1176 1188.97477 1063.76628 0.00085034
1189 1198.60341 1063.62776 0.000841043
1231 1208.95678 1063.48982 0.000812348
1233 1220.04416 1063.35244 0.00081103
1225 1231.86449 1063.21563 0.000816327
1280 1244.40328 1063.07938 0.00078125
1299 1257.6298 1062.94368 0.000769823
1255 1271.49268 1062.80853 0.000796813
1297 1285.91509 1062.67393 0.00077101
1334 1300.78967 1062.53988 0.000749625
1309 1315.97228 1062.40637 0.000763942
1302 1331.27674 1062.27339 0.000768049
1458 1346.47 1062.14096 0.000685871
1401 1361.27002 1062.00905 0.000713776
1426 1375.34795 1061.87767 0.000701262
1483 1388.33577 1061.74681 0.000674309
1415 1399.84111 1061.61648 0.000706714
1446 1409.47045 1061.48666 0.000691563
1474 1416.85821 1061.35736 0.000678426
1518 1421.69961 1061.22856 0.000658762
1475 1423.78164 1061.10027 0.000677966
1517 1423.0067 1060.97249 0.000659196
1519 1419.40399 1060.8452 0.000658328
1416 1413.12624 1060.71842 0.000706215
1421 1404.43198 1060.59212 0.00070373
1439 1393.65793 1060.46631 0.000694927
1373 1381.18634 1060.34099 0.000728332
1363 1367.41352 1060.21615 0.000733676
1304 1352.72305 1060.09179 0.000766871
1314 1337.46647 1059.96791 0.000761035
1205 1321.95175 1059.8445 0.000829876
1258 1306.43848 1059.72155 0.000794913
1203 1291.1377 1059.59907 0.000831255
1156 1276.21581 1059.47706 0.000865052
1190 1261.7993 1059.3555 0.000840336
1170 1247.98093 1059.23439 0.000854701
1164 1234.82515 1059.11374 0.000859107
1165 1222.37341 1058.99353 0.000858369
1127 1210.64846 1058.87377 0.000887311
1106 1199.65832 1058.75446 0.000904159
1127 1189.39901 1058.63557 0.000887311
1178 1179.85723 1058.51713 0.000848896
1058 1171.01244 1058.39911 0.00094518
1069 1162.83837 1058.28152 0.000935454
1100 1155.30457 1058.16436 0.000909091
1042 1148.37741 1058.04761 0.000959693
1051 1142.02121 1057.93129 0.000951475
1065 1136.19909 1057.81537 0.000938967
1083 1130.87361 1057.69987 0.000923361
1075 1126.0075 1057.58478 0.000930233
1121 1121.56412 1057.47008 0.000892061
1144 1117.50799 1057.35579 0.000874126
1022 1113.80503 1057.2419 0.000978474
1049 1110.42293 1057.1284 0.000953289
1109 1107.33131 1057.01529 0.000901713
1044 1104.50185 1056.90257 0.000957854
1064 1101.90842 1056.79023 0.00093985
1086 1099.52699 1056.67828 0.00092081
1056 1097.33572 1056.5667 0.00094697
1092 1095.31483 1056.45549 0.000915751
1005 1093.44651 1056.34465 0.000995025
1041 1091.71481 1056.23418 0.000960615
1159 1090.10555 1056.12408 0.000862813
1082 1088.60613 1056.01434 0.000924214
1040 1087.20539 1055.90495 0.000961538
1038 1085.8935 1055.79592 0.000963391
1025 1084.6618 1055.68723 0.00097561
1009 1083.50266 1055.5789 0.00099108
1084 1082.40939 1055.47091 0.000922509
1086 1081.37608 1055.36326 0.00092081
1055 1080.39755 1055.25595 0.000947867
1010 1079.46923 1055.14897 0.000990099
1057 1078.58705 1055.04233 0.000946074
1033 1077.74743 1054.93601 0.000968054
1022 1076.94717 1054.83002 0.000978474
1082 1076.18341 1054.72434 0.000924214
1040 1075.4536 1054.61899 0.000961538
987 1074.75543 1054.51395 0.001013171
1063 1074.08681 1054.40923 0.000940734
1054 1073.44586 1054.30481 0.000948767
1009 1072.83084 1054.2007 0.00099108
1045 1072.24018 1054.09689 0.000956938
1077 1071.67245 1053.99337 0.000928505
1037 1071.12629 1053.89016 0.00096432
1028 1070.6005 1053.78724 0.000972763
1012 1070.09392 1053.6846 0.000988142
1012 1069.60551 1053.58225 0.000988142
1084 1069.13428 1053.48019 0.000922509
1099 1068.67933 1053.37841 0.000909918
1022 1068.23981 1053.2769 0.000978474
1035 1067.81491 1053.17566 0.000966184
1067 1067.40391 1053.0747 0.000937207
1074 1067.0061 1052.974 0.000931099
1056 1066.62084 1052.87357 0.00094697
1035 1066.24751 1052.7734 0.000966184
1069 1065.88555 1052.67349 0.000935454
1046 1065.53441 1052.57383 0.000956023
1034 1065.1936 1052.47442 0.000967118
1090 1064.86263 1052.37527 0.000917431
1068 1064.54106 1052.27635 0.00093633
1071 1064.22846 1052.17768 0.000933707
1023 1063.92444 1052.07925 0.000977517
1091 1063.62863 1051.98106 0.00091659
1078 1063.34066 1051.8831 0.000927644
1052 1063.06021 1051.78537 0.00095057
1044 1062.78695 1051.68786 0.000957854
1068 1062.5206 1051.59058 0.00093633
1048 1062.26086 1051.49352 0.000954198
1067 1062.00748 1051.39668 0.000937207
1113 1061.76019 1051.30005 0.000898473
1019 1061.51875 1051.20364 0.000981354
1010 1061.28294 1051.10743 0.000990099
1054 1061.05254 1051.01143 0.000948767
1030 1060.82735 1050.91563 0.000970874
1012 1060.60717 1050.82003 0.000988142
1019 1060.39182 1050.72463 0.000981354
1006 1060.18112 1050.62943 0.000994036
1020 1059.9749 1050.53441 0.000980392
1065 1059.77301 1050.43958 0.000938967
1025 1059.5753 1050.34493 0.00097561
1032 1059.38161 1050.25047 0.000968992
1063 1059.19181 1050.15619 0.000940734
1112 1059.00578 1050.06208 0.000899281
1073 1058.82338 1049.96814 0.000931966
1034 1058.64451 1049.87438 0.000967118
1008 1058.46904 1049.78078 0.000992063
1047 1058.29686 1049.68734 0.00095511
996 1058.12788 1049.59407 0.001004016
1054 1057.962 1049.50096 0.000948767
1054 1057.79912 1049.408 0.000948767
970 1057.63916 1049.31519 0.001030928
995 1057.48202 1049.22253 0.001005025
1018 1057.32762 1049.13002 0.000982318
980 1057.17589 1049.03765 0.001020408
1009 1057.02676 1048.94542 0.00099108
1005 1056.88014 1048.85333 0.000995025
1059 1056.73598 1048.76138 0.000944287
993 1056.5942 1048.66956 0.001007049
1078 1056.45475 1048.57786 0.000927644
1024 1056.31756 1048.4863 0.000976562
1034 1056.18257 1048.39485 0.000967118
1093 1056.04974 1048.30353 0.000914913
1023 1055.91901 1048.21233 0.000977517
1002 1055.79033 1048.12124 0.000998004
1048 1055.66365 1048.03026 0.000954198
989 1055.53892 1047.93939 0.001011122
1037 1055.4161 1047.84863 0.00096432
1007 1055.29515 1047.75797 0.000993049
1012 1055.17603 1047.66742 0.000988142
1007 1055.0587 1047.57696 0.000993049
1025 1054.94312 1047.4866 0.00097561
967 1054.82926 1047.39633 0.001034126
1063 1054.71708 1047.30615 0.000940734
1061 1054.60655 1047.21605 0.000942507
1053 1054.49764 1047.12604 0.000949668
1053 1054.39033 1047.03612 0.000949668
1035 1054.28457 1046.94627 0.000966184
1028 1054.18035 1046.8565 0.000972763
967 1054.07764 1046.7668 0.001034126
943 1053.97641 1046.67717 0.001060445
1050 1053.87665 1046.58761 0.000952381
1055 1053.77832 1046.49812 0.000947867
1052 1053.68142 1046.40868 0.00095057
1002 1053.58591 1046.31931 0.000998004
1032 1053.49178 1046.23 0.000968992
1005 1053.39901 1046.14074 0.000995025
983 1053.30758 1046.05153 0.001017294
1048 1053.21748 1045.96237 0.000954198
964 1053.1287 1045.87326 0.001037344
1017 1053.04121 1045.78419 0.000983284
998 1052.955 1045.69516 0.001002004
1007 1052.87007 1045.60617 0.000993049
1048 1052.7864 1045.51722 0.000954198
1017 1052.70397 1045.42829 0.000983284
1031 1052.62278 1045.3394 0.000969932
1021 1052.54282 1045.25054 0.000979432
1023 1052.46408 1045.16171 0.000977517
1023 1052.38655 1045.07289 0.000977517
1057 1052.31022 1044.9841 0.000946074
1043 1052.23509 1044.89532 0.000958773
1004 1052.16115 1044.80656 0.000996016
985 1052.0884 1044.71782 0.001015228
1024 1052.01683 1044.62908 0.000976562
1007 1051.94643 1044.54035 0.000993049
1068 1051.87721 1044.45162 0.00093633
1113 1051.80916 1044.3629 0.000898473
1022 1051.74228 1044.27417 0.000978474
1045 1051.67657 1044.18545 0.000956938
996 1051.61202 1044.09671 0.001004016
1079 1051.54865 1044.00797 0.000926784
1042 1051.48644 1043.91922 0.000959693
1082 1051.42539 1043.83046 0.000924214
1073 1051.36552 1043.74168 0.000931966
1042 1051.30683 1043.65288 0.000959693
1031 1051.24931 1043.56406 0.000969932
1004 1051.19297 1043.47522 0.000996016
983 1051.13782 1043.38636 0.001017294
1007 1051.08386 1043.29747 0.000993049
993 1051.03109 1043.20854 0.001007049
1037 1050.97953 1043.11959 0.00096432
1034 1050.92918 1043.03059 0.000967118
990 1050.88004 1042.94157 0.001010101
958 1050.83213 1042.8525 0.001043841
995 1050.78545 1042.76339 0.001005025
1046 1050.74002 1042.67423 0.000956023
1051 1050.69585 1042.58503 0.000951475
1042 1050.65294 1042.49577 0.000959693
1016 1050.71933 1042.40647 0.000984252
994 1050.67948 1042.31711 0.001006036
1015 1050.64092 1042.22769 0.000985222
1021 1050.6037 1042.13821 0.000979432
1050 1050.5678 1042.04868 0.000952381
1029 1050.53326 1041.95908 0.000971817
1014 1050.50009 1041.86941 0.000986193
1025 1050.4683 1041.77967 0.00097561
1020 1050.43792 1041.68986 0.000980392
1064 1050.40896 1041.59998 0.00093985
1024 1050.38145 1041.51003 0.000976562
1040 1050.35539 1041.41999 0.000961538
1038 1050.33082 1041.32988 0.000963391
1004 1050.30777 1041.23968 0.000996016
1007 1050.28623 1041.1494 0.000993049
1013 1050.26626 1041.05903 0.000987167
978 1050.24787 1040.96857 0.001022495
978 1050.23108 1040.87802 0.001022495
1004 1050.21593 1040.78738 0.000996016
1030 1050.20244 1040.69664 0.000970874
990 1050.19064 1040.6058 0.001010101
1029 1050.18057 1040.51486 0.000971817
1021 1050.17225 1040.42381 0.000979432
1055 1050.16573 1040.33266 0.000947867
1031 1050.16102 1040.24141 0.000969932
962 1050.15818 1040.15004 0.001039501
1041 1050.15723 1040.05857 0.000960615
991 1050.15821 1039.96698 0.001009082
1051 1050.16117 1039.87527 0.000951475
1026 1050.16615 1039.78344 0.000974659
1083 1050.17318 1039.69149 0.000923361
1022 1050.18232 1039.59942 0.000978474
1070 1050.1936 1039.50723 0.000934579
1065 1050.20709 1039.41491 0.000938967
1054 1050.22282 1039.32246 0.000948767
1016 1050.24084 1039.22987 0.000984252
1074 1050.26122 1039.13716 0.000931099
988 1050.284 1039.0443 0.001012146
971 1050.30924 1038.95131 0.001029866
1004 1050.33701 1038.85818 0.000996016
980 1050.36735 1038.76491 0.001020408
1019 1050.40034 1038.6715 0.000981354
1057 1050.43605 1038.57793 0.000946074
1004 1050.47453 1038.48422 0.000996016
952 1050.51586 1038.39036 0.00105042
1065 1050.64198 1038.29634 0.000938967
1037 1050.68959 1038.20217 0.00096432
1089 1050.74029 1038.10785 0.000918274
1008 1050.79414 1038.01336 0.000992063
967 1050.85124 1037.91872 0.001034126
1029 1050.91168 1037.82391 0.000971817
1001 1050.97553 1037.72893 0.000999001
967 1051.04291 1037.63379 0.001034126
1014 1051.1139 1037.53848 0.000986193
1014 1051.18861 1037.443 0.000986193
981 1051.26714 1037.34735 0.001019368
1041 1051.3496 1037.25152 0.000960615
1034 1051.43611 1037.15552 0.000967118
1030 1051.52677 1037.05933 0.000970874
1030 1051.62173 1036.96296 0.000970874
1058 1051.72109 1036.86642 0.00094518
1032 1051.825 1036.76968 0.000968992
1058 1051.93359 1036.67276 0.00094518
1016 1052.04701 1036.57565 0.000984252
1052 1052.16539 1036.47835 0.00095057
1012 1052.2889 1036.38086 0.000988142
1059 1052.41769 1036.28317 0.000944287
1062 1052.55194 1036.18529 0.00094162
1016 1052.69181 1036.0872 0.000984252
1074 1052.86664 1035.98892 0.000931099
1037 1055.22411 1035.89043 0.00096432
1056 1055.39181 1035.79174 0.00094697
1146 1055.56596 1035.69285 0.0008726
1047 1055.74679 1035.59374 0.00095511
1038 1055.93451 1035.49443 0.000963391
1100 1056.12934 1035.3949 0.000909091
1036 1056.33155 1035.29517 0.000965251
1054 1056.54137 1035.19521 0.000948767
1067 1056.75908 1035.09504 0.000937207
1097 1056.98493 1034.99465 0.000911577
1041 1057.21922 1034.89404 0.000960615
1091 1057.46226 1034.7932 0.00091659
1115 1057.71434 1034.69214 0.000896861
1068 1057.97579 1034.59085 0.00093633
1035 1058.24697 1034.48934 0.000966184
1073 1058.52821 1034.3876 0.000931966
1067 1058.8199 1034.28562 0.000937207
1106 1059.12242 1034.18341 0.000904159
1080 1059.43619 1034.08096 0.000925926
1041 1059.76162 1033.97828 0.000960615
1112 1060.09918 1033.87536 0.000899281
1046 1060.44932 1033.7722 0.000956023
1024 1060.81255 1033.66879 0.000976562
1091 1061.18937 1033.56515 0.00091659
1069 1061.58033 1033.46125 0.000935454
1091 1061.98601 1033.35711 0.00091659
1093 1062.40698 1033.25272 0.000914913
1077 1062.84389 1033.14807 0.000928505
1105 1063.29739 1033.04318 0.000904977
1102 1063.76819 1032.93803 0.000907441
1039 1064.257 1032.83262 0.000962464
1043 1064.76459 1032.72696 0.000958773
1070 1065.29179 1032.62103 0.000934579
1031 1065.83943 1032.51485 0.000969932
1086 1066.40843 1032.4084 0.00092081
1033 1066.99972 1032.30169 0.000968054
1114 1067.61432 1032.19471 0.000897666
1139 1068.25327 1032.08746 0.000877963
1064 1068.9177 1031.97995 0.00093985
1110 1069.60878 1031.87216 0.000900901
1087 1070.32778 1031.7641 0.000919963
1121 1071.07599 1031.65577 0.000892061
1087 1071.85485 1031.54716 0.000919963
1056 1072.6658 1031.43827 0.00094697
1001 1073.51046 1031.3291 0.000999001
1048 1074.39046 1031.21965 0.000954198
1072 1075.3076 1031.10992 0.000932836
1112 1076.26376 1030.99991 0.000899281
1051 1077.26098 1030.88961 0.000951475
1108 1078.30135 1030.77902 0.000902527
1066 1079.3872 1030.66815 0.000938086
1113 1080.52095 1030.55698 0.000898473
1141 1081.70523 1030.44552 0.000876424
1102 1082.94283 1030.33377 0.000907441
1069 1084.2368 1030.22172 0.000935454
1095 1085.59036 1030.10938 0.000913242
1088 1087.00701 1029.99674 0.000919118
1138 1088.49057 1029.8838 0.000878735
1097 1090.04514 1029.77056 0.000911577
1069 1091.67525 1029.65702 0.000935454
1081 1093.38578 1029.54317 0.000925069
1123 1095.18214 1029.42902 0.000890472
1107 1097.07029 1029.31456 0.000903342
1135 1099.05679 1029.1998 0.000881057
1134 1101.14893 1029.08472 0.000881834
1117 1103.35489 1028.96933 0.000895255
1101 1105.68378 1028.85363 0.000908265
1147 1108.14581 1028.73762 0.00087184
1207 1110.75251 1028.62129 0.0008285
1129 1113.51688 1028.50464 0.00088574
1162 1116.45361 1028.38768 0.000860585
1163 1119.57938 1028.27039 0.000859845
1161 1122.91302 1028.15278 0.000861326
1195 1126.47594 1028.03485 0.00083682
1177 1130.29232 1027.9166 0.000849618
1190 1134.38951 1027.79802 0.000840336
1221 1138.79848 1027.67912 0.000819001
1188 1143.55398 1027.55988 0.000841751
1137 1148.69519 1027.44032 0.000879507
1144 1154.26571 1027.32043 0.000874126
1273 1160.31433 1027.2002 0.000785546
1277 1166.89509 1027.07964 0.000783085
1243 1174.06748 1026.95875 0.000804505
1216 1181.89687 1026.83752 0.000822368
1224 1190.45457 1026.71595 0.000816993
1277 1199.81764 1026.59404 0.000783085
1304 1210.06903 1026.47179 0.000766871
1274 1221.29734 1026.3492 0.000784929
1300 1233.5961 1026.22627 0.000769231
1254 1247.06354 1026.103 0.000797448
1318 1261.8018 1025.97938 0.000758725
1319 1277.91562 1025.85541 0.00075815
1393 1295.51139 1025.73109 0.000717875
1293 1314.6962 1025.60643 0.000773395
1430 1335.57514 1025.48141 0.000699301
1402 1358.25058 1025.35604 0.000713267
1440 1382.81947 1025.23032 0.000694444
1506 1409.37106 1025.10425 0.000664011
1508 1437.98463 1024.97782 0.00066313
1448 1468.72611 1024.85103 0.000690608
1444 1501.6448 1024.72388 0.000692521
1534 1536.76998 1024.59638 0.00065189
1624 1574.10573 1024.46851 0.000615764
1623 1613.62595 1024.34029 0.000616143
1699 1655.26841 1024.2117 0.000588582
1721 1698.92643 1024.08274 0.000581058
1820 1744.44107 1023.95343 0.000549451
1892 1791.59016 1023.82374 0.000528541
1926 1840.07715 1023.69369 0.000519211
2009 1889.51853 1023.56327 0.00049776
2078 1939.43227 1023.43248 0.000481232
2074 1989.22588 1023.30131 0.00048216
2085 2038.19083 1023.16978 0.000479616
2206 2085.50179 1023.03787 0.000453309
2198 2130.22669 1022.90559 0.000454959
2314 2171.35027 1022.77293 0.000432152
2314 2207.81273 1022.6399 0.000432152
2360 2238.56549 1022.50649 0.000423729
2362 2262.63796 1022.3727 0.00042337
2350 2279.21226 1022.23853 0.000425532
2419 2287.69345 1022.10398 0.000413394
2420 2287.76474 1021.96904 0.000413223
2392 2279.41954 1021.83372 0.00041806
2389 2262.96157 1021.69802 0.000418585
2304 2238.97518 1021.56194 0.000434028
2365 2208.26994 1021.42546 0.000422833
2297 2171.81155 1021.2886 0.00043535
2241 2130.64701 1021.15135 0.000446229
2197 2085.83639 1021.01371 0.000455166
2168 2038.39793 1020.87568 0.000461255
2049 1989.26798 1020.73726 0.000488043
1996 1939.27661 1020.59845 0.000501002
1866 1889.1374 1020.45924 0.000535906
1847 1839.44745 1020.31964 0.000541419
1710 1790.6937 1020.17964 0.000584795
1694 1743.64613 1020.03924 0.000590319
1685 1697.8409 1019.89845 0.000593472
1679 1653.88419 1019.75726 0.000595593
1623 1611.93762 1019.61566 0.000616143
1568 1572.10959 1019.47367 0.000637755
1506 1534.46455 1019.33128 0.000664011
1516 1499.02956 1019.18848 0.000659631
1433 1465.80179 1019.04528 0.000697837
1436 1434.75307 1018.90167 0.000696379
1416 1405.8349 1018.75766 0.000706215
1417 1378.98179 1018.61325 0.000705716
1355 1354.1152 1018.46842 0.000738007
1330 1331.1461 1018.32319 0.00075188
1328 1309.97783 1018.17755 0.000753012
1336 1290.5084 1018.0315 0.000748503
1356 1272.63246 1017.88503 0.000737463
1331 1256.2433 1017.73816 0.000751315
1296 1241.23436 1017.59087 0.000771605
1270 1227.50067 1017.44317 0.000787402
1265 1214.94014 1017.29505 0.000790514
1231 1203.45441 1017.14652 0.000812348
1290 1192.94949 1016.99757 0.000775194
1230 1183.33678 1016.8482 0.000813008
1229 1174.5331 1016.69842 0.00081367
1177 1166.46094 1016.54822 0.000849618
1237 1159.04893 1016.3976 0.000808407
1221 1152.23146 1016.24655 0.000819001
1201 1145.94864 1016.09509 0.000832639
1226 1140.14632 1015.9432 0.000815661
1158 1134.77556 1015.79089 0.000863558
1217 1129.79238 1015.63816 0.000821693
1160 1125.15757 1015.485 0.000862069
1206 1120.83615 1015.33141 0.000829187
1161 1116.79701 1015.1774 0.000861326
1125 1113.01266 1015.02296 0.000888889
1172 1109.45881 1014.8681 0.000853242
1119 1106.11391 1014.7128 0.000893655
1159 1102.95903 1014.55708 0.000862813
1160 1099.97748 1014.40092 0.000862069
1170 1097.15442 1014.24433 0.000854701
1204 1094.47684 1014.08732 0.000830565
1175 1091.93315 1013.92986 0.000851064
1131 1089.51307 1013.77198 0.000884173
1059 1087.20745 1013.61366 0.000944287
1170 1085.0081 1013.45491 0.000854701
1141 1082.90772 1013.29572 0.000876424
1083 1080.8997 1013.1361 0.000923361
1099 1078.97807 1012.97603 0.000909918
1128 1077.13742 1012.81553 0.000886525
1125 1075.37283 1012.6546 0.000888889
1115 1073.67978 1012.49322 0.000896861
1102 1072.05416 1012.3314 0.000907441
1049 1070.49216 1012.16914 0.000953289
1053 1068.99026 1012.00645 0.000949668
1054 1067.54524 1011.8433 0.000948767
1085 1066.15404 1011.67972 0.000921659
1055 1064.81391 1011.51569 0.000947867
1089 1063.52218 1011.35122 0.000918274
1049 1062.27644 1011.18631 0.000953289
1093 1061.07439 1011.02095 0.000914913
1103 1059.91391 1010.85514 0.000906618
1064 1058.79298 1010.68889 0.00093985
1048 1057.70973 1010.52219 0.000954198
1011 1056.66237 1010.35504 0.00098912
1020 1055.64925 1010.18745 0.000980392
1057 1054.6688 1010.0194 0.000946074
1064 1053.71955 1009.85091 0.00093985
1034 1052.80009 1009.68196 0.000967118
1061 1052.17701 1009.51257 0.000942507
1015 1051.31442 1009.34272 0.000985222
1054 1050.47792 1009.17242 0.000948767
1023 1049.66639 1009.00167 0.000977517
1070 1048.8788 1008.83046 0.000934579
1043 1048.11414 1008.6588 0.000958773
1057 1047.37149 1008.48669 0.000946074
1020 1046.64994 1008.31412 0.000980392
1047 1045.94868 1008.1411 0.00095511
1019 1045.26689 1007.96762 0.000981354
1072 1044.60382 1007.79368 0.000932836
1101 1043.95876 1007.61929 0.000908265
1027 1043.33101 1007.44444 0.00097371
1060 1042.71997 1007.26913 0.000943396
1037 1042.12497 1007.09336 0.00096432
1051 1041.54547 1006.91714 0.000951475
1047 1040.9809 1006.74045 0.00095511
1007 1040.43074 1006.5633 0.000993049
1091 1039.89449 1006.3857 0.00091659
1041 1039.37168 1006.20763 0.000960615
1001 1038.86185 1006.0291 0.000999001
1061 1038.36458 1005.85011 0.000942507
1091 1037.87945 1005.67065 0.00091659
1060 1037.40608 1005.49073 0.000943396
1016 1036.9441 1005.31035 0.000984252
1073 1036.49316 1005.1295 0.000931966
1043 1036.05293 1004.94819 0.000958773
985 1035.62308 1004.76642 0.001015228
995 1035.20331 1004.58418 0.001005025
1001 1034.79334 1004.40147 0.000999001
1027 1034.39289 1004.2183 0.00097371
988 1034.00171 1004.03466 0.001012146
1031 1033.61954 1003.85055 0.000969932
1016 1033.24614 1003.66598 0.000984252
1018 1032.88129 1003.48093 0.000982318
1032 1032.52479 1003.29542 0.000968992
1061 1032.17642 1003.10944 0.000942507
1006 1031.836 1002.92299 0.000994036
1036 1031.50335 1002.73607 0.000965251
1007 1031.17829 1002.54868 0.000993049
1020 1030.86065 1002.36082 0.000980392
1020 1030.55029 1002.17249 0.000980392
998 1030.24705 1001.98369 0.001002004
1014 1029.95081 1001.79442 0.000986193
1008 1029.66141 1001.60467 0.000992063
1008 1029.37876 1001.41446 0.000992063
1038 1029.10272 1001.22377 0.000963391
1010 1028.83319 1001.0326 0.000990099
1034 1028.57007 1000.84097 0.000967118
1067 1028.31326 1000.64886 0.000937207
1067 1028.06268 1000.45627 0.000937207
994 1027.81823 1000.26322 0.001006036
1046 1027.57985 1000.06968 0.000956023
1039 1027.34746 999.87567 0.000962464
1017 1027.121 999.68119 0.000983284
1006 1026.90042 999.48623 0.000994036
976 1026.68565 999.2908 0.00102459
1026 1026.47664 999.09489 0.000974659
981 1026.27336 998.8985 0.001019368
1016 1026.07577 998.70163 0.000984252
1037 1025.88384 998.50429 0.00096432
1018 1025.69754 998.30647 0.000982318
1011 1025.51684 998.10818 0.00098912
1004 1025.34173 997.9094 0.000996016
1020 1025.1722 997.71015 0.000980392
987 1025.00825 997.51042 0.001013171
994 1024.84987 997.31021 0.001006036
1009 1024.69706 997.10952 0.00099108
1008 1024.54983 996.90835 0.000992063
1065 1024.4082 996.7067 0.000938967
988 1024.27219 996.50457 0.001012146
986 1024.14181 996.30197 0.001014199
1018 1024.0171 996.09888 0.000982318
1017 1023.89809 995.89531 0.000983284
1045 1023.78482 995.69126 0.000956938
1011 1023.67733 995.48673 0.00098912
1026 1023.57568 995.28172 0.000974659
1046 1023.47992 995.07623 0.000956023
1050 1023.39011 994.87026 0.000952381
1026 1023.30631 994.6638 0.000974659
1018 1023.22861 994.45687 0.000982318
1003 1023.15707 994.24945 0.000997009
1011 1023.09179 994.04155 0.00098912
1025 1023.03285 993.83317 0.00097561
1006 1022.98036 993.6243 0.000994036
980 1022.93441 993.41495 0.001020408
982 1022.89512 993.20512 0.00101833
992 1022.86261 992.99481 0.001008065
1012 1022.83701 992.78401 0.000988142
979 1022.81844 992.57273 0.00102145
1004 1022.80706 992.36096 0.000996016
1002 1022.80301 992.14872 0.000998004
1018 1022.80645 991.93598 0.000982318
982 1022.81756 991.72277 0.00101833
1033 1022.8365 991.50907 0.000968054
987 1022.86348 991.29489 0.001013171
966 1022.89868 991.08022 0.001035197
1002 1022.94232 990.86507 0.000998004
993 1022.99463 990.64943 0.001007049
1015 1023.05584 990.43331 0.000985222
1029 1023.12619 990.2167 0.000971817
996 1023.20596 989.99961 0.001004016
983 1023.29541 989.78204 0.001017294
1010 1023.39484 989.56398 0.000990099
988 1023.50457 989.34543 0.001012146
1043 1023.62491 989.1264 0.000958773
1059 1023.75622 988.90689 0.000944287
983 1023.89888 988.68689 0.001017294
1037 1024.05327 988.4664 0.00096432
954 1024.2198 988.24543 0.001048218
970 1024.20832 988.02397 0.001030928
1024 1024.4012 987.80203 0.000976562
991 1024.60767 987.5796 0.001009082
926 1024.82827 987.35669 0.001079914
1011 1025.0636 987.13329 0.00098912
1002 1025.31429 986.90941 0.000998004
1006 1025.58105 986.68504 0.000994036
971 1025.86463 986.46018 0.001029866
961 1026.16585 986.23484 0.001040583
1051 1026.48562 986.00902 0.000951475
1016 1026.82494 985.7827 0.000984252
1065 1027.18489 985.5559 0.000938967
968 1027.56669 985.32862 0.001033058
999 1027.97168 985.10085 0.001001001
1028 1028.40135 984.8726 0.000972763
1048 1028.85737 984.64386 0.000954198
1022 1029.34158 984.41463 0.000978474
961 1029.85604 984.18492 0.001040583
1019 1030.40305 983.95472 0.000981354
1047 1030.98516 983.72404 0.00095511
1023 1031.60523 983.49287 0.000977517
971 1032.26642 983.26121 0.001029866
950 1032.97225 983.02907 0.001052632
1035 1033.72658 982.79645 0.000966184
1028 1034.5337 982.56334 0.000972763
1080 1035.39831 982.32974 0.000925926
1095 1036.32555 982.09566 0.000913242
1078 1037.321 981.8611 0.000927644
1003 1038.39074 981.62604 0.000997009
1020 1039.54126 981.39051 0.000980392
1059 1040.77955 981.15449 0.000944287
1046 1042.11304 980.91798 0.000956023
1020 1043.54958 980.68099 0.000980392
1063 1045.09737 980.44351 0.000940734
1027 1046.76495 980.20555 0.00097371
1031 1048.56112 979.96711 0.000969932
1047 1050.49484 979.72818 0.00095511
1022 1052.57517 979.48876 0.000978474
1033 1054.81115 979.24886 0.000968054
1037 1057.21163 979.00848 0.00096432
997 1059.78519 978.76761 0.001003009
1090 1062.53998 978.52626 0.000917431
1023 1065.48347 978.28443 0.000977517
1089 1068.62236 978.04211 0.000918274
1057 1071.96236 977.79931 0.000946074
1079 1075.50786 977.55602 0.000926784
1139 1079.26178 977.31226 0.000877963
1123 1083.22521 977.068 0.000890472
1123 1087.39708 976.82327 0.000890472
1125 1091.77376 976.57805 0.000888889
1124 1096.34864 976.33235 0.00088968
1102 1101.11143 976.08617 0.000907441
1125 1106.04767 975.8395 0.000888889
1135 1111.13805 975.59236 0.000881057
1154 1116.35749 975.34473 0.000866551
1131 1121.67446 975.09662 0.000884173
1142 1127.05029 974.84802 0.000875657
1140 1132.43846 974.59895 0.000877193
1143 1137.7845 974.34939 0.000874891
1218 1143.02626 974.09936 0.000821018
1209 1148.09484 973.84884 0.00082713
1218 1152.91651 973.59784 0.000821018
1175 1157.41576 973.34636 0.000851064
1220 1161.51896 973.0944 0.000819672
1181 1165.15921 972.84196 0.00084674
1213 1168.28117 972.58904 0.000824402
1250 1170.8458 972.33564 0.0008
1282 1172.83411 972.08176 0.000780031
1234 1174.24918 971.8274 0.000810373
1251 1175.11666 971.57257 0.000799361
1280 1175.4827 971.31725 0.00078125
1228 1175.41091 971.06146 0.000814332
1191 1174.97778 970.80518 0.000839631
1189 1174.26769 970.54843 0.000841043
1186 1173.36841 970.2912 0.00084317
1202 1172.36706 970.03349 0.000831947
1234 1171.34701 969.77531 0.000810373
1224 1170.38584 969.51665 0.000816993
1180 1169.55441 969.25751 0.000847458
1165 1168.91633 968.99789 0.000858369
1179 1168.52835 968.7378 0.000848176
1160 1168.44091 968.47723 0.000862069
1214 1168.69883 968.21619 0.000823723
1187 1169.34245 967.95467 0.00084246
1210 1170.40833 967.69267 0.000826446
1188 1171.93011 967.4302 0.000841751
1219 1173.93952 967.16726 0.000820345
1178 1176.46685 966.90384 0.000848896
1241 1179.54183 966.63995 0.000805802
1189 1183.19412 966.37558 0.000841043
1259 1187.45402 966.11074 0.000794281
1287 1192.35297 965.84542 0.000777001
1198 1197.92423 965.57964 0.000834725
1253 1204.20317 965.31338 0.000798085
1284 1211.22806 965.04664 0.000778816
1308 1219.04019 964.77944 0.000764526
1296 1227.68485 964.51176 0.000771605
1272 1237.21122 964.24362 0.000786164
1321 1247.67303 963.975 0.000757002
1252 1259.12845 963.70591 0.000798722
1357 1271.64049 963.43635 0.00073692
1379 1285.27682 963.16632 0.000725163
1381 1300.10953 962.89582 0.000724113
1394 1316.21484 962.62485 0.00071736
1428 1333.67304 962.35341 0.00070028
1416 1352.56742 962.0815 0.000706215
1464 1372.98403 961.80913 0.00068306
1431 1395.01197 961.53629 0.000698812
1488 1418.74271 961.26297 0.000672043
1498 1444.2708 960.9892 0.000667557
1568 1471.69469 960.71495 0.000637755
1569 1501.11839 960.44024 0.000637349
1635 1532.65217 960.16506 0.000611621
1606 1566.41462 959.88942 0.000622665
1620 1602.53387 959.61331 0.000617284
1645 1642.84045 959.33673 0.000607903
1713 1684.09669 959.05969 0.000583771
1756 1728.13855 958.78219 0.000569476
1801 1775.11345 958.50422 0.000555247
1814 1825.16186 958.22579 0.000551268
1893 1878.40964 957.9469 0.000528262
1839 1934.95859 957.66754 0.000543774
1915 1994.87917 957.38772 0.000522193
2022 2058.19925 957.10744 0.00049456
1994 2124.89633 956.82669 0.000501505
2025 2194.88672 956.54549 0.000493827
2123 2268.01455 956.26382 0.000471032
2138 2344.04072 955.9817 0.000467727
2200 2422.63031 955.69911 0.000454545
2311 2503.33793 955.41607 0.000432713
2337 2585.66283 955.13257 0.000427899
2406 2668.81836 954.8486 0.000415628
2527 2751.89134 954.56418 0.000395726
2454 2833.9206 954.27931 0.000407498
2584 2913.72348 953.99397 0.000386997
2580 2989.9643 953.70818 0.000387597
2586 3061.18012 953.42193 0.000386698
2712 3125.82255 953.13522 0.000368732
2840 3182.31795 952.84806 0.000352113
2807 3229.14976 952.56045 0.000356252
2771 3264.9461 952.27238 0.000360881
2795 3288.57782 951.98385 0.000357782
2844 3299.24665 951.69488 0.000351617
2704 3296.54708 951.40544 0.000369822
2758 3280.5038 951.11556 0.000362582
2710 3251.5699 950.82522 0.000369004
2717 3210.58574 950.53444 0.000368053
2682 3158.71026 950.2432 0.000372856
2529 3097.33147 949.95151 0.000395413
2500 3027.97243 949.65936 0.0004
2452 2952.20062 949.36677 0.00040783
2407 2871.55051 949.07373 0.000415455
2359 2787.46628 948.78024 0.000423908
2307 2701.26309 948.48631 0.000433463
2323 2614.10254 948.19192 0.000430478
2249 2526.98868 947.89709 0.000444642
2093 2440.76917 947.60181 0.000477783
2079 2356.14622 947.30608 0.000481
2057 2273.689 947.00991 0.000486145
1908 2193.84972 946.71329 0.000524109
1904 2116.97827 946.41623 0.00052521
1948 2043.33657 946.11872 0.000513347
1845 1973.1108 945.82077 0.000542005
1813 1906.42226 945.52237 0.000551572
1679 1843.33793 945.22354 0.000595593
1750 1783.8778 944.92426 0.000571429
1669 1728.02176 944.62453 0.000599161
1623 1675.71687 944.32437 0.000616143
1616 1626.88145 944.02377 0.000618812
1597 1581.41087 943.72272 0.000626174
1540 1539.18141 943.42124 0.000649351
1489 1500.0541 943.11931 0.000671592
1451 1463.87872 942.81695 0.00068918
1408 1430.49664 942.51415 0.000710227
1416 1399.74423 942.21091 0.000706215
1325 1371.45501 941.90724 0.000754717
1394 1345.4622 941.60313 0.00071736
1422 1321.60097 941.29858 0.000703235
1363 1299.71019 940.9936 0.000733676
1328 1279.63366 940.68818 0.000753012
1343 1261.22162 940.38233 0.000744602
1312 1244.33175 940.07605 0.000762195
1309 1228.82957 939.76933 0.000763942
1303 1214.58903 939.46218 0.00076746
1230 1201.49307 939.1546 0.000813008
1211 1189.43341 938.84658 0.000825764
1238 1178.31047 938.53814 0.000807754
1282 1168.03334 938.22926 0.000780031
1228 1158.5194 937.91996 0.000814332
1238 1149.69377 937.61023 0.000807754
1240 1141.48919 937.30006 0.000806452
1213 1133.84526 936.98948 0.000824402
1211 1126.70783 936.67846 0.000825764
1209 1120.02886 936.36701 0.00082713
1184 1113.76552 936.05515 0.000844595
1221 1107.8798 935.74285 0.000819001
1166 1102.33808 935.43013 0.000857633
1172 1097.11065 935.11699 0.000853242
1193 1092.17113 934.80342 0.000838223
1222 1087.49624 934.48943 0.000818331
1094 1083.0654 934.17501 0.000914077
1078 1078.86039 933.86018 0.000927644
1209 1074.86501 933.54492 0.00082713
1183 1071.0649 933.22924 0.000845309
1186 1067.44723 932.91315 0.00084317
1176 1064.00065 932.59663 0.00085034
1128 1060.71483 932.27969 0.000886525
1122 1057.58068 931.96234 0.000891266
1128 1054.58989 931.64457 0.000886525
1095 1052.29507 931.32638 0.000913242
1083 1049.57168 931.00778 0.000923361
1143 1046.9714 930.68876 0.000874891
1095 1044.62471 930.36932 0.000913242
1172 1042.25509 930.04947 0.000853242
1169 1039.99347 929.72921 0.000855432
1079 1037.83567 929.40853 0.000926784
1126 1035.77795 929.08745 0.000888099
1020 1033.8169 928.76595 0.000980392
1059 1031.94945 928.44403 0.000944287
1049 1030.1728 928.12171 0.000953289
1077 1028.48456 927.79898 0.000928505
1109 1026.88258 927.47584 0.000901713
1026 1025.36497 927.15229 0.000974659
1133 1023.93018 926.82834 0.000882613
1093 1022.57697 926.50397 0.000914913
1099 1021.30431 926.1792 0.000909918
1055 1020.1116 925.85402 0.000947867
1031 1018.99845 925.52844 0.000969932
1124 1017.96494 925.20246 0.00088968
1102 1017.01141 924.87607 0.000907441
1065 1016.14754 924.54927 0.000938967
1043 1015.35682 924.22208 0.000958773
1029 1014.64982 923.89448 0.000971817
1058 1014.02873 923.56648 0.00094518
1086 1013.49637 923.23808 0.00092081
1055 1013.05615 922.90929 0.000947867
1049 1012.71222 922.58009 0.000953289
1072 1012.46946 922.25049 0.000932836
1044 1012.33362 921.9205 0.000957854
1059 1012.31131 921.59011 0.000944287
1044 1012.41022 921.25932 0.000957854
1077 1012.63902 920.92814 0.000928505
1042 1013.00762 920.59656 0.000959693
1034 1013.52711 920.26459 0.000967118
1104 1014.20988 919.93222 0.000905797
1126 1015.06968 919.59947 0.000888099
1076 1016.1217 919.26632 0.000929368
1132 1017.38252 918.93277 0.000883392
1075 1018.87018 918.59884 0.000930233
1042 1020.60421 918.26452 0.000959693
1053 1022.60544 917.92981 0.000949668
1053 1024.8961 917.59471 0.000949668
1089 1027.49966 917.25922 0.000918274
1126 1030.44057 916.92335 0.000888099
1041 1033.74431 916.58709 0.000960615
1067 1037.43692 916.25044 0.000937207
1054 1041.54495 915.91341 0.000948767
1070 1046.0949 915.57599 0.000934579
1098 1051.11315 915.23819 0.000910747
1076 1056.62533 914.90001 0.000929368
1128 1062.65593 914.56145 0.000886525
1140 1069.22792 914.2225 0.000877193
1124 1076.3621 913.88317 0.00088968
1108 1084.07651 913.54347 0.000902527
1134 1092.38583 913.20338 0.000881834
1105 1101.30082 912.86292 0.000904977
1081 1110.82725 912.52208 0.000925069
1096 1120.96532 912.18086 0.000912409
1194 1131.7086 911.83927 0.000837521
1181 1143.04286 911.4973 0.00084674
1169 1154.94496 911.15496 0.000855432
1131 1167.38124 910.81224 0.000884173
1159 1180.3059 910.46915 0.000862813
1129 1193.65912 910.12568 0.00088574
1164 1207.36496 909.78185 0.000859107
1148 1221.32915 909.43764 0.00087108
1226 1235.43681 909.09307 0.000815661
1153 1249.55059 908.74812 0.000867303
1221 1263.50908 908.40281 0.000819001
1208 1277.12641 908.05713 0.000827815
1203 1290.19336 907.71108 0.000831255
1230 1302.48056 907.36467 0.000813008
1205 1313.74378 907.01789 0.000829876
1266 1323.73272 906.67074 0.000789889
1260 1332.20179 906.32323 0.000793651
1243 1338.92378 905.97536 0.000804505
1283 1343.7039 905.62713 0.000779423
1264 1346.39351 905.27853 0.000791139
1331 1346.90163 904.92957 0.000751315
1278 1345.20237 904.58026 0.000782473
1308 1341.33682 904.23058 0.000764526
1270 1335.40996 903.88054 0.000787402
1255 1327.58223 903.53015 0.000796813
1281 1318.05743 903.1794 0.00078064
1283 1307.0689 902.8283 0.000779423
1294 1294.86504 902.47684 0.000772798
1243 1281.69665 902.12502 0.000804505
1267 1267.80631 901.77285 0.000789266
1250 1253.42065 901.42033 0.0008
1198 1238.74506 901.06745 0.000834725
1237 1223.96146 900.71423 0.000808407
1173 1209.22741 900.36065 0.000852515
1195 1194.67681 900.00672 0.00083682
1182 1180.42168 899.65245 0.000846024
1179 1166.55417 899.29782 0.000848176
1163 1153.14875 898.94285 0.000859845
1150 1140.26456 898.58753 0.000869565
1127 1127.94746 898.23187 0.000887311
1133 1116.23191 897.87586 0.000882613
1184 1105.14267 897.51951 0.000844595
1146 1094.69624 897.16281 0.0008726
1180 1084.90212 896.80577 0.000847458
1124 1075.76406 896.44839 0.00088968
1194 1067.28085 896.09067 0.000837521
1081 1059.4474 895.73261 0.000925069
1117 1052.28786 895.3742 0.000895255
1143 1045.72672 895.01546 0.000874891
1152 1039.78389 894.65639 0.000868056
1053 1034.44569 894.29697 0.000949668
1148 1029.69794 893.93722 0.00087108
1118 1025.52636 893.57713 0.000894454
1114 1021.91693 893.21671 0.000897666
1076 1018.85649 892.85596 0.000929368
1078 1016.33285 892.49487 0.000927644
1145 1014.33514 892.13345 0.000873362
1072 1012.854 891.7717 0.000932836
1073 1011.88169 891.40962 0.000931966
1075 1011.41209 891.04721 0.000930233
1110 1011.44075 890.68448 0.000900901
1055 1011.96477 890.32141 0.000947867
1139 1012.98269 889.95802 0.000877963
1129 1014.49415 889.5943 0.00088574
1106 1016.49983 889.23025 0.000904159
1097 1019.00101 888.86588 0.000911577
1072 1021.99918 888.50119 0.000932836
1115 1025.49566 888.13617 0.000896861
1072 1029.4913 887.77084 0.000932836
1104 1033.98566 887.40518 0.000905797
1102 1038.9768 887.0392 0.000907441
1123 1044.46054 886.6729 0.000890472
1151 1050.42985 886.30628 0.00086881
1155 1056.87408 885.93935 0.000865801
1084 1063.77836 885.5721 0.000922509
1063 1071.12249 885.20453 0.000940734
1199 1078.88008 884.83665 0.000834028
1110 1087.0174 884.46845 0.000900901
1094 1095.49208 884.09994 0.000914077
1128 1104.25183 883.73111 0.000886525
1209 1113.23273 883.36198 0.00082713
1164 1122.35804 882.99253 0.000859107
1152 1131.5365 882.62278 0.000868056
1190 1140.66147 882.25271 0.000840336
1173 1149.61034 881.88234 0.000852515
1133 1158.24469 881.51166 0.000882613
1118 1166.41213 881.14067 0.000894454
1199 1173.94899 880.76937 0.000834028
1151 1180.68562 880.39778 0.00086881
1160 1186.45267 880.02587 0.000862069
1170 1191.08951 879.65367 0.000854701
1166 1194.45343 879.28116 0.000857633
1174 1196.42889 878.90835 0.000851789
1120 1196.93578 878.53524 0.000892857
1126 1195.9355 878.16183 0.000888099
1185 1193.43416 877.78812 0.000843882
1138 1189.48177 877.41411 0.000878735
1110 1184.16823 877.03981 0.000900901
1073 1177.61663 876.66521 0.000931966
1119 1169.9746 876.29031 0.000893655
1102 1161.40452 875.91512 0.000907441
1117 1152.07508 875.53964 0.000895255
1088 1142.15291 875.16386 0.000919118
1048 1131.79685 874.78779 0.000954198
1078 1121.1533 874.41143 0.000927644
1047 1110.35382 874.03478 0.00095511
1080 1099.51394 873.65784 0.000925926
1018 1088.73306 873.28061 0.000982318
1019 1078.09509 872.9031 0.000981354
1006 1067.66974 872.5253 0.000994036
961 1057.51391 872.14721 0.001040583
938 1047.67297 871.76884 0.001066098
952 1038.18241 871.39018 0.00105042
1025 1029.06897 871.01124 0.00097561
995 1020.35183 870.63202 0.001005025
931 1012.04368 870.25252 0.001074114
944 1004.15154 869.87273 0.001059322
999 996.67759 869.49267 0.001001001
993 989.61981 869.11233 0.001007049
979 982.97262 868.73171 0.00102145
941 976.72735 868.35081 0.001062699
979 970.87276 867.96964 0.00102145
892 965.39556 867.58819 0.001121076
894 960.28068 867.20647 0.001118568
880 955.51172 866.82447 0.001136364
894 951.07133 866.44221 0.001118568
942 946.94144 866.05967 0.001061571
949 943.10359 865.67686 0.001053741
915 939.53927 865.29378 0.001092896
920 936.22999 864.91043 0.001086957
969 933.15759 864.52681 0.001031992
921 930.30445 864.14293 0.001085776
957 927.65349 863.75878 0.001044932
896 925.18839 863.37436 0.001116071
912 922.89368 862.98968 0.001096491
894 920.75477 862.60474 0.001118568
923 918.75798 862.21953 0.001083424
939 916.8906 861.83407 0.001064963
913 915.14089 861.44834 0.00109529
924 913.49803 861.06235 0.001082251
990 911.95214 860.6761 0.001010101
898 910.4942 860.2896 0.001113586
878 909.11606 859.90284 0.001138952
894 907.81034 859.51582 0.001118568
883 906.57042 859.12854 0.001132503
868 905.39037 858.74102 0.001152074
861 904.26484 858.35323 0.00116144
907 903.18913 857.9652 0.001102536
923 902.159 857.57691 0.001083424
918 901.17072 857.18838 0.001089325
947 900.22095 856.79959 0.001055966
893 899.30675 856.41055 0.001119821
905 897.7981 856.02127 0.001104972
899 896.94951 855.63174 0.001112347
969 896.12948 855.24196 0.001031992
901 895.33616 854.85194 0.001109878
905 894.56793 854.46167 0.001104972
910 893.82332 854.07116 0.001098901
892 893.10102 853.68041 0.001121076
922 892.39988 853.28941 0.001084599
889 891.71881 852.89817 0.001124859
883 891.05689 852.5067 0.001132503
873 890.41325 852.11498 0.001145475
889 889.7871 851.72303 0.001124859
838 889.17775 851.33084 0.001193317
900 888.58452 850.93841 0.001111111
922 888.00685 850.54575 0.001084599
874 887.44417 850.15285 0.001144165
873 886.896 849.75972 0.001145475
887 886.36187 849.36636 0.001127396
892 885.84137 848.97277 0.001121076
870 885.33411 848.57894 0.001149425
875 884.83973 848.18489 0.001142857
860 884.35789 847.7906 0.001162791
933 883.88831 847.39609 0.001071811
910 883.43069 847.00135 0.001098901
864 882.98479 846.60639 0.001157407
857 882.55038 846.2112 0.001166861
853 882.12723 845.81578 0.001172333
923 881.71516 845.42015 0.001083424
869 881.31399 845.02429 0.001150748
880 880.92356 844.6282 0.001136364
868 880.54373 844.2319 0.001152074
861 880.17438 843.83538 0.00116144
886 879.81539 843.43864 0.001128668
920 879.46668 843.04168 0.001086957
856 879.12815 842.6445 0.001168224
893 878.79974 842.24711 0.001119821
937 878.4814 841.84951 0.001067236
910 878.17307 841.45169 0.001098901
891 877.87475 841.05365 0.001122334
926 877.5864 840.6554 0.001079914
894 877.30803 840.25695 0.001118568
876 877.42763 839.85828 0.001141553
918 877.17075 839.4594 0.001089325
883 876.92391 839.06031 0.001132503
853 876.68716 838.66102 0.001172333
882 876.46054 838.26152 0.001133787
878 876.24413 837.86181 0.001138952
859 876.03801 837.4619 0.001164144
921 875.84225 837.06179 0.001085776
883 875.65696 836.66147 0.001132503
877 875.48225 836.26095 0.001140251
860 875.31825 835.86023 0.001162791
870 875.16508 835.4593 0.001149425
919 875.0229 835.05818 0.001088139
896 874.89186 834.65686 0.001116071
833 874.77216 834.25535 0.00120048
889 874.66395 833.85363 0.001124859
869 874.56743 833.45172 0.001150748
910 874.48283 833.04962 0.001098901
865 874.41036 832.64732 0.001156069
859 874.35027 832.24483 0.001164144
897 874.30279 831.84215 0.001114827
896 874.26819 831.43927 0.001116071
864 874.24677 831.03621 0.001157407
882 874.23881 830.63296 0.001133787
925 874.24464 830.22952 0.001081081
893 874.26457 829.82589 0.001119821
899 874.29897 829.42207 0.001112347
904 874.34818 829.01808 0.001106195
891 874.4126 828.61389 0.001122334
933 874.49263 828.20952 0.001071811
912 874.58871 827.80497 0.001096491
860 874.70126 827.40024 0.001162791
888 874.83076 826.99533 0.001126126
855 874.9777 826.59024 0.001169591
893 875.1426 826.18497 0.001119821
885 875.32599 825.77952 0.001129944
855 875.52845 825.37389 0.001169591
842 875.75056 824.96809 0.001187648
868 875.99296 824.56211 0.001152074
917 876.2563 824.15596 0.001090513
914 876.54125 823.74963 0.001094092
893 876.84856 823.34314 0.001119821
924 877.17895 822.93647 0.001082251
881 877.53326 822.52963 0.001135074
917 877.9123 822.12262 0.001090513
902 878.31693 821.71544 0.001108647
879 880.0443 821.3081 0.001137656
948 880.50795 820.90059 0.001054852
927 881.00014 820.49291 0.001078749
964 881.52193 820.08507 0.001037344
926 882.07444 819.67706 0.001079914
957 882.65885 819.26889 0.001044932
938 883.27641 818.86056 0.001066098
909 883.92842 818.45207 0.00110011
950 884.61626 818.04342 0.001052632
906 885.34139 817.63461 0.001103753
919 886.10533 817.22564 0.001088139
925 886.9097 816.81651 0.001081081
943 887.75621 816.40723 0.001060445
912 888.64667 815.99779 0.001096491
940 889.58298 815.58819 0.00106383
914 890.56718 815.17844 0.001094092
925 891.6014 814.76854 0.001081081
968 892.68794 814.35849 0.001033058
901 893.8292 813.94829 0.001109878
916 895.02781 813.53793 0.001091703
952 896.28649 813.12743 0.00105042
986 897.60821 812.71678 0.001014199
980 898.99617 812.30599 0.001020408
950 900.45372 811.89504 0.001052632
939 901.98461 811.48395 0.001064963
953 903.59279 811.07272 0.001049318
980 905.28258 810.66134 0.001020408
964 907.0587 810.24982 0.001037344
939 908.92627 809.83816 0.001064963
1033 910.89098 809.42636 0.000968054
940 912.95898 809.01442 0.00106383
1010 915.13713 808.60234 0.000990099
993 918.50455 808.19012 0.001007049
980 920.93075 807.77777 0.001020408
951 923.5048 807.36528 0.001051525
980 926.21269 806.95265 0.001020408
987 929.07835 806.53989 0.001013171
1017 932.1149 806.127 0.000983284
981 935.3371 805.71397 0.001019368
979 938.76149 805.30082 0.00102145
1050 942.4066 804.88753 0.000952381
1014 946.29329 804.47411 0.000986193
1016 950.4449 804.06057 0.000984252
1000 954.8876 803.6469 0.001
1043 959.65075 803.2331 0.000958773
1066 964.76698 802.81917 0.000938086
1012 970.27269 802.40512 0.000988142
1069 976.20828 801.99095 0.000935454
1094 982.61854 801.57665 0.000914077
1113 989.55276 801.16223 0.000898473
1116 997.06524 800.74769 0.000896057
1131 1005.21518 800.33303 0.000884173
1120 1014.06717 799.91825 0.000892857
1126 1023.69137 799.50336 0.000888099
1126 1034.1631 799.08834 0.000888099
1134 1045.56335 798.67321 0.000881834
1145 1057.97838 798.25796 0.000873362
1173 1071.49952 797.8426 0.000852515
1134 1086.22293 797.42712 0.000881834
1223 1102.24907 797.01154 0.000817661
1238 1119.68197 796.59584 0.000807754
1242 1138.62872 796.18002 0.000805153
1243 1159.1983 795.7641 0.000804505
1205 1181.5006 795.34807 0.000829876
1222 1205.64547 794.93194 0.000818331
1269 1231.74105 794.51569 0.000788022
1334 1259.89192 794.09934 0.000749625
1314 1290.19835 793.68288 0.000761035
1338 1322.75375 793.26632 0.000747384
1366 1357.64278 792.84965 0.000732064
1399 1394.93947 792.43288 0.000714796
1424 1434.70491 792.01602 0.000702247
1427 1476.98439 791.59904 0.000700771
1450 1521.80557 791.18197 0.000689655
1442 1569.17481 790.76481 0.000693481
1544 1619.07387 790.34754 0.000647668
1508 1671.45693 789.93017 0.00066313
1590 1726.24652 789.51271 0.000628931
1529 1783.32759 789.09516 0.000654022
1686 1842.54387 788.67751 0.00059312
1650 1903.69167 788.25976 0.000606061
1648 1966.51158 787.84193 0.000606796
1712 2030.6844 787.424 0.000584112
1797 2095.82083 787.00598 0.000556483
1829 2161.45625 786.58787 0.000546747
1796 2227.04397 786.16967 0.000556793
1847 2291.95136 785.75139 0.000541419
1919 2355.45893 785.33302 0.000521105
1987 2416.76462 784.91456 0.000503271
1933 2474.99451 784.49602 0.000517331
2002 2529.22236 784.07739 0.0004995
2001 2578.49628 783.65868 0.00049975
2091 2621.87599 783.23988 0.00047824
2129 2658.47479 782.82101 0.000469704
2006 2687.50917 782.40205 0.000498504
2165 2708.34332 781.98302 0.000461894
2187 2720.53263 781.5639 0.000457247
2146 2723.85188 781.14471 0.000465983
2144 2718.31097 780.72544 0.000466418
2252 2704.15174 780.3061 0.00044405
2212 2681.8284 779.88668 0.00045208
2174 2652.15598 779.46718 0.000459982
2191 2615.53344 779.04762 0.000456413
2307 2573.79075 778.62798 0.000433463
2216 2526.22834 778.20827 0.000451264
2294 2474.52511 777.78848 0.00043592
2201 2419.5319 777.36863 0.000454339
2289 2362.03765 776.94871 0.000436872
2300 2302.75701 776.52872 0.000434783
2232 2242.32271 776.10867 0.000448029
2220 2181.2868 775.68855 0.00045045
2204 2120.12518 775.26836 0.000453721
2067 2059.24628 774.84811 0.000483793
2155 1999.26661 774.42779 0.000464037
2075 1939.95243 774.00742 0.000481928
2031 1881.82839 773.58698 0.000492368
1972 1825.1179 773.16648 0.000507099
1957 1770.0141 772.74592 0.000510986
1839 1716.68311 772.3253 0.000543774
1827 1665.2651 771.90463 0.000547345
1728 1615.87567 771.48389 0.000578704
1696 1568.60609 771.06311 0.000589623
1636 1523.52426 770.64226 0.000611247
1590 1480.67457 770.22136 0.000628931
1585 1440.07919 769.80041 0.000630915
1490 1401.73969 769.37941 0.000671141
1519 1365.63888 768.95835 0.000658328
1353 1331.74218 768.53725 0.000739098
1413 1300.0003 768.11609 0.000707714
1379 1270.35227 767.69488 0.000725163
1365 1242.72622 767.27363 0.000732601
1303 1217.04284 766.85233 0.00076746
1265 1193.21689 766.43098 0.000790514
1309 1171.15907 766.00959 0.000763942
1197 1150.77821 765.58815 0.000835422
1241 1131.9822 765.16667 0.000805802
1253 1114.6797 764.74515 0.000798085
1210 1098.78098 764.32358 0.000826446
1167 1084.19923 763.90198 0.000856898
1221 1070.85105 763.48033 0.000819001
1185 1058.65716 763.05865 0.000843882
1128 1047.54305 762.63692 0.000886525
1102 1037.4392 762.21516 0.000907441
1171 1028.2815 761.79337 0.000853971
1156 1020.01132 761.37153 0.000865052
1163 1012.57589 760.94967 0.000859845
1057 1005.92806 760.52777 0.000946074
1098 1000.02652 760.10583 0.000910747
1048 994.83579 759.68386 0.000954198
1065 990.32605 759.26187 0.000938967
1028 986.47312 758.83984 0.000972763
1025 983.25835 758.41778 0.00097561
1029 980.66846 757.9957 0.000971817
1114 978.70938 757.57358 0.000897666
1093 977.35025 757.15144 0.000914913
1094 976.60679 756.72928 0.000914077
1001 976.48542 756.30709 0.000999001
1088 976.99702 755.88487 0.000919118
1107 978.15649 755.46263 0.000903342
1070 979.98246 755.04037 0.000934579
1106 982.497 754.61809 0.000904159
1075 985.72529 754.19579 0.000930233
1116 989.69493 753.77347 0.000896057
1067 994.43579 753.35112 0.000937207
1073 999.97927 752.92877 0.000931966
1068 1006.35769 752.50639 0.00093633
1084 1013.60393 752.084 0.000922509
1087 1021.75054 751.66159 0.000919963
1103 1030.82897 751.23917 0.000906618
1047 1040.86911 750.81673 0.00095511
1085 1051.89827 750.39428 0.000921659
1094 1063.94023 749.97182 0.000914077
1115 1077.01474 749.54935 0.000896861
1118 1091.13608 749.12687 0.000894454
1176 1106.31239 748.70438 0.00085034
1131 1122.54448 748.28188 0.000884173
1197 1139.82462 747.85937 0.000835422
1257 1158.13527 747.43686 0.000795545
1261 1177.44766 747.01434 0.000793021
1266 1198.04767 746.59181 0.000789889
1239 1219.22508 746.16928 0.000807103
1343 1241.23323 745.74675 0.000744602
1373 1263.98012 745.32422 0.000728332
1378 1287.35272 744.90168 0.000725689
1391 1311.21338 744.47914 0.000718907
1471 1335.3987 744.05661 0.00067981
1437 1359.71573 743.63407 0.000695894
1492 1383.94082 743.21154 0.000670241
1605 1407.81869 742.78901 0.000623053
1619 1431.06211 742.36648 0.000617665
1668 1453.35468 741.94396 0.00059952
1666 1474.35543 741.52144 0.00060024
1727 1493.70607 741.09893 0.000579039
1818 1511.22796 740.67643 0.000550055
1734 1526.19226 740.25393 0.000576701
1702 1538.44934 739.83145 0.000587544
1854 1547.70444 739.40897 0.000539374
1769 1553.71877 738.9865 0.000565291
1895 1556.32446 738.56405 0.000527704
1837 1555.4354 738.1416 0.000544366
1811 1551.05176 737.71917 0.000552181
1746 1543.20748 737.29676 0.000572738
1771 1532.17647 736.87435 0.000564653
1749 1518.14221 736.45197 0.000571755
1716 1501.39611 736.0296 0.000582751
1714 1482.26816 735.60725 0.000583431
1524 1461.11 735.18491 0.000656168
1512 1438.27954 734.7626 0.000661376
1475 1414.12809 734.3403 0.000677966
1403 1388.98988 733.91802 0.000712758
1416 1363.17437 733.49577 0.000706215
1325 1336.96233 733.07354 0.000754717
1287 1310.60297 732.65133 0.000777001
1286 1284.31368 732.22915 0.000777605
1151 1258.28124 731.80699 0.00086881
1171 1232.66369 731.38485 0.000853971
1115 1207.59253 730.96274 0.000896861
1083 1183.17577 730.54066 0.000923361
1047 1159.50053 730.11861 0.00095511
1078 1136.63535 729.69659 0.000927644
1085 1114.63321 729.27459 0.000921659
1047 1093.53288 728.85263 0.00095511
964 1073.3613 728.4307 0.001037344
996 1054.135 728.0088 0.001004016
930 1035.86119 727.58693 0.001075269
969 1018.53915 727.1651 0.001031992
952 1002.16109 726.74331 0.00105042
943 986.71286 726.32154 0.001060445
927 972.17476 725.89982 0.001078749
909 958.52236 725.47813 0.00110011
878 945.7271 725.05648 0.001138952
862 933.75693 724.63487 0.001160093
895 922.577 724.2133 0.001117318
837 912.15039 723.79177 0.001194743
853 902.43856 723.37028 0.001172333
873 893.40204 722.94883 0.001145475
813 885.00086 722.52743 0.001230012
921 877.19526 722.10606 0.001085776
841 869.9458 721.68475 0.001189061
810 863.21395 721.26348 0.001234568
812 856.96238 720.84225 0.001231527
817 851.53035 720.42108 0.00122399
832 846.13448 719.99995 0.001201923
795 841.1161 719.57887 0.001257862
784 836.44453 719.15783 0.00127551
768 832.091 718.73685 0.001302083
814 828.02882 718.31592 0.001228501
823 824.23319 717.89505 0.001215067
832 820.6812 717.47422 0.001201923
773 817.35193 717.05345 0.001293661
827 814.22618 716.63273 0.00120919
799 811.28649 716.21207 0.001251564
812 808.51703 715.79146 0.001231527
791 805.90349 715.37091 0.001264223
785 803.39288 714.95042 0.001273885
809 801.05407 714.52999 0.001236094
816 798.83648 714.10961 0.00122549
789 796.73091 713.6893 0.001267427
797 794.72922 713.26904 0.001254705
773 792.82419 712.84885 0.001293661
763 791.00948 712.42872 0.001310616
801 789.27955 712.00865 0.001248439
818 787.62955 711.58865 0.001222494
717 786.0553 711.16871 0.0013947
734 784.55323 710.74884 0.001362398
724 783.12026 710.32903 0.001381215
755 781.75387 709.90929 0.001324503
767 780.45195 709.48962 0.001303781
721 779.21281 709.07002 0.001386963
726 778.03512 708.65049 0.00137741
781 776.9179 708.23102 0.00128041
736 775.86049 707.81163 0.001358696
710 774.86248 707.39231 0.001408451
739 773.92372 706.97306 0.00135318
723 773.04424 706.55389 0.001383126
715 772.2243 706.13479 0.001398601
705 771.46429 705.71576 0.00141844
726 770.7647 705.29681 0.00137741
751 770.12614 704.87794 0.001331558
747 769.54927 704.45914 0.001338688
749 769.03476 704.04042 0.001335113
705 768.58326 703.62179 0.00141844
706 768.19536 703.20323 0.001416431
722 767.8716 702.78475 0.001385042
738 767.598 702.36635 0.001355014
739 766.31832 701.94803 0.00135318
777 766.19185 701.5298 0.001287001
791 766.12977 701.11165 0.001264223
798 766.13149 700.69358 0.001253133
788 766.19607 700.2756 0.001269036
774 766.32212 699.85771 0.00129199
759 766.50777 699.4399 0.001317523
754 766.75061 699.02218 0.00132626
735 767.04756 698.60454 0.001360544
762 767.39486 698.187 0.001312336
827 767.78791 697.76954 0.00120919
800 768.22118 697.35218 0.00125
761 768.68813 696.9349 0.00131406
837 769.18105 696.51772 0.001194743
869 769.69099 696.10063 0.001150748
815 770.20765 695.68364 0.001226994
798 770.71934 695.26674 0.001253133
876 771.21296 694.84993 0.001141553
847 771.67413 694.43322 0.001180638
834 772.08731 694.0166 0.001199041
803 772.43615 693.60008 0.00124533
837 772.70391 693.18366 0.001194743
838 772.87406 692.76734 0.001193317
875 772.93095 692.35112 0.001142857
837 773.31025 691.935 0.001194743
825 773.10271 691.51898 0.001212121
854 772.74785 691.10306 0.00117096
871 772.24081 690.68724 0.001148106
846 771.58071 690.27153 0.001182033
871 770.77061 689.85592 0.001148106
893 769.81743 689.44041 0.001119821
827 768.73134 689.02501 0.00120919
780 767.5252 688.60972 0.001282051
851 766.21382 688.19453 0.001175088
878 764.81315 687.77945 0.001138952
811 763.33956 687.36448 0.001233046
828 761.85178 686.94961 0.001207729
852 760.28044 686.53486 0.001173709
813 758.68238 686.12022 0.001230012
787 757.0708 685.70569 0.001270648
793 755.45753 685.29127 0.001261034
826 753.85296 684.87696 0.001210654
763 752.26614 684.46277 0.001310616
830 750.70479 684.04869 0.001204819
827 749.17543 683.63472 0.00120919
790 747.6835 683.22087 0.001265823
829 746.23345 682.80714 0.001206273
754 744.82886 682.39353 0.00132626
800 743.47254 681.98003 0.00125
773 742.16661 681.56665 0.001293661
718 740.91256 681.15339 0.001392758
791 739.71139 680.74025 0.001264223
769 738.56358 680.32723 0.00130039
772 737.46922 679.91433 0.001295337
748 736.42803 679.50155 0.001336898
734 735.43941 679.0889 0.001362398
778 734.50248 678.67637 0.001285347
767 733.61613 678.26396 0.001303781
749 732.77904 677.85168 0.001335113
746 731.98977 677.43952 0.001340483
816 731.24671 677.02749 0.00122549
720 730.54818 676.61559 0.001388889
745 729.89242 676.20381 0.001342282
738 729.27764 675.79217 0.001355014
791 728.70204 675.38065 0.001264223
748 728.16382 674.96926 0.001336898
730 727.66121 674.558 0.001369863
742 727.1925 674.14688 0.001347709
776 726.75601 673.73588 0.00128866
732 726.35016 673.32502 0.00136612
737 725.97344 672.91429 0.001356852
727 725.62443 672.5037 0.001375516
793 725.30182 672.09324 0.001261034
718 725.00439 671.68292 0.001392758
728 724.731 671.27273 0.001373626
708 724.48065 670.86268 0.001412429
724 724.25242 670.45276 0.001381215
727 724.04548 670.04299 0.001375516
720 723.85914 669.63335 0.001388889
732 723.69274 669.22385 0.00136612
699 723.54577 668.81449 0.001430615
748 723.41776 668.40528 0.001336898
710 723.30835 667.9962 0.001408451
727 723.21725 667.58727 0.001375516
729 723.14423 667.17848 0.001371742
678 723.08914 666.76984 0.001474926
771 723.05189 666.36133 0.001297017
695 723.03245 665.95298 0.001438849
698 723.03084 665.54477 0.001432665
731 723.04713 665.1367 0.001367989
714 723.08146 664.72878 0.00140056
721 723.134 664.32101 0.001386963
732 723.20497 663.91339 0.00136612
737 723.29462 663.50592 0.001356852
714 723.40326 663.09859 0.00140056
690 723.53123 662.69142 0.001449275
711 723.67893 662.2844 0.00140647
727 723.84676 661.87753 0.001375516
726 724.03519 661.47081 0.00137741
711 724.24472 661.06425 0.00140647
716 724.47592 660.65784 0.001396648
726 724.72933 660.25158 0.00137741
705 725.00563 659.84548 0.00141844
699 725.3055 659.43953 0.001430615
697 725.62964 659.03374 0.00143472
700 725.97887 658.62811 0.001428571
759 726.354 658.22263 0.001317523
705 726.75598 657.81732 0.00141844
702 727.18577 657.41216 0.001424501
704 727.64444 657.00716 0.001420455
758 728.13311 656.60232 0.001319261
651 728.65306 656.19765 0.001536098
724 729.20561 655.79313 0.001381215
740 729.79224 655.38878 0.001351351
731 730.41454 654.98459 0.001367989
716 731.07429 654.58056 0.001396648
730 731.77339 654.1767 0.001369863
732 732.51397 653.773 0.00136612
700 733.29835 653.36946 0.001428571
681 734.12913 652.9661 0.001468429
774 735.00912 652.5629 0.00129199
726 735.94152 652.15986 0.00137741
733 736.93506 651.757 0.001364256
691 737.98312 651.3543 0.001447178
713 739.09527 650.95178 0.001402525
746 740.27627 650.54942 0.001340483
691 741.53144 650.14723 0.001447178
737 742.86665 649.74522 0.001356852
739 744.28838 649.34337 0.00135318
715 745.80383 648.9417 0.001398601
764 747.42093 648.5402 0.001308901
760 749.14842 648.13888 0.001315789
743 750.99584 647.73773 0.001345895
731 752.97371 647.33675 0.001367989
792 755.09344 646.93595 0.001262626
749 757.36745 646.53533 0.001335113
801 759.80923 646.13488 0.001248439
782 762.47747 645.73461 0.001278772
773 765.39408 645.33452 0.001293661
768 768.43101 644.9346 0.001302083
771 771.70016 644.53487 0.001297017
745 775.22029 644.13532 0.001342282
721 779.01111 643.73594 0.001386963
783 783.09321 643.33675 0.001277139
758 787.48801 642.93774 0.001319261
774 792.21762 642.53891 0.00129199
759 797.30459 642.14026 0.001317523
779 802.77193 641.7418 0.001283697
770 808.64276 641.34352 0.001298701
796 814.94008 640.94543 0.001256281
797 821.68665 640.54752 0.001254705
792 828.9046 640.1498 0.001262626
835 836.6151 639.75226 0.001197605
883 844.83815 639.35491 0.001132503
828 853.59225 638.95775 0.001207729
864 862.8938 638.56078 0.001157407
858 872.75702 638.164 0.001165501
818 883.19343 637.7674 0.001222494
820 894.21132 637.371 0.001219512
849 905.8154 636.97478 0.001177856
863 918.00641 636.57876 0.001158749
901 930.59229 636.18293 0.001109878
891 943.94052 635.78729 0.001122334
889 957.84749 635.39185 0.001124859
911 972.29185 634.9966 0.001097695
901 987.24473 634.60154 0.001109878
925 1002.6691 634.20668 0.001081081
922 1018.51883 633.81201 0.001084599
970 1034.73754 633.41754 0.001030928
973 1051.25774 633.02326 0.001027749
923 1067.99955 632.62919 0.001083424
1000 1084.86994 632.23531 0.001
967 1101.76209 631.84163 0.001034126
972 1118.5553 631.44814 0.001028807
1030 1135.11519 631.05486 0.000970874
1004 1151.29541 630.66178 0.000996016
1041 1166.94006 630.26889 0.000960615
1019 1181.88734 629.87621 0.000981354
1133 1196.06806 629.48373 0.000882613
1044 1209.14071 629.09146 0.000957854
1024 1221.05544 628.69938 0.000976562
999 1231.69234 628.30751 0.001001001
1066 1240.96103 627.91584 0.000938086
1073 1248.80895 627.52438 0.000931966
1042 1255.22644 627.13312 0.000959693
1108 1260.24951 626.74207 0.000902527
1041 1263.96116 626.35122 0.000960615
1029 1266.48813 625.96059 0.000971817
1016 1267.99656 625.57015 0.000984252
1034 1268.68474 625.17993 0.000967118
1033 1268.77578 624.78992 0.000968054
1028 1268.50876 624.40011 0.000972763
1028 1268.13129 624.01051 0.000972763
988 1267.89271 623.62113 0.001012146
1057 1268.0377 623.23195 0.000946074
1032 1268.80265 622.84298 0.000968992
995 1270.41218 622.45423 0.001005025
988 1273.07714 622.06569 0.001012146
1011 1276.99336 621.67736 0.00098912
1066 1282.34124 621.28925 0.000938086
1031 1289.28553 620.90135 0.000969932
1048 1297.97558 620.51366 0.000954198
1019 1308.54518 620.12619 0.000981354
1042 1321.11288 619.73894 0.000959693
1028 1335.78214 619.3519 0.000972763
1080 1352.64081 618.96507 0.000925926
1081 1371.76134 618.57847 0.000925069
1116 1393.20011 618.19208 0.000896057
1160 1416.99672 617.80591 0.000862069
1200 1443.17381 617.41996 0.000833333
1218 1471.73544 617.03423 0.000821018
1227 1502.66613 616.64871 0.000814996
1249 1535.92993 616.26342 0.000800641
1389 1571.4683 615.87835 0.000719942
1414 1609.19848 615.4935 0.000707214
1526 1649.01152 615.10887 0.000655308
1611 1690.76924 614.72447 0.000620732
1701 1734.30145 614.34029 0.000587889
1726 1779.40362 613.95633 0.000579374
1909 1825.83252 613.57259 0.000523834
2049 1873.30382 613.18908 0.000488043
2164 1921.48953 612.8058 0.000462107
2323 1970.21104 612.42274 0.000430478
2578 2018.658 612.0399 0.000387898
2610 2066.55475 611.6573 0.000383142
2765 2113.40149 611.27492 0.000361664
2931 2158.65042 610.89276 0.00034118
3161 2201.746 610.51084 0.000316356
3367 2242.12426 610.12914 0.000297
3602 2279.23774 609.74768 0.000277624
3660 2312.58066 609.36644 0.000273224
3849 2341.71209 608.98543 0.000259808
3886 2366.28348 608.60466 0.000257334
3877 2386.0575 608.22411 0.000257931
3931 2400.92787 607.8438 0.000254388
3968 2410.92547 607.46372 0.000252016
4049 2416.21944 607.08387 0.000246975
3895 2417.10782 606.70425 0.000256739
3681 2414.00091 606.32487 0.000271665
3651 2407.39868 605.94572 0.000273898
3516 2397.86397 605.56681 0.000284414
3386 2385.99606 605.18813 0.000295334
3419 2372.40348 604.80969 0.000292483
3156 2357.5514 604.43148 0.000316857
3011 2342.2671 604.05351 0.000332116
2871 2326.93697 603.67578 0.000348311
2845 2312.02232 603.29828 0.000351494
2854 2297.92173 602.92102 0.000350385
2866 2284.96588 602.544 0.000348918
2900 2273.41695 602.16722 0.000344828
2768 2263.46731 601.79068 0.000361272
2745 2255.24133 601.41438 0.000364299
2833 2248.79378 601.03832 0.000352983
2772 2244.11284 600.6625 0.00036075
2911 2241.11877 600.28692 0.000343525
2874 2239.66651 599.91158 0.000347947
2933 2239.54481 599.53649 0.000340948
3050 2240.47943 599.16164 0.000327869
3008 2242.13421 598.78703 0.000332447
3125 2244.11773 598.41267 0.00032
3269 2245.98881 598.03854 0.000305904
3224 2247.26809 597.66467 0.000310174
3250 2247.45036 597.29104 0.000307692
3458 2246.02308 596.91765 0.000289184
3296 2242.48543 596.54451 0.000303398
3380 2236.37002 596.17162 0.000295858
3342 2227.26663 595.79897 0.000299222
3429 2214.95013 595.42658 0.00029163
3267 2198.96734 595.05443 0.000306091
3199 2179.29468 594.68252 0.000312598
3117 2155.9132 594.31087 0.000320821
3046 2128.91447 593.93947 0.000328299
2966 2098.49116 593.56831 0.000337154
2646 2064.92376 593.19741 0.000377929
2585 2028.56035 592.82675 0.000386847
2566 1989.79747 592.45635 0.000389712
2421 1949.05959 592.0862 0.000413052
2285 1906.78076 591.7163 0.000437637
2085 1863.38823 591.34665 0.000479616
1929 1819.29131 590.97726 0.000518403
1840 1774.87175 590.60811 0.000543478
1776 1730.47915 590.23923 0.000563063
1674 1686.42703 589.87059 0.000597372
1540 1642.99374 589.50221 0.000649351
1474 1600.42231 589.13409 0.000678426
1400 1558.92341 588.76622 0.000714286
1349 1518.67719 588.39861 0.00074129
1300 1479.83713 588.03125 0.000769231
1193 1442.53226 587.66415 0.000838223
1176 1406.8704 587.29731 0.00085034
1140 1372.94052 586.93073 0.000877193
1172 1340.81575 586.5644 0.000853242
1132 1310.55452 586.19833 0.000883392
1123 1282.20355 585.83252 0.000890472
1056 1255.79882 585.46697 0.00094697
978 1231.36756 585.10168 0.001022495
982 1208.92922 584.73665 0.00101833
985 1188.49738 584.37188 0.001015228
970 1170.07998 584.00737 0.001030928
966 1153.68126 583.64312 0.001035197
985 1139.30248 583.27914 0.001015228
1025 1126.94206 582.91541 0.00097561
949 1116.59746 582.55195 0.001053741
920 1108.26521 582.18876 0.001086957
923 1101.94134 581.82582 0.001083424
946 1097.62229 581.46315 0.001057082
953 1095.30493 581.10074 0.001049318
975 1094.98662 580.7386 0.001025641
966 1096.66585 580.37673 0.001035197
931 1100.34151 580.01511 0.001074114
966 1106.0131 579.65377 0.001035197
971 1113.6803 579.29269 0.001029866
1018 1123.3426 578.93188 0.000982318
1006 1134.99832 578.57133 0.000994036
973 1148.64458 578.21106 0.001027749
1006 1164.27589 577.85105 0.000994036
991 1181.88353 577.4913 0.001009082
1041 1201.45428 577.13183 0.000960615
1066 1222.96958 576.77263 0.000938086
1059 1246.40364 576.41369 0.000944287
1089 1271.72272 576.05503 0.000918274
1134 1298.88325 575.69664 0.000881834
1077 1327.82958 575.33851 0.000928505
1170 1358.49315 574.98066 0.000854701
1115 1390.78947 574.62308 0.000896861
1164 1424.61624 574.26577 0.000859107
1193 1459.85081 573.90873 0.000838223
1253 1496.34736 573.55197 0.000798085
1366 1533.93439 573.19548 0.000732064
1327 1572.41151 572.83926 0.00075358
1345 1611.54694 572.48332 0.000743494
1327 1651.07519 572.12765 0.00075358
1431 1690.6955 571.77225 0.000698812
1395 1730.07046 571.41713 0.000716846
1510 1768.82737 571.06228 0.000662252
1527 1806.56056 570.70771 0.000654879
1521 1842.83683 570.35342 0.000657462
1544 1877.2026 569.9994 0.000647668
1558 1909.19406 569.64566 0.000641849
1618 1938.35104 569.2922 0.000618047
1664 1964.23156 568.93901 0.000600962
1620 1986.42774 568.5861 0.000617284
1652 2004.58333 568.23347 0.000605327
1678 2018.40681 567.88112 0.000595948
1679 2027.68414 567.52905 0.000595593
1726 2032.28623 567.17725 0.000579374
1742 2032.1718 566.82574 0.000574053
1647 2027.3843 566.4745 0.000607165
1623 2018.04622 566.12355 0.000616143
1637 2004.34823 565.77288 0.000610874
1633 1986.53707 565.42248 0.00061237
1625 1964.90251 565.07237 0.000615385
1592 1939.76574 564.72254 0.000628141
1606 1911.4683 564.373 0.000622665
1545 1880.36323 564.02373 0.000647249
1549 1847.03249 563.67475 0.000645578
1430 1811.38855 563.32605 0.000699301
1472 1774.0624 562.97763 0.000679348
1387 1735.29453 562.6295 0.000720981
1421 1695.47616 562.28165 0.00070373
1444 1654.93161 561.93409 0.000692521
1373 1613.9699 561.58681 0.000728332
1378 1572.88114 561.23982 0.000725689
1235 1531.93461 560.89311 0.000809717
1315 1491.37707 560.54669 0.000760456
1262 1451.43069 560.20056 0.000792393
1305 1412.2931 559.85471 0.000766284
1247 1374.13697 559.50915 0.000801925
1198 1337.11079 559.16387 0.000834725
1232 1301.33975 558.81888 0.000811688
1164 1266.927 558.47418 0.000859107
1142 1233.95527 558.12977 0.000875657
1135 1202.4891 557.78565 0.000881057
1103 1172.5758 557.44181 0.000906618
1080 1144.24797 557.09827 0.000925926
999 1117.52464 556.75501 0.001001001
1083 1092.41357 556.41205 0.000923361
1008 1068.91226 556.06937 0.000992063
1007 1047.00942 555.72699 0.000993049
1016 1026.68684 555.38489 0.000984252
944 1007.91996 555.04309 0.001059322
1013 990.67934 554.70158 0.000987167
988 974.93174 554.36036 0.001012146
968 960.64069 554.01943 0.001033058
918 947.76751 553.67879 0.001089325
927 936.27216 553.33845 0.001078749
919 926.11351 552.9984 0.001088139
928 917.25019 552.65864 0.001077586
923 909.64098 552.31918 0.001083424
903 903.24515 551.98001 0.00110742
891 898.02284 551.64113 0.001122334
876 893.93559 551.30255 0.001141553
918 890.94618 550.96427 0.001089325
894 889.01926 550.62627 0.001118568
884 888.1214 550.28858 0.001131222
978 888.22115 549.95118 0.001022495
915 889.2891 549.61407 0.001092896
919 891.29804 549.27726 0.001088139
943 894.2226 548.94075 0.001060445
903 898.03892 548.60454 0.00110742
893 902.72455 548.26862 0.001119821
952 908.25774 547.933 0.00105042
968 914.6165 547.59768 0.001033058
977 921.77836 547.26265 0.001023541
1006 929.719 546.92793 0.000994036
1003 938.41146 546.5935 0.000997009
980 947.82516 546.25937 0.001020408
993 957.92465 545.92554 0.001007049
1074 968.66869 545.59201 0.000931099
1097 980.00897 545.25878 0.000911577
1131 991.88898 544.92585 0.000884173
1158 1004.24303 544.59322 0.000863558
1270 1016.99508 544.26089 0.000787402
1255 1030.05789 543.92886 0.000796813
1301 1043.33255 543.59713 0.00076864
1387 1056.70785 543.2657 0.000720981
1380 1070.06095 542.93458 0.000724638
1507 1083.25787 542.60376 0.00066357
1513 1096.15541 542.27324 0.000660939
1609 1108.60377 541.94302 0.000621504
1602 1120.47366 541.6131 0.00062422
1653 1131.56541 541.28349 0.000604961
1729 1141.75677 540.95418 0.000578369
1748 1150.91315 540.62517 0.000572082
1780 1158.91613 540.29647 0.000561798
1655 1165.66818 539.96807 0.00060423
1630 1171.09589 539.63998 0.000613497
1743 1175.15164 539.31219 0.000573723
1645 1177.8136 538.9847 0.000607903
1560 1179.08392 538.65752 0.000641026
1637 1178.98582 538.33065 0.000610874
1520 1177.56591 538.00408 0.000657895
1606 1174.86193 537.67782 0.000622665
1469 1170.94004 537.35186 0.000680735
1337 1165.86317 537.02621 0.000747943
1358 1159.69501 536.70087 0.000736377
1314 1152.49925 536.37583 0.000761035
1248 1144.33862 536.0511 0.000801282
1200 1135.27654 535.72668 0.000833333
1172 1125.3786 535.40256 0.000853242
1156 1114.71444 535.07875 0.000865052
1098 1103.36024 534.75525 0.000910747
1014 1091.39964 534.43206 0.000986193
977 1078.92471 534.10918 0.001023541
1034 1066.03561 533.7866 0.000967118
972 1052.83995 533.46434 0.001028807
964 1039.45043 533.14238 0.001037344
897 1025.98297 532.82074 0.001114827
927 1012.55401 532.4994 0.001078749
924 999.27817 532.17837 0.001082251
871 986.26604 531.85766 0.001148106
932 973.62221 531.53725 0.001072961
872 961.44399 531.21716 0.001146789
898 949.91384 530.89737 0.001113586
840 938.92571 530.5779 0.001190476
869 928.64394 530.25874 0.001150748
795 919.13118 529.93988 0.001257862
817 910.44136 529.62135 0.00122399
829 902.62025 529.30312 0.001206273
797 895.70598 528.9852 0.001254705
847 889.72931 528.6676 0.001180638
843 884.71415 528.35031 0.00118624
766 880.67798 528.03333 0.001305483
830 877.63206 527.71667 0.001204819
867 875.58184 527.40032 0.001153403
837 874.52699 527.08428 0.001194743
789 874.46175 526.76856 0.001267427
824 875.3747 526.45315 0.001213592
828 877.249 526.13805 0.001207729
819 880.06224 525.82327 0.001221001
924 883.78629 525.50881 0.001082251
939 888.38709 525.19465 0.001064963
881 893.82439 524.88082 0.001135074
872 900.05144 524.5673 0.001146789
981 907.01431 524.25409 0.001019368
974 914.65161 523.9412 0.001026694
1011 922.89386 523.62862 0.00098912
998 931.66257 523.31636 0.001002004
1042 940.86973 523.00442 0.000959693
1104 950.41706 522.69279 0.000905797
1088 960.19553 522.38148 0.000919118
1142 970.08482 522.07049 0.000875657
1171 979.95317 521.75981 0.000853971
1194 989.65818 521.44945 0.000837521
1206 999.04733 521.13941 0.000829187
1275 1007.9603 520.82969 0.000784314
1285 1016.23153 520.52028 0.00077821
1401 1023.69403 520.21119 0.000713776
1339 1030.18433 519.90242 0.000746826
1435 1035.5476 519.59397 0.000696864
1385 1039.64441 519.28583 0.000722022
1452 1042.35601 518.97802 0.000688705
1448 1043.59043 518.67052 0.000690608
1431 1043.28721 518.36334 0.000698812
1429 1041.41996 518.05648 0.00069979
1374 1037.99804 517.74994 0.000727802
1313 1033.06527 517.44372 0.000761615
1296 1026.69753 517.13782 0.000771605
1253 1018.99825 516.83224 0.000798085
1238 1010.09274 516.52698 0.000807754
1135 1000.12255 516.22204 0.000881057
1117 989.28405 515.91742 0.000895255
1101 977.64248 515.61312 0.000908265
1048 965.39763 515.30914 0.000954198
1053 952.69955 515.00548 0.000949668
941 939.69069 514.70215 0.001062699
935 926.50389 514.39913 0.001069519
902 913.26134 514.09644 0.001108647
873 900.07402 513.79407 0.001145475
868 887.04179 513.49201 0.001152074
834 874.25407 513.19029 0.001199041
842 860.96383 512.88888 0.001187648
796 848.89639 512.58779 0.001256281
798 837.28512 512.28703 0.001253133
775 826.1847 511.98659 0.001290323
759 815.64326 511.68647 0.001317523
740 805.70311 511.38668 0.001351351
712 796.40145 511.08721 0.001404494
771 787.77085 510.78806 0.001297017
750 779.84011 510.48923 0.001333333
781 772.63423 510.19073 0.00128041
703 766.17534 509.89255 0.001422475
760 760.48268 509.5947 0.001315789
712 755.57307 509.29717 0.001404494
690 751.46119 508.99996 0.001449275
729 748.15967 508.70308 0.001371742
716 745.67949 508.40652 0.001396648
700 744.0298 508.11029 0.001428571
767 743.21837 507.81438 0.001303781
764 743.21763 507.51879 0.001308901
746 744.07039 507.22353 0.001340483
743 745.8055 506.9286 0.001345895
699 748.39504 506.63399 0.001430615
732 751.83905 506.3397 0.00136612
727 756.13598 506.04574 0.001375516
731 761.28234 505.75211 0.001367989
733 767.27237 505.4588 0.001364256
775 774.09915 505.16582 0.001290323
759 781.74963 504.87316 0.001317523
814 790.21108 504.58083 0.001228501
810 799.4663 504.28883 0.001234568
764 809.49418 503.99715 0.001308901
790 820.26925 503.7058 0.001265823
804 831.76122 503.41477 0.001243781
830 843.93423 503.12407 0.001204819
865 856.74618 502.8337 0.001156069
890 870.14811 502.54366 0.001123596
890 884.08307 502.25394 0.001123596
894 898.48545 501.96455 0.001118568
962 913.27984 501.67549 0.001039501
965 928.38007 501.38675 0.001036269
982 943.68827 501.09834 0.00101833
1044 959.09387 500.81026 0.000957854
1055 974.47298 500.52251 0.000947867
1076 989.68822 500.23508 0.000929368
1097 1004.58878 499.94798 0.000911577
1149 1019.01134 499.66121 0.000870322
1099 1032.78167 499.37477 0.000909918
1147 1045.71788 499.08866 0.00087184
1227 1057.63381 498.80288 0.000814996
1131 1068.34426 498.51742 0.000884173
1159 1077.67097 498.23229 0.000862813
1140 1085.44922 497.94749 0.000877193
1214 1091.53463 497.66302 0.000823723
1243 1095.80969 497.37888 0.000804505
1154 1098.18903 497.09507 0.000866551
1134 1098.62396 496.81158 0.000881834
1167 1097.10388 496.52843 0.000856898
1201 1093.6567 496.2456 0.000832639
1150 1088.34577 495.96311 0.000869565
1135 1081.26662 495.68094 0.000881057
1097 1072.54045 495.39911 0.000911577
1082 1062.30849 495.1176 0.000924214
1089 1050.72502 494.83642 0.000918274
1079 1037.95136 494.55557 0.000926784
1006 1024.1507 494.27506 0.000994036
986 1009.48336 493.99487 0.001014199
941 994.10395 493.71501 0.001062699
932 978.15908 493.43548 0.001072961
936 961.78611 493.15628 0.001068376
885 945.11246 492.87742 0.001129944
889 928.25553 492.59888 0.001124859
924 911.32295 492.32067 0.001082251
896 894.41277 492.0428 0.001116071
791 877.61381 491.76525 0.001264223
835 861.00604 491.48804 0.001197605
828 844.66086 491.21116 0.001207729
815 828.6413 490.9346 0.001226994
826 813.00231 490.65838 0.001210654
787 797.79112 490.38249 0.001270648
753 783.04743 490.10693 0.001328021
756 768.8039 489.8317 0.001322751
752 755.08642 489.5568 0.001329787
708 741.91455 489.28224 0.001412429
732 729.30213 489.008 0.00136612
714 717.25746 488.7341 0.00140056
682 705.78415 488.46053 0.001466276
668 694.88133 488.18729 0.001497006
663 684.54415 487.91438 0.001508296
668 674.76446 487.6418 0.001497006
634 665.53114 487.36956 0.001577287
667 656.8303 487.09764 0.00149925
672 648.64618 486.82606 0.001488095
642 640.96111 486.55481 0.001557632
629 633.756 486.2839 0.001589825
607 627.01081 486.01331 0.001647446
599 620.70466 485.74306 0.001669449
588 614.81622 485.47314 0.00170068
598 609.32392 485.20355 0.001672241
594 604.20624 484.93429 0.001683502
639 599.4418 484.66536 0.001564945
607 595.00963 484.39677 0.001647446
622 590.88932 484.12851 0.001607717
562 587.06106 483.86059 0.001779359
596 583.50585 483.59299 0.001677852
572 580.20556 483.32573 0.001748252
576 577.14293 483.0588 0.001736111
558 574.30172 482.7922 0.001792115
568 571.66671 482.52594 0.001760563
614 569.22368 482.26 0.001628664
557 566.95948 481.99441 0.001795332
561 564.862 481.72914 0.001782531
577 562.92018 481.46421 0.001733102
594 560.85066 481.1996 0.001683502
588 559.19181 480.93534 0.00170068
581 557.6615 480.6714 0.00172117
576 556.25262 480.4078 0.001736111
544 554.89275 480.14453 0.001838235
577 553.70928 479.8816 0.001733102
529 552.63135 479.61899 0.001890359
571 551.65535 479.35672 0.001751313
569 550.77849 479.09479 0.001757469
572 549.9987 478.83318 0.001748252
590 549.31466 478.57191 0.001694915
541 548.72575 478.31098 0.001848429
522 548.23203 478.05037 0.001915709
578 548.04158 477.7901 0.001730104
560 547.74155 477.53017 0.001785714
548 547.54052 477.27056 0.001824818
546 547.44089 477.01129 0.001831502
525 547.44558 476.75235 0.001904762
525 547.55794 476.49375 0.001904762
536 547.7818 476.23548 0.001865672
510 548.12135 475.97754 0.001960784
546 548.58113 475.71994 0.001831502
570 549.16597 475.46267 0.001754386
528 549.88094 475.20573 0.001893939
553 550.73127 474.94913 0.001808318
561 551.71801 474.69286 0.001782531
526 552.85519 474.43692 0.001901141
558 554.14382 474.18132 0.001792115
543 555.58913 473.92605 0.001841621
554 557.19613 473.67111 0.001805054
556 558.9695 473.41651 0.001798561
520 560.91353 473.16224 0.001923077
583 563.03199 472.90831 0.001715266
532 565.32802 472.65471 0.001879699
548 567.80402 472.40144 0.001824818
580 570.46156 472.1485 0.001724138
576 573.30122 471.8959 0.001736111
579 576.32251 471.64363 0.001727116
529 579.52378 471.3917 0.001890359
610 582.90203 471.1401 0.001639344
600 586.45293 470.88883 0.001666667
600 590.17058 470.6379 0.001666667
610 594.04756 470.3873 0.001639344
604 598.07465 470.13703 0.001655629
572 602.24089 469.8871 0.001748252
606 606.53334 469.6375 0.001650165
624 610.93697 469.38823 0.001602564
611 615.43453 469.1393 0.001636661
612 620.00628 468.8907 0.001633987
621 624.62983 468.64244 0.001610306
691 629.27987 468.39451 0.001447178
705 633.92798 468.14691 0.00141844
684 638.54245 467.89964 0.001461988
659 643.08808 467.65271 0.001517451
730 647.5263 467.40611 0.001369863
711 651.81531 467.15985 0.00140647
698 656.04674 466.91392 0.001432665
689 659.90193 466.66832 0.001451379
699 663.46892 466.42305 0.001430615
703 666.70024 466.17812 0.001422475
734 669.55033 465.93352 0.001362398
701 671.97735 465.68926 0.001426534
736 673.94508 465.44532 0.001358696
723 675.42487 465.20173 0.001383126
712 676.39723 464.95846 0.001404494
636 676.85308 464.71553 0.001572327
724 676.79458 464.47293 0.001381215
716 676.23519 464.23066 0.001396648
723 675.19925 463.98873 0.001383126
656 673.72094 463.74713 0.00152439
669 671.84275 463.50586 0.001494768
655 669.61367 463.26493 0.001526718
670 667.08718 463.02433 0.001492537
656 664.31933 462.78406 0.00152439
648 661.36697 462.54412 0.00154321
645 658.28602 462.30452 0.001550388
603 655.13039 462.06525 0.001658375
627 651.95078 461.82631 0.001594896
623 648.79416 461.58771 0.001605136
637 645.70321 461.34944 0.001569859
612 642.71618 461.1115 0.001633987
586 639.86676 460.87389 0.001706485
622 637.20356 460.63662 0.001607717
558 634.71277 460.39968 0.001792115
569 632.43432 460.16307 0.001757469
588 630.38486 459.92679 0.00170068
608 628.57717 459.69085 0.001644737
566 627.02029 459.45523 0.001766784
577 625.7197 459.21995 0.001733102
542 624.67743 458.98501 0.001845018
579 623.8921 458.75039 0.001727116
545 623.35894 458.51611 0.001834862
572 623.0699 458.28216 0.001748252
553 623.01354 458.04854 0.001808318
586 623.17511 457.81525 0.001706485
556 623.53651 457.5823 0.001798561
590 624.07641 457.34967 0.001694915
551 624.7702 457.11738 0.001814882
561 625.59031 456.88542 0.001782531
575 626.50638 456.65379 0.00173913
539 627.48571 456.4225 0.001855288
560 628.49386 456.19153 0.001785714
538 629.49548 455.9609 0.001858736
539 630.45512 455.7306 0.001855288
547 631.33855 455.50063 0.001828154
541 632.11394 455.27099 0.001848429
533 632.77973 455.04168 0.001876173
562 633.25995 454.8127 0.001779359
617 633.5922 454.58406 0.001620746
551 633.71106 454.35574 0.001814882
528 633.64249 454.12776 0.001893939
570 633.39264 453.90011 0.001754386
530 632.97533 453.67278 0.001886792
576 632.41156 453.44579 0.001736111
591 631.72854 453.21913 0.001692047
572 630.95855 452.9928 0.001748252
567 630.13749 452.7668 0.001763668
565 629.30377 452.54113 0.001769912
562 628.49682 452.3158 0.001779359
552 627.81689 452.09079 0.001811594
536 627.18097 451.86611 0.001865672
557 626.68635 451.64176 0.001795332
554 626.36726 451.41774 0.001805054
515 626.28603 451.19406 0.001941748
582 626.40933 450.9707 0.001718213
554 626.79296 450.74767 0.001805054
541 627.44274 450.52497 0.001848429
538 628.40847 450.3026 0.001858736
563 629.78609 450.08057 0.001776199
606 631.39289 449.85886 0.001650165
576 633.33327 449.63748 0.001736111
569 635.6113 449.41643 0.001757469
556 638.22739 449.19571 0.001798561
593 641.17829 448.97531 0.001686341
568 644.45691 448.75525 0.001760563
636 648.05218 448.53552 0.001572327
616 651.94889 448.31611 0.001623377
634 656.12748 448.09704 0.001577287
638 660.56382 447.87829 0.001567398
614 665.22885 447.65987 0.001628664
629 670.08849 447.44178 0.001589825
611 675.10327 447.22402 0.001636661
615 680.22809 447.00658 0.001626016
656 685.41228 446.78948 0.00152439
632 690.59938 446.5727 0.001582278
646 695.72752 446.35625 0.001547988
632 700.72979 446.14013 0.001582278
664 705.53498 445.92434 0.001506024
651 710.06891 445.70887 0.001536098
678 714.25568 445.49373 0.001474926
666 718.01996 445.27892 0.001501502
662 721.28895 445.06444 0.001510574
647 723.99524 444.85028 0.001545595
639 726.07945 444.63645 0.001564945
648 727.49269 444.42295 0.00154321
658 728.19895 444.20978 0.001519757
667 728.17691 443.99693 0.00149925
730 727.42103 443.78441 0.001369863
664 725.96466 443.57222 0.001506024
665 723.92827 443.36035 0.001503759
657 721.09525 443.14881 0.00152207
656 717.66583 442.93759 0.00152439
667 713.68599 442.72671 0.00149925
675 709.23334 442.51614 0.001481481
647 704.38193 442.30591 0.001545595
614 699.20778 442.096 0.001628664
635 693.78676 441.88641 0.001574803
581 688.19279 441.67715 0.00172117
685 682.49625 441.46822 0.001459854
653 676.76316 441.25961 0.001531394
606 671.05435 441.05133 0.001650165
627 665.42517 440.84337 0.001594896
603 659.9253 440.63574 0.001658375
622 654.5988 440.42843 0.001607717
597 649.48415 440.22145 0.001675042
623 644.61462 440.01479 0.001605136
630 640.01847 439.80846 0.001587302
636 635.71909 439.60245 0.001572327
598 631.73538 439.39677 0.001672241
596 628.08187 439.19141 0.001677852
618 624.77855 438.98637 0.001618123
603 621.81291 438.78166 0.001658375
599 619.19705 438.57727 0.001669449
592 616.92997 438.3732 0.001689189
599 615.00686 438.16946 0.001669449
600 613.41948 437.96604 0.001666667
629 612.1559 437.76295 0.001589825
587 611.20061 437.56018 0.001703578
594 610.53459 437.35773 0.001683502
587 610.1351 437.15561 0.001703578
601 609.97581 436.9538 0.001663894
583 610.02681 436.75232 0.001715266
595 610.25461 436.55117 0.001680672
571 610.62223 436.35033 0.001751313
597 611.08958 436.14982 0.001675042
608 611.61365 435.94963 0.001644737
596 612.14906 435.74976 0.001677852
583 612.64886 435.55021 0.001715266
584 613.06537 435.35098 0.001712329
640 613.37279 435.15208 0.0015625
641 613.48254 434.9535 0.001560062
576 613.37354 434.75524 0.001736111
581 613.00766 434.5573 0.00172117
654 612.35268 434.35968 0.001529052
623 611.38345 434.16238 0.001605136
567 610.08266 433.9654 0.001763668
603 608.44143 433.76874 0.001658375
604 606.45956 433.57241 0.001655629
629 604.14486 433.37639 0.001589825
633 601.51274 433.18069 0.001579779
662 598.58503 432.98532 0.001510574
579 595.38868 432.79026 0.001727116
572 591.95453 432.59552 0.001748252
602 588.31576 432.4011 0.00166113
570 584.50682 432.207 0.001754386
561 580.56226 432.01322 0.001782531
591 576.51573 431.81976 0.001692047
571 572.39946 431.62662 0.001751313
598 568.24366 431.4338 0.001672241
563 564.07621 431.24129 0.001776199
555 559.92257 431.04911 0.001801802
570 555.80567 430.85724 0.001754386
585 551.74599 430.66569 0.001709402
572 547.7617 430.47446 0.001748252
568 543.86876 430.28354 0.001760563
572 540.0811 430.09295 0.001748252
542 536.41083 429.90267 0.001845018
547 532.86832 429.7127 0.001828154
552 529.46248 429.52306 0.001811594
576 526.20081 429.33373 0.001736111
530 523.22919 429.14472 0.001886792
538 520.27425 428.95602 0.001858736
525 517.47934 428.76765 0.001904762
577 514.84793 428.57958 0.001733102
541 512.38276 428.39184 0.001848429
520 510.08599 428.20441 0.001923077
572 507.95928 428.01729 0.001748252
544 506.00389 427.83049 0.001838235
519 504.22081 427.64401 0.001926782
513 502.61084 427.45784 0.001949318
528 501.17469 427.27199 0.001893939
513 499.91309 427.08645 0.001949318
541 498.82686 426.90123 0.001848429
565 497.91702 426.71632 0.001769912
538 497.18483 426.53172 0.001858736
488 496.63194 426.34744 0.00204918
549 496.26038 426.16347 0.001821494
557 496.07266 425.97982 0.001795332
556 496.07182 425.79648 0.001798561
572 496.26146 425.61346 0.001748252
549 496.64578 425.43074 0.001821494
522 497.22963 425.24834 0.001915709
556 498.0184 425.06626 0.001798561
547 499.01815 424.88448 0.001828154
526 500.23551 424.70302 0.001901141
514 501.67769 424.52188 0.001945525
536 503.35236 424.34104 0.001865672
543 505.26765 424.16051 0.001841621
526 507.43206 423.9803 0.001901141
514 509.85436 423.8004 0.001945525
541 512.54344 423.62081 0.001848429
522 515.50825 423.44153 0.001915709
522 518.75765 423.26257 0.001915709
544 522.30027 423.08391 0.001838235
532 526.17927 422.90556 0.001879699
546 530.33252 422.72753 0.001831502
579 534.80178 422.5498 0.001727116
511 539.59305 422.37239 0.001956947
560 544.71121 422.19528 0.001785714
520 550.1599 422.01849 0.001923077
546 555.94116 421.842 0.001831502
538 562.05536 421.66583 0.001858736
541 568.50094 421.48996 0.001848429
579 575.27412 421.3144 0.001727116
582 582.36875 421.13916 0.001718213
564 589.77602 420.96422 0.00177305
544 597.48412 420.78958 0.001838235
568 605.47812 420.61526 0.001760563
588 613.73942 420.44124 0.00170068
565 622.2456 420.26754 0.001769912
609 630.96994 420.09414 0.001642036
585 639.8811 419.92104 0.001709402
579 648.94262 419.74826 0.001727116
582 658.11257 419.57578 0.001718213
613 667.34313 419.40361 0.001631321
584 676.58012 419.23174 0.001712329
622 685.76296 419.06018 0.001607717
568 694.82422 418.88893 0.001760563
614 703.68985 418.71798 0.001628664
607 712.27947 418.54734 0.001647446
600 720.50718 418.37701 0.001666667
594 728.28225 418.20698 0.001683502
604 735.51104 418.03725 0.001655629
595 742.09892 417.86783 0.001680672
598 747.96546 417.69872 0.001672241
623 752.9965 417.52991 0.001605136
617 757.12341 417.3614 0.001620746
561 760.27579 417.1932 0.001782531
615 762.39689 417.0253 0.001626016
617 763.46524 416.85771 0.001620746
605 763.2333 416.69041 0.001652893
633 762.09396 416.52343 0.001579779
592 759.87567 416.35674 0.001689189
632 756.61412 416.19036 0.001582278
608 752.36212 416.02428 0.001644737
584 747.18687 415.8585 0.001712329
623 741.16726 415.69303 0.001605136
566 734.39052 415.52786 0.001766784
598 726.94919 415.36299 0.001672241
606 718.93805 415.19842 0.001650165
627 710.4515 415.03415 0.001594896
590 701.58152 414.87018 0.001694915
552 692.41582 414.70652 0.001811594
549 683.03685 414.54315 0.001821494
587 673.52673 414.38009 0.001703578
576 663.94352 414.21732 0.001736111
550 654.35609 414.05486 0.001818182
541 644.82092 413.89269 0.001848429
548 635.38815 413.73083 0.001824818
555 626.10205 413.56926 0.001801802
523 617.00117 413.40799 0.001912046
573 608.11894 413.24703 0.001745201
549 599.48408 413.08636 0.001821494
523 591.12088 412.92599 0.001912046
583 583.04967 412.76591 0.001715266
576 575.28712 412.60614 0.001736111
572 567.84664 412.44666 0.001748252
522 560.73844 412.28748 0.001915709
555 553.97009 412.1286 0.001801802
538 547.54657 411.97002 0.001858736
541 541.70088 411.81173 0.001848429
580 535.97367 411.65374 0.001724138
518 530.59324 411.49604 0.001930502
516 525.55663 411.33864 0.001937984
529 520.85933 411.18154 0.001890359
543 516.49552 411.02473 0.001841621
527 512.45826 410.86822 0.001897533
542 508.73959 410.71201 0.001845018
484 505.33071 410.55608 0.002066116
508 502.28709 410.40046 0.001968504
522 499.4691 410.24512 0.001915709
507 496.93101 410.09009 0.001972387
495 494.66212 409.93534 0.002020202
507 492.6515 409.78089 0.001972387
536 490.88814 409.62674 0.001865672
505 489.36102 409.47287 0.001980198
518 488.05914 409.3193 0.001930502
509 486.97164 409.16603 0.001964637
542 486.08777 409.01304 0.001845018
508 485.39696 408.86035 0.001968504
539 484.88883 408.70795 0.001855288
525 484.55315 408.55584 0.001904762
535 484.3799 408.40402 0.001869159
500 484.35916 408.2525 0.002
509 484.48114 408.10126 0.001964637
555 484.73616 407.95032 0.001801802
502 484.48666 407.79967 0.001992032
496 484.98048 407.64931 0.002016129
528 485.57845 407.49923 0.001893939
523 486.27101 407.34945 0.001912046
493 487.04863 407.19996 0.002028398
497 487.90194 407.05076 0.002012072
510 488.82177 406.90184 0.001960784
522 489.79935 406.75322 0.001915709
491 490.82641 406.60488 0.00203666
510 491.89541 406.45684 0.001960784
510 492.99969 406.30908 0.001960784
519 494.13373 406.16161 0.001926782
521 495.2932 406.01442 0.001919386
530 496.47517 405.86753 0.001886792
545 497.6781 405.72092 0.001834862
544 498.90182 405.57459 0.001838235
503 500.14744 405.42856 0.001988072
524 501.4172 405.28281 0.001908397
566 502.71422 405.13735 0.001766784
516 504.04225 404.99217 0.001937984
515 505.40543 404.84728 0.001941748
533 506.80799 404.70267 0.001876173
579 508.25401 404.55835 0.001727116
561 509.74716 404.41432 0.001782531
538 511.29054 404.27057 0.001858736
547 512.88648 404.1271 0.001828154
546 514.53628 403.98392 0.001831502
500 516.24023 403.84102 0.002
535 517.99729 403.6984 0.001869159
538 519.80499 403.55607 0.001858736
514 521.65925 403.41402 0.001945525
527 523.5542 403.27226 0.001897533
506 525.48203 403.13077 0.001976285
534 527.43271 402.98957 0.001872659
520 529.39398 402.84865 0.001923077
542 531.35116 402.70802 0.001845018
519 533.28705 402.56766 0.001926782
577 535.18195 402.42759 0.001733102
600 536.49473 402.2878 0.001666667
532 538.24063 402.14828 0.001879699
594 539.86715 402.00905 0.001683502
561 541.35873 401.8701 0.001782531
529 542.68122 401.73143 0.001890359
566 543.80657 401.59304 0.001766784
556 544.70776 401.45492 0.001798561
554 545.35978 401.31709 0.001805054
547 545.7408 401.17953 0.001828154
584 545.83307 401.04226 0.001712329
542 545.62377 400.90526 0.001845018
529 545.10584 400.76854 0.001890359
568 544.27828 400.6321 0.001760563
610 543.14627 400.49593 0.001639344
537 541.72108 400.36005 0.001862197
580 540.01944 400.22444 0.001724138
522 538.06297 400.0891 0.001915709
515 535.87714 399.95405 0.001941748
491 533.49037 399.81927 0.00203666
514 530.93301 399.68476 0.001945525
531 528.23628 399.55053 0.001883239
523 525.43155 399.41658 0.001912046
502 522.54949 399.2829 0.001992032
524 519.61955 399.14949 0.001908397
516 516.6695 399.01637 0.001937984
535 513.72514 398.88351 0.001869159
501 510.81015 398.75093 0.001996008
504 507.94595 398.61862 0.001984127
517 505.15175 398.48659 0.001934236
505 502.44454 398.35483 0.001980198
532 499.83917 398.22334 0.001879699
500 497.34852 398.09212 0.002
544 494.9835 397.96118 0.001838235
505 492.75318 397.83051 0.001980198
515 490.66493 397.70011 0.001941748
444 488.7245 397.56998 0.002252252
495 486.936 397.44012 0.002020202
521 485.30212 397.31054 0.001919386
508 483.82409 397.18122 0.001968504
435 482.5017 397.05218 0.002298851
500 481.33343 396.9234 0.002
522 480.31643 396.7949 0.001915709
482 479.44652 396.66666 0.002074689
465 478.7182 396.5387 0.002150538
484 478.12472 396.411 0.002066116
467 477.658 396.28357 0.002141328
465 477.30869 396.15641 0.002150538
475 477.06613 396.02952 0.002105263
517 476.91839 395.90289 0.001934236
480 476.85224 395.77654 0.002083333
529 477.05801 395.65045 0.001890359
487 477.1113 395.52462 0.002053388
485 477.19956 395.39907 0.002061856
489 477.30532 395.27378 0.00204499
487 477.4104 395.14875 0.002053388
479 477.4963 395.024 0.002087683
510 477.5445 394.8995 0.001960784
486 477.53687 394.77528 0.002057613
502 477.45618 394.65131 0.001992032
452 477.28655 394.52762 0.002212389
500 477.01395 394.40418 0.002
486 476.62671 394.28101 0.002057613
470 476.1158 394.15811 0.00212766
450 475.47518 394.03547 0.002222222
491 474.70192 393.91309 0.00203666
487 473.79621 393.79097 0.002053388
438 472.76119 393.66912 0.002283105
453 471.60271 393.54753 0.002207506
458 470.32893 393.4262 0.002183406
433 468.94988 393.30513 0.002309469
470 467.47699 393.18432 0.00212766
440 465.9226 393.06378 0.002272727
505 464.29953 392.94349 0.001980198
470 462.62068 392.82347 0.00212766
431 460.89869 392.70371 0.002320186
427 459.14571 392.5842 0.00234192
430 457.37317 392.46496 0.002325581
433 455.59172 392.34598 0.002309469
429 453.81107 392.22725 0.002331002
405 452.04003 392.10878 0.002469136
434 450.28651 391.99058 0.002304147
451 448.46869 391.87263 0.002217295
456 446.7705 391.75493 0.002192982
459 445.10824 391.6375 0.002178649
427 443.10074 391.52032 0.00234192
454 441.52433 391.4034 0.002202643
462 439.99546 391.28674 0.002164502
474 438.51672 391.17033 0.002109705
437 437.1181 391.05418 0.00228833
431 435.74531 390.93828 0.002320186
430 434.42724 390.82264 0.002325581
433 433.16453 390.70726 0.002309469
454 431.95736 390.59213 0.002202643
445 430.80561 390.47725 0.002247191
440 429.70882 390.36263 0.002272727
468 428.66623 390.24827 0.002136752
444 427.54758 390.13415 0.002252252
417 426.61063 390.02029 0.002398082
451 425.72439 389.90668 0.002217295
445 424.8874 389.79333 0.002247191
451 424.09809 389.68023 0.002217295
443 423.35486 389.56738 0.002257336
425 422.65607 389.45478 0.002352941
438 422.00006 389.34243 0.002283105
438 421.38521 389.23034 0.002283105
436 420.8099 389.11849 0.002293578
408 420.27257 389.0069 0.00245098
436 419.77169 388.89555 0.002293578
433 419.3058 388.78446 0.002309469
433 418.87346 388.67362 0.002309469
462 418.47331 388.56302 0.002164502
419 418.10404 388.45268 0.002386635
403 417.7644 388.34258 0.00248139
450 417.4532 388.23273 0.002222222
414 417.1693 388.12313 0.002415459
417 416.91165 388.01378 0.002398082
436 416.67924 387.90467 0.002293578
401 416.47115 387.79581 0.002493766
408 416.28651 387.6872 0.00245098
380 416.12456 387.57884 0.002631579
429 415.98457 387.47072 0.002331002
395 415.86594 387.36285 0.002531646
422 415.76811 387.25522 0.002369668
445 415.69063 387.14784 0.002247191
458 415.63311 387.0407 0.002183406
392 415.59526 386.93381 0.00255102
397 415.58074 386.82716 0.002518892
390 415.58173 386.72076 0.002564103
432 415.60205 386.6146 0.002314815
420 415.64176 386.50868 0.002380952
457 415.70105 386.40301 0.002188184
438 415.78015 386.29758 0.002283105
438 415.87947 386.19239 0.002283105
454 415.99946 386.08745 0.002202643
400 416.14075 385.98274 0.0025
425 416.30404 385.87828 0.002352941
433 416.4902 385.77406 0.002309469
415 416.70024 385.67008 0.002409639
445 416.93529 385.56634 0.002247191
394 417.1967 385.46284 0.002538071
436 417.48594 385.35958 0.002293578
421 417.8047 385.25656 0.002375297
429 418.15488 385.15378 0.002331002
419 418.53182 385.05124 0.002386635
422 418.95139 384.94894 0.002369668
423 419.40941 384.84687 0.002364066
423 419.90873 384.74505 0.002364066
453 420.45248 384.64346 0.002207506
434 421.04408 384.54211 0.002304147
417 421.68727 384.44099 0.002398082
446 422.38609 384.34011 0.002242152
422 423.14494 384.23947 0.002369668
450 423.96853 384.13907 0.002222222
419 424.86194 384.0389 0.002386635
415 425.83058 383.93897 0.002409639
451 426.88024 383.83927 0.002217295
438 428.01704 383.7398 0.002283105
433 429.24745 383.64057 0.002309469
403 430.57825 383.54158 0.00248139
448 432.01656 383.44282 0.002232143
449 433.56977 383.34429 0.002227171
426 435.24553 383.246 0.002347418
475 437.05174 383.14793 0.002105263
412 438.99646 383.05011 0.002427184
435 441.08787 382.95251 0.002298851
430 443.33428 382.85514 0.002325581
460 445.74398 382.75801 0.002173913
412 448.37207 382.66111 0.002427184
434 451.1331 382.56444 0.002304147
458 454.08173 382.468 0.002183406
435 457.22555 382.37179 0.002298851
445 460.57182 382.27581 0.002247191
449 464.12731 382.18006 0.002227171
412 467.89817 382.08454 0.002427184
481 471.73168 381.98924 0.002079002
450 475.94941 381.89418 0.002222222
458 480.39647 381.79935 0.002183406
466 485.07564 381.70474 0.002145923
445 489.98853 381.61036 0.002247191
476 495.13548 381.51621 0.00210084
492 500.51542 381.42228 0.00203252
476 506.12583 381.32858 0.00210084
533 511.96242 381.23511 0.001876173
512 518.01916 381.14187 0.001953125
458 524.28801 381.04885 0.002183406
550 530.75889 380.95605 0.001818182
500 537.42137 380.86348 0.002
547 544.25634 380.77114 0.001828154
578 551.39748 380.67902 0.001730104
556 558.52595 380.58712 0.001798561
562 565.76687 380.49545 0.001779359
588 573.0033 380.404 0.00170068
623 580.38399 380.31277 0.001605136
594 587.78438 380.22177 0.001683502
597 595.46908 380.13099 0.001675042
628 602.79128 380.04043 0.001592357
702 610.00375 379.95009 0.001424501
689 617.05744 379.85997 0.001451379
675 623.89859 379.77008 0.001481481
722 630.47055 379.6804 0.001385042
743 636.71494 379.59095 0.001345895
761 642.57258 379.50172 0.00131406
744 647.98514 379.4127 0.001344086
790 652.89677 379.32391 0.001265823
775 657.25603 379.23533 0.001290323
811 661.01765 379.14698 0.001233046
813 664.14471 379.05884 0.001230012
772 666.61013 378.97092 0.001295337
813 668.39813 378.88322 0.001230012
758 669.50522 378.79573 0.001319261
769 669.94041 378.70846 0.00130039
731 669.7252 378.62141 0.001367989
716 668.89276 378.53458 0.001396648
762 667.4864 378.44796 0.001312336
705 665.55844 378.36155 0.00141844
684 663.16781 378.27537 0.001461988
675 660.37828 378.18939 0.001481481
636 657.25639 378.10364 0.001572327
649 653.86971 378.01809 0.001540832
615 650.28507 377.93276 0.001626016
596 646.56731 377.84765 0.001677852
579 642.77806 377.76275 0.001727116
560 638.97508 377.67806 0.001785714
564 635.21156 377.59358 0.00177305
556 631.53593 377.50932 0.001798561
603 627.99154 377.42527 0.001658375
526 624.6167 377.34142 0.001901141
544 621.4446 377.2578 0.001838235
552 618.50356 377.17438 0.001811594
523 615.81709 377.09117 0.001912046
514 613.40405 377.00817 0.001945525
519 611.27867 376.92539 0.001926782
512 609.45086 376.84281 0.001953125
543 607.92622 376.76044 0.001841621
566 606.70598 376.67828 0.001766784
537 605.78729 376.59633 0.001862197
508 605.16318 376.51459 0.001968504
523 604.82239 376.43306 0.001912046
515 604.74965 376.35173 0.001941748
502 604.92552 376.27061 0.001992032
512 605.32649 376.1897 0.001953125
538 605.92498 376.10899 0.001858736
506 606.68965 376.0285 0.001976285
522 607.70765 375.9482 0.001915709
493 608.69643 375.86811 0.002028398
526 609.73672 375.78823 0.001901141
530 610.78502 375.70856 0.001886792
494 611.79652 375.62908 0.002024291
512 612.72597 375.54981 0.001953125
545 613.34751 375.47075 0.001834862
527 613.98173 375.39189 0.001897533
544 614.40764 375.31323 0.001838235
526 614.59065 375.23478 0.001901141
515 614.50203 375.15652 0.001941748
526 614.11999 375.07847 0.001901141
497 613.43038 375.00062 0.002012072
539 612.4271 374.92298 0.001855288
537 611.11236 374.84553 0.001862197
538 609.49609 374.76829 0.001858736
509 607.59548 374.69124 0.001964637
539 605.43408 374.6144 0.001855288
538 603.04052 374.53775 0.001858736
480 600.44754 374.46131 0.002083333
501 597.69041 374.38506 0.001996008
485 594.80608 374.30902 0.002061856
524 591.83189 374.23317 0.001908397
514 588.80469 374.15752 0.001945525
485 585.76015 374.08206 0.002061856
472 582.73217 374.00681 0.002118644
521 579.75239 373.93175 0.001919386
512 576.85014 373.85689 0.001953125
510 574.05208 373.78222 0.001960784
541 571.38238 373.70775 0.001848429
544 568.86266 373.63348 0.001838235
501 566.51223 373.5594 0.001996008
499 564.34815 373.48552 0.002004008
509 562.38557 373.41183 0.001964637
479 560.63794 373.33833 0.002087683
500 559.11718 373.26503 0.002
498 557.83412 373.19193 0.002008032
562 556.79849 373.11901 0.001779359
531 556.01934 373.04629 0.001883239
519 555.5051 372.97376 0.001926782
537 555.26364 372.90143 0.001862197
511 555.30471 372.82928 0.001956947
512 555.6309 372.75733 0.001953125
537 556.25091 372.68557 0.001862197
552 557.17057 372.614 0.001811594
512 558.3949 372.54262 0.001953125
536 559.92783 372.47143 0.001865672
534 561.77206 372.40043 0.001872659
533 563.92877 372.32962 0.001876173
546 566.39741 372.259 0.001831502
543 569.17547 372.18857 0.001841621
584 572.25832 372.11832 0.001712329
559 575.63902 372.04827 0.001788909
584 579.30826 371.9784 0.001712329
546 583.25422 371.90872 0.001831502
571 587.4626 371.83922 0.001751313
584 591.91664 371.76991 0.001712329
573 596.59718 371.70079 0.001745201
613 601.48291 371.63186 0.001631321
605 606.55047 371.56311 0.001652893
607 611.77482 371.49455 0.001647446
609 617.12948 371.42617 0.001642036
665 622.58696 371.35797 0.001503759
626 628.11912 371.28996 0.001597444
652 633.69742 371.22214 0.001533742
632 639.29337 371.15449 0.001582278
654 644.87867 371.08703 0.001529052
636 650.42541 371.01976 0.001572327
637 655.90617 370.95266 0.001569859
667 661.29397 370.88575 0.00149925
691 666.5622 370.81902 0.001447178
660 671.68451 370.75247 0.001515152
702 676.6348 370.6861 0.001424501
753 681.38697 370.61992 0.001328021
733 685.91507 370.55391 0.001364256
685 690.19347 370.48809 0.001459854
676 694.19691 370.42244 0.00147929
698 697.9011 370.35697 0.001432665
736 701.28304 370.29168 0.001358696
691 704.32172 370.22657 0.001447178
715 706.99871 370.16164 0.001398601
730 709.29879 370.09689 0.001369863
696 711.21075 370.03232 0.001436782
680 712.72777 369.96792 0.001470588
642 713.84817 369.9037 0.001557632
681 714.5757 369.83965 0.001468429
712 714.70326 369.77578 0.001404494
727 714.67971 369.71209 0.001375516
681 714.30893 369.64858 0.001468429
677 713.61727 369.58523 0.001477105
714 712.63601 369.52207 0.00140056
675 711.40055 369.45908 0.001481481
664 709.94969 369.39626 0.001506024
653 708.32451 369.33361 0.001531394
679 706.56729 369.27114 0.001472754
690 704.72051 369.20885 0.001449275
687 702.82567 369.14672 0.001455604
669 700.92217 369.08477 0.001494768
644 699.04666 369.02299 0.001552795
663 697.23189 368.96138 0.001508296
723 695.50635 368.89994 0.001383126
702 694.06394 368.83868 0.001424501
668 692.58255 368.77758 0.001497006
711 691.24446 368.71666 0.00140647
708 690.05631 368.6559 0.001412429
670 689.01867 368.59532 0.001492537
713 688.12614 368.5349 0.001402525
681 687.36731 368.47465 0.001468429
723 686.72484 368.41457 0.001383126
696 686.17573 368.35466 0.001436782
671 685.69152 368.29492 0.001490313
752 685.23897 368.23535 0.001329787
786 684.78035 368.17594 0.001272265
722 684.27447 368.1167 0.001385042
752 683.67752 368.05762 0.001329787
744 682.94435 367.99871 0.001344086
743 682.02965 367.93997 0.001345895
781 680.88963 367.8814 0.00128041
755 679.48336 367.82298 0.001324503
738 677.77435 367.76474 0.001355014
727 675.73211 367.70665 0.001375516
752 673.33324 367.64873 0.001329787
778 670.56241 367.59098 0.001285347
739 667.41293 367.53339 0.00135318
698 663.88685 367.47596 0.001432665
713 659.99479 367.41869 0.001402525
727 655.75532 367.36159 0.001375516
760 651.19378 367.30465 0.001315789
733 646.34133 367.24787 0.001364256
722 641.2335 367.19125 0.001385042
696 635.90885 367.13479 0.001436782
699 630.40759 367.07849 0.001430615
704 624.7704 367.02235 0.001420455
643 619.03745 366.96638 0.00155521
638 613.24747 366.91056 0.001567398
640 607.43723 366.8549 0.0015625
633 601.64099 366.7994 0.001579779
594 595.89031 366.74406 0.001683502
615 590.21396 366.68887 0.001626016
606 584.63787 366.63385 0.001650165
608 579.18534 366.57898 0.001644737
622 573.87711 366.52427 0.001607717
590 568.73157 366.46971 0.001694915
593 563.7651 366.41531 0.001686341
575 558.99212 366.36107 0.00173913
565 554.42539 366.30698 0.001769912
584 550.07616 366.25305 0.001712329
580 545.95422 366.19928 0.001724138
553 542.06813 366.14566 0.001808318
546 538.42517 366.09219 0.001831502
517 535.0314 366.03887 0.001934236
572 531.89166 365.98571 0.001748252
548 529.00965 365.93271 0.001824818
536 526.3878 365.87985 0.001865672
519 524.02737 365.82715 0.001926782
495 521.92849 365.7746 0.002020202
543 520.09012 365.7222 0.001841621
491 518.53374 365.66996 0.00203666
553 517.20948 365.61786 0.001808318
537 516.13702 365.56592 0.001862197
530 515.31204 365.51413 0.001886792
535 514.72975 365.46248 0.001869159
549 514.38514 365.41099 0.001821494
544 514.27311 365.35964 0.001838235
502 514.38862 365.30845 0.001992032
521 514.72686 365.2574 0.001919386
497 515.28325 365.2065 0.002012072
521 516.05347 365.15575 0.001919386
527 517.0335 365.10515 0.001897533
511 518.21938 365.05469 0.001956947
518 519.60719 365.00438 0.001930502
538 521.19285 364.95422 0.001858736
538 522.97181 364.90421 0.001858736
538 524.93899 364.85434 0.001858736
561 527.08836 364.80461 0.001782531
577 529.41284 364.75503 0.001733102
589 531.90399 364.7056 0.001697793
569 534.55188 364.65631 0.001757469
617 537.34473 364.60716 0.001620746
572 540.38332 364.55816 0.001748252
592 543.42351 364.5093 0.001689189
596 546.56125 364.46058 0.001677852
585 549.77618 364.41201 0.001709402
586 553.04537 364.36358 0.001706485
589 556.34332 364.31529 0.001697793
607 559.64209 364.26715 0.001647446
627 562.91209 364.21914 0.001594896
586 566.11854 364.17128 0.001706485
606 569.22747 364.12355 0.001650165
630 572.20243 364.07597 0.001587302
670 575.00812 364.02853 0.001492537
684 577.60182 363.98122 0.001461988
648 579.94844 363.93406 0.00154321
663 582.01188 363.88703 0.001508296
667 583.75872 363.84015 0.00149925
678 585.15909 363.7934 0.001474926
717 586.18795 363.74679 0.0013947
689 586.82588 363.70031 0.001451379
721 587.05999 363.65398 0.001386963
681 586.88436 363.60778 0.001468429
749 586.3004 363.56172 0.001335113
674 585.31662 363.51579 0.00148368
665 583.94938 363.47 0.001503759
668 582.21572 363.42435 0.001497006
675 580.14842 363.37883 0.001481481
667 577.77588 363.33344 0.00149925
657 575.13211 363.28819 0.00152207
688 572.25317 363.24307 0.001453488
675 569.17595 363.19809 0.001481481
686 565.93735 363.15324 0.001457726
634 562.57342 363.10852 0.001577287
638 559.11867 363.06394 0.001567398
648 555.60563 363.01949 0.00154321
631 552.0644 362.97517 0.001584786
613 548.52246 362.93098 0.001631321
633 545.00452 362.88692 0.001579779
622 541.53249 362.843 0.001607717
578 538.12545 362.7992 0.001730104
606 534.79971 362.75554 0.001650165
570 531.56893 362.712 0.001754386
567 528.44415 362.6686 0.001763668
578 525.41271 362.62532 0.001730104
532 522.47804 362.58218 0.001879699
544 519.7138 362.53916 0.001838235
559 517.07648 362.49627 0.001788909
587 514.5662 362.45351 0.001703578
504 512.1814 362.41087 0.001984127
510 509.91908 362.36836 0.001960784
512 507.77495 362.32598 0.001953125
559 505.74388 362.28373 0.001788909
580 503.82006 362.2416 0.001724138
572 501.99741 362.1996 0.001748252
552 500.26994 362.15772 0.001811594
546 498.63201 362.11597 0.001831502
494 497.07875 362.07434 0.002024291
542 495.60628 362.03284 0.001845018
541 494.21199 361.99146 0.001848429
513 492.89462 361.95021 0.001949318
569 491.65442 361.90908 0.001757469
563 490.49314 361.86807 0.001776199
548 489.41394 361.82718 0.001824818
539 488.42122 361.78642 0.001855288
517 487.52053 361.74578 0.001934236
506 486.71825 361.70526 0.001976285
507 486.02148 361.66486 0.001972387
503 485.43766 361.62459 0.001988072
550 484.97453 361.58443 0.001818182
534 484.63981 361.54439 0.001872659
529 484.44112 361.50448 0.001890359
538 484.38581 361.46468 0.001858736
527 484.48089 361.425 0.001897533
518 484.73296 361.38545 0.001930502
522 485.15592 361.34601 0.001915709
532 485.73985 361.30669 0.001879699
505 486.49761 361.26748 0.001980198
530 487.43377 361.2284 0.001886792
504 488.55237 361.18943 0.001984127
517 489.85694 361.15058 0.001934236
552 491.3505 361.11184 0.001811594
547 493.03559 361.07322 0.001828154
531 494.91433 361.03472 0.001883239
522 496.98841 360.99633 0.001915709
566 499.27133 360.95806 0.001766784
515 501.74018 360.91991 0.001941748
553 504.40801 360.88186 0.001808318
511 507.27588 360.84394 0.001956947
544 510.34496 360.80612 0.001838235
537 513.61659 360.76842 0.001862197
543 517.0925 360.73083 0.001841621
571 520.77485 360.69336 0.001751313
553 524.66621 360.65599 0.001808318
546 528.72506 360.61874 0.001831502
642 533.04438 360.58161 0.001557632
564 537.58331 360.54458 0.00177305
590 542.34596 360.50766 0.001694915
624 547.34722 360.47086 0.001602564
589 552.56958 360.43416 0.001697793
605 558.02702 360.39758 0.001652893
639 563.74072 360.36111 0.001564945
631 569.67479 360.32474 0.001584786
616 575.8476 360.28849 0.001623377
648 582.25706 360.25234 0.00154321
613 589.00916 360.2163 0.001631321
652 595.87701 360.18037 0.001533742
621 602.96109 360.14455 0.001610306
628 610.24884 360.10883 0.001592357
675 617.72449 360.07322 0.001481481
660 625.42558 360.03772 0.001515152
712 633.21554 360.00233 0.001404494
679 641.12407 359.96704 0.001472754
700 649.12002 359.93185 0.001428571
722 657.16793 359.89678 0.001385042
702 665.22772 359.8618 0.001424501
708 673.25481 359.82694 0.001412429
768 681.19999 359.79217 0.001302083
773 689.00956 359.75751 0.001293661
784 696.62543 359.72296 0.00127551
732 703.98569 359.68851 0.00136612
745 711.02529 359.65416 0.001342282
775 717.67676 359.61991 0.001290323
772 723.87129 359.58577 0.001295337
794 729.54036 359.55173 0.001259446
784 734.61696 359.51779 0.00127551
766 739.03746 359.48395 0.001305483
771 742.74327 359.45021 0.001297017
770 745.68259 359.41657 0.001298701
815 747.81189 359.38304 0.001226994
792 749.09738 359.3496 0.001262626
769 749.51763 359.31627 0.00130039
769 749.05693 359.28303 0.00130039
809 747.71665 359.24989 0.001236094
807 745.50733 359.21685 0.001239157
772 742.45013 359.18391 0.001295337
786 738.57595 359.15107 0.001272265
743 733.92421 359.11832 0.001345895
728 728.54162 359.08568 0.001373626
729 722.48081 359.05313 0.001371742
721 715.79907 359.02067 0.001386963
740 708.55695 358.98832 0.001351351
716 700.81709 358.95606 0.001396648
689 692.64304 358.92389 0.001451379
656 684.09842 358.89182 0.00152439
653 675.24587 358.85985 0.001531394
633 666.05206 358.82797 0.001579779
602 656.76308 358.79618 0.00166113
584 647.34269 358.76449 0.001712329
618 637.84222 358.73289 0.001618123
601 628.32959 358.70139 0.001663894
596 618.81249 358.66998 0.001677852
589 609.35129 358.63866 0.001697793
568 599.98368 358.60744 0.001760563
563 590.7437 358.5763 0.001776199
554 581.66162 358.54526 0.001805054
547 572.76425 358.51431 0.001828154
555 564.075 358.48345 0.001801802
562 555.61406 358.45269 0.001779359
555 547.39865 358.42201 0.001801802
550 539.44316 358.39142 0.001818182
498 531.75933 358.36092 0.002008032
500 524.35651 358.33052 0.002
528 517.24175 358.3002 0.001893939
539 510.42002 358.26997 0.001855288
514 503.89441 358.23983 0.001945525
494 497.66634 358.20978 0.002024291
525 491.73546 358.17981 0.001904762
493 486.10017 358.14993 0.002028398
494 480.75757 358.12014 0.002024291
504 475.70355 358.09044 0.001984127
449 470.93307 358.06082 0.002227171
479 466.4948 358.0313 0.002087683
476 462.27319 358.00185 0.00210084
441 458.3154 357.97249 0.002267574
475 454.61378 357.94322 0.002105263
486 451.16025 357.91403 0.002057613
412 447.94653 357.88493 0.002427184
432 444.96422 357.85591 0.002314815
470 442.20482 357.82698 0.00212766
436 439.65991 357.79812 0.002293578
440 437.32123 357.76936 0.002272727
456 435.18067 357.74067 0.002192982
426 433.23047 357.71207 0.002347418
433 431.46319 357.68355 0.002309469
451 429.87182 357.65511 0.002217295
460 428.44979 357.62676 0.002173913
461 427.19106 357.59848 0.002169197
447 426.09012 357.57029 0.002237136
415 425.14208 357.54218 0.002409639
431 424.34263 357.51415 0.002320186
405 423.68808 357.4862 0.002469136
459 423.17544 357.45832 0.002178649
447 422.80229 357.43053 0.002237136
431 422.56694 357.40282 0.002320186
432 422.46833 357.37519 0.002314815
434 422.50603 357.34763 0.002304147
461 422.68028 357.32015 0.002169197
426 422.99191 357.29276 0.002347418
456 423.44236 357.26543 0.002192982
454 423.98192 357.23819 0.002202643
407 424.71663 357.21102 0.002457002
421 425.67171 357.18393 0.002375297
445 426.70284 357.15692 0.002247191
414 427.94988 357.12998 0.002415459
437 429.29326 357.10312 0.00228833
438 430.79871 357.07633 0.002283105
429 432.47139 357.04962 0.002331002
442 434.31621 357.02298 0.002262443
456 436.33817 356.99642 0.002192982
446 438.54233 356.96993 0.002242152
503 440.93364 356.94352 0.001988072
443 443.51696 356.91718 0.002257336
489 446.29687 356.89091 0.00204499
490 449.27769 356.86472 0.002040816
467 452.46332 356.83859 0.002141328
438 455.85717 356.81254 0.002283105
486 459.46209 356.78657 0.002057613
464 463.28021 356.76066 0.002155172
508 467.31292 356.73482 0.001968504
474 471.56074 356.70906 0.002109705
502 476.02322 356.68337 0.001992032
495 480.70105 356.65774 0.002020202
489 485.58712 356.63219 0.00204499
500 490.6797 356.60671 0.002
507 495.97343 356.58129 0.001972387
517 501.46148 356.55595 0.001934236
487 507.13543 356.53068 0.002053388
516 512.98508 356.50547 0.001937984
524 518.99836 356.48033 0.001908397
533 525.16124 356.45526 0.001876173
574 531.45748 356.43025 0.00174216
549 537.8685 356.40532 0.001821494
542 544.3733 356.38045 0.001845018
542 550.94816 356.35565 0.001845018
599 557.56662 356.33091 0.001669449
624 564.19926 356.30624 0.001602564
620 570.81355 356.28164 0.001612903
585 577.37391 356.2571 0.001709402
576 583.84159 356.23262 0.001736111
596 590.17484 356.20822 0.001677852
629 596.3291 356.18387 0.001589825
616 602.25728 356.15959 0.001623377
621 607.91042 356.13538 0.001610306
679 613.23821 356.11122 0.001472754
637 618.18995 356.08713 0.001569859
584 622.71568 356.06311 0.001712329
669 626.76725 356.03914 0.001494768
654 630.3006 356.01524 0.001529052
697 633.27373 355.9914 0.00143472
706 635.65315 355.96762 0.001416431
674 637.41164 355.94391 0.00148368
675 638.61534 355.92025 0.001481481
717 639.08446 355.89666 0.0013947
668 638.90328 355.87313 0.001497006
679 638.08072 355.84965 0.001472754
701 636.6348 355.82624 0.001426534
671 634.59199 355.80288 0.001490313
650 631.98621 355.77959 0.001538462
628 628.85746 355.75635 0.001592357
681 625.25073 355.73318 0.001468429
632 621.21435 355.71006 0.001582278
665 616.79879 355.687 0.001503759
627 612.05529 355.664 0.001594896
669 607.03475 355.64105 0.001494768
652 601.7869 355.61816 0.001533742
628 596.35938 355.59533 0.001592357
678 590.79717 355.57256 0.001474926
627 585.24491 355.54984 0.001594896
593 579.53667 355.52718 0.001686341
560 573.81002 355.50457 0.001785714
568 568.09687 355.48202 0.001760563
564 562.42578 355.45953 0.00177305
586 556.82185 355.43709 0.001706485
540 551.30709 355.4147 0.001851852
566 545.90029 355.39237 0.001766784
526 540.61737 355.37009 0.001901141
529 535.4714 355.34787 0.001890359
505 530.47278 355.32569 0.001980198
542 525.62942 355.30358 0.001845018
563 520.94683 355.28151 0.001776199
563 516.42831 355.2595 0.001776199
575 512.07514 355.23754 0.00173913
570 507.88665 355.21563 0.001754386
541 503.90994 355.19377 0.001848429
527 500.08632 355.17196 0.001897533
510 496.37245 355.15021 0.001960784
531 492.87695 355.12851 0.001883239
503 489.45113 355.10685 0.001988072
437 486.18121 355.08525 0.00228833
460 483.01423 355.06369 0.002173913
518 479.96538 355.04219 0.001930502
508 477.02753 355.02073 0.001968504
470 474.19401 354.99933 0.00212766
546 471.45892 354.97797 0.001831502
514 468.81714 354.95666 0.001945525
485 466.26447 354.9354 0.002061856
483 463.79761 354.91418 0.002070393
496 461.41417 354.89302 0.002016129
522 459.11252 354.8719 0.001915709
475 456.89183 354.85082 0.002105263
493 454.75178 354.8298 0.002028398
532 452.69256 354.80882 0.001879699
518 450.71466 354.78789 0.001930502
497 448.8188 354.767 0.002012072
479 446.89871 354.74616 0.002087683
517 445.16969 354.72536 0.001934236
505 443.49953 354.70461 0.001980198
516 441.94036 354.6839 0.001937984
452 440.46708 354.66323 0.002212389
518 439.0802 354.64261 0.001930502
509 437.78009 354.62204 0.001964637
468 436.56707 354.60151 0.002136752
506 435.44131 354.58102 0.001976285
472 434.40294 354.56057 0.002118644
488 433.45203 354.54017 0.00204918
483 432.58863 354.5198 0.002070393
487 431.81277 354.49948 0.002053388
489 431.1245 354.47921 0.00204499
465 430.52392 354.45897 0.002150538
492 430.07733 354.43877 0.00203252
483 429.65281 354.41862 0.002070393
486 429.31665 354.39851 0.002057613
498 429.06925 354.37843 0.002008032
443 428.91119 354.3584 0.002257336
488 428.84316 354.3384 0.00204918
490 428.86607 354.31845 0.002040816
473 428.98105 354.29853 0.002114165
497 429.22986 354.27866 0.002012072
459 429.53345 354.25882 0.002178649
497 429.9341 354.23902 0.002012072
453 430.43417 354.21926 0.002207506
480 431.03637 354.19953 0.002083333
467 431.74391 354.17985 0.002141328
474 432.56042 354.1602 0.002109705
498 433.49007 354.14059 0.002008032
490 434.5375 354.12101 0.002040816
526 435.70793 354.10147 0.001901141
513 437.00706 354.08197 0.001949318
485 438.44116 354.0625 0.002061856
520 440.01701 354.04307 0.001923077
520 441.74189 354.02367 0.001923077
476 443.62355 354.00431 0.00210084
544 445.67023 353.98498 0.001838235
462 447.89059 353.96569 0.002164502
478 450.29367 353.94643 0.00209205
507 452.88891 353.92721 0.001972387
507 455.68607 353.90802 0.001972387
458 458.69522 353.88886 0.002183406
507 461.92668 353.86973 0.001972387
503 465.391 353.85064 0.001988072
515 469.09886 353.83158 0.001941748
526 473.06109 353.81255 0.001901141
523 477.28853 353.79356 0.001912046
550 481.79203 353.77459 0.001818182
499 486.58227 353.75566 0.002004008
504 491.66979 353.73676 0.001984127
484 497.06479 353.71789 0.002066116
504 502.77704 353.69905 0.001984127
589 508.81578 353.68024 0.001697793
520 515.18956 353.66146 0.001923077
550 521.90614 353.64271 0.001818182
535 528.97226 353.62399 0.001869159
557 536.39357 353.6053 0.001795332
586 544.17447 353.58664 0.001706485
568 552.31788 353.56801 0.001760563
590 560.82522 353.5494 0.001694915
569 569.6963 353.53082 0.001757469
572 578.92902 353.51227 0.001748252
569 588.51957 353.49375 0.001757469
534 598.46228 353.47526 0.001872659
561 608.7495 353.45679 0.001782531
621 619.37184 353.43835 0.001610306
627 630.31812 353.41994 0.001594896
637 641.57538 353.40155 0.001569859
637 653.12914 353.38319 0.001569859
616 664.96336 353.36486 0.001623377
637 677.0605 353.34655 0.001569859
630 689.4016 353.32826 0.001587302
676 701.96632 353.31 0.00147929
685 714.73238 353.29177 0.001459854
698 727.67596 353.27355 0.001432665
661 740.77292 353.25537 0.001512859
649 753.99118 353.23721 0.001540832
724 767.30117 353.21907 0.001381215
713 780.66808 353.20095 0.001402525
717 794.05316 353.18286 0.0013947
684 807.41331 353.16479 0.001461988
761 820.70055 353.14674 0.00131406
789 833.86167 353.12872 0.001267427
714 846.83803 353.11071 0.00140056
734 859.5653 353.09273 0.001362398
786 871.97393 353.07477 0.001272265
757 883.98898 353.05684 0.001321004
819 895.53117 353.03892 0.001221001
821 906.51729 353.02102 0.001218027
801 916.85827 353.00315 0.001248439
847 926.47378 352.98529 0.001180638
803 935.2736 352.96746 0.00124533
843 943.17311 352.94964 0.00118624
882 950.09137 352.93184 0.001133787
875 955.95379 352.91407 0.001142857
875 960.69363 352.89631 0.001142857
849 964.25422 352.87857 0.001177856
860 966.59065 352.86085 0.001162791
867 967.67139 352.84315 0.001153403
852 967.47953 352.82546 0.001173709
852 966.01356 352.80779 0.001173709
855 963.28769 352.79015 0.001169591
830 959.33175 352.77251 0.001204819
855 954.19062 352.7549 0.001169591
844 947.92292 352.7373 0.001184834
875 940.59983 352.71972 0.001142857
827 932.30282 352.70215 0.00120919
845 923.12189 352.6846 0.001183432
862 913.1533 352.66707 0.001160093
821 902.49719 352.64955 0.001218027
795 891.25583 352.63204 0.001257862
805 879.53132 352.61455 0.001242236
750 867.42416 352.59708 0.001333333
762 855.03159 352.57962 0.001312336
765 842.44671 352.56217 0.00130719
809 829.71267 352.54474 0.001236094
739 817.00105 352.52732 0.00135318
726 804.34303 352.50992 0.00137741
726 791.80811 352.49253 0.00137741
715 779.45946 352.47515 0.001398601
668 767.35381 352.45778 0.001497006
679 755.54169 352.44043 0.001472754
683 744.06762 352.42309 0.001464129
698 732.97026 352.40576 0.001432665
691 722.2827 352.38844 0.001447178
701 712.03276 352.37114 0.001426534
652 702.24318 352.35384 0.001533742
627 692.9318 352.33656 0.001594896
614 684.11187 352.31928 0.001628664
629 675.79221 352.30202 0.001589825
624 667.97732 352.28477 0.001602564
632 660.67352 352.26753 0.001582278
622 653.86563 352.25029 0.001607717
633 647.57404 352.23307 0.001579779
627 641.74406 352.21586 0.001594896
602 636.38293 352.19865 0.00166113
623 631.47254 352.18145 0.001605136
630 627.0058 352.16427 0.001587302
645 622.92951 352.14709 0.001550388
623 619.24699 352.12992 0.001605136
647 615.89393 352.11275 0.001545595
637 612.85368 352.0956 0.001569859
645 610.09025 352.07845 0.001550388
668 607.56553 352.06131 0.001497006
664 605.23947 352.04417 0.001506024
624 603.07077 352.02705 0.001602564
602 601.01714 352.00992 0.00166113
695 599.0389 351.99281 0.001438849
653 597.08867 351.9757 0.001531394
670 595.12841 351.9586 0.001492537
667 593.11944 351.9415 0.00149925
685 591.02597 351.9244 0.001459854
678 588.81574 351.90732 0.001474926
666 586.46085 351.89023 0.001501502
666 583.97478 351.87315 0.001501502
640 581.26694 351.85608 0.0015625
615 578.36148 351.83901 0.001626016
643 575.25175 351.82194 0.00155521
605 571.93647 351.80488 0.001652893
635 568.41936 351.78782 0.001574803
586 564.70872 351.77076 0.001706485
569 560.82235 351.75371 0.001757469
587 556.7643 351.73666 0.001703578
554 552.5581 351.71961 0.001805054
573 548.2234 351.70256 0.001745201
527 543.7809 351.68552 0.001897533
548 539.25188 351.66848 0.001824818
542 534.6576 351.65144 0.001845018
521 530.0189 351.6344 0.001919386
529 525.35589 351.61736 0.001890359
533 520.68768 351.60032 0.001876173
486 516.03223 351.58328 0.002057613
479 511.40621 351.56624 0.002087683
495 506.80347 351.54921 0.002020202
446 502.28128 351.53217 0.002242152
481 497.83081 351.51513 0.002079002
453 493.46353 351.4981 0.002207506
447 489.18978 351.48106 0.002237136
480 485.01868 351.46402 0.002083333
466 480.95836 351.44698 0.002145923
467 477.01588 351.42994 0.002141328
468 473.19736 351.41289 0.002136752
496 469.50798 351.39585 0.002016129
465 465.95222 351.3788 0.002150538
443 462.53369 351.36175 0.002257336
456 459.2553 351.3447 0.002192982
458 456.11937 351.32764 0.002183406
426 453.12758 351.31058 0.002347418
442 450.28104 351.29352 0.002262443
440 447.58044 351.27645 0.002272727
453 445.03928 351.25939 0.002207506
436 442.63096 351.24231 0.002293578
451 440.40429 351.22524 0.002217295
451 438.28673 351.20816 0.002217295
486 436.31335 351.19107 0.002057613
457 434.48324 351.17398 0.002188184
477 432.7954 351.15688 0.002096436
440 431.24888 351.13978 0.002272727
426 429.84277 351.12268 0.002347418
407 428.57628 351.10557 0.002457002
426 427.4488 351.08845 0.002347418
476 426.45985 351.07133 0.00210084
451 425.60926 351.0542 0.002217295
449 424.89705 351.03706 0.002227171
471 424.32354 351.01992 0.002123142
455 423.88931 351.00277 0.002197802
472 423.59529 350.98561 0.002118644
454 423.44264 350.96845 0.002202643
457 423.43283 350.95128 0.002188184
475 423.56764 350.9341 0.002105263
437 423.85976 350.91691 0.00228833
429 424.29023 350.89971 0.002331002
474 424.87223 350.88251 0.002109705
404 425.60856 350.8653 0.002475248
433 426.50215 350.84808 0.002309469
456 427.74103 350.83085 0.002192982
472 428.95931 350.81361 0.002118644
457 430.34468 350.79636 0.002188184
429 431.90056 350.7791 0.002331002
428 433.63036 350.76183 0.002336449
443 435.53747 350.74455 0.002257336
474 437.62516 350.72726 0.002109705
498 439.89652 350.70997 0.002008032
469 442.35442 350.69266 0.002132196
481 445.00144 350.67533 0.002079002
507 447.8398 350.658 0.001972387
466 450.87128 350.64066 0.002145923
492 454.09717 350.62331 0.00203252
496 457.51815 350.60594 0.002016129
482 461.13428 350.58856 0.002074689
488 464.94487 350.57117 0.00204918
491 468.94846 350.55377 0.00203666
517 473.14265 350.53635 0.001934236
520 477.60515 350.51892 0.001923077
533 482.16973 350.50148 0.001876173
479 486.9117 350.48403 0.002087683
498 491.82433 350.46656 0.002008032
521 496.89954 350.44908 0.001919386
466 502.12793 350.43159 0.002145923
491 507.49854 350.41408 0.00203666
510 512.99878 350.39656 0.001960784
485 518.61439 350.37902 0.002061856
462 524.32921 350.36147 0.002164502
527 530.12523 350.3439 0.001897533
525 535.9822 350.32632 0.001904762
557 541.87784 350.30872 0.001795332
548 547.7875 350.29111 0.001824818
509 553.68417 350.27348 0.001964637
591 559.53844 350.25584 0.001692047
538 565.31837 350.23818 0.001858736
575 570.98984 350.22051 0.00173913
572 576.51622 350.20282 0.001748252
555 581.93339 350.18511 0.001801802
561 587.0671 350.16738 0.001782531
581 591.92117 350.14964 0.00172117
545 596.46783 350.13188 0.001834862
561 600.66504 350.11411 0.001782531
564 604.47167 350.09632 0.00177305
569 607.84838 350.07851 0.001757469
541 610.75881 350.06068 0.001848429
581 613.17048 350.04283 0.00172117
574 615.0558 350.02497 0.00174216
557 616.3931 350.00708 0.001795332
597 617.16734 349.98918 0.001675042
609 617.37061 349.97126 0.001642036
568 617.00257 349.95332 0.001760563
615 616.07038 349.93536 0.001626016
573 614.58854 349.91738 0.001745201
599 612.57843 349.89939 0.001669449
591 610.0675 349.88137 0.001692047
618 607.0885 349.86333 0.001618123
578 603.67838 349.84527 0.001730104
596 599.87746 349.8272 0.001677852
561 595.72813 349.8091 0.001782531
625 591.27411 349.79098 0.0016
553 586.55949 349.77284 0.001808318
612 581.6325 349.75468 0.001633987
579 576.53247 349.73649 0.001727116
571 571.29327 349.71829 0.001751313
591 565.96 349.70007 0.001692047
559 560.56975 349.68182 0.001788909
560 555.15729 349.66355 0.001785714
582 549.75505 349.64526 0.001718213
548 544.39294 349.62695 0.001824818
540 539.0987 349.60861 0.001851852
586 533.89766 349.59025 0.001706485
581 528.813 349.57187 0.00172117
545 523.86587 349.55347 0.001834862
531 519.07536 349.53504 0.001883239
485 514.45869 349.51659 0.002061856
547 510.03137 349.49811 0.001828154
504 505.8072 349.47961 0.001984127
508 501.7984 349.46109 0.001968504
475 498.06927 349.44255 0.002105263
471 494.52217 349.42397 0.002123142
523 491.2714 349.40538 0.001912046
556 488.21789 349.38676 0.001798561
535 485.41992 349.36811 0.001869159
507 482.88171 349.34945 0.001972387
497 480.60641 349.33075 0.002012072
520 478.59602 349.31203 0.001923077
509 476.85153 349.29328 0.001964637
507 475.37287 349.27451 0.001972387
538 474.15896 349.25572 0.001858736
492 473.20781 349.23689 0.00203252
494 472.51639 349.21804 0.002024291
507 472.0808 349.19917 0.001972387
532 471.89622 349.18026 0.001879699
528 471.95691 349.16133 0.001893939
551 472.2563 349.14238 0.001814882
527 472.78694 349.1234 0.001897533
523 473.54058 349.10438 0.001912046
507 474.50816 349.08535 0.001972387
492 475.67988 349.06628 0.00203252
562 477.04525 349.04719 0.001779359
486 478.59317 349.02807 0.002057613
532 480.31194 349.00892 0.001879699
535 482.18942 348.98974 0.001869159
552 484.21309 348.97053 0.001811594
528 486.37009 348.9513 0.001893939
541 488.64749 348.93204 0.001848429
505 491.03217 348.91274 0.001980198
539 493.511 348.89342 0.001855288
568 496.07094 348.87407 0.001760563
522 498.699 348.85469 0.001915709
549 501.40666 348.83528 0.001821494
563 504.13221 348.81584 0.001776199
556 506.88711 348.79638 0.001798561
571 509.65822 348.77688 0.001751313
592 512.43213 348.75735 0.001689189
557 515.19499 348.73779 0.001795332
537 517.93232 348.7182 0.001862197
564 520.62888 348.69858 0.00177305
550 523.2685 348.67892 0.001818182
540 525.73488 348.65924 0.001851852
554 528.20819 348.63953 0.001805054
537 530.56969 348.61978 0.001862197
534 532.79906 348.6 0.001872659
572 534.87509 348.5802 0.001748252
554 536.77594 348.56035 0.001805054
531 538.47959 348.54048 0.001883239
548 539.9641 348.52058 0.001824818
554 541.20827 348.50064 0.001805054
527 542.19201 348.48067 0.001897533
525 542.89717 348.46067 0.001904762
543 543.30781 348.44063 0.001841621
556 543.41104 348.42057 0.001798561
531 543.19731 348.40047 0.001883239
577 542.66084 348.38033 0.001733102
519 541.7999 348.36016 0.001926782
524 540.65842 348.33996 0.001908397
538 539.15996 348.31973 0.001858736
492 537.35624 348.29946 0.00203252
562 535.26124 348.27916 0.001779359
498 532.89206 348.25882 0.002008032
519 530.26834 348.23845 0.001926782
485 527.41187 348.21805 0.002061856
529 524.34589 348.19761 0.001890359
512 521.09463 348.17713 0.001953125
523 517.68269 348.15662 0.001912046
530 514.13473 348.13608 0.001886792
495 510.47493 348.1155 0.002020202
504 506.72679 348.09488 0.001984127
516 502.91285 348.07423 0.001937984
508 499.05445 348.05354 0.001968504
522 495.17176 348.03282 0.001915709
495 491.32775 348.01206 0.002020202
512 487.4515 347.99127 0.001953125
491 483.6032 347.97044 0.00203666
483 479.79755 347.94957 0.002070393
500 476.04802 347.92867 0.002
464 472.36685 347.90773 0.002155172
461 468.76512 347.88675 0.002169197
508 465.25284 347.86574 0.001968504
507 461.91883 347.84469 0.001972387
444 458.61169 347.8236 0.002252252
443 455.41956 347.80248 0.002257336
474 452.34608 347.78131 0.002109705
439 449.39824 347.76011 0.002277904
486 446.58091 347.73888 0.002057613
435 443.93689 347.7176 0.002298851
447 441.39293 347.69628 0.002237136
465 438.99059 347.67493 0.002150538
423 436.73246 347.65354 0.002364066
439 434.6208 347.63211 0.002277904
453 432.65735 347.61064 0.002207506
462 430.77861 347.58914 0.002164502
471 429.11776 347.56759 0.002123142
458 427.60657 347.54601 0.002183406
407 426.24764 347.52438 0.002457002
470 425.04143 347.50272 0.00212766
428 423.98825 347.48102 0.002336449
416 423.08829 347.45928 0.002403846
411 422.34167 347.43749 0.00243309
423 421.7485 347.41567 0.002364066
412 421.30886 347.39381 0.002427184
457 421.02287 347.37191 0.002188184
428 420.89069 347.34997 0.002336449
408 420.91257 347.32798 0.00245098
408 421.08882 347.30596 0.00245098
455 421.43189 347.2839 0.002197802
396 421.91834 347.26179 0.002525253
453 422.56081 347.23965 0.002207506
427 423.36008 347.21746 0.00234192
470 424.31704 347.19523 0.00212766
428 425.43266 347.17297 0.002336449
457 426.72113 347.15066 0.002188184
474 428.15742 347.1283 0.002109705
451 429.75579 347.10591 0.002217295
438 431.52277 347.08347 0.002283105
437 433.44886 347.061 0.00228833
486 435.54049 347.03848 0.002057613
431 437.7987 347.01592 0.002320186
431 440.22432 346.99331 0.002320186
481 442.81807 346.97067 0.002079002
472 445.58042 346.94798 0.002118644
449 448.51152 346.92525 0.002227171
469 451.60205 346.90247 0.002132196
454 454.86997 346.87965 0.002202643
483 458.30518 346.85679 0.002070393
478 461.90634 346.83389 0.00209205
500 465.67172 346.81094 0.002
486 469.59907 346.78795 0.002057613
487 473.68559 346.76492 0.002053388
476 477.92803 346.74184 0.00210084
470 482.32246 346.71872 0.00212766
478 486.86442 346.69555 0.00209205
494 491.54887 346.67234 0.002024291
500 496.36999 346.64909 0.002
457 501.32139 346.62579 0.002188184
469 506.39592 346.60245 0.002132196
511 511.59501 346.57906 0.001956947
522 516.89108 346.55563 0.001915709
526 522.28388 346.53216 0.001901141
483 527.76279 346.50864 0.002070393
508 533.31614 346.48507 0.001968504
495 538.93125 346.46146 0.002020202
468 544.59415 346.4378 0.002136752
469 550.28966 346.4141 0.002132196
517 556.00121 346.39035 0.001934236
488 561.71075 346.36656 0.00204918
558 567.39869 346.34272 0.001792115
531 573.04379 346.31884 0.001883239
561 578.62307 346.29491 0.001782531
515 584.11189 346.27093 0.001941748
547 589.48385 346.24691 0.001828154
567 594.69827 346.22284 0.001763668
562 599.75091 346.19873 0.001779359
577 604.58495 346.17456 0.001733102
579 609.19517 346.15036 0.001727116
560 613.53576 346.1261 0.001785714
539 617.57407 346.1018 0.001855288
611 621.27784 346.07745 0.001636661
603 624.61585 346.05306 0.001658375
586 627.55849 346.02861 0.001706485
592 630.07858 346.00412 0.001689189
598 632.15192 345.97959 0.001672241
559 633.75823 345.955 0.001788909
578 634.88138 345.93037 0.001730104
582 635.51029 345.90569 0.001718213
592 635.63901 345.88096 0.001689189
583 635.23828 345.85619 0.001715266
620 634.37127 345.83137 0.001612903
609 633.01981 345.80649 0.001642036
571 631.19999 345.78157 0.001751313
571 628.96974 345.75661 0.001751313
592 626.26621 345.73159 0.001689189
572 623.18495 345.70653 0.001748252
575 619.74367 345.68141 0.00173913
583 615.97727 345.65625 0.001715266
540 611.9223 345.63104 0.001851852
603 607.57035 345.60578 0.001658375
571 603.05172 345.58047 0.001751313
542 598.35799 345.55511 0.001845018
538 593.53316 345.52971 0.001858736
546 588.59925 345.50425 0.001831502
529 583.59752 345.47874 0.001890359
523 578.56065 345.45319 0.001912046
541 573.51929 345.42758 0.001848429
508 568.50206 345.40193 0.001968504
541 563.53543 345.37623 0.001848429
529 558.64371 345.35047 0.001890359
523 553.84907 345.32467 0.001912046
516 549.17161 345.29881 0.001937984
542 544.62933 345.27291 0.001845018
530 540.23835 345.24695 0.001886792
505 536.01288 345.22095 0.001980198
504 531.96531 345.19489 0.001984127
472 528.10634 345.16879 0.002118644
498 524.44503 345.14263 0.002008032
485 520.98883 345.11642 0.002061856
501 517.74374 345.09016 0.001996008
467 514.7143 345.06385 0.002141328
470 511.90367 345.03749 0.00212766
507 509.3138 345.01108 0.001972387
486 506.94531 344.98462 0.002057613
476 504.7977 344.95811 0.00210084
485 502.86944 344.93154 0.002061856
462 501.16337 344.90492 0.002164502
469 499.66536 344.87826 0.002132196
503 498.42746 344.85154 0.001988072
494 497.3434 344.82476 0.002024291
494 496.45853 344.79794 0.002024291
474 495.76727 344.77107 0.002109705
438 495.26368 344.74414 0.002283105
479 494.94176 344.71716 0.002087683
464 494.79549 344.69013 0.002155172
480 494.81895 344.66304 0.002083333
506 494.92894 344.63591 0.001976285
467 495.2748 344.60872 0.002141328
430 495.77358 344.58148 0.002325581
484 496.41617 344.55418 0.002066116
488 497.20524 344.52684 0.00204918
484 498.13188 344.49944 0.002066116
500 499.19104 344.47198 0.002
517 500.37754 344.44448 0.001934236
505 501.68604 344.41692 0.001980198
511 503.11082 344.38931 0.001956947
492 504.64582 344.36165 0.00203252
494 506.28454 344.33393 0.002024291
490 508.01998 344.30616 0.002040816
480 509.84468 344.27833 0.002083333
487 511.75079 344.25046 0.002053388
508 513.73764 344.22252 0.001968504
533 515.78162 344.19454 0.001876173
473 517.88172 344.1665 0.002114165
529 520.0295 344.13841 0.001890359
530 522.21678 344.11026 0.001886792
533 524.43591 344.08206 0.001876173
501 526.6799 344.05381 0.001996008
546 528.94269 344.0255 0.001831502
548 531.21925 343.99713 0.001824818
532 533.5057 343.96872 0.001879699
524 535.79936 343.94025 0.001908397
509 538.09424 343.91172 0.001964637
507 540.39903 343.88314 0.001972387
547 542.70986 343.85451 0.001828154
557 545.02814 343.82582 0.001795332
550 547.35587 343.79707 0.001818182
572 549.69531 343.76827 0.001748252
546 552.04872 343.73942 0.001831502
583 554.41802 343.71051 0.001715266
574 556.80455 343.68155 0.00174216
577 559.20874 343.65253 0.001733102
583 561.62984 343.62345 0.001715266
644 564.06576 343.59432 0.001552795
632 566.51276 343.56514 0.001582278
632 568.96539 343.5359 0.001582278
639 571.41636 343.50661 0.001564945
626 573.85641 343.47725 0.001597444
674 576.27436 343.44785 0.00148368
654 578.65702 343.41839 0.001529052
687 580.98944 343.38887 0.001455604
689 583.25491 343.3593 0.001451379
778 585.43964 343.32967 0.001285347
698 587.5154 343.29998 0.001432665
735 589.47031 343.27024 0.001360544
698 591.26548 343.24044 0.001432665
772 592.90473 343.21059 0.001295337
766 594.35779 343.18068 0.001305483
775 595.6059 343.15072 0.001290323
784 596.63213 343.1207 0.00127551
812 597.42206 343.09062 0.001231527
755 597.96421 343.06048 0.001324503
795 598.2507 343.03029 0.001257862
832 598.27759 343.00005 0.001201923
794 598.04516 342.96974 0.001259446
784 597.55806 342.93938 0.00127551
771 596.82532 342.90896 0.001297017
772 595.86009 342.87849 0.001295337
782 594.67955 342.84796 0.001278772
816 593.30426 342.81737 0.00122549
758 591.75781 342.78673 0.001319261
764 590.06623 342.75603 0.001308901
732 588.2574 342.72527 0.00136612
731 586.36038 342.69445 0.001367989
724 584.40502 342.66358 0.001381215
670 582.42135 342.63265 0.001492537
668 580.43903 342.60166 0.001497006
640 578.48719 342.57062 0.0015625
643 576.594 342.53952 0.00155521
686 574.78638 342.50836 0.001457726
648 573.08992 342.47714 0.00154321
665 571.52876 342.44586 0.001503759
637 570.12536 342.41453 0.001569859
626 568.90071 342.38314 0.001597444
613 567.87409 342.3517 0.001631321
596 567.06312 342.32019 0.001677852
576 566.48388 342.28863 0.001736111
573 566.15082 342.25701 0.001745201
636 566.07677 342.22533 0.001572327
620 566.27301 342.19359 0.001612903
633 566.74921 342.1618 0.001579779
596 567.51347 342.12994 0.001677852
607 568.5062 342.09803 0.001647446
559 569.94333 342.06606 0.001788909
601 571.60471 342.03404 0.001663894
541 573.57041 342.00195 0.001848429
575 575.84636 341.96981 0.00173913
607 578.41853 341.93761 0.001647446
597 581.28932 341.90534 0.001675042
576 584.45329 341.87303 0.001736111
595 587.90309 341.84065 0.001680672
584 591.62958 341.80821 0.001712329
609 595.62178 341.77572 0.001642036
607 599.86689 341.74316 0.001647446
612 604.41302 341.71055 0.001633987
616 609.11881 341.67788 0.001623377
622 614.02903 341.64515 0.001607717
572 619.12459 341.61236 0.001748252
577 624.38532 341.57952 0.001733102
608 629.79008 341.54661 0.001644737
605 635.31711 341.51365 0.001652893
659 640.94442 341.48062 0.001517451
642 646.6499 341.44754 0.001557632
635 652.41179 341.4144 0.001574803
597 658.20887 341.3812 0.001675042
600 664.02066 341.34794 0.001666667
614 669.82771 341.31462 0.001628664
643 675.61159 341.28124 0.00155521
664 681.35499 341.2478 0.001506024
662 687.04164 341.2143 0.001510574
647 692.65627 341.18075 0.001545595
612 698.18439 341.14713 0.001633987
634 703.61212 341.11346 0.001577287
629 708.92609 341.07972 0.001589825
635 714.11313 341.04593 0.001574803
675 719.16027 341.01207 0.001481481
682 724.05456 340.97816 0.001466276
648 728.78306 340.94419 0.00154321
642 733.33288 340.91016 0.001557632
638 737.69131 340.87606 0.001567398
702 741.84589 340.84191 0.001424501
635 745.78453 340.8077 0.001574803
661 749.49571 340.77343 0.001512859
655 752.952 340.7391 0.001526718
711 756.17647 340.70471 0.00140647
705 759.1431 340.67026 0.00141844
684 761.8433 340.63575 0.001461988
677 764.26859 340.60118 0.001477105
682 766.41138 340.56655 0.001466276
708 768.28542 340.53186 0.001412429
714 769.86028 340.49711 0.00140056
676 771.10958 340.4623 0.00147929
727 772.0451 340.42743 0.001375516
752 772.65833 340.3925 0.001329787
703 772.94049 340.35751 0.001422475
718 772.88269 340.32245 0.001392758
715 772.47616 340.28734 0.001398601
677 771.71283 340.25217 0.001477105
665 770.58567 340.21694 0.001503759
697 769.0893 340.18165 0.00143472
742 767.22055 340.1463 0.001347709
704 764.97904 340.11089 0.001420455
729 762.36757 340.07541 0.001371742
744 759.39266 340.03988 0.001344086
724 756.06467 340.00429 0.001381215
722 752.39792 339.96863 0.001385042
720 748.41074 339.93292 0.001388889
743 744.12513 339.89714 0.001345895
718 739.56642 339.86131 0.001392758
724 734.76279 339.82541 0.001381215
703 729.74464 339.78946 0.001422475
713 724.54391 339.75344 0.001402525
670 719.19353 339.71736 0.001492537
659 713.72656 339.68123 0.001517451
643 708.17564 339.64503 0.00155521
692 702.57236 339.60877 0.001445087
651 696.94673 339.57245 0.001536098
653 691.3267 339.53607 0.001531394
652 685.7379 339.49963 0.001533742
632 680.20316 339.46313 0.001582278
656 674.73646 339.42656 0.00152439
616 669.36684 339.38994 0.001623377
612 664.10207 339.35326 0.001633987
647 658.95284 339.31651 0.001545595
603 653.92672 339.27971 0.001658375
613 649.01933 339.24284 0.001631321
610 644.24997 339.20591 0.001639344
602 639.61324 339.16893 0.00166113
578 635.09573 339.13188 0.001730104
606 630.69591 339.09477 0.001650165
620 626.40519 339.0576 0.001612903
594 622.21308 339.02037 0.001683502
612 618.10756 338.98307 0.001633987
585 614.07526 338.94572 0.001709402
589 610.10189 338.90831 0.001697793
594 606.17257 338.87083 0.001683502
550 602.27234 338.83329 0.001818182
592 598.38637 338.7957 0.001689189
567 594.50044 338.75804 0.001763668
599 590.60124 338.72032 0.001669449
609 586.67665 338.68254 0.001642036
517 582.74461 338.6447 0.001934236
579 578.73912 338.6068 0.001727116
545 574.67878 338.56883 0.001834862
518 570.56391 338.53081 0.001930502
528 566.3885 338.49273 0.001893939
527 562.1513 338.45458 0.001897533
506 557.85289 338.41637 0.001976285
480 553.4957 338.3781 0.002083333
523 549.08385 338.33977 0.001912046
540 544.62297 338.30138 0.001851852
550 540.12 338.26293 0.001818182
532 535.58307 338.22442 0.001879699
538 531.02123 338.18585 0.001858736
493 526.44433 338.14721 0.002028398
500 521.86262 338.10851 0.002
461 517.28676 338.06976 0.002169197
500 512.7275 338.03094 0.002
508 508.1955 337.99206 0.001968504
491 503.70127 337.95312 0.00203666
512 499.25493 337.91412 0.001953125
474 494.86612 337.87505 0.002109705
492 490.54398 337.83593 0.00203252
472 486.1877 337.79675 0.002118644
491 482.02388 337.7575 0.00203666
430 477.95017 337.71819 0.002325581
458 473.97297 337.67882 0.002183406
474 470.09798 337.63939 0.002109705
466 466.33026 337.5999 0.002145923
459 462.67412 337.56035 0.002178649
455 459.13328 337.52074 0.002197802
472 455.71082 337.48106 0.002118644
458 452.40919 337.44133 0.002183406
469 449.1995 337.40153 0.002132196
409 446.14475 337.36167 0.002444988
478 443.21492 337.32175 0.00209205
451 440.41037 337.28178 0.002217295
399 437.731 337.24173 0.002506266
464 435.17626 337.20163 0.002155172
432 432.74519 337.16147 0.002314815
403 430.43646 337.12124 0.00248139
421 428.24831 337.08096 0.002375297
430 426.17868 337.04061 0.002325581
422 424.22518 337.0002 0.002369668
446 422.38504 336.95974 0.002242152
426 420.65526 336.91921 0.002347418
427 419.03254 336.87861 0.00234192
428 417.52957 336.83796 0.002336449
417 416.11004 336.79725 0.002398082
441 414.78615 336.75648 0.002267574
414 413.55364 336.71564 0.002415459
463 412.4081 336.67474 0.002159827
435 411.34491 336.63379 0.002298851
410 410.35936 336.59277 0.002439024
394 409.44662 336.55169 0.002538071
414 408.6048 336.51055 0.002415459
403 407.82296 336.46935 0.00248139
431 407.09917 336.42809 0.002320186
427 406.42858 336.38676 0.00234192
436 405.80646 336.34538 0.002293578
411 405.22825 336.30393 0.00243309
425 404.68963 336.26243 0.002352941
416 404.18657 336.22086 0.002403846
426 403.71542 336.17923 0.002347418
404 403.27294 336.13754 0.002475248
391 402.85637 336.09579 0.002557545
400 402.46344 336.05398 0.0025
388 402.09245 336.01211 0.00257732
438 401.74228 335.97018 0.002283105
395 401.41233 335.92819 0.002531646
424 401.1026 335.88613 0.002358491
410 400.81364 335.84402 0.002439024
389 400.54648 335.80184 0.002570694
386 400.30261 335.75961 0.002590674
410 400.08398 335.71731 0.002439024
402 399.89282 335.67495 0.002487562
407 399.73175 335.63253 0.002457002
422 399.60356 335.59005 0.002369668
399 399.55799 335.54751 0.002506266
411 399.50488 335.50491 0.00243309
406 399.49407 335.46225 0.002463054
418 399.52885 335.41953 0.002392344
382 399.61256 335.37675 0.002617801
420 399.7485 335.33391 0.002380952
428 399.93993 335.291 0.002336449
417 400.19009 335.24804 0.002398082
389 400.5021 335.20501 0.002570694
411 400.87901 335.16193 0.00243309
435 401.32376 335.11878 0.002298851
424 401.83915 335.07558 0.002358491
419 402.42786 335.03231 0.002386635
364 403.09243 334.98899 0.002747253
407 403.83521 334.9456 0.002457002
451 404.65841 334.90215 0.002217295
451 405.56403 334.85864 0.002217295
431 406.55386 334.81508 0.002320186
438 407.62948 334.77145 0.002283105
422 408.79226 334.72776 0.002369668
440 410.04327 334.68401 0.002272727
421 411.38334 334.6402 0.002375297
421 412.81303 334.59633 0.002375297
439 414.39206 334.5524 0.002277904
413 416.00149 334.50841 0.002421308
412 417.73692 334.46436 0.002427184
411 419.52422 334.42025 0.00243309
425 421.39879 334.37608 0.002352941
440 423.35902 334.33185 0.002272727
438 425.40281 334.28756 0.002283105
481 427.52851 334.24322 0.002079002
465 429.73134 334.19881 0.002150538
448 432.00862 334.15434 0.002232143
475 434.35623 334.10981 0.002105263
437 436.76952 334.06522 0.00228833
477 439.24321 334.02057 0.002096436
473 441.77144 333.97586 0.002114165
491 444.35536 333.93109 0.00203666
477 446.97262 333.88626 0.002096436
509 449.62311 333.84138 0.001964637
519 452.29852 333.79643 0.001926782
502 454.98999 333.75142 0.001992032
543 457.68813 333.70635 0.001841621
526 460.38313 333.66123 0.001901141
516 463.06482 333.61604 0.001937984
520 465.72274 333.5708 0.001923077
532 468.34635 333.52549 0.001879699
557 470.92513 333.48013 0.001795332
507 473.44868 333.4347 0.001972387
509 475.90695 333.38922 0.001964637
503 478.29043 333.34368 0.001988072
524 480.59012 333.29808 0.001908397
508 482.79794 333.25242 0.001968504
561 484.9067 333.2067 0.001782531
528 486.91027 333.16092 0.001893939
553 488.80362 333.11508 0.001808318
525 490.58294 333.06918 0.001904762
543 492.24556 333.02322 0.001841621
566 493.79003 332.97721 0.001766784
532 495.21606 332.93113 0.001879699
548 496.52437 332.885 0.001824818
551 497.71673 332.83881 0.001814882
531 498.79576 332.79256 0.001883239
547 499.76488 332.74625 0.001828154
544 500.62815 332.69988 0.001838235
558 501.39027 332.65345 0.001792115
554 502.0564 332.60696 0.001805054
571 502.63221 332.56042 0.001751313
557 503.12377 332.51382 0.001795332
573 503.53759 332.46715 0.001745201
534 503.88064 332.42043 0.001872659
509 504.1604 332.37365 0.001964637
542 504.38486 332.32682 0.001845018
517 504.56261 332.27992 0.001934236
553 504.7029 332.23297 0.001808318
519 504.81562 332.18595 0.001926782
484 504.9114 332.13888 0.002066116
494 505.00155 332.09175 0.002024291
482 505.09803 332.04457 0.002074689
510 505.2134 331.99732 0.001960784
513 505.3608 331.95002 0.001949318
508 505.45684 331.90265 0.001968504
479 505.70943 331.85523 0.002087683
527 506.03546 331.80776 0.001897533
530 506.44903 331.76022 0.001886792
511 506.96411 331.71263 0.001956947
483 507.59444 331.66498 0.002070393
486 508.35341 331.61727 0.002057613
479 509.25389 331.5695 0.002087683
532 510.30816 331.52168 0.001879699
466 511.52776 331.47379 0.002145923
468 512.9234 331.42585 0.002136752
493 514.50493 331.37786 0.002028398
501 516.28119 331.3298 0.001996008
472 518.25999 331.28169 0.002118644
476 520.48177 331.23352 0.00210084
444 522.89907 331.18529 0.002252252
486 525.52117 331.13701 0.002057613
526 528.36555 331.08867 0.001901141
503 531.44091 331.04027 0.001988072
504 534.73415 330.99181 0.001984127
494 538.25142 330.9433 0.002024291
505 541.99076 330.89473 0.001980198
515 545.94896 330.84611 0.001941748
523 550.1216 330.79742 0.001912046
544 554.50304 330.74868 0.001838235
492 559.08667 330.69988 0.00203252
537 563.8648 330.65103 0.001862197
517 568.82885 330.60212 0.001934236
528 573.96951 330.55315 0.001893939
525 579.2768 330.50413 0.001904762
546 584.74022 330.45505 0.001831502
542 590.34888 330.40591 0.001845018
556 596.09167 330.35672 0.001798561
574 601.95718 330.30747 0.00174216
587 607.93392 330.25816 0.001703578
583 614.01025 330.2088 0.001715266
550 620.17441 330.15938 0.001818182
571 626.41428 330.1099 0.001751313
563 632.7176 330.06037 0.001776199
643 639.12126 330.01079 0.00155521
649 645.51217 329.96114 0.001540832
620 651.92563 329.91144 0.001612903
685 658.34603 329.86169 0.001459854
639 664.75664 329.81188 0.001564945
638 671.1391 329.76201 0.001567398
707 677.47358 329.71209 0.001414427
692 683.72539 329.66211 0.001445087
729 689.89773 329.61208 0.001371742
682 695.95263 329.56199 0.001466276
700 701.86394 329.51185 0.001428571
728 707.60439 329.46165 0.001373626
696 713.14586 329.41139 0.001436782
703 718.45994 329.36108 0.001422475
766 723.5413 329.31072 0.001305483
751 728.31679 329.2603 0.001331558
824 732.78312 329.20982 0.001213592
811 736.91621 329.15929 0.001233046
785 740.6946 329.10871 0.001273885
732 744.10003 329.05807 0.00136612
784 747.11745 329.00737 0.00127551
828 749.73612 328.95662 0.001207729
789 751.95859 328.90582 0.001267427
788 753.76365 328.85496 0.001269036
800 755.16194 328.80404 0.00125
808 756.15878 328.75307 0.001237624
802 756.76241 328.70205 0.001246883
844 756.98446 328.65098 0.001184834
817 756.83879 328.59984 0.00122399
761 756.35881 328.54866 0.00131406
788 755.52611 328.49742 0.001269036
800 754.37604 328.44612 0.00125
812 752.92663 328.39478 0.001231527
819 751.1959 328.34337 0.001221001
821 749.20154 328.29192 0.001218027
836 746.96075 328.24041 0.001196172
810 744.49011 328.18885 0.001234568
837 741.80563 328.13723 0.001194743
841 738.9228 328.08556 0.001189061
832 735.85662 328.03383 0.001201923
803 732.62164 327.98206 0.00124533
827 729.23214 327.93023 0.00120919
835 725.70214 327.87834 0.001197605
787 722.04535 327.8264 0.001270648
799 718.2752 327.77441 0.001251564
793 714.40487 327.72237 0.001261034
829 710.44697 327.67027 0.001206273
814 706.41361 327.61812 0.001228501
790 702.31624 327.56592 0.001265823
759 698.16539 327.51366 0.001317523
819 693.97068 327.46135 0.001221001
757 689.75186 327.40899 0.001321004
765 685.50179 327.35658 0.00130719
753 681.22166 327.30411 0.001328021
746 676.92818 327.25159 0.001340483
748 672.62456 327.19902 0.001336898
708 668.31525 327.1464 0.001412429
678 664.00442 327.09372 0.001474926
715 659.69618 327.04099 0.001398601
697 655.39481 326.98821 0.00143472
685 651.10511 326.93538 0.001459854
684 646.83247 326.88249 0.001461988
703 642.58316 326.82956 0.001422475
713 638.36444 326.77657 0.001402525
593 634.18444 326.72353 0.001686341
682 630.05239 326.67044 0.001466276
653 625.97837 326.61729 0.001531394
612 621.97508 326.5641 0.001633987
632 618.04989 326.51085 0.001582278
621 614.21642 326.45756 0.001610306
600 610.48633 326.40421 0.001666667
558 606.87106 326.35081 0.001792115
611 603.38157 326.29736 0.001636661
588 600.02815 326.24385 0.00170068
586 596.82016 326.1903 0.001706485
567 593.76584 326.1367 0.001763668
592 590.87222 326.08304 0.001689189
545 588.14498 326.02934 0.001834862
548 585.58835 325.97558 0.001824818
538 583.20505 325.92177 0.001858736
531 580.99635 325.86792 0.001883239
493 578.96202 325.81401 0.002028398
541 577.10728 325.76005 0.001848429
526 575.41509 325.70604 0.001901141
549 573.88782 325.65198 0.001821494
534 572.51956 325.59787 0.001872659
551 571.30306 325.54372 0.001814882
513 570.22987 325.48951 0.001949318
539 569.29029 325.43525 0.001855288
508 568.47346 325.38094 0.001968504
560 567.76742 325.32658 0.001785714
524 567.15913 325.27217 0.001908397
536 566.63456 325.21772 0.001865672
556 566.17874 325.16321 0.001798561
544 565.77587 325.10866 0.001838235
535 565.40946 325.05405 0.001869159
549 565.06243 324.9994 0.001821494
536 564.71738 324.94469 0.001865672
580 564.35674 324.88994 0.001724138
515 563.96306 324.83514 0.001941748
528 563.51933 324.78029 0.001893939
511 563.00929 324.72539 0.001956947
537 562.39561 324.67044 0.001862197
523 561.70889 324.61545 0.001912046
523 560.915 324.5604 0.001912046
538 560.004 324.50531 0.001858736
542 558.96832 324.45017 0.001845018
581 557.80294 324.39498 0.00172117
538 556.50542 324.33974 0.001858736
553 555.07607 324.28445 0.001808318
525 553.51781 324.22912 0.001904762
539 551.8361 324.17374 0.001855288
537 550.03875 324.11831 0.001862197
541 548.13566 324.06283 0.001848429
513 546.13846 324.00731 0.001949318
503 544.06032 323.95174 0.001988072
507 541.91547 323.89612 0.001972387
555 539.71892 323.84045 0.001801802
544 537.50201 323.78473 0.001838235
508 535.24858 323.72897 0.001968504
516 532.98991 323.67316 0.001937984
490 530.74112 323.61731 0.002040816
480 528.51671 323.56141 0.002083333
477 526.33049 323.50546 0.002096436
494 524.19543 323.44946 0.002024291
496 522.16855 323.39342 0.002016129
500 520.17122 323.33733 0.002
506 518.18783 323.28119 0.001976285
503 516.37871 323.22501 0.001988072
500 514.66116 323.16878 0.002
521 513.05258 323.11251 0.001919386
481 511.58868 323.05619 0.002079002
517 510.21653 322.99982 0.001934236
486 508.97025 322.94341 0.002057613
462 507.85414 322.88695 0.002164502
477 506.72902 322.83044 0.002096436
487 505.88363 322.77389 0.002053388
468 505.17914 322.7173 0.002136752
511 504.61751 322.66066 0.001956947
466 504.20119 322.60397 0.002145923
495 503.93254 322.54724 0.002020202
456 503.81372 322.49046 0.002192982
478 503.84685 322.43364 0.00209205
475 504.03391 322.37678 0.002105263
476 504.37673 322.31987 0.00210084
502 504.87696 322.26291 0.001992032
492 505.536 322.20591 0.00203252
489 506.35492 322.14886 0.00204499
492 507.33434 322.09177 0.00203252
503 508.47439 322.03464 0.001988072
537 509.7746 321.97746 0.001862197
482 511.24464 321.92024 0.002074689
449 512.86084 321.86297 0.002227171
498 514.65539 321.80566 0.002008032
439 516.57927 321.74831 0.002277904
502 518.64625 321.69091 0.001992032
497 520.85365 321.63347 0.002012072
537 523.19511 321.57598 0.001862197
495 525.66329 321.51845 0.002020202
516 528.25014 321.46088 0.001937984
552 530.94684 321.40326 0.001811594
536 533.7439 321.3456 0.001865672
529 536.63134 321.2879 0.001890359
563 539.59871 321.23016 0.001776199
546 542.63519 321.17237 0.001831502
544 545.72979 321.11454 0.001838235
573 548.87134 321.05666 0.001745201
543 552.04851 320.99875 0.001841621
536 555.24999 320.94079 0.001865672
569 558.49468 320.88279 0.001757469
564 561.71063 320.82474 0.00177305
610 564.91645 320.76666 0.001639344
590 568.10042 320.70853 0.001694915
575 571.25055 320.65036 0.00173913
606 574.35453 320.59215 0.001650165
607 577.39961 320.5339 0.001647446
655 580.37262 320.4756 0.001526718
587 583.25975 320.41726 0.001703578
588 586.04675 320.35889 0.00170068
609 588.71874 320.30047 0.001642036
621 591.26039 320.242 0.001610306
629 593.6559 320.1835 0.001589825
586 595.91045 320.12496 0.001706485
617 597.96549 320.06638 0.001620746
627 599.84636 320.00775 0.001594896
612 601.49666 319.94908 0.001633987
637 602.9213 319.89038 0.001569859
652 604.10576 319.83163 0.001533742
652 605.03652 319.77284 0.001533742
628 605.70141 319.71402 0.001592357
651 606.08977 319.65515 0.001536098
647 606.19271 319.59624 0.001545595
649 606.00916 319.53729 0.001540832
625 605.52286 319.4783 0.0016
604 604.67947 319.41928 0.001655629
627 603.59453 319.36021 0.001594896
666 602.21263 319.3011 0.001501502
581 600.53862 319.24195 0.00172117
601 598.57971 319.18277 0.001663894
583 596.34537 319.12354 0.001715266
571 593.84709 319.06428 0.001751313
608 591.09829 319.00497 0.001644737
603 588.11395 318.94563 0.001658375
597 584.91046 318.88625 0.001675042
580 581.50521 318.82683 0.001724138
572 577.91636 318.76737 0.001748252
568 574.16255 318.70787 0.001760563
529 570.26257 318.64834 0.001890359
541 566.2351 318.58876 0.001848429
561 562.09846 318.52915 0.001782531
496 557.87045 318.4695 0.002016129
528 553.5681 318.40981 0.001893939
502 549.2075 318.35009 0.001992032
530 544.8038 318.29032 0.001886792
507 540.37103 318.23052 0.001972387
503 535.92215 318.17068 0.001988072
495 531.46897 318.1108 0.002020202
501 527.02217 318.05089 0.001996008
475 522.59145 317.99094 0.002105263
472 518.1855 317.93095 0.002118644
458 513.81206 317.87093 0.002183406
466 509.47817 317.81086 0.002145923
499 505.19007 317.75076 0.002004008
466 500.95346 317.69063 0.002145923
433 496.77352 317.63046 0.002309469
427 492.65502 317.57025 0.00234192
433 488.60244 317.51 0.002309469
446 484.61998 317.44972 0.002242152
433 480.71163 317.3894 0.002309469
437 476.88135 317.32905 0.00228833
395 473.13287 317.26866 0.002531646
414 469.46987 317.20824 0.002415459
452 465.89596 317.14778 0.002212389
421 462.41462 317.08728 0.002375297
393 459.02922 317.02675 0.002544529
405 455.74294 316.96618 0.002469136
378 452.55885 316.90558 0.002645503
420 449.47969 316.84494 0.002380952
431 446.50802 316.78427 0.002320186
440 443.6495 316.72356 0.002272727
402 440.89921 316.66282 0.002487562
422 438.27396 316.60205 0.002369668
385 435.75125 316.54123 0.002597403
425 433.34271 316.48039 0.002352941
414 431.05082 316.41951 0.002415459
427 428.87467 316.3586 0.00234192
399 426.81398 316.29765 0.002506266
436 424.86814 316.23667 0.002293578
422 423.03631 316.17565 0.002369668
387 421.31738 316.1146 0.002583979
381 419.71 316.05352 0.002624672
413 418.21275 315.9924 0.002421308
387 416.82398 315.93125 0.002583979
418 415.54205 315.87007 0.002392344
368 414.36526 315.80885 0.002717391
393 413.29189 315.7476 0.002544529
409 412.32026 315.68632 0.002444988
378 411.44874 315.62501 0.002645503
408 410.67575 315.56366 0.00245098
365 409.99974 315.50228 0.002739726
388 409.41923 315.44087 0.00257732
406 408.93277 315.37942 0.002463054
405 408.53893 315.31795 0.002469136
384 408.23626 315.25644 0.002604167
431 408.02328 315.1949 0.002320186
410 407.89843 315.13332 0.002439024
391 407.86005 315.07172 0.002557545
397 407.90633 315.01008 0.002518892
405 408.0475 314.94841 0.002469136
412 408.25703 314.88672 0.002427184
407 408.54466 314.82499 0.002457002
397 408.90774 314.76322 0.002518892
384 409.34333 314.70143 0.002604167
404 409.84815 314.63961 0.002475248
396 410.41866 314.57775 0.002525253
397 411.05093 314.51587 0.002518892
391 411.74073 314.45396 0.002557545
405 412.48347 314.39201 0.002469136
420 413.27422 314.33003 0.002380952
416 414.10774 314.26803 0.002403846
394 414.97848 314.20599 0.002538071
395 415.88061 314.14393 0.002531646
408 416.80813 314.08183 0.00245098
396 417.7548 314.0197 0.002525253
407 418.71437 313.95755 0.002457002
409 419.68052 313.89537 0.002444988
392 420.64702 313.83315 0.00255102
379 421.60783 313.77091 0.002638522
394 422.55716 313.70864 0.002538071
440 423.48962 313.64634 0.002272727
407 424.4003 313.58401 0.002457002
382 425.28483 313.52165 0.002617801
401 426.13948 313.45926 0.002493766
378 426.96125 313.39684 0.002645503
411 427.74783 313.3344 0.00243309
391 428.49767 313.27193 0.002557545
389 429.20993 313.20943 0.002570694
365 429.88452 313.1469 0.002739726
396 430.52192 313.08434 0.002525253
407 431.13247 313.02176 0.002457002
422 431.69925 312.95915 0.002369668
431 432.2334 312.89651 0.002320186
373 432.7371 312.83384 0.002680965
429 433.21268 312.77115 0.002331002
383 433.6625 312.70843 0.002610966
363 434.08885 312.64568 0.002754821
421 434.49381 312.58291 0.002375297
386 434.87922 312.52011 0.002590674
394 435.24651 312.45728 0.002538071
363 435.59667 312.39442 0.002754821
403 435.93017 312.33154 0.00248139
393 436.24691 312.26864 0.002544529
414 436.54615 312.2057 0.002415459
380 436.82649 312.14274 0.002631579
412 437.08587 312.07976 0.002427184
378 437.32154 312.01675 0.002645503
388 437.4401 311.95371 0.00257732
396 437.61773 311.89065 0.002525253
424 437.75962 311.82756 0.002358491
436 437.86066 311.76445 0.002293578
423 437.92114 311.70131 0.002364066
393 437.92367 311.63815 0.002544529
422 437.86804 311.57496 0.002369668
428 437.74828 311.51175 0.002336449
421 437.55849 311.44851 0.002375297
420 437.29313 311.38525 0.002380952
404 436.94711 311.32197 0.002475248
423 436.51597 311.25866 0.002364066
388 435.99606 311.19532 0.00257732
409 435.38461 311.13196 0.002444988
411 434.6842 311.06858 0.00243309
376 433.88558 311.00518 0.002659574
413 432.99465 310.94175 0.002421308
382 432.01078 310.8783 0.002617801
441 430.96176 310.81482 0.002267574
419 429.80346 310.75132 0.002386635
402 428.56441 310.6878 0.002487562
397 427.25007 310.62425 0.002518892
415 425.86656 310.56069 0.002409639
394 424.42047 310.49709 0.002538071
382 422.9241 310.43348 0.002617801
400 421.37406 310.36985 0.0025
405 419.78292 310.30619 0.002469136
398 418.15796 310.24251 0.002512563
390 416.50628 310.1788 0.002564103
388 414.8348 310.11508 0.00257732
353 413.15015 310.05133 0.002832861
372 411.45868 309.98757 0.002688172
389 409.76638 309.92378 0.002570694
385 408.07887 309.85997 0.002597403
376 406.40147 309.79613 0.002659574
419 404.73916 309.73228 0.002386635
378 403.09664 309.66841 0.002645503
368 401.47832 309.60451 0.002717391
416 399.88839 309.5406 0.002403846
406 398.33085 309.47666 0.002463054
364 396.83199 309.4127 0.002747253
382 395.35059 309.34872 0.002617801
339 393.91261 309.28473 0.002949853
355 392.52152 309.22071 0.002816901
368 391.18066 309.15667 0.002717391
387 389.89331 309.09261 0.002583979
384 388.66266 309.02854 0.002604167
393 387.49181 308.96444 0.002544529
363 386.38377 308.90032 0.002754821
372 385.34143 308.83619 0.002688172
380 384.37058 308.77203 0.002631579
395 383.51187 308.70786 0.002531646
366 382.68315 308.64366 0.00273224
363 381.93064 308.57945 0.002754821
400 381.25664 308.51522 0.0025
383 380.66534 308.45097 0.002610966
398 380.15467 308.3867 0.002512563
347 379.72855 308.32242 0.002881844
372 379.3887 308.25811 0.002688172
386 379.13674 308.19379 0.002590674
375 378.97413 308.12945 0.002666667
369 378.90222 308.06509 0.002710027
395 378.92227 308.00072 0.002531646
405 379.03541 307.93632 0.002469136
374 379.24272 307.87191 0.002673797
402 379.54518 307.80748 0.002487562
368 379.94375 307.74304 0.002717391
387 380.43934 307.67858 0.002583979
380 381.02175 307.6141 0.002631579
378 381.71404 307.5496 0.002645503
415 382.50605 307.48509 0.002409639
386 383.39867 307.42056 0.002590674
342 384.3929 307.35602 0.002923977
390 385.48974 307.29146 0.002564103
352 386.69026 307.22688 0.002840909
399 387.99553 307.16229 0.002506266
361 389.40669 307.09768 0.002770083
408 390.92487 307.03305 0.00245098
396 392.55116 306.96841 0.002525253
415 394.28665 306.90376 0.002409639
402 396.13232 306.83909 0.002487562
423 398.08902 306.7744 0.002364066
395 400.15748 306.7097 0.002531646
383 402.33816 306.64498 0.002610966
372 404.63129 306.58025 0.002688172
399 407.03682 306.51551 0.002506266
382 409.55429 306.45075 0.002617801
430 412.18288 306.38598 0.002325581
412 414.92132 306.32119 0.002427184
420 417.76781 306.25639 0.002380952
422 420.72009 306.19157 0.002369668
441 423.77525 306.12674 0.002267574
423 426.9298 306.0619 0.002364066
455 430.1796 305.99704 0.002197802
444 433.51981 305.93217 0.002252252
441 436.8911 305.86729 0.002267574
449 440.39476 305.80239 0.002227171
477 443.96979 305.73748 0.002096436
469 447.6082 305.67256 0.002132196
468 451.30122 305.60762 0.002136752
425 455.0391 305.54267 0.002352941
445 458.81123 305.47771 0.002247191
480 462.60611 305.41274 0.002083333
480 466.41082 305.34775 0.002083333
454 470.21301 305.28276 0.002202643
453 473.99798 305.21775 0.002207506
483 477.75078 305.15273 0.002070393
516 481.45453 305.08769 0.001937984
532 485.09503 305.02265 0.001879699
501 488.65429 304.9576 0.001996008
512 492.11499 304.89253 0.001953125
511 495.45968 304.82745 0.001956947
569 498.67081 304.76236 0.001757469
574 501.74093 304.69726 0.00174216
561 504.63347 304.63215 0.001782531
582 507.34201 304.56703 0.001718213
597 509.85129 304.5019 0.001675042
558 512.14711 304.43676 0.001792115
595 514.21661 304.37161 0.001680672
602 516.04847 304.30645 0.00166113
590 517.63311 304.24127 0.001694915
582 518.96303 304.17609 0.001718213
602 520.05646 304.1109 0.00166113
568 520.86045 304.0457 0.001760563
578 521.3978 303.98049 0.001730104
625 521.67246 303.91527 0.0016
585 521.67903 303.85004 0.001709402
564 521.42534 303.78481 0.00177305
584 520.91732 303.71956 0.001712329
584 520.16268 303.65431 0.001712329
538 519.17066 303.58904 0.001858736
572 517.95215 303.52377 0.001748252
572 516.51928 303.45849 0.001748252
572 514.88535 303.3932 0.001748252
545 513.06474 303.32791 0.001834862
532 511.07253 303.2626 0.001879699
520 508.92446 303.19729 0.001923077
524 506.63661 303.13197 0.001908397
538 504.22528 303.06665 0.001858736
561 501.70677 303.00131 0.001782531
546 499.09715 302.93597 0.001831502
507 496.41205 302.87062 0.001972387
502 493.66665 302.80527 0.001992032
497 490.8754 302.7399 0.002012072
458 488.0519 302.67454 0.002183406
519 485.20992 302.60916 0.001926782
455 482.35914 302.54378 0.002197802
460 479.51126 302.47839 0.002173913
467 476.67586 302.413 0.002141328
453 473.86136 302.3476 0.002207506
425 471.0751 302.28219 0.002352941
420 468.32323 302.21678 0.002380952
438 465.63111 302.15136 0.002283105
445 462.96218 302.08594 0.002247191
450 460.33959 302.02051 0.002222222
403 457.76536 301.95508 0.00248139
425 455.2402 301.88964 0.002352941
414 452.76432 301.8242 0.002415459
406 450.33702 301.75876 0.002463054
428 447.95693 301.6933 0.002336449
429 445.62206 301.62785 0.002331002
444 443.32997 301.56239 0.002252252
426 441.0779 301.49692 0.002347418
413 438.86285 301.43145 0.002421308
410 436.68177 301.36598 0.002439024
416 434.53167 301.3005 0.002403846
432 432.40983 301.23502 0.002314815
426 430.31356 301.16954 0.002347418
425 428.24083 301.10405 0.002352941
421 426.19009 301.03856 0.002375297
382 424.16031 300.97307 0.002617801
373 422.15104 300.90757 0.002680965
385 420.16248 300.84207 0.002597403
380 418.19839 300.77657 0.002631579
361 416.25545 300.71107 0.002770083
379 414.33606 300.64556 0.002638522
385 412.45172 300.58005 0.002597403
399 410.5893 300.51454 0.002506266
430 408.75974 300.44903 0.002325581
400 406.9662 300.38351 0.0025
423 405.21201 300.318 0.002364066
355 403.50048 300.25248 0.002816901
377 401.83486 300.18696 0.00265252
403 400.21464 300.12144 0.00248139
380 398.65004 300.05591 0.002631579
386 397.14014 299.99039 0.002590674
366 395.68732 299.92487 0.00273224
339 394.29373 299.85934 0.002949853
395 392.96117 299.79382 0.002531646
386 391.69107 299.72829 0.002590674
394 390.48455 299.66276 0.002538071
369 389.34238 299.59724 0.002710027
375 388.26496 299.53171 0.002666667
392 387.25238 299.46618 0.00255102
362 386.30437 299.40066 0.002762431
387 385.41469 299.33513 0.002583979
396 384.59376 299.26961 0.002525253
362 383.8347 299.20408 0.002762431
378 383.13602 299.13856 0.002645503
385 382.49591 299.07303 0.002597403
381 381.92984 299.00751 0.002624672
386 381.40044 298.94199 0.002590674
361 380.92262 298.87647 0.002770083
400 380.49356 298.81095 0.0025
362 380.11019 298.74543 0.002762431
409 379.76925 298.67992 0.002444988
354 379.46728 298.61441 0.002824859
393 379.20062 298.54889 0.002544529
399 378.96547 298.48339 0.002506266
368 378.75787 298.41788 0.002717391
394 378.57236 298.35237 0.002538071
363 378.40387 298.28687 0.002754821
360 378.25409 298.22137 0.002777778
400 378.11508 298.15588 0.0025
350 377.9738 298.09038 0.002857143
350 377.84351 298.02489 0.002857143
392 377.7113 297.9594 0.00255102
359 377.57316 297.89392 0.002785515
401 377.42527 297.82844 0.002493766
374 377.21235 297.76296 0.002673797
412 377.03473 297.69749 0.002427184
405 376.83772 297.63202 0.002469136
359 376.61892 297.56655 0.002785515
370 376.37643 297.50109 0.002702703
364 376.10794 297.43564 0.002747253
383 375.78888 297.37018 0.002610966
380 375.46955 297.30474 0.002631579
360 375.12467 297.23929 0.002777778
359 374.75525 297.17386 0.002785515
351 374.36294 297.10842 0.002849003
379 373.94989 297.04299 0.002638522
383 373.51878 296.97757 0.002610966
378 373.07271 296.91215 0.002645503
393 372.61517 296.84674 0.002544529
391 372.18535 296.78134 0.002557545
371 371.71652 296.71594 0.002695418
375 371.2482 296.65054 0.002666667
352 370.78466 296.58515 0.002840909
360 370.3319 296.51977 0.002777778
338 369.89241 296.45439 0.00295858
348 369.46905 296.38903 0.002873563
380 369.06747 296.32366 0.002631579
344 368.69451 296.25831 0.002906977
331 368.34838 296.19296 0.003021148
351 368.03556 296.12762 0.002849003
353 367.75952 296.06228 0.002832861
341 367.52352 295.99695 0.002932551
354 367.33061 295.93163 0.002824859
388 367.18363 295.86632 0.00257732
368 367.0852 295.80102 0.002717391
373 367.03773 295.73572 0.002680965
370 367.0425 295.67043 0.002702703
357 367.10323 295.60515 0.00280112
385 367.22078 295.53988 0.002597403
359 367.39667 295.47461 0.002785515
358 367.64805 295.40936 0.002793296
349 367.94431 295.34411 0.00286533
325 368.30214 295.27887 0.003076923
346 368.72216 295.21364 0.002890173
361 369.20482 295.14842 0.002770083
340 369.75033 295.08321 0.002941176
359 370.35872 295.01801 0.002785515
354 371.0298 294.95282 0.002824859
386 371.76326 294.88764 0.002590674
368 372.55855 294.82247 0.002717391
353 373.41506 294.7573 0.002832861
372 374.332 294.69215 0.002688172
363 375.30853 294.62701 0.002754821
379 376.34374 294.56188 0.002638522
374 377.43672 294.49675 0.002673797
348 378.58654 294.43164 0.002873563
364 379.79232 294.36654 0.002747253
364 381.05329 294.30145 0.002747253
356 382.37583 294.23637 0.002808989
343 383.74532 294.17131 0.002915452
380 385.16837 294.10625 0.002631579
366 386.64475 294.04121 0.00273224
360 388.18799 293.97617 0.002777778
361 389.77103 293.91115 0.002770083
343 391.4081 293.84614 0.002915452
364 393.09867 293.78114 0.002747253
338 394.84358 293.71616 0.00295858
381 396.64329 293.65118 0.002624672
370 398.49822 293.58622 0.002702703
374 400.41105 293.52127 0.002673797
352 402.37737 293.45634 0.002840909
388 404.39951 293.39141 0.00257732
384 406.47728 293.3265 0.002604167
414 408.61009 293.26161 0.002415459
385 410.79818 293.19672 0.002597403
392 413.038 293.13185 0.00255102
391 415.32944 293.06699 0.002557545
379 417.66909 293.00215 0.002638522
406 420.05469 292.93732 0.002463054
360 422.48361 292.8725 0.002777778
379 424.95042 292.8077 0.002638522
412 427.45137 292.74291 0.002427184
375 429.98144 292.67813 0.002666667
398 432.53509 292.61337 0.002512563
380 435.11429 292.54863 0.002631579
400 437.69668 292.4839 0.0025
412 440.27784 292.41918 0.002427184
399 442.86208 292.35448 0.002506266
413 445.43648 292.28979 0.002421308
405 447.99375 292.22512 0.002469136
431 450.52662 292.16046 0.002320186
413 453.03274 292.09582 0.002421308
401 455.49549 292.0312 0.002493766
427 457.91293 291.96659 0.00234192
425 460.27858 291.902 0.002352941
440 462.58631 291.83742 0.002272727
423 464.8303 291.77286 0.002364066
431 467.00507 291.70831 0.002320186
451 469.10534 291.64378 0.002217295
449 471.12611 291.57927 0.002227171
435 473.06247 291.51477 0.002298851
430 474.90953 291.4503 0.002325581
474 476.66237 291.38583 0.002109705
472 478.31589 291.32139 0.002118644
489 479.86477 291.25696 0.00204499
494 481.30331 291.19255 0.002024291
499 482.62553 291.12816 0.002004008
502 483.82503 291.06378 0.001992032
482 484.89494 290.99942 0.002074689
512 485.82821 290.93508 0.001953125
518 486.6174 290.87076 0.001930502
569 487.25496 290.80645 0.001757469
490 487.73333 290.74217 0.002040816
549 488.04512 290.6779 0.001821494
539 488.18331 290.61365 0.001855288
519 488.14142 290.54942 0.001926782
575 487.91376 290.48521 0.00173913
572 487.49569 290.42102 0.001748252
544 486.88372 290.35684 0.001838235
547 486.07573 290.29269 0.001828154
547 485.07112 290.22855 0.001828154
540 483.87091 290.16443 0.001851852
530 482.44308 290.10034 0.001886792
514 480.86141 290.03626 0.001945525
538 479.06805 289.9722 0.001858736
539 477.12863 289.90816 0.001855288
502 475.02333 289.84415 0.001992032
554 472.76226 289.78015 0.001805054
544 470.35749 289.71617 0.001838235
535 467.82 289.65222 0.001869159
537 465.16355 289.58828 0.001862197
510 462.41052 289.52437 0.001960784
463 459.55733 289.46047 0.002159827
478 456.62695 289.3966 0.00209205
515 453.63356 289.33275 0.001941748
488 450.59131 289.26891 0.00204918
460 447.51407 289.2051 0.002173913
486 444.41545 289.14132 0.002057613
459 441.30865 289.07755 0.002178649
431 438.20641 289.0138 0.002320186
460 435.121 288.95008 0.002173913
459 432.06413 288.88638 0.002178649
431 429.04692 288.8227 0.002320186
459 426.07995 288.75904 0.002178649
440 423.17317 288.69541 0.002272727
435 420.33599 288.6318 0.002298851
457 417.57613 288.56821 0.002188184
435 414.90383 288.50464 0.002298851
405 412.32567 288.4411 0.002469136
433 409.84867 288.37758 0.002309469
409 407.47949 288.31408 0.002444988
407 405.2236 288.25061 0.002457002
421 403.08657 288.18716 0.002375297
406 401.07323 288.12373 0.002463054
412 399.18788 288.06033 0.002427184
397 397.43435 287.99695 0.002518892
412 395.81594 287.93359 0.002427184
390 394.33551 287.87026 0.002564103
411 392.99545 287.80695 0.00243309
386 391.79765 287.74367 0.002590674
391 390.74363 287.68041 0.002557545
392 389.83445 287.61718 0.00255102
392 389.07073 287.55397 0.00255102
409 388.45269 287.49078 0.002444988
386 387.98019 287.42763 0.002590674
373 387.65264 287.36449 0.002680965
394 387.46909 287.30138 0.002538071
366 387.4282 287.2383 0.00273224
374 387.52825 287.17524 0.002673797
361 387.76717 287.11221 0.002770083
418 388.14248 287.0492 0.002392344
406 388.65135 286.98622 0.002463054
388 389.29056 286.92326 0.00257732
401 390.05657 286.86033 0.002493766
365 390.94537 286.79743 0.002739726
376 391.95267 286.73455 0.002659574
408 393.07371 286.6717 0.00245098
398 394.30341 286.60888 0.002512563
375 395.63584 286.54608 0.002666667
403 397.06593 286.48331 0.00248139
429 398.58698 286.42057 0.002331002
394 400.19233 286.35785 0.002538071
397 401.83514 286.29517 0.002518892
382 403.58909 286.2325 0.002617801
392 405.40365 286.16987 0.00255102
425 407.27223 286.10727 0.002352941
421 409.18647 286.04469 0.002375297
434 411.13785 285.98214 0.002304147
395 413.11791 285.91961 0.002531646
431 415.11734 285.85712 0.002320186
431 417.13413 285.79465 0.002320186
436 419.14665 285.73221 0.002293578
434 421.15287 285.66981 0.002304147
457 423.14466 285.60742 0.002188184
451 425.11422 285.54507 0.002217295
471 427.05431 285.48275 0.002123142
466 428.95826 285.42045 0.002145923
480 430.82011 285.35819 0.002083333
437 432.6346 285.29595 0.00228833
449 434.39725 285.23375 0.002227171
463 436.10437 285.17157 0.002159827
476 437.75306 285.10942 0.00210084
446 439.29327 285.0473 0.002242152
453 440.81933 284.98522 0.002207506
451 442.2824 284.92316 0.002217295
492 443.68204 284.86113 0.00203252
453 445.01825 284.79913 0.002207506
449 446.29129 284.73716 0.002227171
457 447.50152 284.67523 0.002188184
471 448.64938 284.61332 0.002123142
488 449.73519 284.55145 0.00204918
490 450.75909 284.4896 0.002040816
470 451.72093 284.42779 0.00212766
449 452.62028 284.366 0.002227171
455 453.45633 284.30425 0.002197802
478 454.22787 284.24253 0.00209205
496 454.93333 284.18084 0.002016129
493 455.57081 284.11919 0.002028398
435 456.13811 284.05756 0.002298851
441 456.63277 283.99597 0.002267574
460 457.05226 283.9344 0.002173913
456 457.3708 283.87287 0.002192982
506 457.61166 283.81138 0.001976285
503 457.79019 283.74991 0.001988072
485 457.88367 283.68848 0.002061856
445 457.85706 283.62708 0.002247191
459 457.77518 283.56571 0.002178649
487 457.59309 283.50437 0.002053388
469 457.33147 283.44307 0.002132196
493 456.97952 283.3818 0.002028398
473 456.53755 283.32056 0.002114165
474 456.02707 283.25936 0.002109705
484 455.40793 283.19819 0.002066116
493 454.70241 283.13705 0.002028398
466 453.91434 283.07595 0.002145923
480 453.04218 283.01488 0.002083333
437 452.09031 282.95385 0.00228833
514 451.06141 282.89285 0.001945525
481 449.95832 282.83188 0.002079002
473 448.78402 282.77094 0.002114165
460 447.5415 282.71005 0.002173913
494 446.23393 282.64918 0.002024291
440 444.86444 282.58835 0.002272727
468 443.4375 282.52756 0.002136752
489 441.97312 282.4668 0.00204499
447 440.43721 282.40607 0.002237136
488 438.8523 282.34538 0.00204918
493 437.22168 282.28472 0.002028398
499 435.54864 282.2241 0.002004008
455 433.83653 282.16352 0.002197802
429 432.08867 282.10297 0.002331002
459 430.30847 282.04246 0.002178649
479 428.53162 281.98198 0.002087683
444 426.69716 281.92153 0.002252252
438 424.84256 281.86113 0.002283105
445 422.96784 281.80076 0.002247191
437 421.07907 281.74042 0.00228833
432 419.17847 281.68013 0.002314815
407 417.27037 281.61986 0.002457002
445 415.35839 281.55964 0.002247191
424 413.44614 281.49945 0.002358491
416 411.5371 281.4393 0.002403846
404 409.63471 281.37918 0.002475248
433 407.74534 281.31911 0.002309469
395 405.83506 281.25907 0.002531646
366 403.97172 281.19906 0.00273224
428 402.12704 281.1391 0.002336449
405 400.30352 281.07917 0.002469136
398 398.5033 281.01927 0.002512563
409 396.72831 280.95942 0.002444988
393 394.9802 280.89961 0.002544529
398 393.26032 280.83983 0.002512563
387 391.56979 280.78009 0.002583979
417 389.90952 280.72038 0.002398082
411 388.2802 280.66072 0.00243309
403 386.66347 280.6011 0.00248139
424 385.09758 280.54151 0.002358491
381 383.56394 280.48196 0.002624672
409 382.0629 280.42245 0.002444988
356 380.59506 280.36298 0.002808989
394 379.16799 280.30355 0.002538071
401 377.76711 280.24415 0.002493766
396 376.40074 280.1848 0.002525253
399 375.06967 280.12549 0.002506266
415 373.77489 280.06621 0.002409639
383 372.51754 280.00697 0.002610966
348 371.29896 279.94778 0.002873563
399 370.12064 279.88862 0.002506266
392 368.98425 279.8295 0.00255102
375 367.8916 279.77043 0.002666667
385 366.84459 279.71139 0.002597403
364 365.84526 279.65239 0.002747253
374 364.89567 279.59343 0.002673797
421 363.99795 279.53452 0.002375297
368 363.15424 279.47564 0.002717391
405 362.36668 279.41681 0.002469136
378 361.63739 279.35801 0.002645503
359 360.96846 279.29926 0.002785515
390 360.36191 279.24054 0.002564103
363 359.8197 279.18187 0.002754821
375 359.34375 279.12324 0.002666667
368 358.93588 279.06465 0.002717391
385 358.59782 279.0061 0.002597403
350 358.33127 278.94759 0.002857143
370 358.13782 278.88913 0.002702703
372 358.01899 278.8307 0.002688172
371 357.97625 278.77232 0.002695418
402 358.01098 278.71398 0.002487562
381 358.12452 278.65568 0.002624672
358 358.31818 278.59743 0.002793296
360 358.59319 278.53921 0.002777778
369 358.95077 278.48104 0.002710027
356 359.39209 278.42291 0.002808989
362 359.91832 278.36482 0.002762431
398 360.53595 278.30678 0.002512563
359 361.23631 278.24878 0.002785515
367 362.02389 278.19082 0.002724796
413 362.90069 278.1329 0.002421308
348 363.86768 278.07503 0.002873563
362 364.92577 278.0172 0.002762431
377 366.0758 277.95941 0.00265252
376 367.31854 277.90167 0.002659574
384 368.65446 277.84397 0.002604167
358 370.08411 277.78631 0.002793296
356 371.60773 277.7287 0.002808989
363 373.22539 277.67113 0.002754821
359 374.93694 277.6136 0.002785515
394 376.74195 277.55612 0.002538071
379 378.63971 277.49868 0.002638522
362 380.62922 277.44129 0.002762431
382 382.70911 277.38394 0.002617801
407 384.87768 277.32664 0.002457002
356 387.13282 277.26938 0.002808989
350 389.47204 277.21216 0.002857143
381 391.8924 277.15499 0.002624672
377 394.39051 277.09786 0.00265252
399 396.96247 277.04078 0.002506266
361 399.60409 276.98375 0.002770083
407 402.31046 276.92676 0.002457002
397 405.07626 276.86981 0.002518892
410 407.88948 276.81291 0.002439024
404 410.75766 276.75605 0.002475248
389 413.66452 276.69924 0.002570694
409 416.60424 276.64248 0.002444988
408 419.56888 276.58576 0.00245098
387 422.55003 276.52909 0.002583979
395 425.5388 276.47246 0.002531646
423 428.52591 276.41588 0.002364066
418 431.50165 276.35934 0.002392344
409 434.45605 276.30286 0.002444988
395 437.3789 276.24641 0.002531646
406 440.25981 276.19002 0.002463054
424 443.08837 276.13367 0.002358491
426 445.85415 276.07737 0.002347418
431 448.54698 276.02111 0.002320186
430 451.15693 275.9649 0.002325581
378 453.67445 275.90874 0.002645503
378 456.0906 275.85262 0.002645503
416 458.39705 275.79655 0.002403846
401 460.5863 275.74053 0.002493766
390 462.65175 275.68456 0.002564103
434 464.58777 275.62863 0.002304147
465 466.39873 275.57275 0.002150538
403 468.06349 275.51692 0.00248139
403 469.58871 275.46114 0.00248139
437 470.97343 275.4054 0.00228833
417 472.21778 275.34971 0.002398082
433 473.32312 275.29407 0.002309469
419 474.29185 275.23848 0.002386635
404 475.13844 275.18293 0.002475248
432 475.84684 275.12744 0.002314815
446 476.43626 275.07199 0.002242152
427 476.90106 275.01659 0.00234192
428 477.25395 274.96124 0.002336449
438 477.50143 274.90594 0.002283105
430 477.65019 274.85068 0.002325581
424 477.71371 274.79548 0.002358491
450 477.6852 274.74032 0.002222222
445 477.57779 274.68521 0.002247191
432 477.39762 274.63016 0.002314815
417 477.15039 274.57515 0.002398082
464 476.84135 274.52019 0.002155172
388 476.47529 274.46528 0.00257732
412 476.0564 274.41042 0.002427184
422 475.5884 274.35561 0.002369668
445 475.07448 274.30085 0.002247191
400 474.51733 274.24613 0.0025
405 473.91923 274.19147 0.002469136
421 473.28203 274.13686 0.002375297
446 472.60726 274.0823 0.002242152
421 471.89618 274.02779 0.002375297
406 471.14978 273.97332 0.002463054
450 470.36888 273.91891 0.002222222
457 469.55413 273.86455 0.002188184
429 468.71143 273.81024 0.002331002
433 467.83048 273.75598 0.002309469
410 466.91695 273.70177 0.002439024
436 465.97107 273.64761 0.002293578
427 464.99291 273.59351 0.00234192
446 463.98244 273.53945 0.002242152
447 462.93948 273.48544 0.002237136
426 461.8637 273.43149 0.002347418
408 460.75454 273.37758 0.00245098
398 459.61134 273.32373 0.002512563
400 458.43318 273.26993 0.0025
434 457.219 273.21618 0.002304147
430 455.96821 273.16248 0.002325581
441 454.6781 273.10884 0.002267574
417 453.35954 273.05524 0.002398082
391 451.98472 273.0017 0.002557545
417 450.56911 272.94821 0.002398082
403 449.09805 272.89477 0.00248139
403 447.59021 272.84138 0.00248139
405 446.03368 272.78805 0.002469136
399 444.42681 272.73476 0.002506266
404 442.76808 272.68153 0.002475248
415 441.04941 272.62836 0.002409639
374 439.28293 272.57523 0.002673797
377 437.45309 272.52216 0.00265252
423 435.57483 272.46914 0.002364066
430 433.6398 272.41617 0.002325581
372 431.64783 272.36325 0.002688172
406 429.59914 272.31039 0.002463054
387 427.51457 272.25758 0.002583979
385 425.35469 272.20483 0.002597403
428 423.14122 272.15212 0.002336449
385 420.87614 272.09948 0.002597403
411 418.56191 272.04688 0.00243309
390 416.20022 271.99434 0.002564103
356 413.79705 271.94185 0.002808989
408 411.35502 271.88941 0.00245098
365 408.89118 271.83703 0.002739726
340 406.38478 271.7847 0.002941176
363 403.85356 271.73243 0.002754821
415 401.30612 271.68021 0.002409639
394 398.74133 271.62804 0.002538071
377 396.15119 271.57593 0.00265252
387 393.57541 271.52387 0.002583979
427 391.02995 271.47186 0.00234192
422 388.46618 271.41991 0.002369668
396 385.91691 271.36802 0.002525253
370 383.3876 271.31618 0.002702703
353 380.88362 271.26439 0.002832861
359 378.41006 271.21266 0.002785515
358 375.9718 271.16098 0.002793296
373 373.57078 271.10936 0.002680965
352 371.21663 271.05779 0.002840909
364 368.91069 271.00628 0.002747253
376 366.65665 270.95482 0.002659574
402 364.4579 270.90342 0.002487562
405 362.31747 270.85207 0.002469136
341 360.23811 270.80078 0.002932551
368 358.22222 270.74954 0.002717391
364 356.2719 270.69836 0.002747253
339 354.38893 270.64724 0.002949853
353 352.5748 270.59617 0.002832861
340 350.83069 270.54515 0.002941176
365 349.15752 270.49419 0.002739726
342 347.55589 270.44329 0.002923977
358 346.0262 270.39244 0.002793296
380 344.56852 270.34165 0.002631579
358 343.18271 270.29092 0.002793296
345 341.86837 270.24024 0.002898551
375 340.62486 270.18961 0.002666667
330 339.45134 270.13905 0.003030303
333 338.34671 270.08854 0.003003003
331 337.30968 270.03808 0.003021148
342 336.33875 269.98769 0.002923977
352 335.43222 269.93734 0.002840909
338 334.58818 269.88706 0.00295858
330 333.80458 269.83683 0.003030303
347 333.07914 269.78666 0.002881844
348 332.40945 269.73655 0.002873563
356 331.79296 269.68649 0.002808989
358 331.22695 269.63649 0.002793296
349 330.7086 269.58655 0.00286533
341 330.23498 269.53666 0.002932551
330 329.80307 269.48683 0.003030303
349 329.4098 269.43706 0.00286533
331 329.05206 269.38735 0.003021148
339 328.72673 269.33769 0.002949853
347 328.42454 269.28809 0.002881844
293 328.15483 269.23855 0.003412969
305 327.89171 269.18906 0.003278689
356 327.66584 269.13964 0.002808989
387 327.46285 269.09027 0.002583979
359 327.2713 269.04096 0.002785515
327 327.09145 268.9917 0.003058104
328 326.92243 268.94251 0.00304878
337 326.76238 268.89337 0.002967359
316 326.60965 268.84429 0.003164557
333 326.46287 268.79527 0.003003003
372 326.32089 268.74631 0.002688172
349 326.18277 268.6974 0.00286533
355 326.04783 268.64856 0.002816901
352 325.91556 268.59977 0.002840909
334 325.78563 268.55104 0.002994012
321 325.65784 268.50237 0.003115265
320 325.53215 268.45376 0.003125
340 325.40856 268.40521 0.002941176
347 325.28717 268.35671 0.002881844
361 325.16811 268.30828 0.002770083
313 325.05153 268.2599 0.003194888
336 324.93755 268.21158 0.00297619
317 324.82644 268.16333 0.003154574
329 324.71307 268.11513 0.003039514
314 324.60754 268.06699 0.003184713
357 324.5138 268.01891 0.00280112
353 324.4171 267.97088 0.002832861
339 324.33154 267.92292 0.002949853
353 324.23745 267.87502 0.002832861
342 324.05982 267.82718 0.002923977
357 323.97129 267.77939 0.00280112
349 323.8854 267.73167 0.00286533
345 323.80223 267.684 0.002898551
335 323.74075 267.6364 0.002985075
348 323.66349 267.58885 0.002873563
335 323.58959 267.54137 0.002985075
354 323.51952 267.49394 0.002824859
343 323.45388 267.44658 0.002915452
343 323.3934 267.39927 0.002915452
359 323.33897 267.35203 0.002785515
339 323.29164 267.30484 0.002949853
348 323.25259 267.25772 0.002873563
330 323.2231 267.21065 0.003030303
372 323.2046 267.16365 0.002688172
342 323.19859 267.11671 0.002923977
353 323.21583 267.06982 0.002832861
310 323.24097 267.023 0.003225806
342 323.2821 266.97624 0.002923977
301 323.34223 266.92954 0.003322259
339 323.42298 266.8829 0.002949853
342 323.52595 266.83632 0.002923977
318 323.61496 266.7898 0.003144654
347 323.76693 266.74334 0.002881844
345 323.94663 266.69694 0.002898551
351 324.1646 266.65061 0.002849003
346 324.39985 266.60433 0.002890173
334 324.66506 266.55812 0.002994012
317 324.96112 266.51196 0.003154574
368 325.28882 266.46587 0.002717391
337 325.64883 266.41984 0.002967359
335 326.04174 266.37387 0.002985075
307 326.468 266.32796 0.003257329
345 326.928 266.28212 0.002898551
336 327.42207 266.23633 0.00297619
332 327.95044 266.19061 0.003012048
353 328.51332 266.14495 0.002832861
337 329.1109 266.09935 0.002967359
360 329.74331 266.05381 0.002777778
327 330.41072 266.00833 0.003058104
340 331.11325 265.96292 0.002941176
356 331.85107 265.91757 0.002808989
319 332.62433 265.87228 0.003134796
351 333.43319 265.82705 0.002849003
332 334.27785 265.78188 0.003012048
334 335.12389 265.73678 0.002994012
340 336.04131 265.69173 0.002941176
348 336.98764 265.64675 0.002873563
366 337.97702 265.60183 0.00273224
328 339.00274 265.55698 0.00304878
355 340.06474 265.51218 0.002816901
350 341.16285 265.46745 0.002857143
340 342.29678 265.42278 0.002941176
327 343.47552 265.37818 0.003058104
351 344.67962 265.33363 0.002849003
380 345.91773 265.28915 0.002631579
315 347.18888 265.24473 0.003174603
331 348.4919 265.20038 0.003021148
335 349.82539 265.15609 0.002985075
369 351.1878 265.11186 0.002710027
396 352.59241 265.06769 0.002525253
351 354.00701 265.02358 0.002849003
349 355.44442 264.97954 0.00286533
339 356.90223 264.93556 0.002949853
350 358.3778 264.89165 0.002857143
385 359.87372 264.84779 0.002597403
356 361.37617 264.804 0.002808989
322 362.88742 264.76028 0.00310559
406 364.40421 264.71662 0.002463054
357 365.92316 264.67302 0.00280112
321 367.44084 264.62948 0.003115265
352 368.95375 264.58601 0.002840909
342 370.45839 264.5426 0.002923977
397 371.95126 264.49925 0.002518892
387 373.42896 264.45597 0.002583979
359 374.88321 264.41275 0.002785515
377 376.32068 264.36959 0.00265252
377 377.73338 264.3265 0.00265252
374 379.11843 264.28347 0.002673797
393 380.47317 264.2405 0.002544529
393 381.79512 264.1976 0.002544529
379 383.08206 264.15477 0.002638522
356 384.33196 264.11199 0.002808989
363 385.54299 264.06928 0.002754821
412 386.71351 264.02664 0.002427184
357 387.84237 263.98405 0.00280112
361 388.92749 263.94154 0.002770083
394 389.96793 263.89908 0.002538071
367 390.96241 263.85669 0.002724796
367 391.90966 263.81437 0.002724796
357 392.80834 263.7721 0.00280112
367 393.65704 263.72991 0.002724796
374 394.45417 263.68777 0.002673797
355 395.19803 263.6457 0.002816901
370 395.88675 263.6037 0.002702703
368 396.49326 263.56176 0.002717391
383 397.06522 263.51988 0.002610966
383 397.55056 263.47807 0.002610966
357 397.99585 263.43633 0.00280112
385 398.37365 263.39464 0.002597403
396 398.70792 263.35302 0.002525253
367 398.94191 263.31147 0.002724796
409 399.09933 263.26998 0.002444988
382 399.17715 263.22856 0.002617801
358 399.17234 263.1872 0.002793296
371 399.08202 263.1459 0.002695418
345 398.90346 263.10467 0.002898551
395 398.63416 263.06351 0.002531646
367 398.27302 263.02241 0.002724796
362 397.81598 262.98137 0.002762431
397 397.26268 262.9404 0.002518892
346 396.61214 262.8995 0.002890173
333 395.86389 262.85865 0.003003003
377 395.01802 262.81788 0.00265252
355 394.07522 262.77717 0.002816901
358 393.03683 262.73652 0.002793296
335 391.90603 262.69594 0.002985075
373 390.68309 262.65543 0.002680965
365 389.37252 262.61498 0.002739726
383 387.97832 262.57459 0.002610966
387 386.50507 262.53427 0.002583979
358 384.95796 262.49402 0.002793296
349 383.3427 262.45383 0.00286533
399 381.66546 262.4137 0.002506266
371 379.93476 262.37364 0.002695418
365 378.15362 262.33365 0.002739726
346 376.33109 262.29372 0.002890173
368 374.47449 262.25386 0.002717391
339 372.59116 262.21406 0.002949853
337 370.68869 262.17433 0.002967359
372 368.77404 262.13466 0.002688172
366 366.8546 262.09506 0.00273224
363 364.9374 262.05553 0.002754821
364 363.02926 262.01606 0.002747253
337 361.12534 261.97665 0.002967359
314 359.2547 261.93732 0.003184713
306 357.41187 261.89804 0.003267974
344 355.6025 261.85884 0.002906977
336 353.83185 261.8197 0.00297619
343 352.10489 261.78062 0.002915452
370 350.42619 261.74161 0.002702703
366 348.79998 261.70267 0.00273224
371 347.23017 261.66379 0.002695418
399 345.72031 261.62498 0.002506266
337 344.2736 261.58623 0.002967359
330 342.89296 261.54755 0.003030303
329 341.58094 261.50894 0.003039514
378 340.33982 261.47039 0.002645503
366 339.17152 261.43191 0.00273224
335 338.07774 261.39349 0.002985075
349 337.05982 261.35514 0.00286533
336 336.11886 261.31686 0.00297619
331 335.25567 261.27864 0.003021148
348 334.4708 261.24049 0.002873563
320 333.76451 261.2024 0.003125
344 333.13683 261.16438 0.002906977
345 332.58751 261.12643 0.002898551
315 332.11609 261.08854 0.003174603
350 331.72181 261.05072 0.002857143
310 331.40372 261.01297 0.003225806
321 331.16059 260.97528 0.003115265
337 330.99097 260.93766 0.002967359
363 330.89319 260.9001 0.002754821
352 330.86533 260.86261 0.002840909
329 330.90779 260.82519 0.003039514
340 331.00677 260.78783 0.002941176
342 331.17501 260.75054 0.002923977
355 331.40327 260.71332 0.002816901
325 331.68853 260.67616 0.003076923
328 332.02758 260.63907 0.00304878
390 332.41698 260.60205 0.002564103
344 332.85312 260.56509 0.002906977
337 333.33218 260.5282 0.002967359
342 333.85018 260.49137 0.002923977
339 334.40298 260.45461 0.002949853
368 334.98628 260.41792 0.002717391
362 335.59568 260.38129 0.002762431
372 336.22665 260.34474 0.002688172
330 336.87458 260.30824 0.003030303
344 337.53481 260.27182 0.002906977
368 338.20284 260.23546 0.002717391
368 338.87362 260.19917 0.002717391
359 339.5427 260.16294 0.002785515
355 340.20652 260.12678 0.002816901
363 340.85864 260.09069 0.002754821
381 341.47824 260.05466 0.002624672
384 342.09637 260.0187 0.002604167
384 342.69161 259.98281 0.002604167
367 343.26037 259.94699 0.002724796
387 343.79945 259.91123 0.002583979
375 344.30594 259.87554 0.002666667
338 344.77733 259.83991 0.00295858
361 345.21154 259.80435 0.002770083
397 345.6069 259.76886 0.002518892
387 345.96217 259.73343 0.002583979
359 346.23949 259.69808 0.002785515
373 346.51214 259.66279 0.002680965
349 346.74426 259.62756 0.00286533
379 346.94816 259.5924 0.002638522
363 347.09988 259.55731 0.002754821
348 347.21299 259.52229 0.002873563
361 347.28899 259.48733 0.002770083
361 347.32108 259.45244 0.002770083
345 347.32828 259.41762 0.002898551
359 347.30408 259.38286 0.002785515
382 347.25063 259.34817 0.002617801
369 347.17011 259.31355 0.002710027
363 347.06471 259.27899 0.002754821
337 346.93653 259.24451 0.002967359
355 346.80344 259.21008 0.002816901
369 346.63476 259.17573 0.002710027
379 346.44991 259.14144 0.002638522
349 346.24949 259.10722 0.00286533
322 346.0349 259.07307 0.00310559
385 345.80733 259.03898 0.002597403
339 345.56777 259.00496 0.002949853
358 345.31704 258.97101 0.002793296
357 345.05579 258.93712 0.00280112
342 344.78454 258.9033 0.002923977
358 344.50366 258.86955 0.002793296
319 344.21344 258.83586 0.003134796
359 343.91412 258.80225 0.002785515
338 343.60589 258.76869 0.00295858
320 343.28894 258.73521 0.003125
330 342.96352 258.70179 0.003030303
347 342.6299 258.66844 0.002881844
364 342.28291 258.63516 0.002747253
352 341.93416 258.60194 0.002840909
347 341.57869 258.5688 0.002881844
380 341.21723 258.53571 0.002631579
347 340.85063 258.5027 0.002881844
370 340.47992 258.46975 0.002702703
334 340.10618 258.43687 0.002994012
344 339.72455 258.40406 0.002906977
329 339.3485 258.37131 0.003039514
330 338.97331 258.33863 0.003030303
320 338.60037 258.30602 0.003125
335 338.22877 258.27347 0.002985075
343 337.86455 258.24099 0.002915452
333 337.50676 258.20858 0.003003003
324 337.15672 258.17623 0.00308642
354 336.81567 258.14396 0.002824859
355 336.49439 258.11175 0.002816901
309 336.17476 258.0796 0.003236246
348 335.86744 258.04753 0.002873563
354 335.57319 258.01552 0.002824859
317 335.30979 257.98357 0.003154574
342 335.04426 257.9517 0.002923977
324 334.79415 257.91989 0.00308642
323 334.56336 257.88815 0.003095975
357 334.34598 257.85647 0.00280112
357 334.14585 257.82486 0.00280112
351 333.96354 257.79332 0.002849003
361 333.79961 257.76185 0.002770083
343 333.65463 257.73044 0.002915452
368 333.53719 257.6991 0.002717391
365 333.43187 257.66783 0.002739726
364 333.34724 257.63662 0.002747253
344 333.28388 257.60548 0.002906977
374 333.24235 257.57441 0.002673797
345 333.22321 257.54341 0.002898551
360 333.22696 257.51247 0.002777778
313 333.25403 257.48159 0.003194888
327 333.30484 257.45079 0.003058104
348 333.37533 257.42005 0.002873563
327 333.47446 257.38938 0.003058104
347 333.59802 257.35878 0.002881844
347 333.74602 257.32824 0.002881844
333 333.91843 257.29777 0.003003003
321 334.11508 257.26737 0.003115265
358 334.33575 257.23703 0.002793296
359 334.5801 257.20676 0.002785515
364 334.84778 257.17656 0.002747253
351 335.13835 257.14642 0.002849003
362 335.45138 257.11635 0.002762431
321 335.78643 257.08635 0.003115265
351 336.14305 257.05641 0.002849003
351 336.5217 257.02654 0.002849003
365 336.92038 256.99674 0.002739726
368 337.33966 256.967 0.002717391
337 337.77939 256.93733 0.002967359
350 338.23946 256.90773 0.002857143
371 338.71991 256.87819 0.002695418
356 339.22084 256.84873 0.002808989
342 339.74327 256.81932 0.002923977
372 340.28583 256.78999 0.002688172
364 340.86505 256.76072 0.002747253
358 341.45052 256.73151 0.002793296
366 342.05797 256.70238 0.00273224
337 342.6877 256.67331 0.002967359
370 343.33998 256.64431 0.002702703
372 344.01498 256.61537 0.002688172
387 344.71279 256.5865 0.002583979
375 345.43329 256.5577 0.002666667
345 346.17622 256.52896 0.002898551
366 346.94152 256.50029 0.00273224
343 347.72772 256.47168 0.002915452
383 348.53428 256.44315 0.002610966
378 349.36003 256.41468 0.002645503
377 350.20352 256.38627 0.00265252
369 351.06307 256.35793 0.002710027
378 351.9367 256.32966 0.002645503
375 352.82216 256.30145 0.002666667
365 353.7293 256.27331 0.002739726
354 354.63084 256.24524 0.002824859
342 355.53614 256.21723 0.002923977
349 356.42507 256.18929 0.00286533
345 357.34947 256.16142 0.002898551
344 358.24716 256.13361 0.002906977
385 359.13566 256.10587 0.002597403
383 360.0116 256.07819 0.002610966
352 360.87167 256.05058 0.002840909
390 361.71268 256.02304 0.002564103
352 362.53161 255.99556 0.002840909
350 363.32563 255.96815 0.002857143
386 364.09219 255.94081 0.002590674
361 364.82904 255.91353 0.002770083
396 365.53107 255.88631 0.002525253
376 366.20316 255.85917 0.002659574
367 366.84095 255.83208 0.002724796
368 367.44365 255.80507 0.002717391
364 368.0109 255.77812 0.002747253
343 368.54265 255.75124 0.002915452
341 369.03926 255.72442 0.002932551
363 369.50136 255.69767 0.002754821
385 369.92986 255.67098 0.002597403
367 370.32592 255.64436 0.002724796
366 370.69086 255.6178 0.00273224
377 371.02615 255.59132 0.00265252
342 371.33335 255.56489 0.002923977
367 371.61408 255.53853 0.002724796
367 371.86995 255.51224 0.002724796
371 372.10258 255.48602 0.002695418
373 372.31352 255.45986 0.002680965
386 372.50423 255.43376 0.002590674
359 372.67611 255.40773 0.002785515
357 372.83043 255.38177 0.00280112
363 372.97138 255.35587 0.002754821
401 373.09394 255.33003 0.002493766
357 373.20206 255.30427 0.00280112
342 373.30381 255.27856 0.002923977
368 373.38529 255.25293 0.002717391
367 373.45431 255.22736 0.002724796
386 373.5202 255.20185 0.002590674
376 373.56535 255.17641 0.002659574
366 373.59881 255.15103 0.00273224
381 373.61809 255.12572 0.002624672
383 373.62799 255.10048 0.002610966
394 373.60218 255.07529 0.002538071
354 373.58728 255.05018 0.002824859
358 373.55914 255.02513 0.002793296
362 373.51698 255.00014 0.002762431
349 373.45992 254.97522 0.00286533
357 373.38697 254.95037 0.00280112
373 373.29704 254.92558 0.002680965
369 373.18891 254.90085 0.002710027
333 373.06135 254.87619 0.003003003
384 372.91312 254.8516 0.002604167
384 372.74294 254.82706 0.002604167
354 372.54957 254.8026 0.002824859
354 372.33185 254.7782 0.002824859
354 372.08868 254.75386 0.002824859
377 371.81949 254.72959 0.00265252
351 371.52261 254.70538 0.002849003
353 371.19772 254.68124 0.002832861
355 370.84424 254.65716 0.002816901
369 370.46172 254.63314 0.002710027
379 370.04987 254.60919 0.002638522
345 369.60847 254.58531 0.002898551
331 369.13746 254.56149 0.003021148
342 368.63683 254.53773 0.002923977
357 368.10659 254.51404 0.00280112
335 367.54684 254.49041 0.002985075
373 366.95764 254.46685 0.002680965
360 366.33906 254.44335 0.002777778
401 365.69108 254.41991 0.002493766
372 365.02538 254.39654 0.002688172
356 364.31488 254.37323 0.002808989
373 363.57811 254.34999 0.002680965
359 362.81126 254.32681 0.002785515
367 362.01393 254.3037 0.002724796
330 361.1857 254.28064 0.003030303
343 360.33074 254.25766 0.002915452
365 359.43928 254.23473 0.002739726
370 358.51545 254.21187 0.002702703
349 357.55884 254.18908 0.00286533
332 356.56907 254.16634 0.003012048
337 355.54592 254.14367 0.002967359
335 354.4893 254.12107 0.002985075
375 353.39933 254.09853 0.002666667
350 352.27632 254.07605 0.002857143
371 351.12086 254.05363 0.002695418
358 349.9338 254.03128 0.002793296
355 348.71624 254.009 0.002816901
337 347.46958 253.98677 0.002967359
375 346.19551 253.96461 0.002666667
331 344.90706 253.94251 0.003021148
337 343.58427 253.92048 0.002967359
345 342.24062 253.8985 0.002898551
333 340.87874 253.87659 0.003003003
327 339.5014 253.85475 0.003058104
349 338.1115 253.83297 0.00286533
346 336.71205 253.81125 0.002890173
343 335.30608 253.78959 0.002915452
334 333.89665 253.768 0.002994012
321 332.48679 253.74646 0.003115265
338 331.07949 253.725 0.00295858
355 329.67762 253.70359 0.002816901
334 328.28398 253.68225 0.002994012
345 326.90121 253.66097 0.002898551
334 325.5318 253.63975 0.002994012
332 324.17807 253.61859 0.003012048
336 322.84216 253.5975 0.00297619
344 321.52603 253.57647 0.002906977
300 320.23144 253.5555 0.003333333
331 318.95788 253.5346 0.003021148
350 317.71083 253.51375 0.002857143
349 316.48755 253.49297 0.00286533
357 315.29269 253.47225 0.00280112
323 314.12518 253.45159 0.003095975
310 312.9856 253.431 0.003225806
317 311.87438 253.41047 0.003154574
316 310.79174 253.39 0.003164557
321 309.73775 253.36959 0.003115265
317 308.71233 253.34924 0.003154574
308 307.72805 253.32895 0.003246753
314 306.759 253.30873 0.003184713
321 305.81745 253.28857 0.003115265
331 304.90283 253.26847 0.003021148
326 304.01446 253.24843 0.003067485
330 303.15157 253.22845 0.003030303
330 302.31547 253.20853 0.003030303
321 301.50107 253.18868 0.003115265
294 300.70958 253.16889 0.003401361
311 299.94011 253.14915 0.003215434
303 299.19176 253.12948 0.00330033
298 298.46366 253.10987 0.003355705
295 297.75499 253.09033 0.003389831
319 297.06496 253.07084 0.003134796
321 296.39288 253.05141 0.003115265
322 295.7381 253.03205 0.00310559
333 295.10009 253.01274 0.003003003
289 294.47841 252.9935 0.003460208
328 293.87268 252.97431 0.00304878
326 293.28267 252.95519 0.003067485
316 292.70819 252.93613 0.003164557
326 292.14918 252.91713 0.003067485
323 291.60566 252.89819 0.003095975
288 291.07771 252.87931 0.003472222
312 290.56548 252.86049 0.003205128
298 290.0692 252.84173 0.003355705
318 289.5907 252.82303 0.003144654
318 289.12713 252.80439 0.003144654
294 288.69137 252.78581 0.003401361
309 288.26186 252.7673 0.003236246
308 287.84989 252.74884 0.003246753
303 287.45585 252.73044 0.00330033
288 287.08011 252.7121 0.003472222
317 286.72301 252.69382 0.003154574
290 286.38493 252.6756 0.003448276
273 286.06619 252.65744 0.003663004
304 285.76713 252.63934 0.003289474
299 285.48805 252.62131 0.003344482
288 285.22925 252.60332 0.003472222
316 284.991 252.5854 0.003164557
269 284.77358 252.56754 0.003717472
284 284.54079 252.54974 0.003521127
275 284.36577 252.532 0.003636364
271 284.21226 252.51431 0.003690037
314 284.07764 252.49669 0.003184713
297 283.96771 252.47912 0.003367003
283 283.87984 252.46162 0.003533569
308 283.81418 252.44417 0.003246753
284 283.77089 252.42678 0.003521127
321 283.7501 252.40945 0.003115265
335 283.75193 252.39218 0.002985075
300 283.77649 252.37497 0.003333333
319 283.82389 252.35782 0.003134796
309 283.90177 252.34072 0.003236246
310 283.96612 252.32369 0.003225806
331 284.08902 252.30671 0.003021148
311 284.22864 252.28979 0.003215434
280 284.39143 252.27293 0.003571429
290 284.57741 252.25612 0.003448276
300 284.78662 252.23938 0.003333333
302 285.01905 252.22269 0.003311258
308 285.2747 252.20606 0.003246753
310 285.55357 252.18949 0.003225806
344 285.85564 252.17298 0.002906977
309 286.18087 252.15652 0.003236246
315 286.52926 252.14013 0.003174603
288 286.90076 252.12379 0.003472222
324 287.29536 252.1075 0.00308642
316 287.71304 252.09128 0.003164557
311 288.15381 252.07511 0.003215434
293 288.61767 252.059 0.003412969
291 289.10468 252.04295 0.003436426
305 289.61491 252.02695 0.003278689
276 290.14846 252.01101 0.003623188
311 290.70549 251.99513 0.003215434
276 291.30009 251.97931 0.003623188
295 291.90475 251.96354 0.003389831
278 292.53365 251.94783 0.003597122
319 293.18714 251.93218 0.003134796
321 293.86567 251.91658 0.003115265
314 294.56974 251.90104 0.003184713
314 295.2999 251.88556 0.003184713
310 296.05676 251.87013 0.003225806
276 296.84099 251.85476 0.003623188
310 297.65331 251.83944 0.003225806
283 298.50083 251.82418 0.003533569
308 299.37161 251.80898 0.003246753
319 300.28103 251.79384 0.003134796
303 301.21342 251.77875 0.00330033
308 302.17777 251.76371 0.003246753
303 303.17482 251.74873 0.00330033
308 304.20638 251.73381 0.003246753
292 305.27085 251.71894 0.003424658
283 306.3699 251.70413 0.003533569
295 307.5039 251.68938 0.003389831
279 308.67822 251.67468 0.003584229
311 309.88326 251.66003 0.003215434
279 311.11397 251.64544 0.003584229
316 312.39015 251.63091 0.003164557
312 313.69236 251.61643 0.003205128
325 315.03865 251.60201 0.003076923
323 316.41913 251.58764 0.003095975
299 317.83948 251.57332 0.003344482
286 319.2856 251.55906 0.003496503
334 320.76274 251.54486 0.002994012
325 322.26939 251.53071 0.003076923
307 323.80589 251.51661 0.003257329
315 325.36614 251.50257 0.003174603
312 326.94998 251.48859 0.003205128
335 328.55498 251.47466 0.002985075
312 330.17847 251.46078 0.003205128
319 331.81749 251.44696 0.003134796
293 333.46893 251.43319 0.003412969
290 335.12942 251.41947 0.003448276
332 336.79537 251.40581 0.003012048
312 338.46304 251.3922 0.003205128
321 340.12846 251.37865 0.003115265
288 341.78754 251.36515 0.003472222
335 343.43604 251.3517 0.002985075
324 345.0696 251.33831 0.00308642
339 346.68378 251.32497 0.002949853
311 348.27406 251.31169 0.003215434
323 349.83589 251.29845 0.003095975
346 351.3647 251.28527 0.002890173
331 352.85595 251.27215 0.003021148
295 354.30508 251.25908 0.003389831
314 355.70763 251.24606 0.003184713
349 357.05918 251.23309 0.00286533
325 358.35544 251.22017 0.003076923
326 359.59218 251.20731 0.003067485
334 360.76541 251.1945 0.002994012
342 361.87096 251.18174 0.002923977
314 362.90512 251.16904 0.003184713
336 363.86421 251.15639 0.00297619
344 364.74477 251.14379 0.002906977
327 365.54349 251.13124 0.003058104
329 366.25729 251.11875 0.003039514
358 366.88331 251.1063 0.002793296
325 367.41894 251.09391 0.003076923
327 367.86188 251.08157 0.003058104
322 368.21009 251.06928 0.00310559
328 368.46192 251.05704 0.00304878
321 368.61605 251.04486 0.003115265
313 368.67156 251.03273 0.003194888
334 368.62576 251.02064 0.002994012
307 368.48298 251.00861 0.003257329
325 368.24557 250.99663 0.003076923
325 367.90608 250.9847 0.003076923
333 367.46999 250.97283 0.003003003
323 366.93911 250.961 0.003095975
368 366.31572 250.94922 0.002717391
329 365.6025 250.9375 0.003039514
318 364.80258 250.92582 0.003144654
311 363.91948 250.9142 0.003215434
347 362.95704 250.90263 0.002881844
329 361.91944 250.8911 0.003039514
317 360.81111 250.87963 0.003154574
316 359.63667 250.86821 0.003164557
288 358.40093 250.85683 0.003472222
303 357.1088 250.84551 0.00330033
335 355.76526 250.83424 0.002985075
328 354.3621 250.82301 0.00304878
338 352.9307 250.81184 0.00295858
325 351.46276 250.80072 0.003076923
319 349.96305 250.78964 0.003134796
295 348.43627 250.77862 0.003389831
315 346.88695 250.76764 0.003174603
327 345.31942 250.75672 0.003058104
326 343.73783 250.74584 0.003067485
322 342.14618 250.73501 0.00310559
335 340.5482 250.72423 0.002985075
353 338.96304 250.7135 0.002832861
305 337.3629 250.70282 0.003278689
335 335.76649 250.69219 0.002985075
329 334.17678 250.6816 0.003039514
334 332.59654 250.67106 0.002994012
364 331.03198 250.66058 0.002747253
303 329.47836 250.65014 0.00330033
336 327.94158 250.63975 0.00297619
343 326.42378 250.6294 0.002915452
330 324.92705 250.61911 0.003030303
323 323.45326 250.60886 0.003095975
306 322.00426 250.59866 0.003267974
309 320.59959 250.58851 0.003236246
327 319.20527 250.5784 0.003058104
302 317.84059 250.56835 0.003311258
308 316.507 250.55834 0.003246753
320 315.20586 250.54838 0.003125
324 313.9384 250.53846 0.00308642
341 312.70581 250.52859 0.002932551
318 311.50913 250.51877 0.003144654
325 310.34935 250.509 0.003076923
309 309.22733 250.49927 0.003236246
304 308.14382 250.48959 0.003289474
342 307.09947 250.47996 0.002923977
311 306.09485 250.47037 0.003215434
319 305.13038 250.46083 0.003134796
292 304.20639 250.45133 0.003424658
329 303.3231 250.44188 0.003039514
326 302.48063 250.43248 0.003067485
304 301.67898 250.42313 0.003289474
309 300.91809 250.41381 0.003236246
290 300.19776 250.40455 0.003448276
294 299.51774 250.39533 0.003401361
341 298.87769 250.38616 0.002932551
322 298.2772 250.37703 0.00310559
329 297.7158 250.36795 0.003039514
303 297.19295 250.35891 0.00330033
303 296.7081 250.34992 0.00330033
324 296.26066 250.34097 0.00308642
329 295.8506 250.33207 0.003039514
325 295.47612 250.32321 0.003076923
285 295.13718 250.31439 0.003508772
286 294.83318 250.30563 0.003496503
322 294.56353 250.2969 0.00310559
325 294.32769 250.28822 0.003076923
310 294.12514 250.27959 0.003225806
329 293.95542 250.271 0.003039514
287 293.81361 250.26245 0.003484321
298 293.71231 250.25395 0.003355705
319 293.63883 250.24549 0.003134796
312 293.59685 250.23707 0.003205128
287 293.58619 250.2287 0.003484321
336 293.60669 250.22037 0.00297619
326 293.65826 250.21209 0.003067485
305 293.74083 250.20385 0.003278689
339 293.85439 250.19565 0.002949853
323 293.99893 250.1875 0.003095975
327 294.17306 250.17938 0.003058104
332 294.3796 250.17132 0.003012048
286 294.61812 250.16329 0.003496503
317 294.8867 250.15531 0.003154574
330 295.18628 250.14737 0.003030303
286 295.51683 250.13947 0.003496503
348 295.88477 250.13161 0.002873563
319 296.27698 250.1238 0.003134796
339 296.69981 250.11603 0.002949853
294 297.15302 250.1083 0.003401361
330 297.63915 250.10061 0.003030303
309 298.15229 250.09297 0.003236246
341 298.69485 250.08536 0.002932551
304 299.26638 250.0778 0.003289474
328 299.86638 250.07028 0.00304878
321 300.49632 250.0628 0.003115265
316 301.15143 250.05536 0.003164557
333 301.83306 250.04797 0.003003003
351 302.54043 250.04061 0.002849003
358 303.27266 250.0333 0.002793296
302 304.02884 250.02602 0.003311258
310 304.80795 250.01879 0.003225806
285 305.6089 250.0116 0.003508772
321 306.43051 250.00444 0.003115265
305 307.27153 249.99733 0.003278689
306 308.13062 249.99026 0.003267974
334 309.00636 249.98323 0.002994012
335 309.89723 249.97624 0.002985075
337 310.80163 249.96929 0.002967359
317 311.69633 249.96238 0.003154574
311 312.62271 249.95551 0.003215434
327 313.55731 249.94867 0.003058104
314 314.49823 249.94188 0.003184713
332 315.4435 249.93513 0.003012048
321 316.39106 249.92841 0.003115265
337 317.33887 249.92174 0.002967359
333 318.2913 249.9151 0.003003003
334 319.24413 249.90851 0.002994012
294 320.18004 249.90195 0.003401361
345 321.1078 249.89543 0.002898551
367 322.02539 249.88895 0.002724796
324 322.93088 249.88251 0.00308642
324 323.82242 249.8761 0.00308642
342 324.69831 249.86974 0.002923977
326 325.55696 249.86341 0.003067485
332 326.39698 249.85712 0.003012048
311 327.21974 249.85087 0.003215434
339 328.01913 249.84466 0.002949853
334 328.79695 249.83848 0.002994012
313 329.55269 249.83234 0.003194888
308 330.28609 249.82624 0.003246753
321 330.99716 249.82018 0.003115265
349 331.68617 249.81415 0.00286533
323 332.35366 249.80816 0.003095975
340 333.00829 249.80221 0.002941176
336 333.63535 249.79629 0.00297619
319 334.24398 249.79041 0.003134796
337 334.81392 249.78457 0.002967359
315 335.40132 249.77876 0.003174603
323 335.94731 249.77299 0.003095975
346 336.49891 249.76726 0.002890173
318 337.04074 249.76156 0.003144654
341 337.57514 249.7559 0.002932551
337 338.10427 249.75028 0.002967359
342 338.63027 249.74469 0.002923977
324 339.15529 249.73913 0.00308642
362 339.68099 249.73361 0.002762431
353 340.21016 249.72813 0.002832861
335 340.7443 249.72268 0.002985075
341 341.28518 249.71727 0.002932551
332 341.83442 249.71189 0.003012048
324 342.39351 249.70655 0.00308642
329 342.96504 249.70124 0.003039514
336 343.54751 249.69597 0.00297619
314 344.15144 249.69073 0.003184713
362 344.76106 249.68553 0.002762431
355 345.38511 249.68036 0.002816901
365 346.02396 249.67522 0.002739726
330 346.67773 249.67012 0.003030303
351 347.34635 249.66505 0.002849003
323 348.02955 249.66002 0.003095975
349 348.7405 249.65502 0.00286533
367 349.45132 249.65005 0.002724796
310 350.17475 249.64512 0.003225806
367 350.90978 249.64022 0.002724796
360 351.65518 249.63536 0.002777778
326 352.40958 249.63052 0.003067485
362 353.17143 249.62572 0.002762431
341 353.93903 249.62096 0.002932551
354 354.7105 249.61622 0.002824859
343 355.48384 249.61152 0.002915452
373 356.25695 249.60685 0.002680965
312 357.02753 249.60221 0.003205128
336 357.79935 249.59761 0.00297619
357 358.55764 249.59304 0.00280112
330 359.30591 249.5885 0.003030303
376 360.04149 249.58399 0.002659574
356 360.76157 249.57951 0.002808989
364 361.46865 249.57506 0.002747253
339 362.14908 249.57065 0.002949853
356 362.80523 249.56627 0.002808989
359 363.43403 249.56192 0.002785515
355 364.03241 249.5576 0.002816901
360 364.59727 249.55331 0.002777778
363 365.12548 249.54905 0.002754821
344 365.61396 249.54482 0.002906977
326 366.05964 249.54063 0.003067485
377 366.4595 249.53646 0.00265252
379 366.81062 249.53232 0.002638522
374 367.11018 249.52822 0.002673797
377 367.35546 249.52414 0.00265252
382 367.54394 249.5201 0.002617801
350 367.67323 249.51608 0.002857143
378 367.74118 249.5121 0.002645503
355 367.74588 249.50814 0.002816901
371 367.68565 249.50421 0.002695418
372 367.55911 249.50032 0.002688172
387 367.36517 249.49645 0.002583979
388 367.10308 249.49261 0.00257732
389 366.77242 249.4888 0.002570694
383 366.37312 249.48502 0.002610966
395 365.90551 249.48127 0.002531646
364 365.37028 249.47754 0.002747253
364 364.76852 249.47385 0.002747253
360 364.10172 249.47018 0.002777778
351 363.37174 249.46654 0.002849003
371 362.58087 249.46293 0.002695418
377 361.73174 249.45935 0.00265252
358 360.82738 249.4558 0.002793296
370 359.87114 249.45227 0.002702703
337 358.8667 249.44877 0.002967359
350 357.81805 249.4453 0.002857143
344 356.72942 249.44185 0.002906977
344 355.60735 249.43844 0.002906977
364 354.45343 249.43505 0.002747253
363 353.2724 249.43168 0.002754821
370 352.07024 249.42835 0.002702703
361 350.85194 249.42504 0.002770083
352 349.62253 249.42175 0.002840909
349 348.38702 249.4185 0.00286533
353 347.15039 249.41527 0.002832861
351 345.91754 249.41206 0.002849003
380 344.69328 249.40888 0.002631579
362 343.48226 249.40573 0.002762431
349 342.28916 249.40261 0.00286533
361 341.11807 249.3995 0.002770083
365 339.95776 249.39643 0.002739726
359 338.83667 249.39338 0.002785515
333 337.75623 249.39035 0.003003003
344 336.71336 249.38735 0.002906977
317 335.71139 249.38438 0.003154574
343 334.75024 249.38143 0.002915452
330 333.83909 249.37851 0.003030303
351 332.97742 249.37561 0.002849003
354 332.16762 249.37273 0.002824859
317 331.41267 249.36988 0.003154574
332 330.71285 249.36705 0.003012048
359 330.0707 249.36425 0.002785515
345 329.4877 249.36147 0.002898551
341 328.96741 249.35871 0.002932551
330 328.51145 249.35598 0.003030303
351 328.11252 249.35327 0.002849003
352 327.78267 249.35059 0.002840909
328 327.50981 249.34793 0.00304878
313 327.30036 249.34529 0.003194888
335 327.15445 249.34267 0.002985075
305 327.07153 249.34008 0.003278689
351 327.05136 249.33751 0.002849003
313 327.09333 249.33497 0.003194888
313 327.19667 249.33244 0.003194888
327 327.36044 249.32994 0.003058104
327 327.58351 249.32746 0.003058104
333 327.86548 249.325 0.003003003
362 328.20381 249.32257 0.002762431
352 328.59654 249.32015 0.002840909
315 329.04259 249.31776 0.003174603
331 329.54012 249.31539 0.003021148
337 330.08716 249.31304 0.002967359
362 330.65866 249.31071 0.002762431
322 331.30425 249.3084 0.00310559
326 331.98683 249.30612 0.003067485
346 332.70985 249.30385 0.002890173
349 333.47075 249.30161 0.00286533
337 334.26684 249.29939 0.002967359
362 335.09536 249.29718 0.002762431
354 335.95339 249.295 0.002824859
352 336.83792 249.29284 0.002840909
312 337.7458 249.2907 0.003205128
344 338.68346 249.28857 0.002906977
328 339.62818 249.28647 0.00304878
352 340.58613 249.28439 0.002840909
348 341.55372 249.28233 0.002873563
361 342.52727 249.28028 0.002770083
325 343.50299 249.27826 0.003076923
348 344.46652 249.27625 0.002873563
347 345.43502 249.27427 0.002881844
353 346.39493 249.2723 0.002832861
355 347.34048 249.27035 0.002816901
335 348.26869 249.26842 0.002985075
324 349.1757 249.26651 0.00308642
364 350.05771 249.26462 0.002747253
336 350.91102 249.26274 0.00297619
363 351.73226 249.26088 0.002754821
369 352.51802 249.25904 0.002710027
359 353.26523 249.25722 0.002785515
366 353.96675 249.25542 0.00273224
343 354.62856 249.25363 0.002915452
343 355.24854 249.25187 0.002915452
344 355.81574 249.25011 0.002906977
372 356.33311 249.24838 0.002688172
375 356.79927 249.24666 0.002666667
354 357.21322 249.24496 0.002824859
316 357.56617 249.24328 0.003164557
338 357.87411 249.24161 0.00295858
327 358.12927 249.23996 0.003058104
313 358.33108 249.23833 0.003194888
337 358.4805 249.23671 0.002967359
366 358.57832 249.23511 0.00273224
352 358.62558 249.23352 0.002840909
332 358.62348 249.23195 0.003012048
362 358.57344 249.23039 0.002762431
354 358.47701 249.22885 0.002824859
356 358.3359 249.22733 0.002808989
333 358.15191 249.22582 0.003003003
353 357.92884 249.22433 0.002832861
327 357.66492 249.22285 0.003058104
393 357.36411 249.22138 0.002544529
368 357.02853 249.21994 0.002717391
357 356.66038 249.2185 0.00280112
358 356.26187 249.21708 0.002793296
347 355.8353 249.21567 0.002881844
332 355.38323 249.21428 0.003012048
350 354.90747 249.2129 0.002857143
334 354.41066 249.21154 0.002994012
344 353.89517 249.21019 0.002906977
362 353.3634 249.20885 0.002762431
334 352.81772 249.20753 0.002994012
340 352.26054 249.20622 0.002941176
341 351.69421 249.20492 0.002932551
356 351.12106 249.20364 0.002808989
306 350.53831 249.20236 0.003267974
327 349.95835 249.20111 0.003058104
338 349.37484 249.19986 0.00295858
341 348.79663 249.19863 0.002932551
384 348.22225 249.1974 0.002604167
338 347.65352 249.1962 0.00295858
337 347.09212 249.195 0.002967359
374 346.53957 249.19381 0.002673797
352 345.99721 249.19264 0.002840909
342 345.46621 249.19148 0.002923977
335 344.94755 249.19033 0.002985075
352 344.44201 249.18919 0.002840909
396 343.95016 249.18806 0.002525253
367 343.47455 249.18695 0.002724796
340 343.01102 249.18584 0.002941176
377 342.56174 249.18474 0.00265252
338 342.12646 249.18366 0.00295858
391 341.70482 249.18259 0.002557545
362 341.29624 249.18152 0.002762431
341 340.90443 249.18047 0.002932551
369 340.51881 249.17943 0.002710027
333 340.14464 249.17839 0.003003003
356 339.77994 249.17737 0.002808989
372 339.4236 249.17636 0.002688172
345 339.07471 249.17535 0.002898551
356 338.73151 249.17436 0.002808989
347 338.39307 249.17337 0.002881844
383 338.06978 249.1724 0.002610966
353 337.73744 249.17143 0.002832861
392 337.40653 249.17047 0.00255102
381 337.07611 249.16952 0.002624672
377 336.74532 249.16858 0.00265252
381 336.41344 249.16765 0.002624672
378 336.07991 249.16672 0.002645503
381 335.7443 249.16581 0.002624672
330 335.40655 249.1649 0.003030303
379 335.06614 249.164 0.002638522
352 334.72332 249.16311 0.002840909
350 334.38139 249.16222 0.002857143
339 334.03125 249.16134 0.002949853
344 333.68287 249.16047 0.002906977
351 333.33363 249.15961 0.002849003
364 332.98416 249.15876 0.002747253
364 332.63521 249.15791 0.002747253
378 332.28756 249.15706 0.002645503
376 331.94203 249.15623 0.002659574
333 331.59945 249.1554 0.003003003
373 331.26061 249.15458 0.002680965
373 330.92631 249.15376 0.002680965
343 330.59726 249.15295 0.002915452
365 330.27411 249.15214 0.002739726
336 329.95743 249.15134 0.00297619
348 329.64764 249.15055 0.002873563
349 329.3451 249.14976 0.00286533
364 329.04999 249.14898 0.002747253
349 328.76239 249.1482 0.00286533
355 328.48218 249.14743 0.002816901
352 328.20913 249.14667 0.002840909
352 327.94283 249.1459 0.002840909
350 327.68273 249.14515 0.002857143
328 327.4281 249.14439 0.00304878
352 327.18133 249.14364 0.002840909
349 326.93492 249.1429 0.00286533
318 326.69095 249.14216 0.003144654
327 326.44814 249.14142 0.003058104
362 326.20512 249.14069 0.002762431
311 325.96039 249.13996 0.003215434
359 325.71238 249.13923 0.002785515
324 325.46199 249.13851 0.00308642
360 325.20254 249.13779 0.002777778
362 324.93488 249.13708 0.002762431
331 324.65955 249.13637 0.003021148
331 324.37057 249.13566 0.003021148
324 324.06858 249.13495 0.00308642
327 323.75217 249.13424 0.003058104
345 323.42004 249.13354 0.002898551
324 323.07236 249.13284 0.00308642
335 322.70552 249.13214 0.002985075
340 322.32007 249.13145 0.002941176
332 321.91545 249.13076 0.003012048
344 321.49134 249.13006 0.002906977
336 321.04765 249.12937 0.00297619
362 320.58453 249.12868 0.002762431
344 320.10237 249.128 0.002906977
310 319.59449 249.12731 0.003225806
338 319.07634 249.12662 0.00295858
358 318.54168 249.12594 0.002793296
346 317.99175 249.12526 0.002890173
303 317.42795 249.12457 0.00330033
324 316.85442 249.12389 0.00308642
358 316.26775 249.12321 0.002793296
369 315.6723 249.12253 0.002710027
345 315.04884 249.12184 0.002898551
324 314.44152 249.12116 0.00308642
288 313.83127 249.12048 0.003472222
349 313.22005 249.1198 0.00286533
326 312.61053 249.11911 0.003067485
333 312.00343 249.11843 0.003003003
315 311.40136 249.11774 0.003174603
332 310.80627 249.11706 0.003012048
305 310.20658 249.11637 0.003278689
284 309.63112 249.11568 0.003521127
334 309.06818 249.11499 0.002994012
363 308.51951 249.1143 0.002754821
340 307.98677 249.11361 0.002941176
338 307.47159 249.11292 0.00295858
335 306.97549 249.11222 0.002985075
326 306.49995 249.11152 0.003067485
306 306.04666 249.11082 0.003267974
350 305.61639 249.11012 0.002857143
317 305.21068 249.10941 0.003154574
290 304.83073 249.10871 0.003448276
297 304.47765 249.108 0.003367003
342 304.15247 249.10728 0.002923977
310 303.85618 249.10657 0.003225806
317 303.58965 249.10585 0.003154574
320 303.35627 249.10512 0.003125
334 303.15164 249.1044 0.002994012
315 302.97896 249.10367 0.003174603
333 302.83878 249.10294 0.003003003
323 302.73159 249.1022 0.003095975
315 302.65777 249.10146 0.003174603
340 302.61761 249.10071 0.002941176
307 302.61131 249.09996 0.003257329
347 302.63399 249.09921 0.002881844
322 302.69564 249.09845 0.00310559
327 302.79117 249.09769 0.003058104
301 302.9093 249.09692 0.003322259
311 303.07063 249.09615 0.003215434
309 303.26629 249.09537 0.003236246
301 303.49448 249.09458 0.003322259
320 303.75461 249.09379 0.003125
309 304.04599 249.093 0.003236246
304 304.36913 249.0922 0.003289474
340 304.72059 249.0914 0.002941176
337 305.10071 249.09058 0.002967359
331 305.50844 249.08977 0.003021148
343 305.94546 249.08894 0.002915452
337 306.40502 249.08811 0.002967359
314 306.88867 249.08728 0.003184713
350 307.39512 249.08643 0.002857143
331 307.92306 249.08558 0.003021148
331 308.47114 249.08473 0.003021148
321 309.03801 249.08386 0.003115265
340 309.6223 249.08299 0.002941176
310 310.2227 249.08211 0.003225806
310 310.83789 249.08123 0.003225806
338 311.45271 249.08033 0.00295858
348 312.09375 249.07943 0.002873563
320 312.74594 249.07852 0.003125
349 313.4082 249.07761 0.00286533
336 314.07953 249.07668 0.00297619
328 314.759 249.07575 0.00304878
315 315.44576 249.07481 0.003174603
350 316.13918 249.07386 0.002857143
335 316.83832 249.0729 0.002985075
336 317.54269 249.07193 0.00297619
318 318.25175 249.07095 0.003144654
349 318.96497 249.06997 0.00286533
292 319.68193 249.06897 0.003424658
319 320.41279 249.06797 0.003134796
328 321.13593 249.06695 0.00304878
346 321.86218 249.06593 0.002890173
348 322.58012 249.0649 0.002873563
341 323.3094 249.06385 0.002932551
298 324.03049 249.0628 0.003355705
328 324.76151 249.06174 0.00304878
307 325.49254 249.06066 0.003257329
360 326.23554 249.05958 0.002777778
336 326.96462 249.05849 0.00297619
330 327.69157 249.05738 0.003030303
341 328.41552 249.05626 0.002932551
366 329.13555 249.05514 0.00273224
355 329.85062 249.054 0.002816901
320 330.56045 249.05285 0.003125
335 331.26226 249.05169 0.002985075
349 331.95298 249.05052 0.00286533
316 332.63661 249.04933 0.003164557
329 333.30917 249.04814 0.003039514
315 333.96928 249.04693 0.003174603
351 334.61552 249.04571 0.002849003
323 335.2465 249.04448 0.003095975
326 335.8608 249.04323 0.003067485
313 336.45702 249.04197 0.003194888
341 337.03383 249.04071 0.002932551
330 337.58992 249.03942 0.003030303
327 338.12408 249.03813 0.003058104
344 338.63518 249.03682 0.002906977
331 339.12221 249.0355 0.003021148
322 339.58431 249.03416 0.00310559
341 340.02454 249.03282 0.002932551
366 340.43474 249.03145 0.00273224
337 340.81831 249.03008 0.002967359
353 341.17506 249.02869 0.002832861
361 341.50496 249.02729 0.002770083
337 341.80818 249.02587 0.002967359
340 342.08514 249.02444 0.002941176
372 342.33641 249.02299 0.002688172
327 342.56284 249.02153 0.003058104
353 342.76522 249.02006 0.002832861
378 342.94477 249.01857 0.002645503
348 343.10279 249.01706 0.002873563
350 343.2407 249.01554 0.002857143
324 343.36007 249.01401 0.00308642
336 343.46253 249.01246 0.00297619
363 343.54986 249.01089 0.002754821
339 343.62381 249.00931 0.002949853
341 343.68623 249.00772 0.002932551
338 343.73895 249.00611 0.00295858
353 343.78377 249.00448 0.002832861
335 343.82245 249.00283 0.002985075
351 343.85672 249.00117 0.002849003
379 343.88819 248.9995 0.002638522
350 343.92416 248.9978 0.002857143
358 343.95441 248.99609 0.002793296
338 343.98598 248.99437 0.00295858
351 344.01996 248.99262 0.002849003
353 344.05963 248.99086 0.002832861
306 344.10099 248.98908 0.003267974
373 344.14695 248.98729 0.002680965
374 344.19788 248.98548 0.002673797
355 344.25396 248.98365 0.002816901
349 344.31518 248.9818 0.00286533
387 344.38135 248.97993 0.002583979
349 344.4521 248.97805 0.00286533
387 344.52694 248.97615 0.002583979
347 344.60683 248.97423 0.002881844
377 344.68749 248.97229 0.00265252
379 344.76969 248.97034 0.002638522
331 344.85241 248.96836 0.003021148
355 344.93447 248.96637 0.002816901
354 345.01471 248.96436 0.002824859
339 345.09186 248.96233 0.002949853
350 345.1647 248.96028 0.002857143
342 345.23044 248.95821 0.002923977
320 345.30024 248.95612 0.003125
347 345.36252 248.95401 0.002881844
373 345.40117 248.95188 0.002680965
337 345.4355 248.94973 0.002967359
386 345.4631 248.94757 0.002590674
354 345.47589 248.94538 0.002824859
385 345.47951 248.94317 0.002597403
385 345.46914 248.94094 0.002597403
364 345.44704 248.9387 0.002747253
322 345.41354 248.93643 0.00310559
370 345.36866 248.93414 0.002702703
352 345.31312 248.93183 0.002840909
347 345.25038 248.9295 0.002881844
349 345.17589 248.92715 0.00286533
353 345.09346 248.92477 0.002832861
375 345.00427 248.92238 0.002666667
352 344.90967 248.91996 0.002840909
379 344.81106 248.91753 0.002638522
327 344.71071 248.91507 0.003058104
374 344.60867 248.91259 0.002673797
336 344.50728 248.91009 0.00297619
375 344.40814 248.90756 0.002666667
357 344.31381 248.90501 0.00280112
371 344.22385 248.90245 0.002695418
386 344.14074 248.89986 0.002590674
392 344.06644 248.89724 0.00255102
369 344.00384 248.89461 0.002710027
323 343.94925 248.89195 0.003095975
383 343.90644 248.88926 0.002610966
356 343.87634 248.88656 0.002808989
350 343.85972 248.88383 0.002857143
365 343.85716 248.88108 0.002739726
361 343.86912 248.87831 0.002770083
353 343.89585 248.87551 0.002832861
356 343.93745 248.87269 0.002808989
360 343.99664 248.86984 0.002777778
354 344.06198 248.86697 0.002824859
336 344.14901 248.86408 0.00297619
387 344.24762 248.86116 0.002583979
377 344.35903 248.85822 0.00265252
369 344.48237 248.85525 0.002710027
333 344.61663 248.85226 0.003003003
360 344.76068 248.84925 0.002777778
337 344.91327 248.84621 0.002967359
342 345.07345 248.84314 0.002923977
339 345.23902 248.84005 0.002949853
317 345.40888 248.83694 0.003154574
348 345.58146 248.8338 0.002873563
350 345.75733 248.83063 0.002857143
336 345.93056 248.82744 0.00297619
355 346.10165 248.82422 0.002816901
344 346.27064 248.82098 0.002906977
331 346.43246 248.81771 0.003021148
347 346.58744 248.81442 0.002881844
364 346.73335 248.8111 0.002747253
340 346.86884 248.80775 0.002941176
349 346.99231 248.80438 0.00286533
331 347.10216 248.80098 0.003021148
346 347.19684 248.79756 0.002890173
379 347.27845 248.7941 0.002638522
335 347.34297 248.79063 0.002985075
340 347.3832 248.78712 0.002941176
327 347.40247 248.78359 0.003058104
338 347.40227 248.78003 0.00295858
375 347.37581 248.77644 0.002666667
322 347.32476 248.77282 0.00310559
334 347.24811 248.76918 0.002994012
342 347.15568 248.76551 0.002923977
305 347.02533 248.76181 0.003278689
326 346.86716 248.75809 0.003067485
377 346.68078 248.75434 0.00265252
373 346.46613 248.75055 0.002680965
344 346.22277 248.74674 0.002906977
360 345.95109 248.74291 0.002777778
316 345.64721 248.73904 0.003164557
317 345.32016 248.73514 0.003154574
335 344.96648 248.73122 0.002985075
335 344.59068 248.72727 0.002985075
303 344.18684 248.72329 0.00330033
341 343.75979 248.71928 0.002932551
329 343.311 248.71524 0.003039514
325 342.84208 248.71117 0.003076923
320 342.35466 248.70707 0.003125
330 341.85135 248.70294 0.003030303
342 341.33238 248.69878 0.002923977
355 340.80037 248.6946 0.002816901
341 340.26313 248.69038 0.002932551
315 339.71808 248.68613 0.003174603
331 339.15799 248.68186 0.003021148
334 338.59203 248.67755 0.002994012
311 338.02938 248.67321 0.003215434
308 337.45653 248.66884 0.003246753
315 336.88874 248.66445 0.003174603
362 336.31467 248.66002 0.002762431
323 335.74181 248.65556 0.003095975
367 335.17122 248.65107 0.002724796
306 334.60379 248.64655 0.003267974
336 334.0403 248.64199 0.00297619
335 333.48141 248.63741 0.002985075
347 332.92765 248.6328 0.002881844
378 332.38536 248.62815 0.002645503
353 331.84305 248.62347 0.002832861
356 331.30685 248.61876 0.002808989
319 330.77692 248.61402 0.003134796
358 330.25347 248.60925 0.002793296
323 329.73634 248.60444 0.003095975
343 329.2257 248.59961 0.002915452
337 328.72605 248.59474 0.002967359
311 328.2288 248.58984 0.003215434
341 327.73776 248.5849 0.002932551
327 327.25337 248.57993 0.003058104
317 326.77716 248.57494 0.003154574
321 326.30453 248.5699 0.003115265
330 325.84163 248.56484 0.003030303
332 325.39525 248.55974 0.003012048
354 324.94734 248.55461 0.002824859
349 324.50739 248.54945 0.00286533
336 324.07612 248.54425 0.00297619
374 323.64311 248.53902 0.002673797
324 323.23082 248.53376 0.00308642
336 322.82888 248.52846 0.00297619
331 322.43787 248.52313 0.003021148
317 322.05841 248.51776 0.003154574
329 321.6911 248.51236 0.003039514
327 321.34054 248.50693 0.003058104
342 320.99681 248.50146 0.002923977
346 320.66926 248.49596 0.002890173
325 320.35592 248.49043 0.003076923
336 320.05715 248.48486 0.00297619
302 319.77324 248.47925 0.003311258
323 319.50438 248.47362 0.003095975
326 319.25069 248.46794 0.003067485
331 319.01394 248.46223 0.003021148
329 318.79048 248.45649 0.003039514
321 318.58245 248.45071 0.003115265
323 318.38844 248.4449 0.003095975
348 318.2086 248.43905 0.002873563
309 318.0551 248.43316 0.003236246
327 317.90201 248.42724 0.003058104
318 317.76129 248.42129 0.003144654
302 317.6322 248.4153 0.003311258
309 317.51389 248.40927 0.003236246
326 317.40547 248.40321 0.003067485
327 317.30601 248.39711 0.003058104
315 317.21605 248.39097 0.003174603
323 317.12127 248.3848 0.003095975
328 317.04275 248.3786 0.00304878
300 316.96949 248.37235 0.003333333
324 316.89988 248.36607 0.00308642
329 316.83325 248.35976 0.003039514
308 316.76868 248.3534 0.003246753
331 316.70526 248.34701 0.003021148
317 316.64217 248.34059 0.003154574
321 316.57864 248.33412 0.003115265
309 316.51395 248.32762 0.003236246
322 316.44748 248.32108 0.00310559
321 316.37866 248.31451 0.003115265
323 316.30703 248.3079 0.003095975
311 316.23287 248.30125 0.003215434
308 316.13434 248.29456 0.003246753
328 316.05214 248.28783 0.00304878
312 315.96594 248.28107 0.003205128
295 315.8756 248.27427 0.003389831
307 315.78107 248.26743 0.003257329
298 315.68141 248.26055 0.003355705
301 315.57855 248.25364 0.003322259
309 315.47164 248.24668 0.003236246
315 315.36087 248.23969 0.003174603
301 315.24641 248.23266 0.003322259
350 315.12851 248.22559 0.002857143
293 315.00747 248.21849 0.003412969
296 314.88362 248.21134 0.003378378
286 314.75732 248.20416 0.003496503
317 314.629 248.19693 0.003154574
282 314.49907 248.18967 0.003546099
288 314.36803 248.18237 0.003472222
314 314.23637 248.17503 0.003184713
297 314.10718 248.16765 0.003367003
313 313.97587 248.16023 0.003194888
319 313.84602 248.15277 0.003134796
322 313.71933 248.14527 0.00310559
308 313.59561 248.13774 0.003246753
269 313.47162 248.13016 0.003717472
286 313.3508 248.12254 0.003496503
312 313.23366 248.11488 0.003205128
295 313.12949 248.10719 0.003389831
319 313.02116 248.09945 0.003134796
291 312.91767 248.09167 0.003436426
287 312.81943 248.08386 0.003484321
330 312.72672 248.076 0.003030303
322 312.64072 248.0681 0.00310559
267 312.56414 248.06016 0.003745318
319 312.48902 248.05218 0.003134796
302 312.42008 248.04416 0.003311258
284 312.35692 248.0361 0.003521127
310 312.30111 248.028 0.003225806
314 312.24963 248.01986 0.003184713
299 312.20377 248.01167 0.003344482
291 312.16457 248.00345 0.003436426
311 312.12939 247.99518 0.003215434
304 312.09923 247.98687 0.003289474
294 312.0739 247.97853 0.003401361
311 312.0532 247.97014 0.003215434
289 312.03696 247.9617 0.003460208
327 312.02502 247.95323 0.003058104
297 312.01727 247.94472 0.003367003
300 312.01367 247.93616 0.003333333
320 312.01418 247.92756 0.003125
302 312.01998 247.91892 0.003311258
293 312.02889 247.91024 0.003412969
321 312.04217 247.90151 0.003115265
297 312.06001 247.89275 0.003367003
292 312.08265 247.88394 0.003424658
300 312.11152 247.87509 0.003333333
292 312.1456 247.86619 0.003424658
335 312.18438 247.85726 0.002985075
319 312.2292 247.84828 0.003134796
318 312.28041 247.83925 0.003144654
305 312.33837 247.83019 0.003278689
317 312.40341 247.82108 0.003154574
320 312.48016 247.81193 0.003125
309 312.56033 247.80274 0.003236246
287 312.64857 247.7935 0.003484321
290 312.74492 247.78422 0.003448276
320 312.84968 247.7749 0.003125
274 312.96365 247.76553 0.003649635
298 313.08566 247.75612 0.003355705
333 313.21653 247.74667 0.003003003
296 313.35608 247.73718 0.003378378
272 313.50473 247.72764 0.003676471
311 313.66189 247.71805 0.003215434
313 313.82779 247.70842 0.003194888
305 314.00239 247.69875 0.003278689
329 314.18562 247.68904 0.003039514
305 314.37741 247.67928 0.003278689
312 314.57769 247.66947 0.003205128
322 314.78641 247.65963 0.00310559
280 314.99899 247.64974 0.003571429
307 315.22758 247.6398 0.003257329
309 315.46133 247.62982 0.003236246
318 315.70338 247.61979 0.003144654
307 315.95372 247.60973 0.003257329
295 316.21235 247.59961 0.003389831
327 316.47927 247.58945 0.003058104
285 316.75449 247.57925 0.003508772
293 317.04007 247.569 0.003412969
324 317.33385 247.55871 0.00308642
310 317.63367 247.54837 0.003225806
336 317.93461 247.53799 0.00297619
323 318.24634 247.52756 0.003095975
310 318.57026 247.51709 0.003225806
280 318.90464 247.50657 0.003571429
311 319.24175 247.49601 0.003215434
303 319.58755 247.4854 0.00330033
324 319.93992 247.47474 0.00308642
301 320.29838 247.46404 0.003322259
289 320.66276 247.4533 0.003460208
313 321.03211 247.44251 0.003194888
327 321.40543 247.43167 0.003058104
293 321.78237 247.42079 0.003412969
304 322.16483 247.40986 0.003289474
340 322.55779 247.39889 0.002941176
320 322.94102 247.38787 0.003125
309 323.32468 247.3768 0.003236246
295 323.70792 247.36569 0.003389831
295 324.09353 247.35453 0.003389831
313 324.4751 247.34332 0.003194888
326 324.85174 247.33207 0.003067485
318 325.22438 247.32078 0.003144654
291 325.59212 247.30943 0.003436426
318 325.95405 247.29804 0.003144654
315 326.30926 247.28661 0.003174603
303 326.65683 247.27513 0.00330033
371 326.99585 247.2636 0.002695418
305 327.32537 247.25202 0.003278689
299 327.64446 247.2404 0.003344482
323 327.95213 247.22873 0.003095975
316 328.24694 247.21701 0.003164557
336 328.52882 247.20525 0.00297619
329 328.79624 247.19344 0.003039514
319 329.0507 247.18158 0.003134796
307 329.28605 247.16967 0.003257329
335 329.50717 247.15772 0.002985075
309 329.70604 247.14572 0.003236246
338 329.88644 247.13368 0.00295858
333 330.04434 247.12158 0.003003003
347 330.17082 247.10944 0.002881844
320 330.28329 247.09725 0.003125
327 330.37141 247.08502 0.003058104
307 330.43406 247.07273 0.003257329
290 330.47037 247.0604 0.003448276
314 330.47932 247.04802 0.003184713
342 330.46006 247.0356 0.002923977
320 330.41176 247.02312 0.003125
312 330.33373 247.0106 0.003205128
357 330.22535 246.99803 0.00280112
343 330.08738 246.98541 0.002915452
313 329.91686 246.97275 0.003194888
323 329.72031 246.96003 0.003095975
328 329.48649 246.94727 0.00304878
318 329.2209 246.93446 0.003144654
346 328.92361 246.9216 0.002890173
337 328.59482 246.9087 0.002967359
343 328.23565 246.89574 0.002915452
338 327.84499 246.88274 0.00295858
300 327.4242 246.86969 0.003333333
282 326.97399 246.85659 0.003546099
294 326.49517 246.84344 0.003401361
312 325.98869 246.83024 0.003205128
328 325.4558 246.81699 0.00304878
335 324.89722 246.8037 0.002985075
328 324.31441 246.79036 0.00304878
315 323.70907 246.77697 0.003174603
315 323.08136 246.76353 0.003174603
309 322.43425 246.75004 0.003236246
333 321.76878 246.7365 0.003003003
332 321.08297 246.72291 0.003012048
324 320.38578 246.70927 0.00308642
303 319.67535 246.69559 0.00330033
312 318.95352 246.68186 0.003205128
311 318.22389 246.66807 0.003215434
300 317.49138 246.65424 0.003333333
305 316.75487 246.64036 0.003278689
306 316.00691 246.62643 0.003267974
319 315.25668 246.61245 0.003134796
321 314.50666 246.59842 0.003115265
315 313.75892 246.58434 0.003174603
306 313.0153 246.57021 0.003267974
302 312.27784 246.55604 0.003311258
302 311.5485 246.54181 0.003311258
304 310.82923 246.52753 0.003289474
300 310.12188 246.51321 0.003333333
313 309.43017 246.49883 0.003194888
308 308.75221 246.48441 0.003246753
292 308.09339 246.46993 0.003424658
311 307.45181 246.45541 0.003215434
294 306.83087 246.44083 0.003401361
290 306.23212 246.42621 0.003448276
315 305.65702 246.41154 0.003174603
312 305.10696 246.39681 0.003205128
286 304.58552 246.38204 0.003496503
304 304.08932 246.36722 0.003289474
328 303.62176 246.35234 0.00304878
290 303.18388 246.33742 0.003448276
287 302.77656 246.32245 0.003484321
307 302.40095 246.30743 0.003257329
302 302.04919 246.29235 0.003311258
324 301.73815 246.27723 0.00308642
288 301.46037 246.26206 0.003472222
328 301.21627 246.24683 0.00304878
312 301.00618 246.23156 0.003205128
302 300.83033 246.21624 0.003311258
313 300.68884 246.20086 0.003194888
290 300.58174 246.18544 0.003448276
318 300.50897 246.16996 0.003144654
255 300.47039 246.15444 0.003921569
287 300.46574 246.13886 0.003484321
294 300.4947 246.12324 0.003401361
289 300.55685 246.10756 0.003460208
285 300.65169 246.09183 0.003508772
314 300.77883 246.07606 0.003184713
324 300.93726 246.06023 0.00308642
323 301.12672 246.04435 0.003095975
321 301.34584 246.02842 0.003115265
298 301.59406 246.01244 0.003355705
272 301.87045 245.99641 0.003676471
274 302.17402 245.98033 0.003649635
297 302.50373 245.9642 0.003367003
318 302.86016 245.94802 0.003144654
295 303.2388 245.93179 0.003389831
302 303.6442 245.9155 0.003311258
280 304.06693 245.89917 0.003571429
311 304.50976 245.88278 0.003215434
292 304.97274 245.86635 0.003424658
301 305.45163 245.84986 0.003322259
291 305.94637 245.83332 0.003436426
275 306.45551 245.81674 0.003636364
290 306.97732 245.8001 0.003448276
283 307.51047 245.78341 0.003533569
304 308.05283 245.76667 0.003289474
308 308.60289 245.74988 0.003246753
300 309.15885 245.73303 0.003333333
280 309.71893 245.71614 0.003571429
308 310.28116 245.69919 0.003246753
307 310.84492 245.6822 0.003257329
291 311.40658 245.66515 0.003436426
270 311.96369 245.64805 0.003703704
282 312.51512 245.63091 0.003546099
300 313.06029 245.61371 0.003333333
288 313.57811 245.59646 0.003472222
284 314.10061 245.57915 0.003521127
313 314.60912 245.5618 0.003194888
298 315.10195 245.5444 0.003355705
303 315.58096 245.52694 0.00330033
292 316.03603 245.50943 0.003424658
293 316.47001 245.49188 0.003412969
318 316.88187 245.47427 0.003144654
284 317.26966 245.45661 0.003521127
286 317.63139 245.4389 0.003496503
280 317.9648 245.42113 0.003571429
309 318.27129 245.40332 0.003236246
344 318.54865 245.38546 0.002906977
292 318.80389 245.36754 0.003424658
306 319.02329 245.34957 0.003267974
299 319.20917 245.33155 0.003344482
308 319.36382 245.31349 0.003246753
283 319.48728 245.29536 0.003533569
271 319.5795 245.27719 0.003690037
284 319.64394 245.25897 0.003521127
310 319.67694 245.24069 0.003225806
325 319.68043 245.22237 0.003076923
323 319.65328 245.20399 0.003095975
313 319.59848 245.18556 0.003194888
320 319.51725 245.16708 0.003125
331 319.41094 245.14855 0.003021148
315 319.2738 245.12997 0.003174603
332 319.12193 245.11133 0.003012048
327 318.9498 245.09265 0.003058104
327 318.75922 245.07391 0.003058104
324 318.55374 245.05513 0.00308642
309 318.33191 245.03629 0.003236246
301 318.09738 245.0174 0.003322259
316 317.85214 244.99846 0.003164557
323 317.59819 244.97946 0.003095975
279 317.33751 244.96042 0.003584229
319 317.07227 244.94132 0.003134796
303 316.80394 244.92218 0.00330033
300 316.53461 244.90298 0.003333333
294 316.2661 244.88373 0.003401361
292 316.00014 244.86443 0.003424658
310 315.7384 244.84508 0.003225806
301 315.48244 244.82567 0.003322259
306 315.23377 244.80622 0.003267974
308 314.99379 244.78671 0.003246753
314 314.76378 244.76716 0.003184713
300 314.54498 244.74755 0.003333333
323 314.33848 244.72789 0.003095975
313 314.14532 244.70818 0.003194888
282 313.95874 244.68841 0.003546099
300 313.79622 244.6686 0.003333333
299 313.64825 244.64874 0.003344482
301 313.51678 244.62882 0.003322259
287 313.4024 244.60885 0.003484321
309 313.29943 244.58884 0.003236246
299 313.22072 244.56877 0.003344482
298 313.16441 244.54865 0.003355705
316 313.1227 244.52848 0.003164557
301 313.10095 244.50825 0.003322259
300 313.0977 244.48798 0.003333333
325 313.11387 244.46765 0.003076923
311 313.14958 244.44728 0.003215434
297 313.20495 244.42685 0.003367003
303 313.27898 244.40637 0.00330033
323 313.374 244.38584 0.003095975
342 313.4886 244.36526 0.002923977
312 313.62296 244.34463 0.003205128
315 313.77704 244.32395 0.003174603
327 313.95079 244.30321 0.003058104
321 314.14364 244.28243 0.003115265
311 314.3565 244.26159 0.003215434
332 314.58884 244.24071 0.003012048
294 314.8402 244.21977 0.003401361
304 315.11102 244.19878 0.003289474
327 315.40096 244.17774 0.003058104
312 315.70982 244.15665 0.003205128
314 316.03715 244.13551 0.003184713
345 316.3835 244.11432 0.002898551
347 316.74841 244.09308 0.002881844
340 317.13173 244.07179 0.002941176
337 317.53369 244.05044 0.002967359
356 317.95358 244.02905 0.002808989
301 318.3876 244.0076 0.003322259
325 318.84317 243.9861 0.003076923
330 319.31627 243.96456 0.003030303
295 319.79856 243.94296 0.003389831
324 320.3064 243.92131 0.00308642
305 320.83127 243.89961 0.003278689
298 321.37292 243.87786 0.003355705
350 321.93106 243.85606 0.002857143
319 322.50538 243.83421 0.003134796
288 323.0933 243.81231 0.003472222
335 323.6988 243.79036 0.002985075
321 324.31958 243.76836 0.003115265
324 324.9552 243.74631 0.00308642
325 325.60366 243.72421 0.003076923
335 326.26517 243.70205 0.002985075
338 326.93895 243.67985 0.00295858
339 327.62418 243.6576 0.002949853
346 328.31993 243.63529 0.002890173
337 329.02521 243.61294 0.002967359
344 329.74127 243.59053 0.002906977
345 330.46233 243.56808 0.002898551
359 331.18949 243.54558 0.002785515
363 331.92148 243.52302 0.002754821
367 332.65696 243.50042 0.002724796
346 333.39455 243.47776 0.002890173
344 334.13284 243.45506 0.002906977
346 334.87035 243.4323 0.002890173
375 335.60614 243.4095 0.002666667
363 336.33825 243.38664 0.002754821
349 337.065 243.36374 0.00286533
363 337.78445 243.34079 0.002754821
349 338.4956 243.31778 0.00286533
370 339.19698 243.29473 0.002702703
359 339.88707 243.27163 0.002785515
343 340.56459 243.24847 0.002915452
378 341.22896 243.22527 0.002645503
373 341.87656 243.20202 0.002680965
374 342.50719 243.17872 0.002673797
395 343.11949 243.15537 0.002531646
397 343.71212 243.13197 0.002518892
419 344.28378 243.10852 0.002386635
366 344.8332 243.08502 0.00273224
371 345.35913 243.06147 0.002695418
356 345.86036 243.03787 0.002808989
388 346.33573 243.01422 0.00257732
388 346.78409 242.99053 0.00257732
370 347.20434 242.96678 0.002702703
370 347.59543 242.94299 0.002702703
337 347.95635 242.91914 0.002967359
404 348.28614 242.89525 0.002475248
379 348.58392 242.87131 0.002638522
339 348.84884 242.84732 0.002949853
404 349.08012 242.82328 0.002475248
385 349.27707 242.79919 0.002597403
401 349.43906 242.77506 0.002493766
389 349.56522 242.75087 0.002570694
357 349.65567 242.72664 0.00280112
413 349.7097 242.70236 0.002421308
367 349.72295 242.67803 0.002724796
359 349.70318 242.65365 0.002785515
360 349.64614 242.62922 0.002777778
355 349.55171 242.60474 0.002816901
369 349.41979 242.58022 0.002710027
339 349.25034 242.55564 0.002949853
382 349.04337 242.53102 0.002617801
368 348.80063 242.50635 0.002717391
348 348.51885 242.48164 0.002873563
366 348.19985 242.45687 0.00273224
368 347.84474 242.43206 0.002717391
343 347.45188 242.4072 0.002915452
378 347.02246 242.38229 0.002645503
374 346.55678 242.35733 0.002673797
317 346.05519 242.33233 0.003154574
340 345.51808 242.30727 0.002941176
361 344.94592 242.28217 0.002770083
356 344.33938 242.25703 0.002808989
309 343.69882 242.23183 0.003236246
352 343.02477 242.20659 0.002840909
366 342.3181 242.1813 0.00273224
333 341.57958 242.15596 0.003003003
332 340.81008 242.13057 0.003012048
336 340.01055 242.10514 0.00297619
313 339.18199 242.07966 0.003194888
348 338.32552 242.05414 0.002873563
349 337.44221 242.02856 0.00286533
348 336.53399 242.00294 0.002873563
325 335.60116 241.97728 0.003076923
358 334.64561 241.95156 0.002793296
331 333.66886 241.9258 0.003021148
320 332.67231 241.9 0.003125
325 331.6576 241.87414 0.003076923
313 330.6264 241.84824 0.003194888
336 329.58039 241.82229 0.00297619
328 328.5213 241.7963 0.00304878
326 327.45121 241.77026 0.003067485
324 326.37129 241.74418 0.00308642
321 325.28368 241.71804 0.003115265
342 324.19021 241.69186 0.002923977
356 323.09276 241.66564 0.002808989
324 321.99319 241.63937 0.00308642
357 320.89336 241.61305 0.00280112
332 319.79515 241.58669 0.003012048
325 318.70044 241.56028 0.003076923
329 317.61104 241.53383 0.003039514
310 316.52879 241.50733 0.003225806
316 315.4555 241.48079 0.003164557
330 314.39294 241.4542 0.003030303
324 313.34284 241.42756 0.00308642
343 312.30688 241.40088 0.002915452
299 311.28672 241.37415 0.003344482
329 310.28392 241.34738 0.003039514
298 309.30001 241.32057 0.003355705
314 308.33644 241.2937 0.003184713
318 307.3946 241.2668 0.003144654
325 306.47579 241.23985 0.003076923
299 305.58124 241.21285 0.003344482
307 304.7121 241.18581 0.003257329
315 303.86943 241.15872 0.003174603
313 303.0542 241.1316 0.003194888
301 302.26731 241.10442 0.003322259
311 301.50993 241.0772 0.003215434
291 300.78201 241.04994 0.003436426
288 300.08455 241.02263 0.003472222
317 299.41808 240.99528 0.003154574
289 298.78238 240.96789 0.003460208
328 298.17913 240.94045 0.00304878
334 297.60795 240.91296 0.002994012
286 297.06907 240.88544 0.003496503
287 296.56249 240.85787 0.003484321
295 296.0883 240.83025 0.003389831
291 295.64645 240.8026 0.003436426
288 295.2367 240.7749 0.003472222
298 294.85983 240.74715 0.003355705
330 294.51401 240.71936 0.003030303
314 294.19668 240.69153 0.003184713
296 293.91339 240.66366 0.003378378
312 293.66143 240.63574 0.003205128
293 293.4389 240.60779 0.003412969
291 293.24597 240.57978 0.003436426
317 293.08201 240.55174 0.003154574
298 292.94638 240.52365 0.003355705
268 292.83839 240.49552 0.003731343
319 292.75727 240.46735 0.003134796
300 292.70223 240.43913 0.003333333
292 292.67352 240.41088 0.003424658
283 292.6681 240.38258 0.003533569
311 292.6861 240.35424 0.003215434
326 292.72656 240.32586 0.003067485
304 292.78845 240.29743 0.003289474
309 292.87169 240.26896 0.003236246
298 292.97323 240.24046 0.003355705
309 293.09344 240.21191 0.003236246
309 293.23002 240.18332 0.003236246
314 293.3823 240.15468 0.003184713
292 293.54901 240.12601 0.003424658
311 293.72901 240.0973 0.003215434
304 293.92063 240.06854 0.003289474
305 294.12402 240.03974 0.003278689
303 294.33507 240.01091 0.00330033
296 294.55373 239.98203 0.003378378
298 294.77857 239.95311 0.003355705
323 295.00816 239.92415 0.003095975
299 295.24107 239.89515 0.003344482
313 295.47588 239.86611 0.003194888
278 295.71148 239.83703 0.003597122
282 295.94585 239.80791 0.003546099
285 296.17794 239.77875 0.003508772
298 296.40729 239.74955 0.003355705
309 296.63216 239.72031 0.003236246
287 296.84967 239.69103 0.003484321
299 297.05989 239.66171 0.003344482
300 297.2617 239.63236 0.003333333
278 297.45433 239.60296 0.003597122
293 297.63625 239.57352 0.003412969
298 297.80681 239.54404 0.003355705
303 297.96551 239.51453 0.00330033
297 298.11088 239.48498 0.003367003
285 298.24256 239.45538 0.003508772
283 298.35989 239.42575 0.003533569
309 298.46231 239.39608 0.003236246
278 298.54928 239.36637 0.003597122
333 298.62193 239.33663 0.003003003
317 298.6767 239.30684 0.003154574
288 298.71482 239.27702 0.003472222
294 298.73596 239.24716 0.003401361
286 298.73193 239.21726 0.003496503
320 298.71843 239.18732 0.003125
296 298.68733 239.15735 0.003378378
282 298.63849 239.12734 0.003546099
278 298.57379 239.09729 0.003597122
278 298.4884 239.0672 0.003597122
308 298.386 239.03708 0.003246753
294 298.26577 239.00692 0.003401361
294 298.12779 238.97672 0.003401361
289 297.9722 238.94648 0.003460208
257 297.79927 238.91621 0.003891051
295 297.60905 238.8859 0.003389831
276 297.4019 238.85556 0.003623188
285 297.17816 238.82518 0.003508772
325 296.93823 238.79476 0.003076923
274 296.68254 238.76431 0.003649635
276 296.41193 238.73382 0.003623188
255 296.11748 238.7033 0.003921569
274 295.81773 238.67274 0.003649635
297 295.50455 238.64214 0.003367003
297 295.1786 238.61151 0.003367003
290 294.84078 238.58084 0.003448276
255 294.49161 238.55014 0.003921569
286 294.13204 238.51941 0.003496503
294 293.76294 238.48863 0.003401361
307 293.38652 238.45783 0.003257329
279 293.00103 238.42699 0.003584229
288 292.59407 238.39611 0.003472222
268 292.19592 238.3652 0.003731343
276 291.79284 238.33426 0.003623188
284 291.38499 238.30328 0.003521127
273 290.97494 238.27227 0.003663004
273 290.56251 238.24122 0.003663004
279 290.14928 238.21014 0.003584229
293 289.73588 238.17903 0.003412969
287 289.32323 238.14788 0.003484321
280 288.91224 238.1167 0.003571429
271 288.5038 238.08548 0.003690037
263 288.09879 238.05424 0.003802281
262 287.69807 238.02296 0.003816794
288 287.30247 237.99164 0.003472222
297 286.91141 237.9603 0.003367003
281 286.52848 237.92892 0.003558719
283 286.15306 237.89751 0.003533569
253 285.78585 237.86607 0.003952569
273 285.42759 237.83459 0.003663004
286 285.07896 237.80309 0.003496503
260 284.74061 237.77155 0.003846154
273 284.41318 237.73998 0.003663004
280 284.09725 237.70838 0.003571429
282 283.79339 237.67674 0.003546099
291 283.50212 237.64508 0.003436426
289 283.22394 237.61338 0.003460208
270 282.95929 237.58166 0.003703704
288 282.7086 237.5499 0.003472222
282 282.47225 237.51811 0.003546099
276 282.25057 237.48629 0.003623188
266 282.04386 237.45444 0.003759398
268 281.85239 237.42256 0.003731343
266 281.67636 237.39065 0.003759398
272 281.51595 237.35871 0.003676471
261 281.3713 237.32674 0.003831418
279 281.24235 237.29474 0.003584229
271 281.12591 237.26271 0.003690037
288 281.02883 237.23066 0.003472222
278 280.94756 237.19857 0.003597122
292 280.88199 237.16645 0.003424658
281 280.83198 237.13431 0.003558719
278 280.79731 237.10213 0.003597122
299 280.77775 237.06993 0.003344482
278 280.77297 237.0377 0.003597122
287 280.78263 237.00544 0.003484321
298 280.80632 236.97315 0.003355705
254 280.84358 236.94083 0.003937008
294 280.89389 236.90849 0.003401361
309 280.9567 236.87612 0.003236246
275 281.03149 236.84372 0.003636364
273 281.11739 236.81129 0.003663004
265 281.21378 236.77883 0.003773585
237 281.31991 236.74635 0.004219409
287 281.43497 236.71384 0.003484321
280 281.55811 236.68131 0.003571429
269 281.68845 236.64875 0.003717472
266 281.82506 236.61616 0.003759398
274 281.96699 236.58354 0.003649635
275 282.11324 236.5509 0.003636364
264 282.26281 236.51824 0.003787879
228 282.41467 236.48554 0.004385965
265 282.56779 236.45282 0.003773585
272 282.72111 236.42008 0.003676471
276 282.87359 236.38731 0.003623188
280 283.02418 236.35452 0.003571429
292 283.17186 236.3217 0.003424658
305 283.31561 236.28885 0.003278689
289 283.45446 236.25598 0.003460208
264 283.58745 236.22309 0.003787879
276 283.71368 236.19017 0.003623188
266 283.83229 236.15722 0.003759398
288 283.94247 236.12426 0.003472222
274 284.04347 236.09127 0.003649635
277 284.13461 236.05825 0.003610108
280 284.21529 236.02521 0.003571429
276 284.28498 235.99215 0.003623188
272 284.34322 235.95907 0.003676471
255 284.38964 235.92596 0.003921569
263 284.42395 235.89283 0.003802281
262 284.44351 235.85967 0.003816794
272 284.45265 235.8265 0.003676471
321 284.44978 235.7933 0.003115265
283 284.4345 235.76007 0.003533569
282 284.40694 235.72683 0.003546099
263 284.36731 235.69357 0.003802281
308 284.31587 235.66028 0.003246753
287 284.25298 235.62697 0.003484321
255 284.17899 235.59364 0.003921569
282 284.09442 235.56029 0.003546099
285 283.99974 235.52691 0.003508772
280 283.89549 235.49352 0.003571429
271 283.78224 235.46011 0.003690037
277 283.66059 235.42667 0.003610108
275 283.53115 235.39322 0.003636364
260 283.39455 235.35974 0.003846154
293 283.25142 235.32624 0.003412969
304 283.1024 235.29273 0.003289474
262 282.94811 235.25919 0.003816794
251 282.78916 235.22564 0.003984064
277 282.62616 235.19206 0.003610108
272 282.45966 235.15847 0.003676471
272 282.29021 235.12486 0.003676471
276 282.11835 235.09123 0.003623188
282 281.94455 235.05758 0.003546099
279 281.76927 235.02391 0.003584229
284 281.59292 234.99022 0.003521127
267 281.41589 234.95652 0.003745318
266 281.23852 234.9228 0.003759398
292 281.06111 234.88906 0.003424658
265 280.88395 234.8553 0.003773585
295 280.70725 234.82152 0.003389831
289 280.53123 234.78773 0.003460208
290 280.35606 234.75392 0.003448276
266 280.18115 234.72009 0.003759398
271 280.00806 234.68625 0.003690037
270 279.83617 234.65239 0.003703704
246 279.66554 234.61851 0.004065041
283 279.49622 234.58462 0.003533569
272 279.32825 234.55071 0.003676471
273 279.16165 234.51679 0.003663004
290 278.99644 234.48285 0.003448276
289 278.83263 234.4489 0.003460208
273 278.67022 234.41493 0.003663004
280 278.50921 234.38094 0.003571429
288 278.34962 234.34694 0.003472222
284 278.19144 234.31293 0.003521127
286 278.03469 234.2789 0.003496503
284 277.87939 234.24486 0.003521127
301 277.72555 234.2108 0.003322259
270 277.57321 234.17673 0.003703704
274 277.4224 234.14265 0.003649635
283 277.27317 234.10855 0.003533569
283 277.12555 234.07444 0.003533569
290 276.97961 234.04031 0.003448276
290 276.83541 234.00617 0.003448276
289 276.69301 233.97202 0.003460208
289 276.55247 233.93786 0.003460208
239 276.41387 233.90369 0.0041841
273 276.27728 233.8695 0.003663004
254 276.14278 233.8353 0.003937008
311 276.00641 233.80109 0.003215434
292 275.87631 233.76687 0.003424658
295 275.74852 233.73263 0.003389831
272 275.62313 233.69839 0.003676471
308 275.50022 233.66413 0.003246753
287 275.37987 233.62986 0.003484321
267 275.26218 233.59559 0.003745318
256 275.14724 233.5613 0.00390625
257 275.03516 233.527 0.003891051
255 274.92105 233.49269 0.003921569
267 274.81429 233.45837 0.003745318
277 274.70856 233.42405 0.003610108
253 274.60919 233.38971 0.003952569
271 274.51338 233.35536 0.003690037
270 274.42131 233.32101 0.003703704
274 274.33318 233.28664 0.003649635
278 274.24922 233.25227 0.003597122
269 274.16661 233.21789 0.003717472
258 274.09172 233.1835 0.003875969
282 274.02176 233.1491 0.003546099
287 273.95703 233.1147 0.003484321
278 273.89783 233.08029 0.003597122
285 273.84448 233.04587 0.003508772
310 273.7973 233.01144 0.003225806
291 273.75664 232.977 0.003436426
287 273.72284 232.94256 0.003484321
237 273.69624 232.90811 0.004219409
245 273.67718 232.87366 0.004081633
276 273.66602 232.8392 0.003623188
289 273.66308 232.80473 0.003460208
277 273.6687 232.77026 0.003610108
311 273.68319 232.73578 0.003215434
271 273.70687 232.7013 0.003690037
298 273.74002 232.66681 0.003355705
307 273.78291 232.63232 0.003257329
269 273.83582 232.59782 0.003717472
287 273.89896 232.56331 0.003484321
274 273.97256 232.52881 0.003649635
280 274.05681 232.4943 0.003571429
284 274.15187 232.45978 0.003521127
288 274.25547 232.42526 0.003472222
268 274.37258 232.39074 0.003731343
236 274.50086 232.35621 0.004237288
287 274.64039 232.32168 0.003484321
254 274.79118 232.28715 0.003937008
248 274.95327 232.25262 0.004032258
265 275.12662 232.21808 0.003773585
287 275.31119 232.18354 0.003484321
291 275.50691 232.149 0.003436426
266 275.71366 232.11446 0.003759398
272 275.93131 232.07991 0.003676471
282 276.1597 232.04536 0.003546099
270 276.39863 232.01082 0.003703704
279 276.64787 231.97627 0.003584229
314 276.90717 231.94172 0.003184713
289 277.17625 231.90717 0.003460208
275 277.45478 231.87262 0.003636364
272 277.74214 231.83807 0.003676471
274 278.03854 231.80352 0.003649635
287 278.33797 231.76897 0.003484321
261 278.65065 231.73442 0.003831418
274 278.97081 231.69987 0.003649635
287 279.29795 231.66532 0.003484321
288 279.63157 231.63077 0.003472222
299 279.97113 231.59623 0.003344482
297 280.31607 231.56168 0.003367003
254 280.66578 231.52714 0.003937008
277 281.01966 231.4926 0.003610108
251 281.37704 231.45806 0.003984064
279 281.73724 231.42353 0.003584229
292 282.09955 231.389 0.003424658
280 282.46323 231.35447 0.003571429
258 282.82751 231.31994 0.003875969
284 283.19159 231.28541 0.003521127
290 283.55465 231.25089 0.003448276
267 283.91585 231.21638 0.003745318
285 284.27429 231.18187 0.003508772
265 284.61991 231.14736 0.003773585
274 284.97019 231.11285 0.003649635
270 285.31501 231.07836 0.003703704
257 285.65345 231.04386 0.003891051
283 285.98459 231.00937 0.003533569
274 286.3075 230.97489 0.003649635
284 286.62128 230.94041 0.003521127
290 286.92506 230.90594 0.003448276
282 287.21799 230.87147 0.003546099
267 287.49924 230.83701 0.003745318
278 287.76231 230.80256 0.003597122
264 288.01801 230.76811 0.003787879
298 288.25993 230.73367 0.003355705
284 288.48749 230.69923 0.003521127
316 288.70021 230.66481 0.003164557
291 288.89616 230.63039 0.003436426
293 289.07804 230.59598 0.003412969
278 289.24413 230.56157 0.003597122
273 289.39431 230.52718 0.003663004
305 289.52856 230.49279 0.003278689
289 289.6346 230.45842 0.003460208
287 289.73736 230.42405 0.003484321
280 289.82475 230.38969 0.003571429
275 289.89716 230.35534 0.003636364
276 289.95508 230.321 0.003623188
271 289.99908 230.28666 0.003690037
287 290.02983 230.25234 0.003484321
267 290.04805 230.21803 0.003745318
287 290.05456 230.18373 0.003484321
276 290.05024 230.14944 0.003623188
290 290.03599 230.11516 0.003448276
282 290.01278 230.0809 0.003546099
303 289.98161 230.04664 0.00330033
290 289.94352 230.01239 0.003448276
287 289.89953 229.97816 0.003484321
297 289.85071 229.94394 0.003367003
297 289.79811 229.90973 0.003367003
291 289.74277 229.87554 0.003436426
279 289.68573 229.84135 0.003584229
274 289.62799 229.80718 0.003649635
279 289.57055 229.77303 0.003584229
314 289.51437 229.73888 0.003184713
270 289.46036 229.70475 0.003703704
270 289.40942 229.67064 0.003703704
309 289.3624 229.63653 0.003236246
277 289.32009 229.60245 0.003610108
288 289.28325 229.56837 0.003472222
279 289.25258 229.53431 0.003584229
260 289.22876 229.50027 0.003846154
312 289.2124 229.46624 0.003205128
317 289.20403 229.43223 0.003154574
303 289.20418 229.39823 0.00330033
294 289.21328 229.36425 0.003401361
277 289.23175 229.33029 0.003610108
268 289.25991 229.29634 0.003731343
300 289.29805 229.26241 0.003333333
273 289.34639 229.2285 0.003663004
257 289.40511 229.1946 0.003891051
297 289.47432 229.16072 0.003367003
294 289.55406 229.12686 0.003401361
264 289.64436 229.09301 0.003787879
254 289.74513 229.05919 0.003937008
278 289.85627 229.02538 0.003597122
279 289.9776 228.99159 0.003584229
280 290.10891 228.95782 0.003571429
290 290.24992 228.92407 0.003448276
296 290.4003 228.89033 0.003378378
291 290.55967 228.85662 0.003436426
285 290.7276 228.82293 0.003508772
265 290.90362 228.78925 0.003773585
302 291.08722 228.7556 0.003311258
307 291.27784 228.72197 0.003257329
272 291.47487 228.68836 0.003676471
275 291.67768 228.65477 0.003636364
279 291.8856 228.6212 0.003584229
307 292.09791 228.58765 0.003257329
295 292.31386 228.55412 0.003389831
290 292.53269 228.52062 0.003448276
264 292.75358 228.48713 0.003787879
271 292.9757 228.45367 0.003690037
290 293.19588 228.42023 0.003448276
291 293.4173 228.38682 0.003436426
281 293.63787 228.35343 0.003558719
278 293.85611 228.32006 0.003597122
305 294.0711 228.28671 0.003278689
301 294.28191 228.25339 0.003322259
298 294.48759 228.22009 0.003355705
298 294.68723 228.18682 0.003355705
302 294.87991 228.15357 0.003311258
298 295.06474 228.12035 0.003355705
294 295.24088 228.08715 0.003401361
295 295.4075 228.05398 0.003389831
305 295.56383 228.02083 0.003278689
311 295.70918 227.9877 0.003215434
284 295.8429 227.95461 0.003521127
295 295.96444 227.92154 0.003389831
308 296.07333 227.88849 0.003246753
288 296.16921 227.85547 0.003472222
303 296.25181 227.82248 0.00330033
304 296.32098 227.78952 0.003289474
290 296.37669 227.75658 0.003448276
316 296.41902 227.72367 0.003164557
290 296.44821 227.69079 0.003448276
297 296.46456 227.65794 0.003367003
324 296.46855 227.62511 0.00308642
320 296.46071 227.59232 0.003125
327 296.44184 227.55955 0.003058104
307 296.4127 227.52681 0.003257329
298 296.37017 227.4941 0.003355705
302 296.32197 227.46142 0.003311258
280 296.2679 227.42877 0.003571429
279 296.20264 227.39615 0.003584229
312 296.1377 227.36356 0.003205128
306 296.06925 227.33101 0.003267974
306 295.99863 227.29848 0.003267974
296 295.92722 227.26598 0.003378378
273 295.85644 227.23351 0.003663004
306 295.78771 227.20108 0.003267974
310 295.71389 227.16867 0.003225806
317 295.65351 227.1363 0.003154574
286 295.59942 227.10396 0.003496503
322 295.55299 227.07166 0.00310559
269 295.51557 227.03938 0.003717472
260 295.48846 227.00714 0.003846154
302 295.47293 226.97493 0.003311258
292 295.47019 226.94276 0.003424658
321 295.4814 226.91062 0.003115265
302 295.50766 226.87851 0.003311258
288 295.55 226.84644 0.003472222
301 295.60939 226.8144 0.003322259
293 295.68673 226.78239 0.003412969
284 295.78286 226.75042 0.003521127
262 295.89852 226.71849 0.003816794
286 296.0344 226.68659 0.003496503
304 296.18694 226.65473 0.003289474
274 296.3644 226.6229 0.003649635
279 296.56428 226.59111 0.003584229
281 296.78636 226.55935 0.003558719
297 297.03092 226.52763 0.003367003
279 297.29819 226.49595 0.003584229
273 297.58832 226.46431 0.003663004
273 297.90136 226.4327 0.003663004
293 298.23731 226.40113 0.003412969
295 298.59607 226.36959 0.003389831
303 298.97693 226.3381 0.00330033
306 299.37545 226.30664 0.003267974
291 299.80135 226.27522 0.003436426
293 300.24893 226.24384 0.003412969
282 300.71772 226.2125 0.003546099
295 301.20718 226.1812 0.003389831
267 301.71669 226.14994 0.003745318
305 302.24558 226.11872 0.003278689
314 302.79311 226.08753 0.003184713
277 303.35845 226.05639 0.003610108
272 303.94074 226.02529 0.003676471
317 304.53906 225.99423 0.003154574
282 305.15244 225.96321 0.003546099
288 305.77986 225.93223 0.003472222
288 306.42026 225.90129 0.003472222
272 307.07255 225.87039 0.003676471
281 307.73561 225.83954 0.003558719
283 308.40829 225.80872 0.003533569
255 309.08943 225.77795 0.003921569
286 309.77785 225.74722 0.003496503
318 310.47237 225.71654 0.003144654
282 311.1718 225.6859 0.003546099
306 311.87498 225.6553 0.003267974
312 312.58073 225.62474 0.003205128
303 313.28789 225.59423 0.00330033
280 313.99532 225.56376 0.003571429
297 314.70189 225.53334 0.003367003
318 315.40649 225.50296 0.003144654
305 316.10774 225.47262 0.003278689
317 316.80516 225.44233 0.003154574
292 317.49739 225.41209 0.003424658
285 318.18341 225.38189 0.003508772
292 318.8622 225.35174 0.003424658
303 319.53275 225.32163 0.00330033
288 320.19405 225.29157 0.003472222
331 320.84512 225.26155 0.003021148
322 321.48497 225.23158 0.00310559
293 322.10833 225.20166 0.003412969
282 322.72277 225.17179 0.003546099
322 323.32299 225.14196 0.00310559
303 323.90802 225.11218 0.00330033
314 324.47683 225.08245 0.003184713
307 325.0284 225.05277 0.003257329
294 325.56172 225.02313 0.003401361
314 326.07576 224.99354 0.003184713
296 326.56949 224.96401 0.003378378
277 327.03505 224.93452 0.003610108
283 327.48512 224.90508 0.003533569
305 327.91185 224.87569 0.003278689
314 328.31426 224.84634 0.003184713
278 328.6914 224.81705 0.003597122
285 329.04236 224.78781 0.003508772
304 329.36624 224.75862 0.003289474
302 329.65978 224.72948 0.003311258
307 329.9271 224.70039 0.003257329
342 330.16503 224.67136 0.002923977
324 330.37293 224.64237 0.00308642
325 330.5502 224.61344 0.003076923
272 330.69636 224.58455 0.003676471
306 330.81095 224.55572 0.003267974
313 330.89363 224.52694 0.003194888
306 330.94415 224.49822 0.003267974
292 330.96229 224.46954 0.003424658
304 330.94794 224.44092 0.003289474
322 330.90107 224.41236 0.00310559
321 330.82173 224.38384 0.003115265
319 330.71002 224.35538 0.003134796
292 330.56614 224.32698 0.003424658
303 330.39032 224.29863 0.00330033
303 330.18289 224.27033 0.00330033
309 329.94421 224.24209 0.003236246
300 329.67473 224.2139 0.003333333
297 329.37491 224.18577 0.003367003
310 329.04528 224.15769 0.003225806
304 328.68642 224.12967 0.003289474
310 328.29894 224.1017 0.003225806
326 327.8835 224.07379 0.003067485
292 327.44077 224.04594 0.003424658
326 326.97134 224.01814 0.003067485
346 326.47625 223.9904 0.002890173
325 325.95613 223.96272 0.003076923
329 325.41179 223.93509 0.003039514
301 324.84404 223.90752 0.003322259
299 324.25373 223.88001 0.003344482
289 323.64173 223.85256 0.003460208
301 323.00888 223.82516 0.003322259
306 322.35611 223.79782 0.003267974
296 321.68428 223.77055 0.003378378
311 320.99431 223.74333 0.003215434
345 320.28711 223.71617 0.002898551
302 319.56357 223.68906 0.003311258
298 318.82461 223.66202 0.003355705
296 318.07113 223.63504 0.003378378
302 317.30404 223.60812 0.003311258
295 316.52423 223.58126 0.003389831
308 315.73259 223.55446 0.003246753
306 314.93 223.52771 0.003267974
292 314.11735 223.50103 0.003424658
290 313.28332 223.47442 0.003448276
311 312.45314 223.44786 0.003215434
332 311.61551 223.42136 0.003012048
316 310.77128 223.39493 0.003164557
310 309.92128 223.36855 0.003225806
295 309.0664 223.34224 0.003389831
309 308.20749 223.316 0.003236246
296 307.34542 223.28981 0.003378378
306 306.48105 223.26369 0.003267974
316 305.61528 223.23763 0.003164557
307 304.74851 223.21163 0.003257329
306 303.88262 223.1857 0.003267974
297 303.01803 223.15983 0.003367003
312 302.15569 223.13403 0.003205128
311 301.29651 223.10829 0.003215434
302 300.44144 223.08261 0.003311258
300 299.59144 223.057 0.003333333
297 298.74747 223.03145 0.003367003
321 297.91048 223.00597 0.003115265
339 297.08142 222.98055 0.002949853
300 296.26071 222.9552 0.003333333
283 295.45036 222.92992 0.003533569
289 294.65076 222.9047 0.003460208
308 293.8628 222.87955 0.003246753
293 293.08734 222.85446 0.003412969
295 292.32525 222.82944 0.003389831
290 291.57731 222.80449 0.003448276
306 290.84429 222.7796 0.003267974
301 290.12692 222.75478 0.003322259
288 289.42586 222.73003 0.003472222
301 288.74172 222.70534 0.003322259
295 288.0742 222.68073 0.003389831
271 287.42555 222.65618 0.003690037
291 286.79532 222.6317 0.003436426
289 286.1839 222.60729 0.003460208
302 285.59161 222.58295 0.003311258
302 285.01867 222.55867 0.003311258
312 284.46521 222.53447 0.003205128
304 283.93148 222.51033 0.003289474
332 283.41746 222.48627 0.003012048
296 282.92313 222.46227 0.003378378
277 282.4484 222.43835 0.003610108
285 281.99313 222.41449 0.003508772
306 281.55711 222.39071 0.003267974
315 281.14006 222.36699 0.003174603
285 280.74167 222.34335 0.003508772
286 280.36154 222.31978 0.003496503
298 279.99925 222.29628 0.003355705
239 279.6543 222.27285 0.0041841
265 279.32617 222.24949 0.003773585
276 279.0143 222.2262 0.003623188
275 278.71806 222.20299 0.003636364
317 278.43683 222.17985 0.003154574
305 278.16994 222.15678 0.003278689
278 277.91669 222.13378 0.003597122
302 277.67639 222.11086 0.003311258
310 277.44831 222.088 0.003225806
299 277.23175 222.06523 0.003344482
280 277.02599 222.04252 0.003571429
282 276.83031 222.01989 0.003546099
267 276.64403 221.99734 0.003745318
280 276.46648 221.97485 0.003571429
274 276.297 221.95245 0.003649635
289 276.135 221.93011 0.003460208
279 275.9799 221.90785 0.003584229
273 275.83116 221.88567 0.003663004
318 275.6883 221.86356 0.003144654
281 275.55092 221.84153 0.003558719
290 275.41861 221.81957 0.003448276
258 275.29106 221.79768 0.003875969
278 275.16802 221.77588 0.003597122
295 275.04928 221.75415 0.003389831
317 274.9347 221.73249 0.003154574
271 274.82421 221.71091 0.003690037
304 274.71777 221.68941 0.003289474
282 274.61541 221.66799 0.003546099
248 274.51722 221.64664 0.004032258
285 274.42333 221.62537 0.003508772
301 274.3339 221.60418 0.003322259
284 274.24916 221.58306 0.003521127
308 274.16935 221.56202 0.003246753
277 274.09361 221.54106 0.003610108
274 274.02453 221.52018 0.003649635
287 273.95546 221.49938 0.003484321
272 273.89841 221.47865 0.003676471
268 273.84791 221.45801 0.003731343
281 273.8043 221.43744 0.003558719
257 273.76793 221.41695 0.003891051
299 273.73917 221.39654 0.003344482
283 273.71837 221.37621 0.003533569
283 273.70586 221.35596 0.003533569
294 273.70197 221.33579 0.003401361
293 273.70701 221.3157 0.003412969
257 273.72127 221.29569 0.003891051
282 273.74502 221.27576 0.003546099
274 273.77851 221.25591 0.003649635
265 273.82198 221.23614 0.003773585
274 273.87561 221.21646 0.003649635
263 273.9396 221.19685 0.003802281
293 274.0141 221.17732 0.003412969
281 274.09923 221.15788 0.003558719
272 274.19509 221.13852 0.003676471
301 274.30169 221.11924 0.003322259
278 274.41923 221.10004 0.003597122
285 274.54767 221.08092 0.003508772
272 274.68699 221.06189 0.003676471
300 274.83672 221.04293 0.003333333
307 274.99772 221.02406 0.003257329
277 275.16945 221.00528 0.003610108
313 275.35044 220.98657 0.003194888
279 275.5433 220.96795 0.003584229
282 275.74649 220.94942 0.003546099
250 275.95983 220.93096 0.004
273 276.18311 220.91259 0.003663004
297 276.41609 220.8943 0.003367003
322 276.65848 220.8761 0.00310559
291 276.91 220.85798 0.003436426
303 277.1703 220.83995 0.00330033
308 277.43902 220.822 0.003246753
281 277.71577 220.80413 0.003558719
279 278.00012 220.78635 0.003584229
257 278.29162 220.76866 0.003891051
278 278.58977 220.75105 0.003597122
302 278.89405 220.73352 0.003311258
287 279.20392 220.71608 0.003484321
283 279.51878 220.69873 0.003533569
326 279.83242 220.68146 0.003067485
280 280.15543 220.66427 0.003571429
320 280.48152 220.64718 0.003125
277 280.80999 220.63017 0.003610108
284 281.14014 220.61324 0.003521127
294 281.46695 220.5964 0.003401361
266 281.79819 220.57965 0.003759398
308 282.12881 220.56299 0.003246753
288 282.45802 220.54641 0.003472222
281 282.78502 220.52992 0.003558719
281 283.10897 220.51351 0.003558719
295 283.42906 220.4972 0.003389831
275 283.74446 220.48097 0.003636364
308 284.05435 220.46483 0.003246753
282 284.35073 220.44877 0.003546099
277 284.64714 220.43281 0.003610108
279 284.93559 220.41693 0.003584229
303 285.21531 220.40114 0.00330033
280 285.48555 220.38544 0.003571429
277 285.74556 220.36983 0.003610108
302 285.99466 220.3543 0.003311258
304 286.23218 220.33887 0.003289474
248 286.45751 220.32352 0.004032258
267 286.67007 220.30827 0.003745318
293 286.86934 220.2931 0.003412969
284 287.05486 220.27802 0.003521127
281 287.2262 220.26303 0.003558719
308 287.38302 220.24813 0.003246753
308 287.52503 220.23332 0.003246753
275 287.65198 220.2186 0.003636364
267 287.76371 220.20397 0.003745318
276 287.8601 220.18943 0.003623188
281 287.94111 220.17498 0.003558719
270 288.00673 220.16062 0.003703704
268 288.05704 220.14635 0.003731343
300 288.09213 220.13217 0.003333333
281 288.11218 220.11808 0.003558719
289 288.11737 220.10408 0.003460208
293 288.10796 220.09018 0.003412969
300 288.08421 220.07636 0.003333333
262 288.04644 220.06264 0.003816794
303 287.99496 220.04901 0.00330033
306 287.93015 220.03547 0.003267974
293 287.85235 220.02202 0.003412969
291 287.76194 220.00866 0.003436426
277 287.65932 219.99539 0.003610108
292 287.54487 219.98222 0.003424658
297 287.41899 219.96913 0.003367003
300 287.28207 219.95614 0.003333333
298 287.13449 219.94325 0.003355705
271 286.97656 219.93044 0.003690037
267 286.80881 219.91773 0.003745318
279 286.63154 219.90511 0.003584229
291 286.44509 219.89258 0.003436426
308 286.24982 219.88014 0.003246753
298 286.04606 219.8678 0.003355705
308 285.83159 219.85555 0.003246753
275 285.61003 219.84339 0.003636364
286 285.38272 219.83133 0.003496503
291 285.14811 219.81936 0.003436426
285 284.90656 219.80748 0.003508772
274 284.65829 219.7957 0.003649635
300 284.39592 219.78401 0.003333333
288 284.13497 219.77242 0.003472222
280 283.86801 219.76091 0.003571429
289 283.59378 219.7495 0.003460208
292 283.31543 219.73819 0.003424658
276 283.03167 219.72697 0.003623188
278 282.74266 219.71584 0.003597122
242 282.44856 219.70481 0.004132231
273 282.14952 219.69387 0.003663004
270 281.84565 219.68303 0.003703704
290 281.53708 219.67228 0.003448276
282 281.22389 219.66163 0.003546099
312 280.90255 219.65107 0.003205128
290 280.58036 219.6406 0.003448276
271 280.25375 219.63023 0.003690037
285 279.92276 219.61996 0.003508772
257 279.58739 219.60978 0.003891051
265 279.24765 219.59969 0.003773585
276 278.90354 219.5897 0.003623188
281 278.55503 219.57981 0.003558719
271 278.20209 219.57001 0.003690037
279 277.84466 219.5603 0.003584229
267 277.48272 219.55069 0.003745318
280 277.11619 219.54118 0.003571429
257 276.74503 219.53176 0.003891051
295 276.36918 219.52244 0.003389831
266 275.98861 219.51321 0.003759398
277 275.60327 219.50408 0.003610108
283 275.21313 219.49505 0.003533569
274 274.81819 219.48611 0.003649635
298 274.41848 219.47726 0.003355705
308 274.01401 219.46852 0.003246753
286 273.60487 219.45986 0.003496503
289 273.19114 219.45131 0.003460208
268 272.77297 219.44285 0.003731343
266 272.3505 219.43449 0.003759398
281 271.92395 219.42622 0.003558719
283 271.49356 219.41805 0.003533569
285 271.05961 219.40998 0.003508772
275 270.62203 219.402 0.003636364
259 270.18193 219.39412 0.003861004
306 269.73934 219.38634 0.003267974
258 269.29465 219.37865 0.003875969
296 268.84834 219.37106 0.003378378
281 268.40089 219.36356 0.003558719
287 267.95279 219.35617 0.003484321
277 267.5046 219.34886 0.003610108
247 267.05684 219.34166 0.004048583
272 266.61009 219.33455 0.003676471
295 266.16454 219.32754 0.003389831
278 265.72153 219.32063 0.003597122
276 265.28125 219.31381 0.003623188
269 264.83736 219.30709 0.003717472
272 264.40433 219.30047 0.003676471
306 263.97578 219.29395 0.003267974
250 263.55228 219.28752 0.004
253 263.13439 219.28119 0.003952569
247 262.72264 219.27495 0.004048583
278 262.31756 219.26882 0.003597122
272 261.91965 219.26278 0.003676471
291 261.52941 219.25684 0.003436426
271 261.14728 219.25099 0.003690037
272 260.77373 219.24524 0.003676471
260 260.40898 219.23959 0.003846154
280 260.05378 219.23404 0.003571429
259 259.70832 219.22858 0.003861004
261 259.37295 219.22323 0.003831418
283 259.04796 219.21796 0.003533569
264 258.73364 219.2128 0.003787879
286 258.43026 219.20773 0.003496503
272 258.13802 219.20277 0.003676471
275 257.85714 219.19789 0.003636364
237 257.58777 219.19312 0.004219409
280 257.33005 219.18844 0.003571429
266 257.07854 219.18386 0.003759398
301 256.84444 219.17938 0.003322259
289 256.62223 219.175 0.003460208
285 256.41194 219.17071 0.003508772
302 256.21356 219.16652 0.003311258
271 256.01763 219.16243 0.003690037
271 255.84297 219.15843 0.003690037
277 255.68006 219.15454 0.003610108
269 255.52876 219.15074 0.003717472
243 255.38897 219.14703 0.004115226
265 255.26051 219.14343 0.003773585
259 255.14321 219.13992 0.003861004
280 255.03685 219.13651 0.003571429
242 254.94121 219.1332 0.004132231
284 254.85603 219.12998 0.003521127
261 254.78105 219.12686 0.003831418
280 254.71595 219.12384 0.003571429
262 254.66044 219.12092 0.003816794
260 254.61415 219.11809 0.003846154
265 254.57673 219.11536 0.003773585
281 254.5478 219.11273 0.003558719
259 254.52695 219.1102 0.003861004
256 254.51374 219.10776 0.00390625
271 254.50774 219.10542 0.003690037
282 254.50847 219.10317 0.003546099
276 254.51544 219.10103 0.003623188
283 254.52813 219.09898 0.003533569
266 254.54603 219.09702 0.003759398
266 254.56857 219.09517 0.003759398
266 254.59519 219.09341 0.003759398
251 254.62531 219.09175 0.003984064
256 254.65832 219.09018 0.00390625
274 254.69363 219.08871 0.003649635
250 254.73059 219.08734 0.004
251 254.76858 219.08607 0.003984064
287 254.80697 219.08489 0.003484321
261 254.8451 219.08381 0.003831418
282 254.88234 219.08282 0.003546099
289 254.91805 219.08193 0.003460208
246 254.9516 219.08114 0.004065041
264 254.98235 219.08045 0.003787879
283 255.00971 219.07985 0.003533569
302 255.03307 219.07934 0.003311258
261 255.05187 219.07894 0.003831418
265 255.06419 219.07863 0.003773585
264 255.07226 219.07841 0.003787879
299 255.07422 219.07829 0.003344482
270 255.06632 219.07827 0.003703704
270 255.05476 219.07834 0.003703704
251 255.03585 219.07851 0.003984064
276 255.00929 219.07878 0.003623188
272 254.97075 219.07914 0.003676471
276 254.92809 219.07959 0.003623188
273 254.87708 219.08015 0.003663004
276 254.8176 219.08079 0.003623188
246 254.74957 219.08153 0.004065041
254 254.67296 219.08237 0.003937008
295 254.58779 219.08331 0.003389831
265 254.49414 219.08433 0.003773585
265 254.39211 219.08546 0.003773585
259 254.28187 219.08667 0.003861004
266 254.16362 219.08799 0.003759398
245 254.0376 219.08939 0.004081633
269 253.90408 219.0909 0.003717472
266 253.76336 219.09249 0.003759398
261 253.61578 219.09418 0.003831418
274 253.4617 219.09597 0.003649635
291 253.3015 219.09785 0.003436426
270 253.13557 219.09982 0.003703704
265 252.96431 219.10189 0.003773585
274 252.78814 219.10405 0.003649635
291 252.60749 219.10631 0.003436426
284 252.42276 219.10866 0.003521127
283 252.23438 219.1111 0.003533569
268 252.04277 219.11364 0.003731343
261 251.84833 219.11627 0.003831418
280 251.65128 219.11899 0.003571429
274 251.45238 219.12181 0.003649635
257 251.2518 219.12472 0.003891051
257 251.04992 219.12772 0.003891051
268 250.84708 219.13081 0.003731343
248 250.64359 219.134 0.004032258
280 250.43978 219.13728 0.003571429
250 250.23594 219.14066 0.004
257 250.03233 219.14412 0.003891051
245 249.82922 219.14768 0.004081633
237 249.62685 219.15133 0.004219409
251 249.42545 219.15507 0.003984064
271 249.22523 219.1589 0.003690037
272 249.02639 219.16283 0.003676471
308 248.8291 219.16684 0.003246753
257 248.63356 219.17095 0.003891051
241 248.43992 219.17515 0.004149378
267 248.24835 219.17944 0.003745318
271 248.0537 219.18382 0.003690037
263 247.86671 219.18829 0.003802281
249 247.68224 219.19285 0.004016064
258 247.50041 219.19751 0.003875969
251 247.32139 219.20225 0.003984064
262 247.1453 219.20708 0.003816794
280 246.97231 219.212 0.003571429
250 246.80255 219.21702 0.004
256 246.63409 219.22212 0.00390625
248 246.47127 219.22731 0.004032258
284 246.31215 219.23259 0.003521127
261 246.15691 219.23796 0.003831418
259 246.00571 219.24342 0.003861004
248 245.85873 219.24897 0.004032258
257 245.71614 219.25461 0.003891051
239 245.57812 219.26033 0.0041841
227 245.44486 219.26615 0.004405286
243 245.31653 219.27205 0.004115226
274 245.19331 219.27804 0.003649635
253 245.0754 219.28411 0.003952569
267 244.96295 219.29028 0.003745318
259 244.85615 219.29653 0.003861004
247 244.75516 219.30287 0.004048583
265 244.66015 219.3093 0.003773585
271 244.57127 219.31581 0.003690037
276 244.48867 219.32241 0.003623188
254 244.40748 219.3291 0.003937008
258 244.33783 219.33587 0.003875969
271 244.27485 219.34273 0.003690037
289 244.21863 219.34967 0.003460208
279 244.16928 219.3567 0.003584229
273 244.12686 219.36382 0.003663004
238 244.09146 219.37102 0.004201681
255 244.06313 219.3783 0.003921569
258 244.04193 219.38567 0.003875969
275 244.02788 219.39313 0.003636364
258 244.02101 219.40067 0.003875969
245 244.02133 219.40829 0.004081633
251 244.02885 219.416 0.003984064
259 244.04355 219.42379 0.003861004
275 244.06543 219.43166 0.003636364
250 244.09444 219.43962 0.004
241 244.13055 219.44766 0.004149378
255 244.17371 219.45579 0.003921569
254 244.22387 219.46399 0.003937008
235 244.28096 219.47228 0.004255319
243 244.34492 219.48065 0.004115226
277 244.41566 219.4891 0.003610108
247 244.4931 219.49764 0.004048583
250 244.57716 219.50625 0.004
274 244.66773 219.51495 0.003649635
261 244.76473 219.52373 0.003831418
246 244.86804 219.53259 0.004065041
258 244.97756 219.54152 0.003875969
235 245.09318 219.55054 0.004255319
256 245.21479 219.55964 0.00390625
246 245.34229 219.56882 0.004065041
222 245.47554 219.57808 0.004504505
233 245.61444 219.58741 0.004291845
252 245.75888 219.59683 0.003968254
258 245.90874 219.60632 0.003875969
244 246.0639 219.6159 0.004098361
254 246.22424 219.62555 0.003937008
244 246.38967 219.63527 0.004098361
246 246.5543 219.64508 0.004065041
254 246.72955 219.65496 0.003937008
270 246.90953 219.66492 0.003703704
260 247.09414 219.67496 0.003846154
230 247.28326 219.68507 0.004347826
247 247.47678 219.69526 0.004048583
241 247.67459 219.70553 0.004149378
239 247.87657 219.71587 0.0041841
259 248.08166 219.72629 0.003861004
291 248.29163 219.73678 0.003436426
270 248.50542 219.74734 0.003703704
275 248.7229 219.75798 0.003636364
256 248.94395 219.7687 0.00390625
257 249.16842 219.77949 0.003891051
252 249.39618 219.79035 0.003968254
276 249.62711 219.80128 0.003623188
277 249.86105 219.81229 0.003610108
270 250.09786 219.82337 0.003703704
272 250.3374 219.83452 0.003676471
242 250.5795 219.84575 0.004132231
273 250.82403 219.85704 0.003663004
260 251.07083 219.86841 0.003846154
243 251.31976 219.87985 0.004115226
281 251.57066 219.89136 0.003558719
245 251.82338 219.90294 0.004081633
254 252.0778 219.91459 0.003937008
254 252.33377 219.92631 0.003937008
228 252.59118 219.9381 0.004385965
244 252.84989 219.94996 0.004098361
288 253.10982 219.96189 0.003472222
291 253.37085 219.97388 0.003436426
269 253.63291 219.98595 0.003717472
274 253.89594 219.99808 0.003649635
267 254.15981 220.01028 0.003745318
281 254.42395 220.02255 0.003558719
280 254.68958 220.03488 0.003571429
251 254.95605 220.04728 0.003984064
269 255.21842 220.05974 0.003717472
271 255.4866 220.07228 0.003690037
260 255.75569 220.08487 0.003846154
268 256.02572 220.09753 0.003731343
273 256.29677 220.11026 0.003663004
259 256.56891 220.12305 0.003861004
281 256.84222 220.13591 0.003558719
232 257.1168 220.14883 0.004310345
256 257.39275 220.16181 0.00390625
261 257.67016 220.17485 0.003831418
256 257.94915 220.18796 0.00390625
252 258.22981 220.20113 0.003968254
260 258.51225 220.21436 0.003846154
269 258.79657 220.22765 0.003717472
250 259.08284 220.241 0.004
286 259.37115 220.25442 0.003496503
267 259.66157 220.26789 0.003745318
269 259.95413 220.28143 0.003717472
274 260.24888 220.29502 0.003649635
273 260.54583 220.30867 0.003663004
278 260.84497 220.32239 0.003597122
259 261.14627 220.33615 0.003861004
263 261.44966 220.34998 0.003802281
252 261.75509 220.36387 0.003968254
278 262.06242 220.37781 0.003597122
278 262.37154 220.39181 0.003597122
276 262.68228 220.40586 0.003623188
247 262.99445 220.41998 0.004048583
264 263.30782 220.43414 0.003787879
263 263.62216 220.44836 0.003802281
274 263.9372 220.46264 0.003649635
252 264.25263 220.47697 0.003968254
266 264.56814 220.49136 0.003759398
251 264.87998 220.5058 0.003984064
276 265.1946 220.52029 0.003623188
272 265.50531 220.53483 0.003676471
280 265.8175 220.54943 0.003571429
263 266.12788 220.56408 0.003802281
266 266.43601 220.57877 0.003759398
248 266.74147 220.59353 0.004032258
252 267.04382 220.60833 0.003968254
286 267.34262 220.62318 0.003496503
278 267.63745 220.63808 0.003597122
239 267.92787 220.65303 0.0041841
263 268.21347 220.66802 0.003802281
243 268.49382 220.68307 0.004115226
276 268.76855 220.69817 0.003623188
264 269.03725 220.71331 0.003787879
266 269.29957 220.7285 0.003759398
261 269.55517 220.74373 0.003831418
275 269.80373 220.75901 0.003636364
252 270.04495 220.77434 0.003968254
283 270.27856 220.78971 0.003533569
255 270.50431 220.80513 0.003921569
242 270.722 220.82059 0.004132231
271 270.93142 220.8361 0.003690037
263 271.13242 220.85164 0.003802281
286 271.32486 220.86723 0.003496503
269 271.50864 220.88287 0.003717472
278 271.68365 220.89854 0.003597122
295 271.84986 220.91426 0.003389831
283 272.00096 220.93002 0.003533569
266 272.14946 220.94582 0.003759398
283 272.28912 220.96165 0.003533569
298 272.41994 220.97753 0.003355705
266 272.54198 220.99345 0.003759398
265 272.6553 221.0094 0.003773585
244 272.75996 221.0254 0.004098361
273 272.85606 221.04143 0.003663004
284 272.94369 221.05749 0.003521127
275 273.02295 221.0736 0.003636364
266 273.09396 221.08974 0.003759398
274 273.15684 221.10591 0.003649635
293 273.20883 221.12213 0.003412969
281 273.2558 221.13837 0.003558719
254 273.29501 221.15465 0.003937008
258 273.32287 221.17096 0.003875969
263 273.34693 221.18731 0.003802281
245 273.36359 221.20369 0.004081633
263 273.37298 221.2201 0.003802281
268 273.3752 221.23654 0.003731343
274 273.37037 221.25301 0.003649635
285 273.35809 221.26952 0.003508772
231 273.33944 221.28605 0.004329004
269 273.31402 221.30261 0.003717472
241 273.2819 221.3192 0.004149378
276 273.24095 221.33582 0.003623188
258 273.19562 221.35247 0.003875969
259 273.14375 221.36915 0.003861004
245 273.08537 221.38585 0.004081633
258 273.02053 221.40258 0.003875969
292 272.94921 221.41933 0.003424658
277 272.87141 221.43611 0.003610108
265 272.78713 221.45291 0.003773585
260 272.69633 221.46974 0.003846154
286 272.59898 221.48659 0.003496503
250 272.49493 221.50347 0.004
264 272.38149 221.52036 0.003787879
276 272.26418 221.53728 0.003623188
252 272.14008 221.55422 0.003968254
264 272.00913 221.57118 0.003787879
240 271.87124 221.58816 0.004166667
285 271.7254 221.60516 0.003508772
254 271.57341 221.62218 0.003937008
275 271.41423 221.63922 0.003636364
267 271.24783 221.65627 0.003745318
286 271.07411 221.67334 0.003496503
270 270.89303 221.69043 0.003703704
269 270.70455 221.70754 0.003717472
263 270.50863 221.72466 0.003802281
274 270.30526 221.7418 0.003649635
259 270.09444 221.75895 0.003861004
269 269.87621 221.77611 0.003717472
250 269.6506 221.79329 0.004
268 269.4177 221.81048 0.003731343
275 269.1776 221.82768 0.003636364
266 268.93043 221.8449 0.003759398
283 268.67634 221.86212 0.003533569
276 268.41551 221.87936 0.003623188
274 268.14818 221.8966 0.003649635
261 267.87457 221.91386 0.003831418
252 267.59497 221.93112 0.003968254
249 267.30968 221.94839 0.004016064
256 267.01905 221.96567 0.00390625
266 266.72343 221.98295 0.003759398
275 266.42323 222.00024 0.003636364
279 266.11885 222.01754 0.003584229
251 265.81075 222.03484 0.003984064
240 265.49938 222.05215 0.004166667
266 265.18524 222.06946 0.003759398
253 264.86882 222.08677 0.003952569
252 264.55063 222.10408 0.003968254
252 264.23122 222.1214 0.003968254
268 263.91106 222.13872 0.003731343
259 263.5908 222.15603 0.003861004
262 263.27093 222.17335 0.003816794
285 262.95202 222.19067 0.003508772
277 262.63461 222.20799 0.003610108
267 262.31923 222.2253 0.003745318
277 262.00645 222.24261 0.003610108
283 261.69678 222.25992 0.003533569
273 261.39075 222.27722 0.003663004
236 261.08888 222.29452 0.004237288
247 260.79167 222.31182 0.004048583
286 260.4996 222.32911 0.003496503
295 260.21314 222.34639 0.003389831
243 259.93276 222.36366 0.004115226
249 259.65889 222.38093 0.004016064
257 259.39196 222.39819 0.003891051
233 259.13238 222.41544 0.004291845
250 258.88053 222.43268 0.004
252 258.6368 222.44991 0.003968254
252 258.40154 222.46713 0.003968254
260 258.17508 222.48433 0.003846154
260 257.95588 222.50153 0.003846154
230 257.74801 222.51871 0.004347826
245 257.54987 222.53588 0.004081633
288 257.36173 222.55303 0.003472222
235 257.18387 222.57017 0.004255319
273 257.01652 222.58729 0.003663004
271 256.85992 222.6044 0.003690037
281 256.71428 222.62149 0.003558719
267 256.57981 222.63856 0.003745318
266 256.45667 222.65561 0.003759398
266 256.34506 222.67264 0.003759398
255 256.24512 222.68966 0.003921569
281 256.15699 222.70665 0.003558719
263 256.0808 222.72362 0.003802281
210 256.01665 222.74057 0.004761905
249 255.96464 222.7575 0.004016064
257 255.92484 222.77441 0.003891051
248 255.8973 222.79129 0.004032258
236 255.88206 222.80814 0.004237288
260 255.87915 222.82497 0.003846154
278 255.88855 222.84178 0.003597122
271 255.91027 222.85856 0.003690037
259 255.94424 222.87531 0.003861004
251 255.99042 222.89203 0.003984064
273 256.04872 222.90872 0.003663004
289 256.11904 222.92539 0.003460208
255 256.20126 222.94202 0.003921569
243 256.29523 222.95863 0.004115226
243 256.40079 222.9752 0.004115226
268 256.51775 222.99174 0.003731343
271 256.6459 223.00824 0.003690037
245 256.78501 223.02471 0.004081633
238 256.93485 223.04115 0.004201681
235 257.08813 223.05755 0.004255319
268 257.2586 223.07392 0.003731343
269 257.43893 223.09025 0.003717472
259 257.62881 223.10654 0.003861004
276 257.8279 223.12279 0.003623188
256 258.03586 223.13901 0.00390625
254 258.25231 223.15518 0.003937008
244 258.47527 223.17132 0.004098361
266 258.7076 223.18741 0.003759398
252 258.94728 223.20346 0.003968254
271 259.1939 223.21947 0.003690037
260 259.44706 223.23544 0.003846154
229 259.70634 223.25136 0.004366812
267 259.97132 223.26724 0.003745318
257 260.24157 223.28307 0.003891051
261 260.51271 223.29886 0.003831418
261 260.78818 223.3146 0.003831418
255 261.0717 223.33029 0.003921569
250 261.35878 223.34593 0.004
256 261.64899 223.36152 0.00390625
245 261.94189 223.37707 0.004081633
281 262.23706 223.39256 0.003558719
243 262.53407 223.408 0.004115226
218 262.83249 223.42339 0.004587156
259 263.13189 223.43873 0.003861004
281 263.43186 223.45401 0.003558719
239 263.73198 223.46924 0.0041841
255 264.03181 223.48441 0.003921569
244 264.33094 223.49953 0.004098361
247 264.62896 223.51459 0.004048583
262 264.92544 223.52959 0.003816794
270 265.21996 223.54453 0.003703704
249 265.5121 223.55942 0.004016064
239 265.80145 223.57424 0.0041841
263 266.08758 223.58901 0.003802281
274 266.37007 223.60371 0.003649635
246 266.6485 223.61835 0.004065041
254 266.92245 223.63293 0.003937008
253 267.19148 223.64745 0.003952569
250 267.45517 223.6619 0.004
264 267.7131 223.67628 0.003787879
256 267.96484 223.6906 0.00390625
247 268.20995 223.70485 0.004048583
252 268.44803 223.71904 0.003968254
259 268.67863 223.73315 0.003861004
273 268.90136 223.7472 0.003663004
263 269.11579 223.76118 0.003802281
278 269.32152 223.77508 0.003597122
262 269.51817 223.78892 0.003816794
244 269.70536 223.80268 0.004098361
246 269.88273 223.81637 0.004065041
244 270.04966 223.82999 0.004098361
260 270.20637 223.84353 0.003846154
250 270.35228 223.857 0.004
252 270.48713 223.87039 0.003968254
282 270.61065 223.8837 0.003546099
266 270.72264 223.89693 0.003759398
263 270.82291 223.91009 0.003802281
252 270.91129 223.92317 0.003968254
235 270.98768 223.93617 0.004255319
258 271.05198 223.94908 0.003875969
242 271.10279 223.96192 0.004132231
273 271.14103 223.97467 0.003663004
266 271.16891 223.98734 0.003759398
271 271.1847 223.99992 0.003690037
271 271.18849 224.01242 0.003690037
245 271.1804 224.02484 0.004081633
240 271.16058 224.03717 0.004166667
254 271.12921 224.04941 0.003937008
251 271.08647 224.06156 0.003984064
259 271.03261 224.07362 0.003861004
231 270.96786 224.0856 0.004329004
239 270.8925 224.09748 0.0041841
273 270.80679 224.10927 0.003663004
237 270.71105 224.12097 0.004219409
265 270.60558 224.13258 0.003773585
256 270.49068 224.14409 0.00390625
264 270.36625 224.15551 0.003787879
266 270.23349 224.16684 0.003759398
286 270.09229 224.17806 0.003496503
272 269.94297 224.18919 0.003676471
257 269.78586 224.20023 0.003891051
267 269.61836 224.21116 0.003745318
255 269.44664 224.222 0.003921569
273 269.26808 224.23273 0.003663004
266 269.08298 224.24337 0.003759398
251 268.89164 224.2539 0.003984064
287 268.69435 224.26433 0.003484321
234 268.49013 224.27465 0.004273504
247 268.28174 224.28488 0.004048583
271 268.06821 224.29499 0.003690037
259 267.84976 224.305 0.003861004
254 267.62664 224.31491 0.003937008
253 267.39907 224.32471 0.003952569
260 267.16634 224.3344 0.003846154
261 266.93053 224.34398 0.003831418
255 266.69089 224.35345 0.003921569
270 266.44763 224.36281 0.003703704
268 266.20094 224.37205 0.003731343
266 265.95099 224.38119 0.003759398
247 265.69797 224.39021 0.004048583
258 265.44205 224.39912 0.003875969
281 265.1834 224.40791 0.003558719
269 264.92219 224.41659 0.003717472
259 264.6586 224.42515 0.003861004
271 264.39279 224.4336 0.003690037
262 264.12493 224.44193 0.003816794
262 263.85519 224.45013 0.003816794
239 263.58374 224.45822 0.0041841
280 263.31075 224.46619 0.003571429
239 263.03639 224.47404 0.0041841
260 262.76084 224.48176 0.003846154
245 262.48426 224.48936 0.004081633
274 262.20683 224.49684 0.003649635
276 261.92872 224.50419 0.003623188
239 261.65011 224.51142 0.0041841
291 261.37117 224.51852 0.003436426
248 261.09206 224.5255 0.004032258
237 260.81296 224.53235 0.004219409
277 260.53402 224.53907 0.003610108
235 260.25542 224.54566 0.004255319
309 259.9773 224.55212 0.003236246
281 259.69691 224.55844 0.003558719
273 259.41536 224.56464 0.003663004
245 259.13963 224.5707 0.004081633
268 258.86498 224.57664 0.003731343
252 258.59153 224.58243 0.003968254
274 258.31942 224.58809 0.003649635
273 258.04878 224.59362 0.003663004
228 257.77971 224.59901 0.004385965
238 257.51233 224.60426 0.004201681
268 257.24675 224.60937 0.003731343
244 256.98309 224.61435 0.004098361
255 256.72143 224.61918 0.003921569
282 256.46188 224.62388 0.003546099
272 256.20339 224.62843 0.003676471
243 255.94836 224.63284 0.004115226
241 255.69574 224.63711 0.004149378
253 255.44564 224.64123 0.003952569
272 255.19815 224.64521 0.003676471
264 254.95338 224.64904 0.003787879
255 254.71145 224.65273 0.003921569
240 254.47247 224.65627 0.004166667
267 254.23657 224.65966 0.003745318
260 254.00389 224.66291 0.003846154
263 253.77455 224.666 0.003802281
241 253.54518 224.66895 0.004149378
250 253.323 224.67174 0.004
232 253.10464 224.67438 0.004310345
250 252.89027 224.67687 0.004
266 252.67749 224.67921 0.003759398
253 252.46672 224.68139 0.003952569
274 252.26546 224.68342 0.003649635
264 252.06885 224.68529 0.003787879
242 251.87734 224.687 0.004132231
242 251.69102 224.68856 0.004132231
252 251.51012 224.68996 0.003968254
254 251.33488 224.6912 0.003937008
250 251.16552 224.69228 0.004
257 251.00228 224.6932 0.003891051
239 250.84541 224.69396 0.0041841
257 250.69513 224.69456 0.003891051
269 250.55169 224.69499 0.003717472
244 250.41534 224.69526 0.004098361
237 250.28629 224.69537 0.004219409
247 250.1648 224.69531 0.004048583
265 250.05108 224.69509 0.003773585
280 249.94536 224.6947 0.003571429
240 249.84787 224.69414 0.004166667
250 249.75823 224.69342 0.004
261 249.6778 224.69252 0.003831418
236 249.60622 224.69146 0.004237288
234 249.54366 224.69023 0.004273504
255 249.48502 224.68882 0.003921569
262 249.44104 224.68724 0.003816794
237 249.4066 224.6855 0.004219409
259 249.38183 224.68357 0.003861004
231 249.36687 224.68148 0.004329004
243 249.36184 224.67921 0.004115226
242 249.36686 224.67676 0.004132231
231 249.38202 224.67414 0.004329004
252 249.4074 224.67134 0.003968254
231 249.43696 224.66836 0.004329004
251 249.483 224.6652 0.003984064
279 249.53943 224.66187 0.003584229
245 249.60629 224.65835 0.004081633
259 249.68359 224.65466 0.003861004
226 249.77132 224.65078 0.004424779
224 249.86947 224.64672 0.004464286
261 249.97802 224.64248 0.003831418
283 250.09691 224.63805 0.003533569
253 250.2261 224.63344 0.003952569
230 250.3655 224.62865 0.004347826
229 250.51504 224.62367 0.004366812
254 250.67459 224.6185 0.003937008
251 250.84406 224.61315 0.003984064
246 251.02329 224.60761 0.004065041
240 251.21216 224.60188 0.004166667
243 251.40774 224.59596 0.004115226
260 251.61536 224.58985 0.003846154
226 251.83209 224.58355 0.004424779
271 252.05771 224.57706 0.003690037
260 252.29201 224.57038 0.003846154
257 252.53236 224.56351 0.003891051
225 252.78331 224.55644 0.004444444
270 253.04221 224.54918 0.003703704
274 253.30879 224.54172 0.003649635
268 253.58277 224.53407 0.003731343
255 253.86385 224.52623 0.003921569
255 254.15173 224.51818 0.003921569
231 254.44609 224.50994 0.004329004
240 254.74661 224.5015 0.004166667
254 255.05296 224.49287 0.003937008
225 255.36478 224.48403 0.004444444
260 255.68174 224.475 0.003846154
238 256.00346 224.46576 0.004201681
256 256.32959 224.45632 0.00390625
253 256.65973 224.44669 0.003952569
237 256.99352 224.43684 0.004219409
244 257.33057 224.4268 0.004098361
267 257.67048 224.41655 0.003745318
241 258.01287 224.4061 0.004149378
238 258.35732 224.39545 0.004201681
250 258.70345 224.38458 0.004
274 259.05084 224.37352 0.003649635
229 259.3991 224.36224 0.004366812
245 259.74783 224.35076 0.004081633
285 260.09663 224.33907 0.003508772
258 260.44509 224.32718 0.003875969
260 260.79283 224.31507 0.003846154
249 261.13946 224.30275 0.004016064
260 261.48461 224.29023 0.003846154
247 261.8279 224.27749 0.004048583
261 262.16898 224.26454 0.003831418
246 262.50749 224.25138 0.004065041
258 262.84311 224.23801 0.003875969
230 263.17552 224.22443 0.004347826
255 263.50441 224.21063 0.003921569
256 263.82952 224.19662 0.00390625
261 264.15057 224.18239 0.003831418
252 264.46733 224.16795 0.003968254
244 264.77958 224.15329 0.004098361
244 265.08714 224.13842 0.004098361
250 265.38983 224.12333 0.004
269 265.68753 224.10802 0.003717472
277 265.98011 224.0925 0.003610108
261 266.2675 224.07675 0.003831418
282 266.54964 224.06079 0.003546099
260 266.82652 224.04461 0.003846154
275 267.09813 224.02821 0.003636364
287 267.36357 224.01159 0.003484321
263 267.6243 223.99475 0.003802281
274 267.88044 223.97769 0.003649635
271 268.1316 223.9604 0.003690037
259 268.37795 223.9429 0.003861004
255 268.61964 223.92517 0.003921569
276 268.85687 223.90722 0.003623188
259 269.08985 223.88904 0.003861004
265 269.3188 223.87065 0.003773585
262 269.54397 223.85202 0.003816794
248 269.76563 223.83318 0.004032258
264 269.98404 223.8141 0.003787879
236 270.19949 223.79481 0.004237288
232 270.41226 223.77528 0.004310345
293 270.62265 223.75553 0.003412969
284 270.8309 223.73555 0.003521127
270 271.0374 223.71535 0.003703704
267 271.2424 223.69492 0.003745318
267 271.44616 223.67426 0.003745318
282 271.64897 223.65337 0.003546099
247 271.85106 223.63225 0.004048583
271 272.05269 223.61091 0.003690037
261 272.25408 223.58933 0.003831418
272 272.45542 223.56753 0.003676471
258 272.65689 223.54549 0.003875969
287 272.85865 223.52323 0.003484321
277 273.06083 223.50073 0.003610108
254 273.26353 223.47801 0.003937008
283 273.46681 223.45505 0.003533569
267 273.67034 223.43186 0.003745318
290 273.87487 223.40844 0.003448276
270 274.08002 223.38478 0.003703704
255 274.28571 223.3609 0.003921569
294 274.49187 223.33678 0.003401361
278 274.69732 223.31242 0.003597122
279 274.904 223.28784 0.003584229
267 275.10835 223.26302 0.003745318
250 275.31482 223.23796 0.004
241 275.52085 223.21268 0.004149378
269 275.72333 223.18715 0.003717472
262 275.9276 223.1614 0.003816794
283 276.13053 223.1354 0.003533569
281 276.33176 223.10918 0.003558719
243 276.53087 223.08272 0.004115226
264 276.72762 223.05602 0.003787879
286 276.92156 223.02909 0.003496503
275 277.11227 223.00192 0.003636364
297 277.29933 222.97451 0.003367003
272 277.48234 222.94687 0.003676471
292 277.66087 222.91899 0.003424658
287 277.83449 222.89088 0.003484321
274 278.00279 222.86253 0.003649635
254 278.16496 222.83394 0.003937008
253 278.32109 222.80512 0.003952569
272 278.47095 222.77606 0.003676471
287 278.61387 222.74676 0.003484321
275 278.74949 222.71722 0.003636364
248 278.87743 222.68745 0.004032258
279 278.99734 222.65744 0.003584229
284 279.10892 222.62719 0.003521127
268 279.21183 222.59671 0.003731343
275 279.30314 222.56598 0.003636364
284 279.38786 222.53502 0.003521127
260 279.4631 222.50382 0.003846154
272 279.5286 222.47239 0.003676471
280 279.58415 222.44072 0.003571429
301 279.62954 222.4088 0.003322259
280 279.66458 222.37666 0.003571429
263 279.68909 222.34427 0.003802281
269 279.70293 222.31164 0.003717472
300 279.70595 222.27878 0.003333333
284 279.69801 222.24568 0.003521127
290 279.67901 222.21235 0.003448276
292 279.64448 222.17877 0.003424658
267 279.60304 222.14496 0.003745318
311 279.55024 222.11091 0.003215434
282 279.48602 222.07662 0.003546099
280 279.41029 222.0421 0.003571429
283 279.32301 222.00734 0.003533569
299 279.22411 221.97234 0.003344482
302 279.11356 221.93711 0.003311258
288 278.99131 221.90164 0.003472222
287 278.85731 221.86593 0.003484321
319 278.71153 221.82998 0.003134796
271 278.55355 221.7938 0.003690037
286 278.38414 221.75739 0.003496503
306 278.20286 221.72074 0.003267974
291 278.00972 221.68385 0.003436426
316 277.80468 221.64673 0.003164557
253 277.58774 221.60937 0.003952569
244 277.3589 221.57178 0.004098361
263 277.11816 221.53395 0.003802281
287 276.86552 221.49589 0.003484321
275 276.60101 221.45759 0.003636364
279 276.32466 221.41906 0.003584229
300 276.03651 221.3803 0.003333333
271 275.73661 221.3413 0.003690037
283 275.42504 221.30207 0.003533569
272 275.10187 221.26261 0.003676471
249 274.76522 221.22291 0.004016064
304 274.4192 221.18299 0.003289474
314 274.06197 221.14283 0.003184713
284 273.69368 221.10244 0.003521127
257 273.31452 221.06182 0.003891051
255 272.92472 221.02097 0.003921569
291 272.52451 220.97989 0.003436426
245 272.11416 220.93858 0.004081633
292 271.69394 220.89705 0.003424658
274 271.26399 220.85528 0.003649635
265 270.82503 220.81329 0.003773585
252 270.37722 220.77106 0.003968254
286 269.92097 220.72861 0.003496503
277 269.45668 220.68594 0.003610108
292 268.98477 220.64304 0.003424658
264 268.5057 220.59991 0.003787879
284 268.01993 220.55656 0.003521127
294 267.52796 220.51298 0.003401361
274 267.03027 220.46918 0.003649635
257 266.52738 220.42515 0.003891051
262 266.01981 220.38091 0.003816794
261 265.50807 220.33644 0.003831418
262 264.99187 220.29175 0.003816794
273 264.47343 220.24684 0.003663004
254 263.95244 220.20171 0.003937008
263 263.42943 220.15636 0.003802281
285 262.90493 220.11079 0.003508772
275 262.37948 220.065 0.003636364
278 261.8536 220.019 0.003597122
263 261.32779 219.97278 0.003802281
258 260.80256 219.92634 0.003875969
250 260.27829 219.87969 0.004
274 259.75567 219.83283 0.003649635
276 259.23505 219.78575 0.003623188
250 258.71688 219.73846 0.004
257 258.2016 219.69095 0.003891051
265 257.6896 219.64324 0.003773585
262 257.1813 219.59531 0.003816794
247 256.67705 219.54718 0.004048583
262 256.17723 219.49884 0.003816794
252 255.68216 219.45029 0.003968254
247 255.19218 219.40153 0.004048583
263 254.70757 219.35257 0.003802281
260 254.22863 219.30341 0.003846154
264 253.75562 219.25404 0.003787879
222 253.28878 219.20447 0.004504505
247 252.82834 219.15469 0.004048583
256 252.37451 219.10472 0.00390625
260 251.9275 219.05454 0.003846154
259 251.48747 219.00417 0.003861004
243 251.0546 218.9536 0.004115226
226 250.62904 218.90283 0.004424779
250 250.21092 218.85187 0.004
255 249.80037 218.80072 0.003921569
245 249.39749 218.74937 0.004081633
247 249.00239 218.69783 0.004048583
257 248.61516 218.6461 0.003891051
272 248.23587 218.59418 0.003676471
263 247.86459 218.54207 0.003802281
261 247.50137 218.48977 0.003831418
254 247.1453 218.43729 0.003937008
247 246.79835 218.38462 0.004048583
253 246.45958 218.33177 0.003952569
247 246.12901 218.27874 0.004048583
251 245.80665 218.22553 0.003984064
239 245.49249 218.17214 0.0041841
239 245.18654 218.11857 0.0041841
249 244.88878 218.06482 0.004016064
248 244.5972 218.0109 0.004032258
243 244.31574 217.95681 0.004115226
253 244.04235 217.90254 0.003952569
264 243.77701 217.8481 0.003787879
238 243.51963 217.79349 0.004201681
243 243.27016 217.73872 0.004115226
257 243.02852 217.68378 0.003891051
232 242.79462 217.62867 0.004310345
224 242.56823 217.5734 0.004464286
256 242.34951 217.51797 0.00390625
228 242.13821 217.46238 0.004385965
256 241.92906 217.40663 0.00390625
259 241.73225 217.35072 0.003861004
218 241.54248 217.29466 0.004587156
250 241.3596 217.23845 0.004
244 241.18347 217.18208 0.004098361
240 241.01392 217.12556 0.004166667
223 240.85079 217.0689 0.004484305
242 240.69392 217.01208 0.004132231
240 240.54313 216.95513 0.004166667
246 240.39824 216.89803 0.004065041
260 240.25907 216.84079 0.003846154
258 240.12534 216.78341 0.003875969
245 239.99706 216.72589 0.004081633
233 239.87393 216.66823 0.004291845
240 239.75577 216.61045 0.004166667
258 239.64099 216.55253 0.003875969
257 239.53219 216.49448 0.003891051
261 239.4278 216.4363 0.003831418
264 239.32761 216.378 0.003787879
217 239.23144 216.31958 0.004608295
226 239.1391 216.26103 0.004424779
237 239.05042 216.20236 0.004219409
251 238.9652 216.14358 0.003984064
246 238.88328 216.08468 0.004065041
248 238.80448 216.02567 0.004032258
235 238.72862 215.96654 0.004255319
243 238.65555 215.90731 0.004115226
264 238.58509 215.84797 0.003787879
225 238.5171 215.78853 0.004444444
232 238.45141 215.72898 0.004310345
252 238.38787 215.66933 0.003968254
229 238.32634 215.60959 0.004366812
270 238.26668 215.54975 0.003703704
270 238.20873 215.48982 0.003703704
260 238.15238 215.4298 0.003846154
222 238.09749 215.36969 0.004504505
248 238.04392 215.30949 0.004032258
249 237.99156 215.24922 0.004016064
253 237.94029 215.18886 0.003952569
213 237.88998 215.12842 0.004694836
217 237.84054 215.06791 0.004608295
235 237.79185 215.00732 0.004255319
235 237.74382 214.94666 0.004255319
241 237.69633 214.88594 0.004149378
263 237.64931 214.82515 0.003802281
240 237.60121 214.7643 0.004166667
245 237.55486 214.70339 0.004081633
251 237.50872 214.64242 0.003984064
248 237.46272 214.5814 0.004032258
201 237.4168 214.52033 0.004975124
234 237.3709 214.4592 0.004273504
242 237.32496 214.39804 0.004132231
230 237.27893 214.33683 0.004347826
230 237.23277 214.27557 0.004347826
267 237.18644 214.21429 0.003745318
263 237.1399 214.15296 0.003802281
232 237.09202 214.09161 0.004310345
220 237.045 214.03023 0.004545455
214 236.9977 213.96882 0.004672897
244 236.94911 213.90739 0.004098361
243 236.9012 213.84595 0.004115226
256 236.85297 213.78448 0.00390625
260 236.8044 213.72301 0.003846154
222 236.75547 213.66152 0.004504505
233 236.70619 213.60003 0.004291845
240 236.65653 213.53854 0.004166667
258 236.60588 213.47704 0.003875969
249 236.55544 213.41555 0.004016064
219 236.50457 213.35407 0.00456621
258 236.45327 213.29259 0.003875969
243 236.4015 213.23113 0.004115226
239 236.34924 213.16969 0.0041841
223 236.29647 213.10827 0.004484305
237 236.24314 213.04687 0.004219409
238 236.18923 212.9855 0.004201681
251 236.13468 212.92416 0.003984064
252 236.07946 212.86286 0.003968254
231 236.02351 212.80159 0.004329004
251 235.96679 212.74037 0.003984064
225 235.90924 212.67919 0.004444444
228 235.85081 212.61806 0.004385965
228 235.79145 212.55698 0.004385965
237 235.7311 212.49597 0.004219409
229 235.66857 212.43501 0.004366812
257 235.60609 212.37411 0.003891051
257 235.54247 212.31329 0.003891051
248 235.47768 212.25254 0.004032258
245 235.41166 212.19186 0.004081633
227 235.34439 212.13126 0.004405286
246 235.27585 212.07075 0.004065041
241 235.20601 212.01033 0.004149378
259 235.13489 211.95 0.003861004
236 235.06008 211.88977 0.004237288
252 234.98638 211.82963 0.003968254
249 234.91144 211.76961 0.004016064
248 234.83528 211.70969 0.004032258
249 234.75796 211.64988 0.004016064
238 234.67954 211.59019 0.004201681
240 234.6001 211.53063 0.004166667
245 234.51973 211.47119 0.004081633
273 234.43853 211.41188 0.003663004
260 234.35662 211.35271 0.003846154
234 234.27413 211.29368 0.004273504
234 234.1912 211.23479 0.004273504
228 234.10797 211.17605 0.004385965
242 234.02461 211.11746 0.004132231
226 233.9413 211.05904 0.004424779
255 233.85822 211.00077 0.003921569
232 233.77543 210.94267 0.004310345
241 233.69338 210.88475 0.004149378
254 233.61216 210.827 0.003937008
212 233.53197 210.76944 0.004716981
244 233.45303 210.71206 0.004098361
254 233.37557 210.65487 0.003937008
249 233.29981 210.59788 0.004016064
251 233.22599 210.54109 0.003984064
238 233.15433 210.4845 0.004201681
228 233.08507 210.42813 0.004385965
229 233.01844 210.37198 0.004366812
228 232.95353 210.31605 0.004385965
242 232.89288 210.26034 0.004132231
225 232.83556 210.20487 0.004444444
237 232.78182 210.14963 0.004219409
253 232.73188 210.09464 0.003952569
230 232.68597 210.03989 0.004347826
225 232.64431 209.9854 0.004444444
245 232.60714 209.93117 0.004081633
233 232.57467 209.8772 0.004291845
237 232.54712 209.8235 0.004219409
222 232.52469 209.77008 0.004504505
217 232.5076 209.71694 0.004608295
221 232.49604 209.66409 0.004524887
225 232.49021 209.61152 0.004444444
211 232.49029 209.55926 0.004739336
236 232.49648 209.5073 0.004237288
233 232.50894 209.45565 0.004291845
246 232.52784 209.40432 0.004065041
226 232.55334 209.3533 0.004424779
229 232.58559 209.30262 0.004366812
222 232.62473 209.25226 0.004504505
249 232.67091 209.20225 0.004016064
243 232.72366 209.15258 0.004115226
240 232.78425 209.10327 0.004166667
214 232.85221 209.05431 0.004672897
253 232.92762 209.00572 0.003952569
254 233.01058 208.95749 0.003937008
243 233.10116 208.90965 0.004115226
235 233.19815 208.86218 0.004255319
235 233.30411 208.81511 0.004255319
266 233.41782 208.76843 0.003759398
271 233.53931 208.72215 0.003690037
240 233.66858 208.67629 0.004166667
259 233.80563 208.63083 0.003861004
223 233.95044 208.5858 0.004484305
238 234.10299 208.5412 0.004201681
247 234.26322 208.49704 0.004048583
250 234.4311 208.45332 0.004
229 234.60654 208.41004 0.004366812
270 234.78946 208.36722 0.003703704
259 234.97978 208.32487 0.003861004
262 235.17738 208.28298 0.003816794
238 235.38213 208.24157 0.004201681
246 235.59392 208.20065 0.004065041
223 235.81259 208.16022 0.004484305
244 236.03798 208.12028 0.004098361
236 236.26993 208.08085 0.004237288
241 236.50824 208.04194 0.004149378
225 236.75273 208.00354 0.004444444
256 237.00319 207.96567 0.00390625
241 237.25939 207.92834 0.004149378
223 237.52107 207.89155 0.004484305
261 237.78809 207.85531 0.003831418
261 238.06014 207.81962 0.003831418
257 238.33697 207.78451 0.003891051
233 238.61831 207.74996 0.004291845
242 238.90389 207.716 0.004132231
222 239.19341 207.68262 0.004504505
244 239.4866 207.64984 0.004098361
249 239.7784 207.61767 0.004016064
266 240.07801 207.58611 0.003759398
250 240.38035 207.55517 0.004
242 240.68483 207.52485 0.004132231
238 240.99169 207.49518 0.004201681
265 241.30032 207.46614 0.003773585
246 241.61039 207.43776 0.004065041
248 241.92156 207.41005 0.004032258
237 242.23348 207.383 0.004219409
263 242.54583 207.35663 0.003802281
260 242.85824 207.33095 0.003846154
232 243.16661 207.30596 0.004310345
213 243.47628 207.28167 0.004694836
231 243.78684 207.2581 0.004329004
237 244.09609 207.23525 0.004219409
235 244.40368 207.21313 0.004255319
227 244.70926 207.19175 0.004405286
249 245.0125 207.17111 0.004016064
234 245.31304 207.15124 0.004273504
262 245.61055 207.13212 0.003816794
253 245.90433 207.11379 0.003952569
271 246.19478 207.09623 0.003690037
236 246.48121 207.07947 0.004237288
256 246.76329 207.06351 0.00390625
234 247.0407 207.04836 0.004273504
255 247.31313 207.03404 0.003921569
224 247.58028 207.02054 0.004464286
270 247.84184 207.00788 0.003703704
253 248.09752 206.99607 0.003952569
232 248.34704 206.98513 0.004310345
247 248.5901 206.97505 0.004048583
261 248.82643 206.96584 0.003831418
245 249.05578 206.95753 0.004081633
279 249.27788 206.95011 0.003584229
244 249.49248 206.94361 0.004098361
246 249.69934 206.93802 0.004065041
266 249.89822 206.93335 0.003759398
262 250.0889 206.92963 0.003816794
250 250.27115 206.92686 0.004
234 250.44477 206.92504 0.004273504
241 250.60954 206.92419 0.004149378
248 250.76359 206.92432 0.004032258
244 250.91012 206.92544 0.004098361
237 251.04725 206.92756 0.004219409
231 251.17482 206.9307 0.004329004
236 251.29265 206.93485 0.004237288
246 251.40061 206.94004 0.004065041
220 251.49854 206.94627 0.004545455
236 251.5863 206.95355 0.004237288
261 251.66377 206.9619 0.003831418
238 251.73083 206.97132 0.004201681
237 251.78734 206.98183 0.004219409
243 251.83325 206.99344 0.004115226
236 251.86843 207.00616 0.004237288
249 251.89282 207.01999 0.004016064
249 251.90631 207.03496 0.004016064
250 251.90886 207.05108 0.004
237 251.90039 207.06835 0.004219409
228 251.88087 207.08678 0.004385965
237 251.85025 207.10639 0.004219409
252 251.80851 207.1272 0.003968254
252 251.75562 207.1492 0.003968254
262 251.69158 207.17242 0.003816794
256 251.61639 207.19686 0.00390625
252 251.53007 207.22254 0.003968254
255 251.43266 207.24947 0.003921569
230 251.32418 207.27766 0.004347826
234 251.2047 207.30713 0.004273504
248 251.07429 207.33788 0.004032258
231 250.93303 207.36993 0.004329004
272 250.78101 207.40329 0.003676471
257 250.61836 207.43797 0.003891051
242 250.4426 207.47399 0.004132231
235 250.25907 207.51136 0.004255319
214 250.06533 207.55009 0.004672897
227 249.86156 207.59019 0.004405286
224 249.64795 207.63168 0.004464286
245 249.42469 207.67457 0.004081633
263 249.19202 207.71888 0.003802281
243 248.95016 207.76461 0.004115226
230 248.69936 207.81178 0.004347826
240 248.43989 207.8604 0.004166667
243 248.17201 207.91049 0.004115226
231 247.89602 207.96207 0.004329004
235 247.6122 208.01513 0.004255319
238 247.32088 208.0697 0.004201681
235 247.02235 208.12579 0.004255319
255 246.71695 208.18342 0.003921569
236 246.40501 208.24259 0.004237288
241 246.08687 208.30333 0.004149378
263 245.76287 208.36564 0.003802281
262 245.43337 208.42955 0.003816794
232 245.09872 208.49506 0.004310345
260 244.75928 208.56218 0.003846154
235 244.4154 208.63095 0.004255319
242 244.06746 208.70136 0.004132231
250 243.71582 208.77343 0.004
250 243.36084 208.84718 0.004
232 243.0029 208.92262 0.004310345
229 242.64236 208.99977 0.004366812
276 242.2796 209.07864 0.003623188
198 241.91085 209.15924 0.005050505
261 241.54296 209.2416 0.003831418
253 241.17326 209.32573 0.003952569
208 240.80523 209.41163 0.004807692
246 240.43684 209.49934 0.004065041
251 240.06841 209.58886 0.003984064
237 239.69862 209.6802 0.004219409
240 239.3312 209.77339 0.004166667
227 238.96378 209.86844 0.004405286
264 238.59879 209.96537 0.003787879
247 238.23552 210.06419 0.004048583
252 237.87433 210.16491 0.003968254
231 237.51554 210.26756 0.004329004
222 237.15942 210.37215 0.004504505
234 236.80644 210.47869 0.004273504
220 236.45685 210.5872 0.004545455
247 236.10975 210.69771 0.004048583
268 235.76787 210.81022 0.003731343
254 235.43029 210.92475 0.003937008
257 235.09731 211.04132 0.003891051
230 234.76921 211.15995 0.004347826
250 234.44625 211.28064 0.004
226 234.12871 211.40343 0.004424779
229 233.81683 211.52832 0.004366812
218 233.51086 211.65534 0.004587156
235 233.21104 211.7845 0.004255319
251 232.91759 211.91582 0.003984064
227 232.63072 212.04931 0.004405286
217 232.35064 212.185 0.004608295
239 232.07754 212.32289 0.0041841
219 231.81143 212.46302 0.00456621
240 231.55281 212.6054 0.004166667
246 231.30169 212.75003 0.004065041
249 231.0582 212.89696 0.004016064
226 230.8225 213.04618 0.004424779
227 230.5947 213.19772 0.004405286
229 230.37492 213.3516 0.004366812
250 230.16328 213.50784 0.004
241 229.95987 213.66645 0.004149378
212 229.76479 213.82746 0.004716981
206 229.5781 213.99088 0.004854369
243 229.39988 214.15673 0.004115226
232 229.23019 214.32503 0.004310345
224 229.06909 214.4958 0.004464286
239 228.91662 214.66906 0.0041841
235 228.77281 214.84483 0.004255319
237 228.6377 215.02313 0.004219409
242 228.5113 215.20397 0.004132231
239 228.39363 215.38738 0.0041841
227 228.2847 215.57338 0.004405286
222 228.18362 215.76199 0.004504505
273 228.09216 215.95322 0.003663004
246 228.00942 216.1471 0.004065041
232 227.93538 216.34365 0.004310345
227 227.87001 216.54288 0.004405286
225 227.81331 216.74483 0.004444444
219 227.76522 216.9495 0.00456621
230 227.72572 217.15692 0.004347826
226 227.69475 217.36711 0.004424779
238 227.67229 217.58009 0.004201681
221 227.65828 217.79588 0.004524887
217 227.65266 218.01451 0.004608295
226 227.65539 218.23599 0.004424779
240 227.66641 218.46035 0.004166667
220 227.68565 218.6876 0.004545455
216 227.71305 218.91778 0.00462963
211 227.74855 219.15089 0.004739336
247 227.79209 219.38697 0.004048583
220 227.8436 219.62603 0.004545455
216 227.90224 219.8681 0.00462963
217 227.96947 220.11319 0.004608295
223 228.04447 220.36134 0.004484305
241 228.12714 220.61256 0.004149378
239 228.21744 220.86688 0.0041841
214 228.31528 221.12432 0.004672897
239 228.42059 221.38489 0.0041841
225 228.53331 221.64863 0.004444444
189 228.65335 221.91556 0.005291005
232 228.78066 222.1857 0.004310345
234 228.91515 222.45908 0.004273504
257 229.05676 222.73571 0.003891051
233 0 0 0.004291845
loop_
_pd_refln_d_spacing
_gsas_i100_meas
14.041 100.00
7.021 2.36
5.414 9.41
4.680 0.88
4.566 0.62
4.504 0.20
4.502 14.99
4.196 3.07
4.057 2.07
3.695 0.00
3.659 13.36
3.635 0.61
3.633 0.54
3.515 5.32
3.510 1.27
3.485 0.07
3.366 0.42
3.181 2.80
3.127 15.14
3.090 12.14
3.088 0.14
3.015 1.40
3.012 6.11
3.002 2.12
2.960 0.15
2.934 3.94
2.920 2.03
2.872 4.30
2.808 1.81
2.808 2.70
2.797 0.42
2.721 0.05
2.707 0.43
2.707 0.90
2.672 0.67
2.637 1.62
2.636 0.02
2.634 0.03
2.600 1.11
2.533 1.84
2.533 0.00
2.532 0.44
2.486 0.30
2.478 0.09
2.462 1.07
2.429 0.50
2.405 0.01
2.340 2.30
2.313 1.15
2.298 0.18
2.283 0.28
2.282 0.30
2.275 0.67
2.273 0.34
2.270 1.09
2.252 0.28
2.252 1.75
2.251 0.10
2.240 0.12
2.229 0.28
2.212 2.04
2.192 0.51
2.176 0.18
2.174 0.26
2.166 0.08
2.157 2.96
2.153 0.00
2.152 0.81
2.098 2.77
2.079 0.43
2.061 0.06
2.041 0.58
2.032 0.02
2.032 1.70
2.029 1.41
2.029 2.02
2.028 0.02
2.006 1.60
1.988 0.03
1.961 2.47
1.937 0.35
1.928 1.59
1.925 0.01
1.924 0.03
1.919 0.01
1.898 0.10
1.894 0.15
1.889 0.03
1.889 0.09
1.888 0.22
1.886 1.29
1.884 0.02
1.884 0.64
1.876 0.02
1.868 0.26
1.860 0.78
1.848 1.25
1.847 1.05
1.847 0.01
1.841 0.04
1.831 0.01
1.829 1.11
1.824 1.26
1.818 0.61
1.817 0.54
1.817 0.87
1.816 0.00
1.816 0.28
1.805 0.83
1.801 0.52
1.784 0.00
1.783 0.20
1.763 0.09
1.762 0.36
1.761 0.23
1.760 0.05
1.760 0.22
1.757 0.04
1.755 0.55
1.753 0.08
1.743 0.18
1.742 0.49
1.736 0.15
1.735 1.24
1.735 1.46
1.729 1.21
1.722 1.07
1.722 0.21
1.714 0.06
1.714 0.08
1.709 0.70
1.709 0.03
1.709 0.66
1.699 0.32
1.691 0.57
1.686 0.61
1.683 1.09
1.683 0.02
1.682 0.52
1.680 0.03
1.676 0.15
1.674 0.16
1.673 0.07
1.666 0.11
1.656 0.43
1.653 0.08
1.646 0.06
1.646 0.60
1.639 0.10
1.630 0.06
1.629 0.06
1.618 1.24
1.617 0.10
1.615 0.97
1.606 0.00
1.605 0.30
1.605 0.00
1.605 0.28
1.594 0.07
1.591 0.40
1.578 0.21
1.576 0.04
1.571 0.00
1.570 0.67
1.564 0.96
1.563 0.60
1.562 0.01
1.560 0.13
1.557 0.00
1.545 0.56
1.545 0.24
1.544 0.00
1.544 0.11
1.539 0.85
1.535 0.39
1.534 0.00
1.533 0.16
1.532 0.00
1.531 0.30
1.526 0.19
1.526 0.13
1.522 0.03
1.518 0.11
1.509 0.22
1.508 0.63
1.508 0.00
1.507 0.14
1.506 0.40
1.501 0.15
1.501 0.32
1.501 0.04
1.497 0.42
1.494 0.00
1.494 0.31
1.494 0.30
1.492 0.09
1.481 0.06
1.480 0.22
1.474 0.23
1.467 0.17
1.462 0.10
1.460 0.07
1.459 0.02
1.459 0.38
1.458 0.08
1.454 0.34
1.452 0.05
1.451 0.68
1.451 0.03
1.438 0.19
1.436 0.01
1.436 0.30
1.436 0.18
1.435 0.07
1.431 0.02
1.429 0.38
1.429 0.00
1.427 0.00
1.425 0.06
1.425 0.02
1.424 0.15
1.419 0.33
1.412 0.63
1.411 0.03
1.411 0.03
1.411 0.05
1.408 0.27
1.404 0.05
1.404 0.24
1.403 0.23
1.403 0.01
1.402 0.04
1.401 0.02
1.400 0.01
1.400 0.01
1.399 0.15
1.398 0.36
1.398 0.00
1.397 0.09
1.390 0.01
1.389 0.19
1.385 0.01
1.379 0.03
1.378 0.01
1.377 0.13
1.370 0.32
1.369 0.03
1.367 0.02
1.367 0.29
1.366 0.48
1.366 0.02
1.365 0.03
1.365 0.01
1.363 0.05
1.360 0.00
1.360 0.14
1.354 0.12
1.353 0.02
1.352 0.00
1.349 0.03
1.345 0.18
1.343 0.21
1.343 0.03
1.343 0.13
1.342 0.13
1.339 0.10
1.336 0.01
1.336 0.21
1.333 0.37
1.332 0.24
1.331 0.06
1.331 0.29
1.331 0.22
1.322 0.10
1.322 0.02
1.319 0.00
1.318 0.17
1.318 0.06
1.318 0.21
1.317 0.36
1.315 0.18
1.315 0.03
1.313 0.02
1.313 0.23
1.310 0.01
1.308 0.20
1.307 0.33
1.306 0.12
1.303 0.01
1.300 0.36
1.300 0.25
1.300 0.00
1.299 0.03
1.298 0.03
1.296 0.04
1.295 0.00
1.289 0.06
1.289 0.29
1.287 0.00
1.286 0.02
1.286 0.06
1.284 0.26
1.283 0.19
1.282 0.33
1.277 0.00
1.276 0.12
1.276 0.08
1.276 0.00
1.276 0.35
1.275 0.07
1.274 0.17
1.271 0.02
1.270 0.02
1.269 0.31
1.268 0.01
1.267 0.00
1.266 0.24
1.266 0.41
1.261 0.06
1.261 0.14
1.260 0.18
1.257 0.01
1.255 0.10
1.255 0.13
1.254 0.09
1.252 0.20
1.247 0.23
1.246 0.04
1.243 0.00
1.243 0.03
1.243 0.19
1.239 0.14
1.239 0.12
1.236 0.25
1.234 0.11
1.234 0.01
1.234 0.15
1.233 0.02
1.233 0.09
1.233 0.00
1.232 0.00
1.232 0.12
1.231 0.04
1.228 0.00
1.225 0.08
1.221 0.28
1.221 0.06
1.220 0.16
1.220 0.16
1.216 0.01
1.215 0.06
1.214 0.08
1.213 0.02
1.212 0.14
1.212 0.03
1.212 0.03
1.211 0.04
1.208 0.15
1.208 0.25
1.206 0.06
1.205 0.18
1.205 0.13
1.205 0.25
1.205 0.01
1.203 0.03
1.202 0.27
1.201 0.31
1.200 0.14
1.199 0.12
1.194 0.05
1.194 0.02
1.193 0.00
1.191 0.02
1.191 0.05
1.191 0.11
1.190 0.13
1.190 0.00
1.189 0.02
1.189 0.01
1.188 0.12
1.187 0.19
1.186 0.02
1.184 0.08
1.183 0.01
1.182 0.04
1.181 0.00
1.178 0.04
1.177 0.08
1.176 0.01
1.176 0.22
1.175 0.00
1.175 0.00
1.174 0.06
1.172 0.07
1.170 0.05
1.170 0.05
1.169 0.03
1.168 0.05
1.167 0.11
1.165 0.01
1.164 0.05
1.162 0.03
1.162 0.06
1.159 0.00
1.159 0.09
1.159 0.12
1.158 0.01
1.157 0.03
1.157 0.15
1.157 0.09
1.157 0.02
1.155 0.03
1.155 0.05
1.154 0.00
1.152 0.12
1.149 0.19
1.149 0.08
1.149 0.12
1.149 0.00
1.148 0.08
1.148 0.05
1.148 0.00
1.147 0.06
1.146 0.01
1.144 0.04
1.143 0.03
1.142 0.07
1.141 0.09
1.141 0.01
1.141 0.03
1.141 0.14
1.141 0.05
1.140 0.00
1.138 0.12
1.138 0.09
1.138 0.02
1.138 0.14
1.138 0.00
1.137 0.12
1.137 0.17
1.136 0.09
1.136 0.00
1.135 0.03
1.135 0.01
1.135 0.20
1.134 0.09
1.133 0.04
1.132 0.01
1.132 0.29
1.127 0.05
1.126 0.22
1.126 0.00
1.126 0.11
1.125 0.04
1.124 0.03
1.122 0.09
1.122 0.00
1.120 0.01
1.120 0.07
1.119 0.05
1.118 0.07
1.117 0.06
1.117 0.27
1.117 0.09
1.117 0.04
1.115 0.06
1.115 0.08
1.115 0.04
1.113 0.03
1.113 0.14
1.111 0.04
1.110 0.17
1.110 0.19
1.108 0.06
1.107 0.00
1.106 0.01
1.106 0.01
1.105 0.03
1.105 0.02
1.104 0.00
1.103 0.00
1.102 0.10
1.102 0.02
1.101 0.23
1.101 0.01
1.101 0.06
1.101 0.00
1.100 0.06
1.097 0.04
1.096 0.12
1.094 0.00
1.093 0.01
1.093 0.00
1.093 0.02
1.092 0.00
1.091 0.07
1.090 0.02
1.090 0.02
1.088 0.15
1.087 0.00
1.087 0.11
1.086 0.00
1.084 0.04
1.083 0.03
1.083 0.03
1.083 0.05
1.083 0.00
1.083 0.03
1.083 0.07
1.082 0.15
1.081 0.02
1.080 0.11
1.079 0.02
1.078 0.06
1.078 0.05
1.077 0.19
1.076 0.04
1.076 0.11
1.074 0.01
1.073 0.02
1.072 0.04
1.072 0.00
1.069 0.08
1.069 0.02
1.067 0.10
1.065 0.12
1.065 0.02
1.065 0.01
1.065 0.14
1.064 0.05
1.063 0.01
1.063 0.06
1.062 0.00
1.061 0.06
1.061 0.05
1.060 0.03
1.060 0.03
1.060 0.00
1.060 0.01
1.059 0.02
1.058 0.11
1.056 0.02
1.056 0.02
1.051 0.04
1.050 0.01
1.049 0.09
1.049 0.04
1.049 0.00
1.049 0.02
1.049 0.03
1.049 0.00
1.048 0.00
1.048 0.07
1.048 0.03
1.048 0.09
1.047 0.00
1.047 0.02
1.044 0.05
1.044 0.18
1.044 0.08
1.043 0.01
1.042 0.07
1.042 0.00
1.042 0.05
1.042 0.09
1.042 0.02
1.041 0.02
1.040 0.02
1.040 0.03
1.040 0.12
1.040 0.06
1.040 0.11
1.039 0.10
1.038 0.01
1.036 0.01
1.036 0.05
1.035 0.01
1.034 0.00
1.034 0.00
1.033 0.01
1.033 0.01
1.032 0.03
1.032 0.06
1.030 0.00
1.030 0.04
1.029 0.01
1.029 0.06
1.029 0.02
1.029 0.00
1.026 0.12
1.026 0.07
1.025 0.01
1.025 0.01
1.024 0.03
1.024 0.01
1.023 0.02
1.023 0.00
1.022 0.00
1.021 0.03
1.020 0.00
1.019 0.05
1.019 0.04
1.018 0.00
1.018 0.07
1.018 0.00
1.018 0.06
1.017 0.03
1.017 0.01
1.017 0.08
1.016 0.02
1.016 0.00
1.016 0.05
1.016 0.07
1.015 0.02
1.015 0.02
1.014 0.00
1.014 0.09
1.014 0.08
1.014 0.11
1.013 0.01
1.012 0.05
1.012 0.00
1.012 0.01
1.011 0.08
1.010 0.00
1.006 0.00
