#------------------------------------------------------------------------------
#$Date: 2019-11-23 19:53:33 +0200 (Sat, 23 Nov 2019) $
#$Revision: 234732 $
#$URL: file:///home/coder/svn-repositories/cod/cif/7/70/20/7702079.cif $
#------------------------------------------------------------------------------
#
# This file is available in the Crystallography Open Database (COD),
# http://www.crystallography.net/
#
# All data on this site have been placed in the public domain by the
# contributors.
#
data_7702079
loop_
_publ_author_name
'Benjamin, Sophie L.'
'Chang, Yao-Pang'
'Hector, Andrew L.'
'Jura, Marek'
'Levason, William'
'Reid, Gillian'
'Stenning, Gavin'
_publ_section_title
;
 Niobium tetrahalide complexes with neutral diphosphine ligands.
;
_journal_issue                   19
_journal_name_full
'Dalton transactions (Cambridge, England : 2003)'
_journal_page_first              8192
_journal_page_last               8200
_journal_paper_doi               10.1039/c6dt01099g
_journal_volume                  45
_journal_year                    2016
_chemical_formula_analytical     'Br4 Nb'
_chemical_formula_moiety         'Br4 Nb'
_chemical_formula_structural     'Br4 Nb'
_chemical_formula_sum            'Br4 Nb'
_chemical_formula_weight         412.52
_chemical_name_common            'Niobium(IV) Tetrabromoide'
_chemical_name_systematic        'Niobium(IV) Tetrabromoide'
_space_group_IT_number           12
_space_group_name_Hall           '-I 2y'
_space_group_name_H-M_alt        'I 1 2/m 1'
_symmetry_cell_setting           monoclinic
_symmetry_space_group_name_Hall  '-I 2y'
_symmetry_space_group_name_H-M   'I 1 2/m 1'
_audit_creation_date             2016-02-09T10:29
_audit_creation_method           'from EXP file using GSAS2CIF'
_audit_update_record
;
2016-02-15 deposited with the CCDC.
2016-04-11 downloaded from the CCDC.
;
_cell_angle_alpha                90.0
_cell_angle_beta                 92.212(4)
_cell_angle_gamma                90.0
_cell_formula_units_Z            4
_cell_length_a                   8.6119(6)
_cell_length_b                   7.1821(5)
_cell_length_c                   9.3626(8)
_cell_measurement_temperature    298
_cell_volume                     578.66(8)
_computing_data_collection       'DIFFRAC.SUITE COMMANDER'
_computing_data_reduction        'PowDLL Converter'
_computing_publication_material  GSAS
_computing_structure_refinement  GSAS
_diffrn_ambient_temperature      298
_diffrn_detector                 '1D LYNXEYE'
_diffrn_measurement_device_type  'Bruker D2 Phaser'
_diffrn_radiation_monochromator  none
_diffrn_radiation_polarisn_ratio 0.7
_diffrn_radiation_probe          x-ray
_diffrn_radiation_type           'Cu K\a'
_diffrn_radiation_wavelength     1.54184
_diffrn_source                   'sealed X-ray tube'
_diffrn_source_target            Cu
_exptl_absorpt_correction_T_max  1.00000
_exptl_absorpt_correction_T_min  1.00000
_exptl_absorpt_process_details
;   GSAS Absorption/surface roughness correction: function number 0
 No correction is applied.
;
_exptl_crystal_density_diffrn    4.735
_exptl_crystal_density_method    'not measured'
_exptl_crystal_F_000             724
_pd_block_id                     2016-02-09T10:29|NBBR4_2|YP_Chang|D2_phaser
_pd_calc_method                  'Rietveld Refinement'
_pd_char_colour                  Brown
_pd_instr_location               ' ?'
_pd_meas_2theta_range_inc        0.02026
_pd_meas_2theta_range_max        84.99538
_pd_meas_2theta_range_min        13.002
_pd_meas_number_of_points        3555
_pd_phase_name                   'from C:/GSAS/MyWork/NbCl4.cif'
_pd_prep_cool_rate               0
_pd_prep_pressure                100
_pd_prep_temperature             298
_pd_proc_2theta_range_inc        0.02026
_pd_proc_2theta_range_max        84.86036
_pd_proc_2theta_range_min        12.86698
_pd_proc_info_datetime           2016-02-09T10:29:39
_pd_proc_info_excluded_regions   ' ?'
_pd_proc_ls_background_function
;   GSAS Background function number 1 with 36 terms.
 Shifted Chebyshev function of 1st kind
      1:    5633.33     2:   -262.308     3:   -573.988     4:    372.446    
      5:    433.322     6:   -555.263     7:    415.686     8:   -2.09579    
      9:   -136.286    10:    250.245    11:    64.5635    12:   -136.380    
     13:    45.9897    14:    80.3626    15:   -1.43480    16:   -154.686    
     17:    97.8114    18:   -165.955    19:    182.124    20:   -141.059    
     21:    76.1504    22:   -11.9297    23:    73.8984    24:   -102.286    
     25:    9.91100    26:    31.3136    27:   -69.7405    28:    75.5684    
     29:   -145.760    30:    168.715    31:   -174.654    32:    98.8768    
     33:   -55.8614    34:    101.608    35:   -128.550    36:    96.4285    
;
_pd_proc_ls_peak_cutoff          0.00010
_pd_proc_ls_profile_function
;
 CW Profile function number 2 with  18 terms
 Profile coefficients for Simpson's rule integration of pseudovoigt function
 C.J. Howard (1982). J. Appl. Cryst.,15,615-620.
 P. Thompson, D.E. Cox & J.B. Hastings (1987). J. Appl. Cryst.,20,79-83.
 #1(GU)   =  882.863 #2(GV)   = -161.687 #3(GW)   =   23.032
 #4(LX)   =   30.179 #5(LY)   =    1.000 #6(trns) =    0.000
 #7(asym) =   0.0000 #8(shft) =   0.0000 #9(GP)   =    0.000
 #10(stec)=     0.00 #11(ptec)=     0.00 #12(sfec)=     0.00
 #13(L11) =    0.000 #14(L22) =    0.000 #15(L33) =    0.000
 #16(L12) =    0.000 #17(L13) =    0.000 #18(L23) =    0.000
 Peak tails are ignored  where the intensity is below 0.0001 times the peak
   Aniso. broadening axis   0.0   0.0   1.0
;
_pd_proc_ls_prof_R_factor        0.0270
_pd_proc_ls_prof_wR_expected     0.0113
_pd_proc_ls_prof_wR_factor       0.0371
_pd_proc_number_of_points        3555
_pd_spec_mounting                'Aluminium plate'
_pd_spec_mount_mode              reflection
_pd_spec_shape                   cylinder
_pd_spec_size_axial              5
_pd_spec_size_equat              5
_pd_spec_size_thick              1
_refine_ls_extinction_method     none
_refine_ls_goodness_of_fit_all   3.31
_refine_ls_hydrogen_treatment    none
_refine_ls_matrix_type           full
_refine_ls_number_constraints    none
_refine_ls_number_parameters     22
_refine_ls_number_restraints     0
_refine_ls_R_Fsqd_factor         0.04651
_refine_ls_shift/su_max          0.04
_refine_ls_shift/su_mean         0.01
_refine_ls_weighting_details     1/\s(Y~obs~)^2^
_refine_ls_weighting_scheme      sigma
_reflns_d_resolution_high        1.201
_reflns_d_resolution_low         6.459
_reflns_limit_h_max              9
_reflns_limit_h_min              0
_reflns_limit_k_max              7
_reflns_limit_k_min              0
_reflns_limit_l_max              9
_reflns_limit_l_min              -9
_reflns_number_total             380
_cod_data_source_file            c6dt01099g2.cif
_cod_data_source_block           NBBR4_2_publ
_cod_depositor_comments
;
The following automatic conversions were performed:

data item '_geom_angle_publ_flag' value 'N' was changed to 'n' in
accordance with the
/home/saulius/struct/COD-crude-data/automatic-downloads/DataCite-retrospective/RSC/depositions/lib/dictionaries/cif_core.dic
dictionary named 'cif_core.dic' version 2.4.2 last updated on
2011-04-26 (17 times).

data item '_geom_bond_publ_flag' value 'N' was changed to 'n' in
accordance with the
/home/saulius/struct/COD-crude-data/automatic-downloads/DataCite-retrospective/RSC/depositions/lib/dictionaries/cif_core.dic
dictionary named 'cif_core.dic' version 2.4.2 last updated on
2011-04-26 (23 times).

Automatic conversion script
Id: cif_fix_values 6909 2019-04-08 15:41:33Z antanas 
;
_cod_original_cell_volume        578.65(9)
_cod_database_code               7702079
_gsas_exptl_extinct_corr_t_min   1.00000
_gsas_exptl_extinct_corr_t_max   1.00000
loop_
_symmetry_equiv_pos_site_id
_symmetry_equiv_pos_as_xyz
1 +x,+y,+z
2 -x,+y,-z
-1 -x,-y,-z
-2 +x,-y,+z
101 +x+1/2,+y+1/2,+z+1/2
102 -x+1/2,+y+1/2,-z+1/2
-101 -x+1/2,-y+1/2,-z+1/2
-102 +x+1/2,-y+1/2,+z+1/2
loop_
_atom_site_type_symbol
_atom_site_label
_atom_site_fract_x
_atom_site_fract_y
_atom_site_fract_z
_atom_site_occupancy
_atom_site_thermal_displace_type
_atom_site_U_iso_or_equiv
_atom_site_symmetry_multiplicity
Nb Nb1 0.0 0.2168(7) 0.0 1.0 Uiso 0.0154(12) 4
Br Br1 0.0399(7) 0.0 0.2175(7) 1.0 Uiso 0.0285(23) 4
Br Br2 -0.27946(29) 0.2649(7) 0.02692(28) 1.0 Uiso 0.0246(11) 8
Br Br3 0.0261(7) 0.5 0.1951(6) 1.0 Uiso 0.0130(17) 4
loop_
_atom_type_symbol
_atom_type_number_in_cell
_atom_type_scat_dispersion_real
_atom_type_scat_dispersion_imag
_atom_type_scat_Cromer_Mann_a1
_atom_type_scat_Cromer_Mann_a2
_atom_type_scat_Cromer_Mann_a3
_atom_type_scat_Cromer_Mann_a4
_atom_type_scat_Cromer_Mann_b1
_atom_type_scat_Cromer_Mann_b2
_atom_type_scat_Cromer_Mann_b3
_atom_type_scat_Cromer_Mann_b4
_atom_type_scat_Cromer_Mann_c
_atom_type_scat_source
Nb 4.0 0.000 0.000 17.6142 1.18865 12.0144 11.7660 4.04183 0.20479 3.53346
69.7957 3.75591 International_Tables_Vol_C
Br-1 16.0 0.000 0.000 17.1718 2.20590 6.33380 19.3345 5.57540 0.28710 3.72720
58.1535 3.17760 International_Tables_Vol_C
loop_
_geom_angle_atom_site_label_1
_geom_angle_atom_site_label_2
_geom_angle_atom_site_label_3
_geom_angle
_geom_angle_site_symmetry_1
_geom_angle_site_symmetry_3
_geom_angle_publ_flag
Br1 Nb1 Br1 105.62(26) 1_555 2_555 n
Br1 Nb1 Br2 96.04(14) 1_555 1_555 n
Br1 Nb1 Br2 93.73(15) 1_555 2_555 n
Br1 Nb1 Br3 85.21(8) 1_555 1_555 n
Br1 Nb1 Br3 169.03(23) 1_555 2_555 n
Br1 Nb1 Br2 93.73(15) 2_555 1_555 n
Br1 Nb1 Br2 96.04(14) 2_555 2_555 n
Br1 Nb1 Br3 169.03(23) 2_555 1_555 n
Br1 Nb1 Br3 85.21(8) 2_555 2_555 n
Br2 Nb1 Br2 163.81(19) 1_555 2_555 n
Br2 Nb1 Br3 83.24(14) 1_555 1_555 n
Br2 Nb1 Br3 84.74(15) 1_555 2_555 n
Br2 Nb1 Br3 84.74(15) 2_555 1_555 n
Br2 Nb1 Br3 83.24(14) 2_555 2_555 n
Br3 Nb1 Br3 84.02(22) 1_555 2_555 n
Nb1 Br1 Nb1 74.38(26) 1_555 -1_555 n
Nb1 Br3 Nb1 95.98(22) 1_555 -1_565 n
loop_
_geom_bond_atom_site_label_1
_geom_bond_atom_site_label_2
_geom_bond_distance
_geom_bond_site_symmetry_2
_geom_bond_publ_flag
Nb1 Nb1 3.114(10) -1_555 n
Nb1 Br1 2.575(6) 1_555 n
Nb1 Br1 2.575(6) 2_555 n
Nb1 Br2 2.4540(25) 1_555 n
Nb1 Br2 2.4540(25) 2_555 n
Nb1 Br3 2.738(6) 1_555 n
Nb1 Br3 2.738(6) 2_555 n
Br1 Nb1 2.575(6) 1_555 n
Br1 Nb1 2.575(6) -1_555 n
Br1 Br3 3.5988(9) 1_545 n
Br1 Br3 3.5988(9) 1_555 n
Br2 Nb1 2.4540(25) 1_555 n
Br2 Br2 3.377(10) -2_565 n
Br2 Br3 3.455(6) 1_555 n
Br2 Br3 3.505(6) 2_555 n
Br3 Nb1 2.738(6) 1_555 n
Br3 Nb1 2.738(6) -1_565 n
Br3 Br1 3.5988(9) 1_555 n
Br3 Br1 3.5988(9) 1_565 n
Br3 Br2 3.455(6) 1_555 n
Br3 Br2 3.505(6) 2_555 n
Br3 Br2 3.505(6) -1_565 n
Br3 Br2 3.455(6) -2_565 n
loop_
_pd_meas_counts_total
_pd_proc_ls_weight
_pd_proc_intensity_bkg_calc
_pd_calc_intensity_total
7744.0 0.0001291 6002.93066 6760.84033
7568.0 0.0001321 6373.32666 7164.04688
7682.0 0.0001302 6648.37451 7474.14258
7446.0 0.0001343 6840.40381 7703.67627
7524.0 0.0001329 6960.61279 7864.07813
7594.0 0.0001317 7019.14844 7965.76318
7530.0 0.0001328 7025.23730 8018.25000
7379.0 0.0001355 6987.21582 8030.21729
7530.0 0.0001328 6912.58789 8009.55615
7485.0 0.0001336 6808.11816 7963.46289
7518.0 0.0001330 6679.86084 7898.48730
7545.0 0.0001325 6533.22461 7820.61523
7626.0 0.0001311 6372.98633 7735.29395
7636.0 0.0001310 6203.44678 7647.58105
7537.0 0.0001327 6028.33154 7562.11523
7596.0 0.0001316 5850.90332 7483.23193
7694.0 0.0001300 5674.02979 7415.06299
7625.0 0.0001311 5500.19092 7361.60547
7702.0 0.0001298 5331.47607 7326.78418
7759.0 0.0001289 5169.64600 7314.61230
7898.0 0.0001266 5016.20508 7329.20117
7875.0 0.0001270 4872.35938 7375.00586
7968.0 0.0001255 4739.08545 7456.91211
8024.0 0.0001246 4617.11035 7580.33838
8024.0 0.0001246 4507.01074 7751.34863
8329.0 0.0001201 4409.15234 7976.79639
8726.0 0.0001146 4323.75830 8264.43652
8816.0 0.0001134 4250.89160 8622.96191
9143.0 0.0001094 4190.52734 9061.81836
9491.0 0.0001054 4142.49902 9591.34668
9853.0 0.0001015 4106.55566 10222.36719
10496.0 0.0000953 4082.37158 10965.54688
11237.0 0.0000890 4069.54517 11830.43750
12274.0 0.0000815 4067.61377 12823.82422
13492.0 0.0000741 4076.06738 13946.78418
15333.0 0.0000652 4094.35596 15190.11328
16700.0 0.0000599 4121.89795 16528.31445
18280.0 0.0000547 4158.08154 17912.83984
19746.0 0.0000506 4202.28906 19266.54297
21239.0 0.0000471 4253.87549 20484.56445
21648.0 0.0000462 4312.20117 21447.12891
22033.0 0.0000454 4376.61816 22045.45508
21934.0 0.0000456 4446.49512 22212.74219
21602.0 0.0000463 4521.17822 21946.20117
20925.0 0.0000478 4600.05273 21307.69531
20556.0 0.0000486 4682.51416 20402.86523
19622.0 0.0000510 4767.96143 19353.85938
18292.0 0.0000547 4855.80811 18263.05469
17106.0 0.0000585 4945.50586 17215.10352
15923.0 0.0000628 5036.52881 16264.35547
15002.0 0.0000667 5128.35400 15443.42578
14281.0 0.0000700 5220.49609 14764.57910
13932.0 0.0000718 5312.49170 14233.75977
13649.0 0.0000733 5403.91602 13850.13574
13477.0 0.0000742 5494.34619 13610.50098
13177.0 0.0000759 5583.40625 13511.08691
13238.0 0.0000755 5670.73193 13548.51953
13303.0 0.0000752 5756.01367 13720.28516
13305.0 0.0000752 5838.92188 14024.37988
13875.0 0.0000721 5919.19141 14458.70020
14170.0 0.0000706 5996.57910 15019.49023
15240.0 0.0000656 6070.85059 15698.69434
16131.0 0.0000620 6141.79736 16480.23633
17283.0 0.0000579 6209.25000 17335.19531
18173.0 0.0000550 6273.05957 18216.54297
19443.0 0.0000514 6333.08691 19056.11133
20069.0 0.0000498 6389.21729 19767.90625
20276.0 0.0000493 6441.36865 20260.87500
20527.0 0.0000487 6489.47314 20459.88086
19889.0 0.0000503 6533.47559 20327.69336
19446.0 0.0000514 6573.34570 19876.68555
18591.0 0.0000538 6609.06787 19163.44727
17958.0 0.0000557 6640.64453 18270.42188
16881.0 0.0000592 6668.08789 17283.68164
15794.0 0.0000633 6691.43408 16276.28320
14978.0 0.0000668 6710.72510 15300.98926
14326.0 0.0000698 6726.01758 14390.46289
13762.0 0.0000727 6737.37842 13561.19238
13095.0 0.0000764 6744.88818 12818.34082
12912.0 0.0000774 6748.63623 12160.11719
12924.0 0.0000774 6748.71777 11580.90820
12887.0 0.0000776 6745.24072 11073.20605
12384.0 0.0000807 6738.31689 10628.80957
12188.0 0.0000820 6728.06543 10239.49316
11619.0 0.0000861 6714.61230 9897.64746
10999.0 0.0000909 6698.08643 9596.29980
10404.0 0.0000961 6678.62354 9329.19434
9681.0 0.0001033 6656.35986 9090.89941
8977.0 0.0001114 6631.43994 8876.76270
8651.0 0.0001156 6604.00244 8683.77344
8193.0 0.0001221 6574.19385 8506.69922
7861.0 0.0001272 6542.15918 8343.76563
7592.0 0.0001317 6508.04932 8192.73047
7553.0 0.0001324 6472.00732 8052.21387
7504.0 0.0001333 6434.17725 7919.76367
7307.0 0.0001369 6394.70654 7794.63818
7457.0 0.0001341 6353.74414 7675.85498
7535.0 0.0001327 6311.42822 7562.60010
7483.0 0.0001336 6267.89551 7454.93164
7696.0 0.0001299 6223.29053 7350.86182
7676.0 0.0001303 6177.74756 7250.67236
7792.0 0.0001283 6131.39795 7153.99561
7587.0 0.0001318 6084.36865 7060.88574
7524.0 0.0001329 6036.79346 6970.38232
7528.0 0.0001328 5988.78711 6882.63184
7571.0 0.0001321 5940.47168 6797.46143
7069.0 0.0001415 5891.95752 6714.73584
6883.0 0.0001453 5843.36328 6634.35547
6747.0 0.0001482 5794.79004 6556.21924
6773.0 0.0001476 5746.33496 6480.25586
6346.0 0.0001576 5698.10010 6406.41748
6117.0 0.0001635 5650.18213 6334.67041
6087.0 0.0001643 5602.66553 6264.98975
5948.0 0.0001681 5555.62646 6197.34668
5689.0 0.0001758 5509.15723 6131.75977
5836.0 0.0001714 5463.32373 6068.23047
5590.0 0.0001789 5418.19727 6006.77197
5546.0 0.0001803 5373.84082 5947.41064
5416.0 0.0001846 5330.32080 5890.19043
5528.0 0.0001809 5287.68799 5835.14404
5502.0 0.0001818 5245.99365 5782.31836
5445.0 0.0001837 5205.28467 5731.77002
5395.0 0.0001854 5165.60840 5683.55176
5415.0 0.0001847 5127.00000 5637.70898
5459.0 0.0001832 5089.48877 5594.27295
5415.0 0.0001847 5053.10986 5553.35498
5392.0 0.0001855 5017.89160 5514.73486
5413.0 0.0001847 4983.85303 5478.39551
5460.0 0.0001832 4951.00781 5444.11963
5386.0 0.0001857 4919.37842 5411.57813
5302.0 0.0001886 4888.97461 5380.31055
5239.0 0.0001909 4859.80127 5349.80371
5277.0 0.0001895 4831.86230 5319.58984
5297.0 0.0001888 4805.16406 5289.40918
5299.0 0.0001887 4779.70068 5259.28271
5206.0 0.0001921 4755.46826 5229.52539
5247.0 0.0001906 4732.45947 5200.67529
5317.0 0.0001881 4710.66699 5173.36475
5136.0 0.0001947 4690.07520 5148.20117
5315.0 0.0001881 4670.67139 5125.71484
5283.0 0.0001893 4652.43701 5106.34033
5175.0 0.0001932 4635.35547 5090.45068
5097.0 0.0001962 4619.40527 5078.36230
5122.0 0.0001952 4604.56055 5070.38672
5190.0 0.0001927 4590.80127 5066.85156
5242.0 0.0001908 4578.10059 5068.09375
5216.0 0.0001917 4566.42969 5074.47998
5249.0 0.0001905 4555.76025 5086.38281
5161.0 0.0001938 4546.06494 5104.15186
5131.0 0.0001949 4537.31055 5128.06543
5226.0 0.0001914 4529.46582 5158.24170
5358.0 0.0001866 4522.49902 5194.49072
5183.0 0.0001929 4516.37695 5236.09082
5261.0 0.0001901 4511.06592 5281.54834
5304.0 0.0001885 4506.53027 5328.30615
5215.0 0.0001918 4502.73682 5372.62061
5119.0 0.0001954 4499.65137 5409.77051
5300.0 0.0001887 4497.23730 5434.79590
5235.0 0.0001910 4495.45947 5443.64307
5151.0 0.0001941 4494.28369 5434.33105
5225.0 0.0001914 4493.67383 5407.54688
5104.0 0.0001959 4493.59619 5366.36621
5232.0 0.0001911 4494.01465 5315.28857
5103.0 0.0001960 4494.89551 5259.08057
5029.0 0.0001988 4496.20459 5201.86133
5050.0 0.0001980 4497.90820 5146.65820
5062.0 0.0001976 4499.97266 5095.40039
5030.0 0.0001988 4502.36621 5049.09131
5044.0 0.0001983 4505.05664 5008.08203
5068.0 0.0001973 4508.01221 4972.29834
5098.0 0.0001962 4511.20215 4941.43213
4950.0 0.0002020 4514.59717 4915.05664
5133.0 0.0001948 4518.16748 4892.68262
5060.0 0.0001976 4521.88525 4873.82959
5059.0 0.0001977 4525.72266 4858.03467
5067.0 0.0001974 4529.65332 4844.86377
4963.0 0.0002015 4533.65186 4833.93359
4883.0 0.0002048 4537.69287 4824.89355
5097.0 0.0001962 4541.75195 4817.44775
4975.0 0.0002010 4545.80762 4811.34131
5007.0 0.0001997 4549.83789 4806.34424
4847.0 0.0002063 4553.82080 4802.26855
5002.0 0.0001999 4557.73730 4798.95947
4794.0 0.0002086 4561.56836 4796.27930
4942.0 0.0002023 4565.29590 4794.11816
4876.0 0.0002051 4568.90332 4792.37695
4918.0 0.0002033 4572.37451 4790.97461
4913.0 0.0002035 4575.69482 4789.84521
4739.0 0.0002110 4578.85107 4788.92920
4884.0 0.0002048 4581.82910 4788.17236
4919.0 0.0002033 4584.61768 4787.52832
4886.0 0.0002047 4587.20654 4786.96484
4784.0 0.0002090 4589.58496 4786.43994
4817.0 0.0002076 4591.74414 4785.92969
4950.0 0.0002020 4593.67627 4785.40479
4954.0 0.0002019 4595.37500 4784.84180
4821.0 0.0002074 4596.83252 4784.22314
4798.0 0.0002084 4598.04492 4783.52832
4846.0 0.0002064 4599.00732 4782.74561
4716.0 0.0002120 4599.71631 4781.85547
4910.0 0.0002037 4600.16895 4780.85645
4908.0 0.0002037 4600.36279 4779.72754
4735.0 0.0002112 4600.29785 4778.47217
4898.0 0.0002042 4599.97266 4777.08008
4776.0 0.0002094 4599.38770 4775.54150
4857.0 0.0002059 4598.54443 4773.85742
4755.0 0.0002103 4597.44385 4772.02734
4779.0 0.0002092 4596.08838 4770.04834
4746.0 0.0002107 4594.48145 4767.91846
4754.0 0.0002103 4592.62598 4765.64355
4713.0 0.0002122 4590.52637 4763.22070
4773.0 0.0002095 4588.18701 4760.65527
4634.0 0.0002158 4585.61328 4757.95313
4729.0 0.0002115 4582.81006 4755.11328
4637.0 0.0002157 4579.78369 4752.14697
4727.0 0.0002116 4576.54102 4749.05469
4593.0 0.0002177 4573.08887 4745.85010
4830.0 0.0002070 4569.43408 4742.53467
4812.0 0.0002078 4565.58350 4739.11816
4797.0 0.0002085 4561.54639 4735.61133
4720.0 0.0002119 4557.33057 4732.02100
4659.0 0.0002146 4552.94336 4728.35889
4621.0 0.0002164 4548.39355 4724.63281
4689.0 0.0002133 4543.69141 4720.85645
4540.0 0.0002203 4538.84521 4717.04150
4616.0 0.0002166 4533.86279 4713.19434
4668.0 0.0002142 4528.75488 4709.33203
4625.0 0.0002162 4523.53076 4705.46826
4685.0 0.0002134 4518.20020 4701.61035
4794.0 0.0002086 4512.77148 4697.77637
4661.0 0.0002145 4507.25488 4693.97754
4733.0 0.0002113 4501.66016 4690.23193
4716.0 0.0002120 4495.99658 4686.55029
4676.0 0.0002139 4490.27393 4682.94873
4558.0 0.0002194 4484.50195 4679.44531
4690.0 0.0002132 4478.68994 4676.05566
4673.0 0.0002140 4472.84717 4672.79492
4672.0 0.0002140 4466.98291 4669.67871
4685.0 0.0002134 4461.10693 4666.72803
4612.0 0.0002168 4455.22754 4663.95947
4608.0 0.0002170 4449.35400 4661.39355
4718.0 0.0002120 4443.49512 4659.05029
4526.0 0.0002209 4437.65967 4656.94727
4572.0 0.0002187 4431.85645 4655.11035
4678.0 0.0002138 4426.09180 4653.55566
4625.0 0.0002162 4420.37695 4652.31543
4610.0 0.0002169 4414.71777 4651.40381
4714.0 0.0002121 4409.12158 4650.85791
4637.0 0.0002157 4403.59619 4650.69727
4670.0 0.0002141 4398.14990 4650.95264
4722.0 0.0002118 4392.78857 4651.65771
4656.0 0.0002148 4387.51855 4652.84277
4679.0 0.0002137 4382.34668 4654.54346
4620.0 0.0002165 4377.27979 4656.79980
4680.0 0.0002137 4372.32324 4659.64990
4911.0 0.0002036 4367.48193 4663.14258
4673.0 0.0002140 4362.76221 4667.32178
4638.0 0.0002156 4358.16895 4672.24023
4666.0 0.0002143 4353.70703 4677.95557
4758.0 0.0002102 4349.38037 4684.53320
4716.0 0.0002120 4345.19336 4692.03906
4682.0 0.0002136 4341.15088 4700.55078
4751.0 0.0002105 4337.25586 4710.15527
4647.0 0.0002152 4333.51123 4720.94629
4818.0 0.0002076 4329.92139 4733.02734
4817.0 0.0002076 4326.48779 4746.51660
4728.0 0.0002115 4323.21436 4761.54932
4774.0 0.0002095 4320.10254 4778.27490
4752.0 0.0002104 4317.15430 4796.85889
4821.0 0.0002074 4314.37158 4817.50684
5014.0 0.0001994 4311.75635 4840.43701
5111.0 0.0001957 4309.30908 4865.90869
4816.0 0.0002076 4307.03125 4894.22461
4974.0 0.0002010 4304.92334 4925.73975
5117.0 0.0001954 4302.98633 4960.87744
5037.0 0.0001985 4301.22021 5000.13232
5233.0 0.0001911 4299.62500 5044.11084
5274.0 0.0001896 4298.20020 5093.54102
5248.0 0.0001905 4296.94580 5149.29736
5265.0 0.0001899 4295.86133 5212.44482
5325.0 0.0001878 4294.94580 5284.26953
5456.0 0.0001833 4294.19775 5366.34668
5461.0 0.0001831 4293.61670 5460.48438
5616.0 0.0001781 4293.20068 5568.88330
5693.0 0.0001757 4292.94824 5694.11230
5632.0 0.0001776 4292.85791 5839.13867
5982.0 0.0001672 4292.92725 6007.28467
6181.0 0.0001618 4293.15479 6202.27002
6170.0 0.0001621 4293.53857 6428.15771
6642.0 0.0001506 4294.07520 6689.17969
6841.0 0.0001462 4294.76270 6989.56885
7325.0 0.0001365 4295.59863 7333.25488
7542.0 0.0001326 4296.58057 7723.27637
8064.0 0.0001240 4297.70508 8160.81006
8698.0 0.0001150 4298.96924 8643.79883
9226.0 0.0001084 4300.37061 9165.06543
9618.0 0.0001040 4301.90576 9709.82617
10292.0 0.0000972 4303.57178 10253.44043
10621.0 0.0000942 4305.36475 10760.54883
10980.0 0.0000911 4307.28223 11187.82129
10996.0 0.0000909 4309.32031 11490.59961
11168.0 0.0000895 4311.47656 11633.05566
11068.0 0.0000904 4313.74609 11598.00195
10826.0 0.0000924 4316.12646 11391.44238
10495.0 0.0000953 4318.61328 11040.35059
10121.0 0.0000988 4321.20410 10584.87012
9711.0 0.0001030 4323.89502 10068.62793
9344.0 0.0001070 4326.68262 9530.81543
8802.0 0.0001136 4329.56348 9001.77148
8302.0 0.0001205 4332.53320 8501.91602
7984.0 0.0001253 4335.58936 8042.92139
7599.0 0.0001316 4338.72803 7629.95068
7266.0 0.0001376 4341.94629 7263.85498
6999.0 0.0001429 4345.23975 6942.80029
6757.0 0.0001480 4348.60596 6663.43066
6522.0 0.0001533 4352.04150 6421.70264
6333.0 0.0001579 4355.54297 6213.43164
6232.0 0.0001605 4359.10645 6034.42773
6012.0 0.0001663 4362.72998 5880.77637
5791.0 0.0001727 4366.40918 5748.90576
5583.0 0.0001791 4370.14258 5635.63867
5457.0 0.0001833 4373.92529 5538.16260
5443.0 0.0001837 4377.75684 5454.06641
5374.0 0.0001861 4381.63184 5381.29541
5222.0 0.0001915 4385.54932 5318.12793
5161.0 0.0001938 4389.50586 5263.11523
5160.0 0.0001938 4393.49902 5215.05811
5190.0 0.0001927 4397.52686 5172.97754
5023.0 0.0001991 4401.58643 5136.06201
4930.0 0.0002028 4405.67529 5103.63281
5113.0 0.0001956 4409.79199 5075.14063
5065.0 0.0001974 4413.93359 5050.12988
5054.0 0.0001979 4418.09766 5028.21045
4948.0 0.0002021 4422.28418 5009.06543
5155.0 0.0001940 4426.48975 4992.41992
4976.0 0.0002010 4430.71289 4978.05127
5121.0 0.0001953 4434.95215 4965.76123
4931.0 0.0002028 4439.20654 4955.38574
4936.0 0.0002026 4443.47412 4946.79102
5081.0 0.0001968 4447.75342 4939.93115
4988.0 0.0002005 4452.04346 4934.55713
5130.0 0.0001949 4456.34326 4930.66211
5126.0 0.0001951 4460.65186 4928.18994
5175.0 0.0001932 4464.96729 4927.08691
5338.0 0.0001873 4469.29004 4927.41992
5340.0 0.0001873 4473.61963 4928.96729
5490.0 0.0001821 4477.95361 4931.81738
5491.0 0.0001821 4482.29297 4935.98291
5665.0 0.0001765 4486.63721 4941.89355
5800.0 0.0001724 4490.98535 4948.78564
5715.0 0.0001750 4495.33789 4957.05518
5827.0 0.0001716 4499.69385 4966.80273
5728.0 0.0001746 4504.05371 4978.11816
5688.0 0.0001758 4508.41699 4991.31104
5524.0 0.0001810 4512.78467 5006.09521
5641.0 0.0001773 4517.15576 5022.84912
5515.0 0.0001813 4521.53174 5041.77197
5613.0 0.0001782 4525.91211 5063.10400
5388.0 0.0001856 4530.29688 5087.14893
5474.0 0.0001827 4534.68750 5114.27588
5325.0 0.0001878 4539.08447 5144.94092
5200.0 0.0001923 4543.48682 5179.68701
5145.0 0.0001944 4547.89697 5219.18896
5259.0 0.0001902 4552.31494 5264.26074
5376.0 0.0001860 4556.74170 5315.87207
5287.0 0.0001891 4561.17725 5375.18408
5310.0 0.0001883 4565.62354 5443.54053
5474.0 0.0001827 4570.08057 5522.51367
5414.0 0.0001847 4574.55029 5613.87695
5443.0 0.0001837 4579.03223 5719.60254
5664.0 0.0001766 4583.52832 5841.84912
5753.0 0.0001738 4588.03906 5982.88281
5925.0 0.0001688 4592.56641 6145.00732
6196.0 0.0001614 4597.11133 6330.42090
6315.0 0.0001584 4601.67334 6541.27441
6651.0 0.0001504 4606.25537 6777.71680
7007.0 0.0001427 4610.85840 7039.76953
7209.0 0.0001387 4615.48145 7324.38770
7593.0 0.0001317 4620.12842 7625.34326
7915.0 0.0001263 4624.79932 7931.54785
8325.0 0.0001201 4629.49365 8225.71973
8307.0 0.0001204 4634.21631 8486.43359
8521.0 0.0001174 4638.96484 8689.39258
8493.0 0.0001177 4643.74170 8812.88770
8459.0 0.0001182 4648.54883 8842.87793
8330.0 0.0001200 4653.38477 8776.70117
8236.0 0.0001214 4658.25391 8623.46777
8033.0 0.0001245 4663.15576 8401.33984
7527.0 0.0001329 4668.08984 8133.00146
7523.0 0.0001329 4673.06006 7840.85400
7199.0 0.0001389 4678.06543 7544.05127
6932.0 0.0001443 4683.10596 7256.80029
6552.0 0.0001526 4688.18506 6988.23291
6336.0 0.0001578 4693.30225 6743.12109
6312.0 0.0001584 4698.45850 6523.52881
6138.0 0.0001629 4703.65430 6329.38086
6016.0 0.0001662 4708.88965 6159.49072
5924.0 0.0001688 4714.16797 6011.93994
5714.0 0.0001750 4719.48682 5884.41357
5651.0 0.0001770 4724.84717 5774.73242
5548.0 0.0001802 4730.25146 5680.60059
5363.0 0.0001865 4735.69824 5599.97803
5424.0 0.0001844 4741.18945 5530.94971
5285.0 0.0001892 4746.72412 5471.80762
5237.0 0.0001909 4752.30225 5421.08252
5114.0 0.0001955 4757.92529 5377.47852
5202.0 0.0001922 4763.59326 5339.89746
5217.0 0.0001917 4769.30469 5307.43408
5078.0 0.0001969 4775.06104 5279.30518
5019.0 0.0001992 4780.86279 5254.87305
5119.0 0.0001954 4786.70654 5233.62451
5126.0 0.0001951 4792.59668 5215.10498
5080.0 0.0001969 4798.52979 5198.96484
5030.0 0.0001988 4804.50586 5184.89600
5050.0 0.0001980 4810.52588 5172.65137
5051.0 0.0001980 4816.58740 5162.02490
4964.0 0.0002015 4822.69141 5152.82520
4956.0 0.0002018 4828.83691 5144.90820
5062.0 0.0001976 4835.02197 5138.14307
5024.0 0.0001990 4841.24854 5132.40723
4979.0 0.0002008 4847.51318 5127.60596
4875.0 0.0002051 4853.81494 5123.65576
4754.0 0.0002103 4860.15479 5120.47217
5097.0 0.0001962 4866.53076 5117.99023
4976.0 0.0002010 4872.94092 5116.15186
4968.0 0.0002013 4879.38477 5114.89453
5024.0 0.0001990 4885.86035 5114.17676
4858.0 0.0002058 4892.36816 5113.95068
5036.0 0.0001986 4898.90527 5114.18115
5156.0 0.0001939 4905.46875 5114.82861
4983.0 0.0002007 4912.06006 5115.89502
5098.0 0.0001962 4918.67578 5117.28418
4918.0 0.0002033 4925.31494 5119.00635
5270.0 0.0001898 4931.97559 5121.03027
5113.0 0.0001956 4938.65576 5123.33691
5183.0 0.0001929 4945.35303 5125.92432
5157.0 0.0001939 4952.06787 5128.73682
5265.0 0.0001899 4958.79443 5131.77490
5551.0 0.0001801 4965.53467 5135.02588
5364.0 0.0001864 4972.28467 5138.46729
5372.0 0.0001862 4979.04004 5142.08984
5453.0 0.0001834 4985.80371 5145.87988
5473.0 0.0001827 4992.56885 5149.82617
5583.0 0.0001791 4999.33545 5153.91357
5502.0 0.0001818 5006.10156 5158.13477
5440.0 0.0001838 5012.86328 5162.48291
5311.0 0.0001883 5019.61865 5166.93750
5288.0 0.0001891 5026.36670 5171.49658
5407.0 0.0001849 5033.10205 5176.15381
5093.0 0.0001963 5039.82617 5180.89746
5229.0 0.0001912 5046.53418 5185.71777
5183.0 0.0001929 5053.22217 5190.60938
5052.0 0.0001979 5059.89111 5195.59863
5034.0 0.0001986 5066.53564 5200.61328
5094.0 0.0001963 5073.15430 5205.67822
5086.0 0.0001966 5079.74463 5210.79102
5202.0 0.0001922 5086.30225 5215.94043
5019.0 0.0001992 5092.82813 5221.13867
4921.0 0.0002032 5099.31689 5226.35156
4837.0 0.0002067 5105.76563 5231.87061
5115.0 0.0001955 5112.17334 5237.11914
4977.0 0.0002009 5118.53760 5242.38037
4984.0 0.0002006 5124.85303 5247.64746
4978.0 0.0002009 5131.11963 5252.91553
5064.0 0.0001975 5137.33398 5258.18457
5216.0 0.0001917 5143.49316 5263.58398
5287.0 0.0001891 5149.59619 5268.83350
5417.0 0.0001846 5155.63818 5274.06836
5403.0 0.0001851 5161.61816 5279.28174
5390.0 0.0001855 5167.53369 5284.47217
5404.0 0.0001850 5173.38037 5289.63281
5397.0 0.0001853 5179.15820 5294.78564
5438.0 0.0001839 5184.86279 5299.88184
5389.0 0.0001856 5190.49268 5305.30566
5334.0 0.0001875 5196.04688 5310.32324
5513.0 0.0001814 5201.52051 5315.29590
5488.0 0.0001822 5206.91211 5320.22217
5331.0 0.0001876 5212.22021 5325.10596
5324.0 0.0001878 5217.44141 5330.10400
5284.0 0.0001893 5222.57568 5334.86816
5333.0 0.0001875 5227.61914 5339.57422
5447.0 0.0001836 5232.56934 5344.21387
5402.0 0.0001851 5237.42627 5348.79492
5362.0 0.0001865 5242.18604 5353.30615
5329.0 0.0001877 5246.84766 5357.74609
5507.0 0.0001816 5251.40967 5362.11719
5316.0 0.0001881 5255.86865 5366.41260
5429.0 0.0001842 5260.22607 5370.63330
5392.0 0.0001855 5264.47754 5374.77930
5255.0 0.0001903 5268.62207 5378.84375
5408.0 0.0001849 5272.65918 5382.84326
5364.0 0.0001864 5276.58740 5386.74756
5396.0 0.0001853 5280.40332 5390.56689
5400.0 0.0001852 5284.10840 5394.29883
5360.0 0.0001866 5287.69971 5397.94873
5485.0 0.0001823 5291.17676 5401.51025
5338.0 0.0001873 5294.53906 5404.99805
5431.0 0.0001841 5297.78418 5408.38037
5404.0 0.0001850 5300.91309 5411.67822
5498.0 0.0001819 5303.92432 5414.88428
5473.0 0.0001827 5306.81641 5418.00293
5448.0 0.0001836 5309.58984 5421.03125
5382.0 0.0001858 5312.24365 5423.96826
5378.0 0.0001859 5314.77734 5426.81299
5333.0 0.0001875 5317.19141 5429.56982
5353.0 0.0001868 5319.48438 5432.23730
5435.0 0.0001840 5321.65674 5434.81494
5427.0 0.0001843 5323.70898 5437.30566
5303.0 0.0001886 5325.63965 5439.70752
5370.0 0.0001862 5327.45020 5442.02637
5460.0 0.0001832 5329.14063 5444.25439
5280.0 0.0001894 5330.71094 5446.40137
5517.0 0.0001813 5332.16211 5448.46582
5428.0 0.0001842 5333.49365 5450.44629
5369.0 0.0001863 5334.70703 5452.34912
5268.0 0.0001898 5335.80273 5454.17822
5446.0 0.0001836 5336.78125 5455.93018
5472.0 0.0001827 5337.64355 5457.60938
5545.0 0.0001803 5338.39111 5459.22070
5316.0 0.0001881 5339.02441 5460.76563
5514.0 0.0001814 5339.54541 5462.24609
5568.0 0.0001796 5339.95410 5463.66748
5429.0 0.0001842 5340.25293 5465.03174
5572.0 0.0001795 5340.44287 5466.35059
5601.0 0.0001785 5340.52490 5467.61328
5525.0 0.0001810 5340.50195 5468.83789
5629.0 0.0001777 5340.37451 5470.02197
5598.0 0.0001786 5340.14502 5471.17432
5602.0 0.0001785 5339.81543 5472.29932
5520.0 0.0001812 5339.38721 5473.40332
5612.0 0.0001782 5338.86279 5474.49414
5657.0 0.0001768 5338.24365 5475.57959
5751.0 0.0001739 5337.53320 5476.66357
5784.0 0.0001729 5336.73242 5477.75293
5826.0 0.0001716 5335.84424 5478.86377
5946.0 0.0001682 5334.87158 5480.00000
5899.0 0.0001695 5333.81641 5481.17334
5933.0 0.0001685 5332.68115 5482.39209
5926.0 0.0001687 5331.46924 5483.67529
6023.0 0.0001660 5330.18262 5485.02881
6235.0 0.0001604 5328.82422 5486.46777
6177.0 0.0001619 5327.39746 5488.00684
6244.0 0.0001602 5325.90479 5489.66113
6027.0 0.0001659 5324.34912 5491.45264
6151.0 0.0001626 5322.73438 5493.40234
6054.0 0.0001652 5321.06250 5495.52588
5946.0 0.0001682 5319.33691 5497.84619
5896.0 0.0001696 5317.56152 5500.39355
6016.0 0.0001662 5315.73975 5503.19434
5860.0 0.0001706 5313.87402 5506.28223
5694.0 0.0001756 5311.96826 5509.68750
5668.0 0.0001764 5310.02588 5513.50391
5584.0 0.0001791 5308.05029 5517.67627
5526.0 0.0001810 5306.04492 5522.30566
5728.0 0.0001746 5304.01367 5527.44824
5565.0 0.0001797 5301.95996 5533.16943
5571.0 0.0001795 5299.88770 5539.57324
5543.0 0.0001804 5297.80029 5546.70996
5557.0 0.0001800 5295.70117 5554.67773
5507.0 0.0001816 5293.59424 5563.62109
5470.0 0.0001828 5291.48438 5573.67432
5557.0 0.0001800 5289.37354 5585.01855
5367.0 0.0001863 5287.26660 5597.86035
5540.0 0.0001805 5285.16797 5612.42578
5312.0 0.0001883 5283.07959 5629.02295
5266.0 0.0001899 5281.00732 5647.99023
5375.0 0.0001860 5278.95410 5669.73779
5257.0 0.0001902 5276.92383 5694.74268
5288.0 0.0001891 5274.92090 5723.55273
5396.0 0.0001853 5272.94824 5756.83740
5340.0 0.0001873 5271.01025 5795.27148
5463.0 0.0001830 5269.11182 5839.65625
5506.0 0.0001816 5267.25488 5890.87158
5463.0 0.0001830 5265.44531 5949.78760
5381.0 0.0001858 5263.68555 6017.29785
5605.0 0.0001784 5261.97998 6094.23291
5790.0 0.0001727 5260.33203 6181.20215
5787.0 0.0001728 5258.74707 6278.62549
5840.0 0.0001712 5257.22705 6386.55518
6089.0 0.0001642 5255.77686 6504.54346
6220.0 0.0001608 5254.39941 6631.69824
6651.0 0.0001504 5253.09961 6766.44775
6895.0 0.0001450 5251.88037 6906.12061
7167.0 0.0001395 5250.74561 7047.03076
7297.0 0.0001370 5249.69873 7183.57080
7611.0 0.0001314 5248.74365 7308.28760
7368.0 0.0001357 5247.88428 7412.24805
7488.0 0.0001335 5247.12354 7486.13135
7304.0 0.0001369 5246.46484 7522.39453
7504.0 0.0001333 5245.91211 7516.83252
7210.0 0.0001387 5245.46875 7469.71094
7100.0 0.0001408 5245.13818 7385.51465
6914.0 0.0001446 5244.92334 7271.93457
6945.0 0.0001440 5244.82764 7138.31738
6708.0 0.0001491 5244.85400 6993.99316
6576.0 0.0001521 5245.00635 6847.27832
6607.0 0.0001514 5245.28760 6704.58105
6432.0 0.0001555 5245.69971 6570.34180
6398.0 0.0001563 5246.24707 6447.29248
6406.0 0.0001561 5246.93164 6336.75635
6291.0 0.0001590 5247.75684 6238.90820
6093.0 0.0001641 5248.72510 6153.55908
6259.0 0.0001598 5249.83887 6079.97266
5964.0 0.0001677 5251.10156 6017.29395
6209.0 0.0001611 5252.51465 5964.50879
6046.0 0.0001654 5254.08203 5920.64209
6153.0 0.0001625 5255.80469 5884.59863
6186.0 0.0001617 5257.68604 5855.43555
6176.0 0.0001619 5259.72803 5832.21924
5973.0 0.0001674 5261.93164 5814.06104
6009.0 0.0001664 5264.30127 5800.17578
5973.0 0.0001674 5266.83691 5789.90234
5900.0 0.0001695 5269.54102 5782.76807
6061.0 0.0001650 5272.41650 5778.46338
5995.0 0.0001668 5275.46338 5776.95068
6055.0 0.0001652 5278.68457 5778.28564
6098.0 0.0001640 5282.08154 5782.71631
5967.0 0.0001676 5285.65479 5790.56445
5978.0 0.0001673 5289.40723 5802.16992
6014.0 0.0001663 5293.33984 5817.83984
5983.0 0.0001671 5297.45215 5837.83057
5972.0 0.0001674 5301.74707 5862.30566
6008.0 0.0001664 5306.22607 5891.25830
5921.0 0.0001689 5310.88721 5924.45361
5857.0 0.0001707 5315.73486 5961.34180
5938.0 0.0001684 5320.76709 6000.88623
5873.0 0.0001703 5325.98584 6041.49414
5852.0 0.0001709 5331.39258 6080.95557
5925.0 0.0001688 5336.98535 6116.52295
5992.0 0.0001669 5342.76611 6145.30762
5934.0 0.0001685 5348.73584 6164.72803
5858.0 0.0001707 5354.89258 6173.09521
5968.0 0.0001676 5361.23877 6169.95459
6030.0 0.0001658 5367.77246 6156.09961
5913.0 0.0001691 5374.49463 6133.34863
5935.0 0.0001685 5381.40576 6104.12451
5677.0 0.0001761 5388.50391 6071.05664
5978.0 0.0001673 5395.78906 6036.66650
6009.0 0.0001664 5403.26221 6002.75586
5936.0 0.0001685 5410.91992 5970.90186
5960.0 0.0001678 5418.76563 5942.04248
6015.0 0.0001663 5426.79590 5916.71143
6017.0 0.0001662 5435.00879 5895.12549
5991.0 0.0001669 5443.40625 5877.32568
5903.0 0.0001694 5451.98584 5863.08887
6241.0 0.0001602 5460.74609 5852.24951
6125.0 0.0001633 5469.68652 5844.56396
6027.0 0.0001659 5478.80566 5839.77344
6114.0 0.0001636 5488.10156 5837.61035
6002.0 0.0001666 5497.57471 5837.82715
6009.0 0.0001664 5507.22021 5840.19336
6051.0 0.0001653 5517.03955 5844.47607
6064.0 0.0001649 5527.03125 5850.47949
6059.0 0.0001650 5537.18896 5857.98340
6136.0 0.0001630 5547.51611 5866.78027
6079.0 0.0001645 5558.00732 5876.64209
6206.0 0.0001611 5568.66211 5887.29248
6138.0 0.0001629 5579.48047 5898.50537
6144.0 0.0001628 5590.45410 5909.85693
6233.0 0.0001604 5601.58740 5921.12744
6118.0 0.0001635 5612.87451 5932.09521
6057.0 0.0001651 5624.31201 5942.62939
6010.0 0.0001664 5635.90234 5952.72803
6048.0 0.0001653 5647.63818 5962.46729
5991.0 0.0001669 5659.51660 5971.99902
6146.0 0.0001627 5671.54053 5981.52100
6185.0 0.0001617 5683.70068 5991.21387
6006.0 0.0001665 5695.99756 6001.24805
6068.0 0.0001648 5708.42871 6011.75391
6220.0 0.0001608 5720.98828 6022.81934
6105.0 0.0001638 5733.67871 6034.49854
6103.0 0.0001639 5746.49268 6046.81885
6012.0 0.0001663 5759.42578 6059.77490
6019.0 0.0001661 5772.47949 6073.37109
6072.0 0.0001647 5785.64844 6087.58398
6068.0 0.0001648 5798.92822 6102.39648
6003.0 0.0001666 5812.31787 6117.79102
6212.0 0.0001610 5825.81152 6133.74268
6213.0 0.0001610 5839.40723 6150.23877
6149.0 0.0001626 5853.10400 6167.28369
6109.0 0.0001637 5866.89209 6184.82568
6155.0 0.0001625 5880.77441 6202.87793
6254.0 0.0001599 5894.74658 6221.43750
6288.0 0.0001590 5908.79932 6240.50439
6202.0 0.0001612 5922.93604 6260.08936
6366.0 0.0001571 5937.14844 6280.20166
6279.0 0.0001593 5951.43506 6300.84131
6484.0 0.0001542 5965.79492 6322.03955
6490.0 0.0001541 5980.21729 6343.80371
6053.0 0.0001652 5994.70459 6366.18555
6241.0 0.0001602 6009.25342 6389.20117
6326.0 0.0001581 6023.85156 6412.89258
6355.0 0.0001574 6038.50732 6437.31250
6515.0 0.0001535 6053.20996 6462.51074
6538.0 0.0001530 6067.95361 6488.54150
6444.0 0.0001552 6082.74219 6515.49414
6479.0 0.0001543 6097.56494 6543.44385
6513.0 0.0001535 6112.42041 6572.49609
6389.0 0.0001565 6127.30664 6602.77295
6373.0 0.0001569 6142.21533 6634.40723
6461.0 0.0001548 6157.14990 6667.60010
6499.0 0.0001539 6172.10107 6702.54102
6330.0 0.0001580 6187.06396 6739.47949
6704.0 0.0001492 6202.03955 6778.74463
6650.0 0.0001504 6217.02246 6820.68896
6716.0 0.0001489 6232.00635 6865.76953
6874.0 0.0001455 6246.99121 6914.52148
6939.0 0.0001441 6261.97021 6967.56934
6725.0 0.0001487 6276.94238 7025.65527
6958.0 0.0001437 6291.90283 7089.64209
7124.0 0.0001404 6306.84521 7160.46680
7034.0 0.0001422 6321.77148 7239.25293
7066.0 0.0001415 6336.67627 7327.16455
7409.0 0.0001350 6351.55078 7425.43945
7426.0 0.0001347 6366.39844 7535.44482
7498.0 0.0001334 6381.21143 7658.43945
7710.0 0.0001297 6395.98828 7795.68066
8078.0 0.0001238 6410.72754 7948.22119
7852.0 0.0001274 6425.41943 8116.68652
8374.0 0.0001194 6440.06689 8301.24219
8591.0 0.0001164 6454.66602 8500.95996
9048.0 0.0001105 6469.20605 8713.45996
9385.0 0.0001066 6483.69482 8934.53711
9462.0 0.0001057 6498.12256 9157.28906
9745.0 0.0001026 6512.48438 9372.06836
10177.0 0.0000983 6526.78467 9567.07324
10037.0 0.0000996 6541.01270 9729.29199
10121.0 0.0000988 6555.16895 9846.99316
10385.0 0.0000963 6569.25146 9911.95508
10185.0 0.0000982 6583.25342 9921.08496
10349.0 0.0000966 6597.17822 9876.83691
10303.0 0.0000971 6611.01855 9786.35449
9836.0 0.0001017 6624.76953 9659.96094
9458.0 0.0001057 6638.43408 9509.32617
9382.0 0.0001066 6652.00732 9346.01660
9141.0 0.0001094 6665.48535 9180.09375
9168.0 0.0001091 6678.86768 9019.43945
9043.0 0.0001106 6692.14941 8869.67188
8749.0 0.0001143 6705.33105 8734.27734
8729.0 0.0001146 6718.40918 8615.08984
8784.0 0.0001138 6731.37842 8512.81641
8655.0 0.0001155 6744.24268 8427.27246
8576.0 0.0001166 6756.99707 8357.86816
8363.0 0.0001196 6769.63574 8303.72754
8178.0 0.0001223 6782.16211 8263.81250
8265.0 0.0001210 6794.57129 8237.11230
8269.0 0.0001209 6806.86230 8222.66699
8187.0 0.0001221 6819.03613 8219.59961
8334.0 0.0001200 6831.08545 8227.20020
8335.0 0.0001200 6843.01172 8244.91504
8173.0 0.0001224 6854.81543 8272.38379
8273.0 0.0001209 6866.48828 8309.41602
8200.0 0.0001220 6878.03760 8356.06250
8329.0 0.0001201 6889.45703 8412.52539
8547.0 0.0001170 6900.74414 8479.23730
8575.0 0.0001166 6911.90234 8556.87891
8715.0 0.0001147 6922.92578 8646.27441
8764.0 0.0001141 6933.81592 8748.51367
8880.0 0.0001126 6944.57178 8864.88574
8817.0 0.0001134 6955.19043 8996.81934
9182.0 0.0001089 6965.67480 9146.00488
9095.0 0.0001100 6976.02148 9314.12598
9365.0 0.0001068 6986.22803 9502.84473
9488.0 0.0001054 6996.29883 9713.88086
9658.0 0.0001035 7006.22900 9948.66211
10003.0 0.0001000 7016.01807 10208.45801
10289.0 0.0000972 7025.66895 10494.79590
10166.0 0.0000984 7035.17822 10809.41504
10600.0 0.0000943 7044.54785 11155.01367
10938.0 0.0000914 7053.77637 11535.34180
11240.0 0.0000890 7062.86230 11954.95020
11944.0 0.0000837 7071.80908 12419.17383
12426.0 0.0000805 7080.61523 12932.71680
13311.0 0.0000751 7089.27783 13498.70996
13923.0 0.0000718 7097.80176 14117.67285
15291.0 0.0000654 7106.18408 14784.77734
15985.0 0.0000626 7114.42627 15488.49219
17152.0 0.0000583 7122.52979 16208.35254
18195.0 0.0000550 7130.49219 16913.44531
19027.0 0.0000526 7138.31592 17563.63867
19748.0 0.0000506 7146.00244 18112.90430
20125.0 0.0000497 7153.54883 18515.79492
19896.0 0.0000503 7160.95947 18736.55273
19949.0 0.0000501 7168.23389 18755.29102
19401.0 0.0000515 7175.37158 18571.83594
18742.0 0.0000534 7182.37598 18203.95508
18303.0 0.0000546 7189.24609 17683.97461
17366.0 0.0000576 7195.98291 17050.38281
16397.0 0.0000610 7202.58887 16345.71484
15606.0 0.0000641 7209.06250 15609.37305
14750.0 0.0000678 7215.40869 14873.96875
14085.0 0.0000710 7221.62598 14164.59082
13261.0 0.0000754 7227.71533 13498.21875
13076.0 0.0000765 7233.68066 12884.80762
12351.0 0.0000810 7239.52148 12328.58984
12038.0 0.0000831 7245.23828 11830.75195
11617.0 0.0000861 7250.83447 11389.35547
11120.0 0.0000899 7256.31055 11001.29492
10851.0 0.0000922 7261.66895 10662.29590
10472.0 0.0000955 7266.91064 10367.67285
10228.0 0.0000978 7272.03613 10112.78711
9772.0 0.0001023 7277.04980 9892.87109
9787.0 0.0001022 7281.95215 9703.58008
9550.0 0.0001047 7286.74365 9540.90332
9288.0 0.0001077 7291.42773 9401.07129
9164.0 0.0001091 7296.00586 9280.91016
8911.0 0.0001122 7300.47998 9177.54785
8842.0 0.0001131 7304.85254 9088.53906
8748.0 0.0001143 7309.12451 9011.85352
8652.0 0.0001156 7313.29785 8945.73047
8744.0 0.0001144 7317.37598 8888.72754
8605.0 0.0001162 7321.35889 8839.67676
8521.0 0.0001174 7325.25098 8797.58203
8595.0 0.0001163 7329.05273 8761.65625
8534.0 0.0001172 7332.76660 8731.28223
8558.0 0.0001168 7336.39551 8705.91406
8607.0 0.0001162 7339.94092 8685.14160
8595.0 0.0001163 7343.40527 8668.66504
8697.0 0.0001150 7346.79102 8656.21777
8589.0 0.0001164 7350.09912 8647.63379
8533.0 0.0001172 7353.33447 8642.80469
8635.0 0.0001158 7356.49707 8641.66504
8495.0 0.0001177 7359.58984 8644.23145
8448.0 0.0001184 7362.61572 8650.58691
8666.0 0.0001154 7365.57666 8660.87402
8580.0 0.0001166 7368.47363 8675.31348
8768.0 0.0001141 7371.31104 8694.22754
8756.0 0.0001142 7374.09082 8718.01074
8810.0 0.0001135 7376.81445 8747.20020
8783.0 0.0001139 7379.48486 8782.41406
8682.0 0.0001152 7382.10352 8824.38965
8997.0 0.0001111 7384.67432 8874.03516
8785.0 0.0001138 7387.19922 8932.34863
8775.0 0.0001140 7389.67969 9000.63477
9028.0 0.0001108 7392.11816 9079.72852
9275.0 0.0001078 7394.51807 9171.12207
9450.0 0.0001058 7396.88086 9276.15039
9264.0 0.0001079 7399.20947 9396.14355
9662.0 0.0001035 7401.50537 9532.29199
9733.0 0.0001027 7403.77100 9685.62109
9981.0 0.0001002 7406.00977 9856.86035
10175.0 0.0000983 7408.22266 10045.75586
10364.0 0.0000965 7410.41260 10251.53906
11037.0 0.0000906 7412.58203 10471.81445
11063.0 0.0000904 7414.73242 10702.25977
11221.0 0.0000891 7416.86670 10936.26270
11717.0 0.0000853 7418.98633 11164.36133
12012.0 0.0000833 7421.09424 11374.80371
12153.0 0.0000823 7423.19287 11554.57422
12215.0 0.0000819 7425.28271 11691.26367
12429.0 0.0000805 7427.36719 11775.45605
12399.0 0.0000807 7429.44824 11802.39355
12429.0 0.0000805 7431.52734 11772.67578
12143.0 0.0000824 7433.60742 11691.69336
12143.0 0.0000824 7435.68994 11568.45215
12035.0 0.0000831 7437.77637 11414.11133
11977.0 0.0000835 7439.86914 11240.34375
11840.0 0.0000845 7441.97070 11058.31055
11423.0 0.0000875 7444.08203 10877.44238
11307.0 0.0000884 7446.20508 10705.02539
11061.0 0.0000904 7448.34131 10546.51172
11112.0 0.0000900 7450.49365 10404.61914
10874.0 0.0000920 7452.66309 10281.23340
10738.0 0.0000931 7454.85107 10175.94043
10798.0 0.0000926 7457.05957 10090.70996
10728.0 0.0000932 7459.29053 10023.43164
10220.0 0.0000978 7461.54395 9974.31152
10363.0 0.0000965 7463.82324 9942.03320
10358.0 0.0000965 7466.12842 9925.31543
10231.0 0.0000977 7468.46191 9923.34668
10390.0 0.0000962 7470.82471 9935.31250
10251.0 0.0000976 7473.21777 9960.49805
10430.0 0.0000959 7475.64307 9998.38086
10114.0 0.0000989 7478.10156 10048.55078
10161.0 0.0000984 7480.59326 10110.76855
10135.0 0.0000987 7483.12158 10184.99512
10404.0 0.0000961 7485.68604 10271.29492
10421.0 0.0000960 7488.28809 10369.85352
10584.0 0.0000945 7490.92920 10481.03125
10512.0 0.0000951 7493.60889 10605.18945
10419.0 0.0000960 7496.32910 10742.80176
10667.0 0.0000937 7499.09131 10894.33008
10726.0 0.0000932 7501.89453 11060.09668
10932.0 0.0000915 7504.74121 11240.50586
10885.0 0.0000919 7507.63135 11435.71875
11025.0 0.0000907 7510.56494 11645.92773
11265.0 0.0000888 7513.54346 11871.70117
11549.0 0.0000866 7516.56738 12114.02246
11720.0 0.0000853 7519.63672 12374.94336
11763.0 0.0000850 7522.75244 12657.94727
12174.0 0.0000821 7525.91406 12967.16016
12387.0 0.0000807 7529.12305 13310.96387
12806.0 0.0000781 7532.37891 13696.43652
13064.0 0.0000765 7535.68164 14134.07031
13525.0 0.0000739 7539.03223 14634.95996
14050.0 0.0000712 7542.43066 15211.55469
14546.0 0.0000687 7545.87549 15877.32324
15368.0 0.0000651 7549.36914 16647.18164
15933.0 0.0000628 7552.90967 17536.16016
16924.0 0.0000591 7556.49707 18560.06445
18072.0 0.0000553 7560.13330 19734.79297
19575.0 0.0000511 7563.81494 21075.13281
21149.0 0.0000473 7567.54395 22595.25195
22944.0 0.0000436 7571.32031 24305.99414
25390.0 0.0000394 7575.14111 26213.55664
27696.0 0.0000361 7579.00879 28318.70313
30488.0 0.0000328 7582.92139 30610.42578
33646.0 0.0000297 7586.87842 33064.05859
36579.0 0.0000273 7590.88086 35635.14453
39178.0 0.0000255 7594.92529 38252.44531
42111.0 0.0000237 7599.01318 40816.69531
44503.0 0.0000225 7603.14355 43200.71094
46074.0 0.0000217 7607.31445 45258.02344
47230.0 0.0000212 7611.52734 46844.75000
46996.0 0.0000213 7615.77930 47840.67969
46574.0 0.0000215 7620.06934 48173.06641
45942.0 0.0000218 7624.39795 47827.44141
44139.0 0.0000227 7628.76367 46845.20313
42625.0 0.0000235 7633.16504 45312.42969
40992.0 0.0000244 7637.60107 43344.61719
38266.0 0.0000261 7642.07031 41072.44141
36694.0 0.0000273 7646.57324 38624.19141
34394.0 0.0000291 7651.10742 36117.03906
32589.0 0.0000307 7655.67041 33647.10156
30921.0 0.0000323 7660.26318 31284.34375
29086.0 0.0000344 7664.88330 29077.17969
27442.0 0.0000364 7669.52881 27054.34570
25757.0 0.0000388 7674.19971 25227.97852
24852.0 0.0000402 7678.89355 23601.08008
23393.0 0.0000427 7683.60889 22168.46289
21806.0 0.0000459 7688.34570 20920.48828
20709.0 0.0000483 7693.09961 19845.43945
19884.0 0.0000503 7697.87158 18929.51953
18641.0 0.0000536 7702.65967 18159.54102
17742.0 0.0000564 7707.45996 17522.76953
17395.0 0.0000575 7712.27393 17007.13672
16510.0 0.0000606 7717.09766 16602.55469
16375.0 0.0000611 7721.93018 16300.36328
15994.0 0.0000625 7726.77100 16093.81348
15559.0 0.0000643 7731.61621 15978.11523
15699.0 0.0000637 7736.46436 15950.24219
15750.0 0.0000635 7741.31543 16008.96094
15740.0 0.0000635 7746.16455 16154.57813
16174.0 0.0000618 7751.01367 16388.86719
16357.0 0.0000611 7755.85840 16714.56836
16842.0 0.0000594 7760.69531 17135.06445
17326.0 0.0000577 7765.52637 17654.33203
18041.0 0.0000554 7770.34717 18275.61914
19218.0 0.0000520 7775.15576 19001.24414
20239.0 0.0000494 7779.95166 19831.34766
21267.0 0.0000470 7784.73145 20761.96680
22609.0 0.0000442 7789.49316 21783.85352
23874.0 0.0000419 7794.23633 22880.12891
25155.0 0.0000398 7798.95557 24023.93750
26550.0 0.0000377 7803.65332 25179.29102
27745.0 0.0000360 7808.32422 26300.94336
28415.0 0.0000352 7812.96729 27339.83789
29577.0 0.0000338 7817.58105 28250.91992
30398.0 0.0000329 7822.16211 28998.88281
30505.0 0.0000328 7826.70947 29564.20508
30660.0 0.0000326 7831.22021 29942.84570
30780.0 0.0000325 7835.69336 30142.19922
30815.0 0.0000325 7840.12695 30175.61914
30706.0 0.0000326 7844.51709 30056.51758
29995.0 0.0000333 7848.86328 29794.47656
29532.0 0.0000339 7853.16309 29393.62500
28656.0 0.0000349 7857.41455 28854.96484
27767.0 0.0000360 7861.61523 28178.74023
26904.0 0.0000372 7865.76367 27370.64453
25743.0 0.0000388 7869.85693 26443.81836
24759.0 0.0000404 7873.89453 25418.73438
23526.0 0.0000425 7877.87256 24321.64844
22582.0 0.0000443 7881.79004 23183.02344
21595.0 0.0000463 7885.64502 22033.49023
20344.0 0.0000492 7889.43604 20902.21875
19423.0 0.0000515 7893.16016 19814.85156
18453.0 0.0000542 7896.81494 18790.38867
17598.0 0.0000568 7900.39990 17842.53711
16798.0 0.0000595 7903.91211 16978.72461
15951.0 0.0000627 7907.35107 16201.69531
15249.0 0.0000656 7910.71338 15510.85352
15060.0 0.0000664 7913.99707 14903.06152
14527.0 0.0000688 7917.20215 14373.42480
13954.0 0.0000717 7920.32422 13916.48340
13489.0 0.0000741 7923.36377 13525.79883
13182.0 0.0000759 7926.31836 13194.93359
13147.0 0.0000761 7929.18506 12917.22461
12854.0 0.0000778 7931.96387 12685.55566
12952.0 0.0000772 7934.65234 12492.73145
13082.0 0.0000764 7937.24854 12331.01465
13087.0 0.0000764 7939.75195 12192.32422
13091.0 0.0000764 7942.15918 12068.49805
13063.0 0.0000766 7944.47070 11951.57910
13156.0 0.0000760 7946.68408 11834.70996
12932.0 0.0000773 7948.79639 11712.70020
12710.0 0.0000787 7950.80908 11582.29004
12671.0 0.0000789 7952.71875 11442.38379
12357.0 0.0000809 7954.52344 11293.66895
12130.0 0.0000824 7956.22412 11137.97168
11858.0 0.0000843 7957.81738 10978.09668
11631.0 0.0000860 7959.30273 10817.13379
11439.0 0.0000874 7960.67969 10658.13867
11182.0 0.0000894 7961.94531 10503.84961
10860.0 0.0000921 7963.10010 10356.27051
10745.0 0.0000931 7964.14258 10216.91211
10329.0 0.0000968 7965.07031 10086.62793
10465.0 0.0000956 7965.88428 9965.72168
10214.0 0.0000979 7966.58203 9854.19043
10010.0 0.0000999 7967.16309 9751.73242
9836.0 0.0001017 7967.62695 9657.86914
9567.0 0.0001045 7967.97217 9572.05469
9450.0 0.0001058 7968.19775 9493.63281
9408.0 0.0001063 7968.30371 9421.95313
9341.0 0.0001071 7968.28906 9356.40332
9139.0 0.0001094 7968.15283 9296.31543
9118.0 0.0001097 7967.89404 9241.13086
9055.0 0.0001104 7967.51318 9190.31445
8905.0 0.0001123 7967.00879 9143.34277
8703.0 0.0001149 7966.38086 9099.79102
8611.0 0.0001161 7965.62842 9059.25195
8675.0 0.0001153 7964.75195 9021.36035
8643.0 0.0001157 7963.75049 8985.82813
8492.0 0.0001178 7962.62354 8952.37012
8524.0 0.0001173 7961.37109 8920.74707
8239.0 0.0001214 7959.99316 8890.78125
8376.0 0.0001194 7958.48926 8862.27832
8347.0 0.0001198 7956.85938 8835.08691
8385.0 0.0001193 7955.10352 8809.10254
8355.0 0.0001197 7953.22168 8784.18555
8395.0 0.0001191 7951.21436 8760.27246
8476.0 0.0001180 7949.08008 8737.25781
8392.0 0.0001192 7946.82080 8715.08496
8331.0 0.0001200 7944.43555 8693.69629
8435.0 0.0001186 7941.92529 8673.01367
8183.0 0.0001222 7939.28955 8653.01270
8252.0 0.0001212 7936.52930 8633.62793
8122.0 0.0001231 7933.64502 8614.81445
8121.0 0.0001231 7930.63672 8596.56445
8056.0 0.0001241 7927.50488 8578.79590
8211.0 0.0001218 7924.24951 8561.49414
8327.0 0.0001201 7920.87207 8544.62598
8305.0 0.0001204 7917.37354 8528.16504
8223.0 0.0001216 7913.75293 8512.08203
8383.0 0.0001193 7910.01270 8496.35840
8612.0 0.0001161 7906.15283 8480.95410
8297.0 0.0001205 7902.17334 8465.84863
8404.0 0.0001190 7898.07764 8451.04590
8544.0 0.0001170 7893.86328 8436.50000
8517.0 0.0001174 7889.53418 8422.20996
8672.0 0.0001153 7885.08936 8408.14746
8807.0 0.0001135 7880.52979 8394.29688
8907.0 0.0001123 7875.85840 8380.64746
8885.0 0.0001125 7871.07520 8367.19141
8804.0 0.0001136 7866.18018 8353.90625
8970.0 0.0001115 7861.17773 8340.80859
9143.0 0.0001094 7856.06543 8327.85742
8937.0 0.0001119 7850.84619 8315.04199
9106.0 0.0001098 7845.52295 8302.35840
9116.0 0.0001097 7840.09424 8289.81641
8965.0 0.0001115 7834.56348 8277.38867
8929.0 0.0001120 7828.93164 8265.07227
8628.0 0.0001159 7823.19873 8252.85938
8731.0 0.0001145 7817.37012 8240.75293
8670.0 0.0001153 7811.44238 8228.73047
8644.0 0.0001157 7805.41992 8216.80176
8574.0 0.0001166 7799.30615 8204.95996
8561.0 0.0001168 7793.09814 8193.19141
8345.0 0.0001198 7786.80078 8181.49658
8326.0 0.0001201 7780.41748 8169.96777
8343.0 0.0001199 7773.94531 8158.40625
8245.0 0.0001213 7767.38965 8146.91309
8095.0 0.0001235 7760.75098 8135.47607
8179.0 0.0001223 7754.03076 8124.09375
8110.0 0.0001233 7747.23389 8112.77295
8229.0 0.0001215 7740.35742 8101.49609
8046.0 0.0001243 7733.40771 8090.32080
8141.0 0.0001228 7726.38477 8079.14502
8040.0 0.0001244 7719.28906 8068.01514
8034.0 0.0001245 7712.12646 8056.92822
7967.0 0.0001255 7704.89648 8045.88916
7901.0 0.0001266 7697.60107 8034.88916
8135.0 0.0001229 7690.24365 8023.93066
7948.0 0.0001258 7682.82617 8013.01172
8120.0 0.0001232 7675.35010 8002.14160
7930.0 0.0001261 7667.81836 7991.30469
8006.0 0.0001249 7660.23096 7980.50342
7977.0 0.0001254 7652.59375 7969.74365
8077.0 0.0001238 7644.90674 7959.02686
7895.0 0.0001267 7637.17236 7948.34619
7828.0 0.0001277 7629.39209 7937.70166
7960.0 0.0001256 7621.57080 7927.10645
7942.0 0.0001259 7613.70850 7916.53955
7795.0 0.0001283 7605.80908 7906.02148
7734.0 0.0001293 7597.87354 7895.53955
7892.0 0.0001267 7589.90332 7885.10107
7623.0 0.0001312 7581.90332 7874.70410
7810.0 0.0001280 7573.87500 7864.35156
7617.0 0.0001313 7565.81885 7854.04004
7764.0 0.0001288 7557.74072 7843.77832
7759.0 0.0001289 7549.64063 7833.55908
7572.0 0.0001321 7541.52148 7823.55078
7520.0 0.0001330 7533.38574 7813.43359
7692.0 0.0001300 7525.23438 7803.35742
7554.0 0.0001324 7517.07227 7793.33594
7701.0 0.0001299 7508.90039 7783.36621
7751.0 0.0001290 7500.72021 7773.45264
7417.0 0.0001348 7492.53809 7763.59229
7487.0 0.0001336 7484.35059 7753.86963
7490.0 0.0001335 7476.16455 7744.12646
7513.0 0.0001331 7467.98096 7734.44336
7509.0 0.0001332 7459.80029 7724.82715
7396.0 0.0001352 7451.62842 7715.26465
7429.0 0.0001346 7443.46582 7705.77197
7304.0 0.0001369 7435.31348 7696.34619
7599.0 0.0001316 7427.17822 7686.99268
7320.0 0.0001366 7419.05664 7677.70459
7370.0 0.0001357 7410.95361 7668.49072
7607.0 0.0001315 7402.87451 7659.35400
7528.0 0.0001328 7394.81592 7650.29248
7375.0 0.0001356 7386.78418 7641.31055
7553.0 0.0001324 7378.78027 7632.41455
7469.0 0.0001339 7370.80518 7623.59912
7499.0 0.0001334 7362.86523 7614.87109
7420.0 0.0001348 7354.95703 7605.76367
7464.0 0.0001340 7347.08496 7597.21191
7636.0 0.0001310 7339.25488 7588.52637
7545.0 0.0001325 7331.46289 7580.16113
7402.0 0.0001351 7323.71436 7571.89307
7550.0 0.0001325 7316.01318 7563.72900
7268.0 0.0001376 7308.35693 7555.66406
7423.0 0.0001347 7300.75098 7547.70313
7438.0 0.0001344 7293.19678 7539.84570
7378.0 0.0001355 7285.69385 7532.10254
7348.0 0.0001361 7278.24951 7524.47021
7381.0 0.0001355 7270.85938 7516.95361
7408.0 0.0001350 7263.52832 7509.55322
7458.0 0.0001341 7256.26123 7502.27539
7406.0 0.0001350 7249.05420 7495.11621
7406.0 0.0001350 7241.91260 7488.08740
7521.0 0.0001330 7234.83789 7481.18945
7463.0 0.0001340 7227.83008 7474.41797
7372.0 0.0001356 7220.89355 7467.79199
7403.0 0.0001351 7214.02832 7461.30225
7379.0 0.0001355 7207.23633 7454.94775
7475.0 0.0001338 7200.51904 7448.74219
7593.0 0.0001317 7193.87744 7442.68652
7454.0 0.0001342 7187.31494 7436.78955
7426.0 0.0001347 7180.83154 7431.04590
7270.0 0.0001376 7174.42920 7425.46289
7517.0 0.0001330 7168.10791 7420.04443
7404.0 0.0001351 7161.87158 7414.79883
7452.0 0.0001342 7155.72021 7409.73535
7413.0 0.0001349 7149.65527 7404.88184
7545.0 0.0001325 7143.67725 7400.17969
7482.0 0.0001337 7137.78906 7395.66943
7510.0 0.0001332 7131.99072 7391.35596
7509.0 0.0001332 7126.28369 7387.24756
7602.0 0.0001315 7120.66748 7383.35107
7626.0 0.0001311 7115.14600 7379.66943
7485.0 0.0001336 7109.71875 7376.22656
7410.0 0.0001350 7104.38721 7373.03467
7297.0 0.0001370 7099.15137 7370.07568
7342.0 0.0001362 7094.01172 7367.36914
7494.0 0.0001334 7088.97168 7364.93799
7283.0 0.0001373 7084.02979 7362.79688
7404.0 0.0001351 7079.18652 7360.96094
7399.0 0.0001352 7074.44531 7359.44482
7408.0 0.0001350 7069.80273 7358.28516
7233.0 0.0001383 7065.26221 7357.49707
7351.0 0.0001360 7060.82520 7357.11475
7307.0 0.0001369 7056.48877 7357.17432
7244.0 0.0001380 7052.25635 7357.71777
7266.0 0.0001376 7048.12695 7358.79883
7309.0 0.0001368 7044.10107 7360.51074
7390.0 0.0001353 7040.18018 7362.83643
7275.0 0.0001375 7036.36279 7365.89355
7335.0 0.0001363 7032.64941 7369.77197
7205.0 0.0001388 7029.04248 7374.53711
7300.0 0.0001370 7025.53906 7380.30273
7364.0 0.0001358 7022.14160 7387.17041
7293.0 0.0001371 7018.84863 7395.26758
7450.0 0.0001342 7015.66064 7404.67432
7402.0 0.0001351 7012.57764 7415.62402
7374.0 0.0001356 7009.59961 7428.02539
7289.0 0.0001372 7006.72607 7442.23730
7279.0 0.0001374 7003.95801 7458.04639
7275.0 0.0001375 7001.29297 7475.67090
7365.0 0.0001358 6998.73193 7495.14355
7405.0 0.0001350 6996.27539 7516.42920
7342.0 0.0001362 6993.92188 7539.43555
7361.0 0.0001359 6991.67090 7564.01367
7321.0 0.0001366 6989.52246 7589.73193
7428.0 0.0001346 6987.47559 7616.28613
7388.0 0.0001354 6985.53076 7642.95996
7345.0 0.0001361 6983.68555 7669.26904
7557.0 0.0001323 6981.94092 7694.68945
7410.0 0.0001350 6980.29590 7718.84424
7638.0 0.0001309 6978.74854 7741.62939
7691.0 0.0001300 6977.29980 7763.16895
7508.0 0.0001332 6975.94775 7783.83643
7560.0 0.0001323 6974.69141 7804.18457
7609.0 0.0001314 6973.53076 7824.84180
7471.0 0.0001339 6972.46436 7846.45557
7656.0 0.0001306 6971.49072 7869.61523
7688.0 0.0001301 6970.60938 7894.73535
7730.0 0.0001294 6969.81934 7921.73340
7801.0 0.0001282 6969.11914 7950.96973
7806.0 0.0001281 6968.50781 7981.59766
7605.0 0.0001315 6967.98389 8012.49805
7765.0 0.0001288 6967.54688 8042.53809
7915.0 0.0001263 6967.19482 8069.96436
7858.0 0.0001273 6966.92627 8093.10303
8038.0 0.0001244 6966.73975 8110.53027
7957.0 0.0001257 6966.63477 8121.29736
7793.0 0.0001283 6966.60986 8124.88672
8002.0 0.0001250 6966.66260 8121.58105
8021.0 0.0001247 6966.79199 8112.08936
7916.0 0.0001263 6966.99658 8097.49268
7868.0 0.0001271 6967.27490 8079.11914
8007.0 0.0001249 6967.62500 8058.43408
8038.0 0.0001244 6968.04590 8036.93750
7904.0 0.0001265 6968.53516 8016.10205
7943.0 0.0001259 6969.09180 7997.00977
7989.0 0.0001252 6969.71387 7980.78760
8145.0 0.0001228 6970.39941 7968.22852
7829.0 0.0001277 6971.14697 7959.93701
7913.0 0.0001264 6971.95410 7956.38770
8152.0 0.0001227 6972.81982 7957.91016
7941.0 0.0001259 6973.74170 7964.79297
7812.0 0.0001280 6974.71826 7977.32275
7992.0 0.0001251 6975.74756 7995.75586
7911.0 0.0001264 6976.82764 8020.48779
8119.0 0.0001232 6977.95605 8051.67383
8151.0 0.0001227 6979.13184 8089.90967
8200.0 0.0001220 6980.35205 8135.76465
8347.0 0.0001198 6981.61572 8189.95947
8622.0 0.0001160 6982.91943 8253.33105
8814.0 0.0001135 6984.26221 8326.83789
9142.0 0.0001094 6985.64209 8411.72461
9881.0 0.0001012 6987.05615 8509.23145
10587.0 0.0000945 6988.50293 8620.92871
11364.0 0.0000880 6989.98047 8748.33496
11957.0 0.0000836 6991.48584 8893.21777
11818.0 0.0000846 6993.01807 9057.41504
11810.0 0.0000847 6994.57422 9242.77246
11758.0 0.0000850 6996.15186 9450.96973
11906.0 0.0000840 6997.75000 9683.64941
11623.0 0.0000860 6999.36572 9941.93848
11956.0 0.0000836 7000.99609 10226.42090
11687.0 0.0000856 7002.64063 10537.13477
11956.0 0.0000836 7004.29541 10872.97266
12126.0 0.0000825 7005.95947 11231.93750
12271.0 0.0000815 7007.63086 11611.01074
12804.0 0.0000781 7009.30615 12006.07227
13087.0 0.0000764 7010.98340 12412.26758
13797.0 0.0000725 7012.66162 12823.85938
14199.0 0.0000704 7014.33691 13233.90137
14679.0 0.0000681 7016.00830 13634.37793
15309.0 0.0000653 7017.67285 14015.33008
15695.0 0.0000637 7019.32910 14364.88184
15700.0 0.0000637 7020.97412 14669.93945
15409.0 0.0000649 7022.60596 14916.40039
15396.0 0.0000650 7024.22266 15091.13965
15220.0 0.0000657 7025.82227 15183.66602
15128.0 0.0000661 7027.40137 15187.87695
14849.0 0.0000673 7028.95898 15103.11621
14576.0 0.0000686 7030.49268 14934.05273
14585.0 0.0000686 7032.00000 14689.85449
14194.0 0.0000705 7033.47949 14382.60742
13814.0 0.0000724 7034.92773 14026.47168
13692.0 0.0000730 7036.34375 13636.55078
13415.0 0.0000745 7037.72510 13227.55566
13410.0 0.0000746 7039.06982 12813.54980
13015.0 0.0000768 7040.37549 12406.59961
12326.0 0.0000811 7041.64063 12016.42090
12399.0 0.0000807 7042.86230 11650.44727
11940.0 0.0000838 7044.03906 11313.41016
11840.0 0.0000845 7045.16895 11008.27148
11506.0 0.0000869 7046.25000 10736.35449
10967.0 0.0000912 7047.27979 10497.58105
10923.0 0.0000915 7048.25635 10291.23926
10766.0 0.0000929 7049.17871 10115.94629
10499.0 0.0000952 7050.04395 9969.94629
10430.0 0.0000959 7050.85059 9851.33203
10146.0 0.0000986 7051.59619 9757.86328
9934.0 0.0001007 7052.27979 9687.20410
9893.0 0.0001011 7052.89941 9636.87598
9650.0 0.0001036 7053.45264 9604.19141
9671.0 0.0001034 7053.93799 9586.39063
9500.0 0.0001053 7054.35400 9580.75293
9582.0 0.0001044 7054.69922 9584.77148
9551.0 0.0001047 7054.97070 9596.37695
9015.0 0.0001109 7055.16797 9614.13672
9337.0 0.0001071 7055.28906 9637.35645
9240.0 0.0001082 7055.33252 9665.98730
9327.0 0.0001072 7055.29639 9700.50781
9194.0 0.0001088 7055.17969 9741.68066
9427.0 0.0001061 7054.97998 9790.35938
9462.0 0.0001057 7054.69678 9847.31543
9582.0 0.0001044 7054.32813 9912.90820
9491.0 0.0001054 7053.87305 9986.86426
9620.0 0.0001040 7053.32959 10068.05273
9704.0 0.0001031 7052.69678 10154.17871
9866.0 0.0001014 7051.97363 10241.79395
10041.0 0.0000996 7051.15771 10326.40723
9983.0 0.0001002 7050.24951 10402.86230
10184.0 0.0000982 7049.24609 10466.07910
10101.0 0.0000990 7048.14746 10511.72070
10020.0 0.0000998 7046.95215 10536.92871
10240.0 0.0000977 7045.65918 10540.74023
10322.0 0.0000969 7044.26758 10524.04004
10184.0 0.0000982 7042.77588 10489.19141
10391.0 0.0000962 7041.18359 10439.88379
10032.0 0.0000997 7039.48975 10380.66406
9948.0 0.0001005 7037.69336 10316.69727
10133.0 0.0000987 7035.79297 10253.47949
9891.0 0.0001011 7033.78955 10196.57227
10101.0 0.0000990 7031.68018 10151.27344
9975.0 0.0001003 7029.46533 10122.44336
9972.0 0.0001003 7027.14502 10114.38770
9936.0 0.0001006 7024.71680 10130.72656
9994.0 0.0001001 7022.18115 10174.59082
10183.0 0.0000982 7019.53809 10248.54980
10126.0 0.0000988 7016.78516 10354.69238
10236.0 0.0000977 7013.92480 10494.52246
10608.0 0.0000943 7010.95361 10669.10156
10569.0 0.0000946 7007.87305 10878.71973
10790.0 0.0000927 7004.68262 11122.78809
11260.0 0.0000888 7001.38086 11399.81543
11554.0 0.0000866 6997.96875 11706.73438
11922.0 0.0000839 6994.44580 12038.58398
12146.0 0.0000823 6990.81201 12388.35742
12493.0 0.0000800 6987.06592 12746.02734
12805.0 0.0000781 6983.20947 13098.83691
13072.0 0.0000765 6979.24121 13431.36133
13473.0 0.0000742 6975.16211 13726.31934
13545.0 0.0000738 6970.97070 13966.70996
13775.0 0.0000726 6966.66895 14137.44141
13866.0 0.0000721 6962.25586 14227.70508
13725.0 0.0000729 6957.73242 14232.22949
13720.0 0.0000729 6953.09766 14151.33008
13678.0 0.0000731 6948.35205 13990.23242
13452.0 0.0000743 6943.49756 13757.80078
13189.0 0.0000758 6938.53271 13465.56738
12752.0 0.0000784 6933.45898 13126.61426
12481.0 0.0000801 6928.27490 12754.70410
12017.0 0.0000832 6922.98389 12363.53613
11882.0 0.0000842 6917.58447 11965.43262
11545.0 0.0000866 6912.07715 11571.13184
11288.0 0.0000886 6906.46484 11189.20605
11008.0 0.0000908 6900.74463 10825.72461
10606.0 0.0000943 6894.91992 10484.99414
10426.0 0.0000959 6888.99072 10169.46387
10137.0 0.0000986 6882.95605 9880.23047
9951.0 0.0001005 6876.81982 9617.46582
9556.0 0.0001046 6870.58105 9380.48438
9119.0 0.0001097 6864.24023 9168.08691
9004.0 0.0001111 6857.80078 8978.83691
9005.0 0.0001110 6851.25977 8810.91016
8651.0 0.0001156 6844.62061 8662.52246
8455.0 0.0001183 6837.88574 8531.83008
8480.0 0.0001179 6831.05273 8416.95508
8359.0 0.0001196 6824.12500 8316.19336
8270.0 0.0001209 6817.10400 8227.90332
8137.0 0.0001229 6809.98828 8150.59473
8115.0 0.0001232 6802.78320 8082.95508
7892.0 0.0001267 6795.48584 8023.77637
7915.0 0.0001263 6788.09863 7972.05908
7798.0 0.0001282 6780.62695 7926.95410
7872.0 0.0001270 6773.06543 7887.71387
7835.0 0.0001276 6765.41943 7853.76855
7648.0 0.0001308 6757.69238 7824.65039
7690.0 0.0001300 6749.87988 7799.98730
7780.0 0.0001285 6741.98877 7779.52393
7810.0 0.0001280 6734.01807 7763.07813
7684.0 0.0001301 6725.96875 7750.51904
7773.0 0.0001287 6717.84619 7741.79883
7801.0 0.0001282 6709.64600 7736.88672
7660.0 0.0001305 6701.37305 7735.81445
7714.0 0.0001296 6693.03174 7738.61523
7498.0 0.0001334 6684.61816 7745.33789
7598.0 0.0001316 6676.13867 7756.03955
7628.0 0.0001311 6667.59473 7770.74805
7742.0 0.0001292 6658.98145 7789.48730
7382.0 0.0001355 6650.30908 7812.19141
7648.0 0.0001308 6641.57910 7838.73584
7705.0 0.0001298 6632.78418 7868.91455
7646.0 0.0001308 6623.93408 7902.33789
7739.0 0.0001292 6615.03369 7938.45752
7809.0 0.0001281 6606.07324 7976.60449
7797.0 0.0001283 6597.06543 8015.86523
7972.0 0.0001254 6588.00977 8055.29541
7752.0 0.0001290 6578.90186 8093.99756
7988.0 0.0001252 6569.75195 8131.20557
7828.0 0.0001277 6560.56006 8166.57471
7981.0 0.0001253 6551.32227 8200.20801
8100.0 0.0001235 6542.04834 8232.68262
8047.0 0.0001243 6532.73730 8265.07813
8016.0 0.0001248 6523.39453 8298.81836
8040.0 0.0001244 6514.01123 8335.68262
7965.0 0.0001255 6504.59912 8377.63672
8092.0 0.0001236 6495.16357 8426.82715
8231.0 0.0001215 6485.69385 8485.57715
8240.0 0.0001214 6476.20117 8556.13867
8372.0 0.0001194 6466.69092 8640.72461
8505.0 0.0001176 6457.15381 8741.54980
8627.0 0.0001159 6447.59961 8860.48145
8768.0 0.0001141 6438.03467 8999.18359
9060.0 0.0001104 6428.44873 9159.27832
9068.0 0.0001103 6418.85449 9341.69922
9067.0 0.0001103 6409.25244 9547.24316
9457.0 0.0001057 6399.63770 9776.30371
9751.0 0.0001026 6390.02246 10028.44043
9935.0 0.0001007 6380.40283 10302.91406
10305.0 0.0000970 6370.77832 10598.49023
10660.0 0.0000938 6361.16064 10912.58789
10726.0 0.0000932 6351.54492 11242.30469
11346.0 0.0000881 6341.93066 11583.62500
11599.0 0.0000862 6332.32959 11930.68262
11716.0 0.0000854 6322.73486 12276.91406
12153.0 0.0000823 6313.15771 12614.24023
12553.0 0.0000797 6303.58789 12934.99121
12732.0 0.0000785 6294.03613 13231.53516
13174.0 0.0000759 6284.50879 13498.47656
12995.0 0.0000770 6274.99463 13733.33887
13288.0 0.0000753 6265.50537 13935.91602
13919.0 0.0000718 6256.04639 14108.42676
13856.0 0.0000722 6246.60742 14254.67480
14352.0 0.0000697 6237.19971 14378.45508
14505.0 0.0000689 6227.82861 14483.24219
14715.0 0.0000680 6218.48389 14571.04492
14986.0 0.0000667 6209.18066 14641.83203
15107.0 0.0000662 6199.91309 14693.09375
15130.0 0.0000661 6190.68164 14719.63672
15178.0 0.0000659 6181.49707 14714.17969
15028.0 0.0000665 6172.35693 14668.63965
14989.0 0.0000667 6163.25732 14575.69434
14944.0 0.0000669 6154.20898 14430.48340
14787.0 0.0000676 6145.20898 14231.28613
14514.0 0.0000689 6136.26611 13979.89453
14325.0 0.0000698 6127.37012 13680.66992
13913.0 0.0000719 6118.53320 13340.69141
13566.0 0.0000737 6109.75586 12968.37305
13041.0 0.0000767 6101.03320 12572.52441
12592.0 0.0000794 6092.37500 12163.16699
12334.0 0.0000811 6083.78223 11749.86523
11811.0 0.0000847 6075.24951 11340.74121
11419.0 0.0000876 6066.78760 10943.52148
11028.0 0.0000907 6058.39746 10563.92480
10520.0 0.0000951 6050.07129 10205.41016
10334.0 0.0000968 6041.82080 9870.71875
10055.0 0.0000995 6033.64600 9560.60547
9667.0 0.0001034 6025.54248 9274.83789
9349.0 0.0001070 6017.51953 9012.84961
9271.0 0.0001079 6009.57715 8773.21484
9010.0 0.0001110 6001.71143 8554.32227
8824.0 0.0001133 5993.93066 8354.80859
8449.0 0.0001184 5986.23535 8173.00342
8365.0 0.0001195 5978.62109 8007.32422
8105.0 0.0001234 5971.09863 7856.51416
8040.0 0.0001244 5963.66113 7719.14111
7768.0 0.0001287 5956.31836 7594.09912
7584.0 0.0001319 5949.06104 7480.14453
7587.0 0.0001318 5941.89844 7376.40869
7280.0 0.0001374 5934.83350 7282.00098
7154.0 0.0001398 5927.85889 7195.98193
7117.0 0.0001405 5920.98291 7117.65332
7174.0 0.0001394 5914.20801 7046.31006
7049.0 0.0001419 5907.52783 6981.20508
6988.0 0.0001431 5900.95068 6921.80664
6944.0 0.0001440 5894.47656 6867.54541
6896.0 0.0001450 5888.10205 6817.89014
6744.0 0.0001483 5881.83447 6772.44873
6739.0 0.0001484 5875.67090 6730.80322
6787.0 0.0001473 5869.61133 6692.59521
6607.0 0.0001514 5863.66260 6657.56250
6840.0 0.0001462 5857.82031 6625.40527
6595.0 0.0001516 5852.08496 6595.89111
6804.0 0.0001470 5846.46289 6568.84033
6684.0 0.0001496 5840.94971 6544.06689
6582.0 0.0001519 5835.55127 6521.44678
6557.0 0.0001525 5830.26123 6500.82813
6571.0 0.0001522 5825.08545 6482.12354
6556.0 0.0001525 5820.02637 6465.31006
6667.0 0.0001500 5815.07861 6450.28711
6503.0 0.0001538 5810.24707 6437.05176
6436.0 0.0001554 5805.53369 6425.59863
6501.0 0.0001538 5800.93408 6415.95801
6249.0 0.0001600 5796.45166 6408.12939
6555.0 0.0001526 5792.08984 6402.19775
6520.0 0.0001534 5787.84277 6398.23975
6516.0 0.0001535 5783.71680 6396.35596
6608.0 0.0001513 5779.70898 6396.66162
6699.0 0.0001493 5775.81885 6399.28662
6490.0 0.0001541 5772.05078 6404.36328
6430.0 0.0001555 5768.40234 6412.04883
6550.0 0.0001527 5764.87256 6422.56982
6545.0 0.0001528 5761.46387 6435.89551
6595.0 0.0001516 5758.17578 6452.19727
6451.0 0.0001550 5755.01025 6471.67480
6466.0 0.0001547 5751.96289 6494.41943
6358.0 0.0001573 5749.03760 6520.33203
6486.0 0.0001542 5746.23438 6549.85254
6606.0 0.0001514 5743.55029 6582.87109
6543.0 0.0001528 5740.98828 6619.34326
6583.0 0.0001519 5738.54785 6659.14648
6558.0 0.0001525 5736.22705 6702.11084
6541.0 0.0001529 5734.02734 6747.68506
6724.0 0.0001487 5731.94922 6795.24219
6652.0 0.0001503 5729.99023 6843.93311
6955.0 0.0001438 5728.15137 6892.53125
6770.0 0.0001477 5726.43311 6939.70508
6875.0 0.0001455 5724.83301 6984.00293
6799.0 0.0001471 5723.35303 7023.97266
6819.0 0.0001466 5721.99170 7058.40479
6792.0 0.0001472 5720.74854 7086.41748
7024.0 0.0001424 5719.62354 7107.47363
6937.0 0.0001442 5718.61621 7121.45801
7042.0 0.0001420 5717.72510 7128.57031
6986.0 0.0001431 5716.95068 7129.31641
6892.0 0.0001451 5716.29248 7124.47998
7004.0 0.0001428 5715.74902 7115.11328
6984.0 0.0001432 5715.32031 7102.45703
7053.0 0.0001418 5715.00537 7087.90771
6927.0 0.0001444 5714.80371 7072.86084
7077.0 0.0001413 5714.71436 7058.60156
7019.0 0.0001425 5714.73682 7046.26709
7169.0 0.0001395 5714.87012 7036.75684
7024.0 0.0001424 5715.11377 7030.70068
6967.0 0.0001435 5715.46680 7028.50830
6945.0 0.0001440 5715.92773 7030.35693
7179.0 0.0001393 5716.49609 7036.26025
7162.0 0.0001396 5717.17139 7046.11230
7046.0 0.0001419 5717.95166 7059.77100
7060.0 0.0001416 5718.83740 7077.07422
6999.0 0.0001429 5719.82568 7097.84570
7051.0 0.0001418 5720.91699 7121.86963
7093.0 0.0001410 5722.10986 7148.83594
6997.0 0.0001429 5723.40283 7178.21143
6959.0 0.0001437 5724.79541 7209.31885
6827.0 0.0001465 5726.28516 7241.21338
6988.0 0.0001431 5727.87305 7272.84277
6984.0 0.0001432 5729.55615 7303.01465
7125.0 0.0001404 5731.33301 7330.63818
7210.0 0.0001387 5733.20459 7354.91064
7288.0 0.0001372 5735.16797 7375.38867
7581.0 0.0001319 5737.22070 7392.08301
7951.0 0.0001258 5739.36523 7405.51514
8368.0 0.0001195 5741.59717 7416.49854
8627.0 0.0001159 5743.91455 7426.09912
8838.0 0.0001131 5746.31934 7435.52393
8689.0 0.0001151 5748.80664 7445.99902
8419.0 0.0001188 5751.37744 7458.69141
8324.0 0.0001201 5754.03076 7474.62842
8316.0 0.0001203 5756.76221 7494.44824
8171.0 0.0001224 5759.57324 7518.44287
8078.0 0.0001238 5762.46191 7546.33496
7737.0 0.0001292 5765.42480 7577.17334
7608.0 0.0001314 5768.46143 7609.42285
7491.0 0.0001335 5771.57275 7640.97900
7430.0 0.0001346 5774.75439 7669.31787
7210.0 0.0001387 5778.00586 7691.85010
7360.0 0.0001359 5781.32373 7706.18994
7287.0 0.0001372 5784.71045 7710.49707
7329.0 0.0001364 5788.16113 7703.61572
7142.0 0.0001400 5791.67480 7685.23145
7104.0 0.0001408 5795.25244 7655.64941
6847.0 0.0001460 5798.88867 7615.77246
7045.0 0.0001419 5802.58252 7566.84863
7100.0 0.0001408 5806.33643 7510.30469
6974.0 0.0001434 5810.14404 7447.83838
6944.0 0.0001440 5814.00537 7381.11133
6790.0 0.0001473 5817.92090 7311.72900
6793.0 0.0001472 5821.88623 7241.24707
6718.0 0.0001489 5825.89941 7170.90820
6729.0 0.0001486 5829.96289 7101.74854
6738.0 0.0001484 5834.07031 7034.59180
6581.0 0.0001520 5838.22168 6970.08154
6816.0 0.0001467 5842.41748 6908.62842
6678.0 0.0001497 5846.65332 6850.66016
6756.0 0.0001480 5850.92822 6796.36768
6638.0 0.0001506 5855.23926 6745.94531
6556.0 0.0001525 5859.58984 6699.43457
6375.0 0.0001569 5863.97412 6656.92090
6627.0 0.0001509 5868.38867 6618.41992
6582.0 0.0001519 5872.83789 6583.88574
6528.0 0.0001532 5877.31543 6553.26758
6493.0 0.0001540 5881.81885 6526.47510
6438.0 0.0001553 5886.35254 6503.36719
6444.0 0.0001552 5890.90967 6483.84131
6486.0 0.0001542 5895.48730 6467.71826
6558.0 0.0001525 5900.09033 6454.83936
6412.0 0.0001560 5904.71143 6445.07031
6548.0 0.0001527 5909.35010 6438.27197
6436.0 0.0001554 5914.00830 6434.32178
6460.0 0.0001548 5918.67920 6432.94141
6577.0 0.0001520 5923.36426 6434.43262
6329.0 0.0001580 5928.06396 6438.54199
6419.0 0.0001558 5932.77100 6445.23877
6408.0 0.0001561 5937.48926 6454.42920
6500.0 0.0001538 5942.21191 6466.26221
6555.0 0.0001526 5946.94482 6480.67578
6744.0 0.0001483 5951.68115 6497.68311
6692.0 0.0001494 5956.41748 6517.30273
6640.0 0.0001506 5961.15918 6539.60205
6584.0 0.0001519 5965.90039 6564.61133
6604.0 0.0001514 5970.63721 6592.39160
6640.0 0.0001506 5975.37500 6623.02930
6581.0 0.0001520 5980.10742 6656.54688
6692.0 0.0001494 5984.83203 6692.92676
6794.0 0.0001472 5989.55273 6732.16504
6833.0 0.0001463 5994.26270 6774.05469
7027.0 0.0001423 5998.96338 6818.33496
7004.0 0.0001428 6003.65527 6864.59766
6987.0 0.0001431 6008.33154 6912.15283
7041.0 0.0001420 6012.99512 6960.16260
7155.0 0.0001398 6017.64551 7007.55420
7221.0 0.0001385 6022.27686 7052.98535
7129.0 0.0001403 6026.89111 7095.07861
7201.0 0.0001389 6031.48828 7132.47363
7152.0 0.0001398 6036.06445 7163.93359
7349.0 0.0001361 6040.61963 7188.65625
7321.0 0.0001366 6045.15039 7206.22412
7310.0 0.0001368 6049.66016 7216.74561
7465.0 0.0001340 6054.14404 7220.73047
7208.0 0.0001387 6058.60107 7219.03760
7176.0 0.0001394 6063.03369 7212.76465
7189.0 0.0001391 6067.43652 7203.21582
7274.0 0.0001375 6071.80957 7191.81836
7256.0 0.0001378 6076.15479 7180.06104
7421.0 0.0001348 6080.46680 7169.46533
7473.0 0.0001338 6084.74561 7161.48145
7403.0 0.0001351 6088.99414 7157.44629
7481.0 0.0001337 6093.20703 7158.51318
7374.0 0.0001356 6097.38379 7165.63965
7657.0 0.0001306 6101.52734 7179.57373
7643.0 0.0001308 6105.63232 7200.78711
7619.0 0.0001313 6109.69873 7229.67139
7664.0 0.0001305 6113.72900 7266.29736
7647.0 0.0001308 6117.71826 7310.46777
7738.0 0.0001292 6121.66748 7361.84668
7825.0 0.0001278 6125.57471 7419.68115
7968.0 0.0001255 6129.44238 7482.99316
7897.0 0.0001266 6133.26758 7550.30176
7812.0 0.0001280 6137.04736 7619.70117
7913.0 0.0001264 6140.78613 7688.96045
7922.0 0.0001262 6144.47949 7755.31787
7831.0 0.0001277 6148.12646 7815.82275
8186.0 0.0001222 6151.72998 7867.59033
8076.0 0.0001238 6155.28662 7907.75684
7938.0 0.0001260 6158.79443 7933.95020
8139.0 0.0001229 6162.25781 7945.92090
7975.0 0.0001254 6165.67188 7942.63281
8115.0 0.0001232 6169.03711 7924.10449
8114.0 0.0001232 6172.35547 7891.99609
8059.0 0.0001241 6175.62305 7847.44385
7899.0 0.0001266 6178.84131 7792.19580
7914.0 0.0001264 6182.01074 7728.22998
7617.0 0.0001313 6185.12842 7657.75049
7790.0 0.0001284 6188.19580 7582.92480
7552.0 0.0001324 6191.21338 7505.83105
7504.0 0.0001333 6194.17773 7428.47754
7512.0 0.0001331 6197.09229 7352.48340
7243.0 0.0001381 6199.95264 7279.26221
7242.0 0.0001381 6202.76367 7209.76367
7243.0 0.0001381 6205.52197 7144.80762
7392.0 0.0001353 6208.22656 7084.89746
7180.0 0.0001393 6210.88037 7030.24609
7146.0 0.0001399 6213.48096 6981.04541
7001.0 0.0001428 6216.02783 6937.29346
6715.0 0.0001489 6218.52344 6898.84326
6923.0 0.0001444 6220.96484 6865.57568
6865.0 0.0001457 6223.35400 6837.26807
6722.0 0.0001488 6225.69141 6813.66553
6695.0 0.0001494 6227.97412 6794.53857
6729.0 0.0001486 6230.20459 6779.59863
6690.0 0.0001495 6232.38330 6768.58154
6685.0 0.0001496 6234.50781 6761.22412
6815.0 0.0001467 6236.57959 6757.27051
6682.0 0.0001497 6238.60059 6756.44092
6553.0 0.0001526 6240.56787 6758.48535
6718.0 0.0001489 6242.48389 6763.14111
6657.0 0.0001502 6244.34668 6770.08203
6568.0 0.0001523 6246.15869 6779.00586
6817.0 0.0001467 6247.91895 6789.55762
6697.0 0.0001493 6249.62695 6801.30420
6664.0 0.0001501 6251.28516 6813.76953
6616.0 0.0001511 6252.89209 6826.38916
6648.0 0.0001504 6254.44824 6838.54785
6760.0 0.0001479 6255.95459 6849.60645
6671.0 0.0001499 6257.41113 6858.92480
6792.0 0.0001472 6258.81689 6865.96191
6796.0 0.0001471 6260.17529 6870.28857
6676.0 0.0001498 6261.48389 6871.64746
6663.0 0.0001501 6262.74414 6869.96826
6675.0 0.0001498 6263.95703 6865.32861
6709.0 0.0001491 6265.12207 6857.93701
6719.0 0.0001488 6266.23975 6848.08203
6608.0 0.0001513 6267.31152 6836.13379
6731.0 0.0001486 6268.33643 6822.48975
6720.0 0.0001488 6269.31592 6807.58154
6693.0 0.0001494 6270.25049 6791.87744
6665.0 0.0001500 6271.14014 6775.76709
6599.0 0.0001515 6271.98584 6759.67090
6534.0 0.0001530 6272.78809 6743.93311
6537.0 0.0001530 6273.54736 6728.81592
6581.0 0.0001520 6274.26416 6714.54736
6483.0 0.0001542 6274.93896 6701.27979
6510.0 0.0001536 6275.57275 6689.10352
6397.0 0.0001563 6276.16602 6678.07471
6443.0 0.0001552 6276.71875 6668.22852
6495.0 0.0001540 6277.23291 6659.53760
6588.0 0.0001518 6277.70752 6651.98975
6500.0 0.0001538 6278.14453 6645.54004
6416.0 0.0001559 6278.54395 6640.12305
6448.0 0.0001551 6278.90625 6635.69434
6476.0 0.0001544 6279.23242 6632.18750
6482.0 0.0001543 6279.52344 6629.52686
6551.0 0.0001526 6279.77979 6627.43408
6427.0 0.0001556 6280.00146 6626.31006
6560.0 0.0001524 6280.19043 6625.83447
6441.0 0.0001553 6280.34619 6625.84961
6472.0 0.0001545 6280.47021 6626.51660
6270.0 0.0001595 6280.56250 6627.68555
6413.0 0.0001559 6280.62500 6629.31445
6384.0 0.0001566 6280.65723 6631.36035
6544.0 0.0001528 6280.66016 6633.79150
6525.0 0.0001533 6280.63477 6636.58691
6418.0 0.0001558 6280.58203 6639.71045
6646.0 0.0001505 6280.50195 6643.16602
6578.0 0.0001520 6280.39600 6646.93604
6584.0 0.0001519 6280.26416 6651.01074
6479.0 0.0001543 6280.10791 6655.38770
6552.0 0.0001526 6279.92725 6660.09033
6389.0 0.0001565 6279.72412 6665.11182
6433.0 0.0001554 6279.49805 6670.47510
6536.0 0.0001530 6279.25000 6676.20020
6578.0 0.0001520 6278.98096 6682.28467
6444.0 0.0001552 6278.69189 6688.76123
6477.0 0.0001544 6278.38281 6695.64746
6586.0 0.0001518 6278.05518 6702.96631
6598.0 0.0001516 6277.70947 6710.74512
6499.0 0.0001539 6277.34619 6719.00342
6520.0 0.0001534 6276.96631 6727.77539
6533.0 0.0001531 6276.57031 6737.08496
6626.0 0.0001509 6276.15967 6746.96289
6649.0 0.0001504 6275.73389 6757.45020
6507.0 0.0001537 6275.29443 6768.58252
6595.0 0.0001516 6274.84180 6780.38770
6626.0 0.0001509 6274.37695 6792.93018
6542.0 0.0001529 6273.90039 6806.24121
6603.0 0.0001514 6273.41260 6820.37207
6756.0 0.0001480 6272.91455 6835.40625
6739.0 0.0001484 6272.40674 6851.45068
6529.0 0.0001532 6271.88965 6868.46143
6679.0 0.0001497 6271.36426 6886.59375
6723.0 0.0001487 6270.83154 6905.89502
6793.0 0.0001472 6270.29150 6926.55762
6891.0 0.0001451 6269.74463 6948.67188
6797.0 0.0001471 6269.19189 6972.37646
6953.0 0.0001438 6268.63477 6997.84033
7032.0 0.0001422 6268.07178 7025.30127
7018.0 0.0001425 6267.50537 7054.95947
7048.0 0.0001419 6266.93555 7087.16309
6993.0 0.0001430 6266.36328 7122.14014
7118.0 0.0001405 6265.78760 7160.37305
7132.0 0.0001402 6265.21094 7202.28809
7421.0 0.0001348 6264.63281 7248.42627
7352.0 0.0001360 6264.05371 7299.47998
7488.0 0.0001335 6263.47461 7356.15723
7593.0 0.0001317 6262.89600 7419.30859
7545.0 0.0001325 6262.31738 7490.01367
7581.0 0.0001319 6261.74072 7569.29248
7834.0 0.0001276 6261.16602 7658.45459
7878.0 0.0001269 6260.59277 7758.96875
8033.0 0.0001245 6260.02246 7872.24756
8193.0 0.0001221 6259.45557 8000.06055
8244.0 0.0001213 6258.89160 8144.22852
8575.0 0.0001166 6258.33154 8306.48926
8609.0 0.0001162 6257.77588 8488.79883
8617.0 0.0001160 6257.22461 8693.21094
9084.0 0.0001101 6256.67871 8921.39160
9310.0 0.0001074 6256.13818 9172.63184
9499.0 0.0001053 6255.60303 9453.60059
9890.0 0.0001011 6255.07373 9763.34277
10235.0 0.0000977 6254.55078 10102.50684
10716.0 0.0000933 6254.03467 10470.11328
11079.0 0.0000903 6253.52490 10869.04102
11670.0 0.0000857 6253.02246 11296.54980
12100.0 0.0000826 6252.52734 11750.39355
12555.0 0.0000796 6252.03955 12227.63086
13143.0 0.0000761 6251.55957 12722.70508
13729.0 0.0000728 6251.08789 13228.43457
14447.0 0.0000692 6250.62402 13736.19824
14972.0 0.0000668 6250.16846 14233.95117
15578.0 0.0000642 6249.72119 14708.54102
15818.0 0.0000632 6249.28271 15145.44043
16241.0 0.0000616 6248.85303 15529.17188
16394.0 0.0000610 6248.43164 15846.03809
16897.0 0.0000592 6248.01904 16084.72656
16754.0 0.0000597 6247.61621 16237.16504
16714.0 0.0000598 6247.22168 16299.83008
16710.0 0.0000598 6246.83643 16273.04102
16719.0 0.0000598 6246.45996 16160.46191
16364.0 0.0000611 6246.09277 15968.48340
16188.0 0.0000618 6245.73486 15705.51758
15725.0 0.0000636 6245.38525 15380.94727
15323.0 0.0000653 6245.04541 15005.85059
15050.0 0.0000664 6244.71436 14591.84180
14662.0 0.0000682 6244.39160 14150.09473
14234.0 0.0000703 6244.07813 13692.34277
13571.0 0.0000737 6243.77295 13229.23926
13415.0 0.0000745 6243.47656 12769.39746
12854.0 0.0000778 6243.18896 12321.20117
12498.0 0.0000800 6242.90918 11890.69141
12257.0 0.0000816 6242.63721 11482.51367
11832.0 0.0000845 6242.37402 11100.56348
11478.0 0.0000871 6242.11816 10747.03125
11271.0 0.0000887 6241.86963 10423.24023
11017.0 0.0000908 6241.62842 10130.23047
10810.0 0.0000925 6241.39453 9867.99219
10550.0 0.0000948 6241.16748 9636.17578
10516.0 0.0000951 6240.94727 9434.42188
10303.0 0.0000971 6240.73291 9261.70898
10313.0 0.0000970 6240.52490 9117.22168
10045.0 0.0 6240.32275 .
10444.0 0.0 6240.12549 .
10293.0 0.0 6239.93408 .
10231.0 0.0 6239.74658 .
10447.0 0.0 6239.56396 .
10297.0 0.0 6239.38574 .
10560.0 0.0 6239.21045 .
10714.0 0.0 6239.03857 .
10968.0 0.0 6238.87012 .
11518.0 0.0 6238.70361 .
11660.0 0.0 6238.53955 .
12113.0 0.0 6238.37695 .
12717.0 0.0 6238.21533 .
13091.0 0.0 6238.05469 .
14090.0 0.0 6237.89453 .
14386.0 0.0 6237.73389 .
15545.0 0.0 6237.57275 .
16496.0 0.0 6237.41016 .
17924.0 0.0 6237.24609 .
19213.0 0.0 6237.07959 .
20386.0 0.0 6236.91064 .
21606.0 0.0 6236.73828 .
22782.0 0.0 6236.56250 .
23804.0 0.0 6236.38232 .
24350.0 0.0 6236.19727 .
24337.0 0.0 6236.00684 .
24392.0 0.0 6235.81006 .
23975.0 0.0 6235.60742 .
23512.0 0.0 6235.39746 .
22698.0 0.0 6235.17969 .
21752.0 0.0 6234.95410 .
21090.0 0.0 6234.71924 .
20284.0 0.0 6234.47510 .
18863.0 0.0 6234.22119 .
18034.0 0.0 6233.95605 .
17408.0 0.0 6233.68018 .
16682.0 0.0 6233.39258 .
15733.0 0.0 6233.09229 .
15588.0 0.0 6232.77930 .
15361.0 0.0 6232.45264 .
15267.0 0.0 6232.11133 .
15144.0 0.0 6231.75537 .
14893.0 0.0 6231.38379 .
15041.0 0.0 6230.99658 .
14888.0 0.0 6230.59180 .
14648.0 0.0 6230.17041 .
14691.0 0.0 6229.73096 .
14353.0 0.0 6229.27246 .
14173.0 0.0 6228.79541 .
13906.0 0.0 6228.29834 .
13683.0 0.0 6227.78027 .
13720.0 0.0 6227.24170 .
13069.0 0.0 6226.68164 .
12965.0 0.0 6226.09912 .
12611.0 0.0 6225.49365 .
12147.0 0.0 6224.86523 .
11896.0 0.0 6224.21191 .
11473.0 0.0 6223.53467 .
11169.0 0.0 6222.83203 .
10830.0 0.0 6222.10352 .
10590.0 0.0 6221.34814 .
9937.0 0.0 6220.56641 .
9599.0 0.0 6219.75732 .
9409.0 0.0 6218.91992 .
9124.0 0.0 6218.05371 .
8924.0 0.0 6217.15918 .
8818.0 0.0 6216.23389 .
8478.0 0.0 6215.27832 .
8164.0 0.0 6214.29297 .
8249.0 0.0 6213.27539 .
8083.0 0.0 6212.22656 .
7913.0 0.0 6211.14551 .
7569.0 0.0 6210.03076 .
7590.0 0.0 6208.88379 .
7371.0 0.0 6207.70313 .
7454.0 0.0 6206.48730 .
7197.0 0.0 6205.23779 .
7264.0 0.0001377 6203.95264 7532.75537
7211.0 0.0001387 6202.63232 7499.84424
7111.0 0.0001406 6201.27588 7476.39600
7133.0 0.0001402 6199.88281 7462.00244
7087.0 0.0001411 6198.45361 7456.26709
6960.0 0.0001437 6196.98682 7458.81396
7107.0 0.0001407 6195.48242 7469.31250
7114.0 0.0001406 6193.94092 7487.44678
7025.0 0.0001423 6192.35986 7512.89209
7070.0 0.0001414 6190.74072 7545.29004
7187.0 0.0001391 6189.08398 7582.07617
7181.0 0.0001393 6187.38623 7627.10205
7102.0 0.0001408 6185.65039 7677.58936
7216.0 0.0001386 6183.87451 7732.77441
7217.0 0.0001386 6182.05762 7791.74561
7264.0 0.0001377 6180.20117 7853.26660
7320.0 0.0001366 6178.30420 7915.92432
7448.0 0.0001343 6176.36572 7978.04980
7276.0 0.0001374 6174.38721 8037.68262
7312.0 0.0001368 6172.36719 8092.83887
7490.0 0.0001335 6170.30518 8141.56689
7492.0 0.0001335 6168.20264 8182.03320
7622.0 0.0001312 6166.05713 8212.88965
7765.0 0.0001288 6163.87158 8233.24414
7551.0 0.0001324 6161.64209 8242.76172
7594.0 0.0001317 6159.37109 8241.61035
7563.0 0.0001322 6157.05859 8230.37988
7666.0 0.0001304 6154.70264 8209.95410
7686.0 0.0001301 6152.30518 8181.42871
7631.0 0.0001310 6149.86572 8146.05322
7654.0 0.0001307 6147.38232 8105.10938
7591.0 0.0001317 6144.85742 8060.00781
7530.0 0.0001328 6142.29053 8012.14795
7490.0 0.0001335 6139.67969 7962.82324
7514.0 0.0001331 6137.02734 7913.31934
7364.0 0.0001358 6134.33350 7864.71924
7331.0 0.0001364 6131.59521 7817.97021
7433.0 0.0001345 6128.81592 7773.95850
7368.0 0.0001357 6125.99512 7733.39209
7625.0 0.0001311 6123.13037 7696.93018
7551.0 0.0001324 6120.22461 7665.21191
7493.0 0.0001335 6117.27734 7638.70410
7670.0 0.0001304 6114.28906 7618.15479
7790.0 0.0001284 6111.25732 7603.81982
7698.0 0.0001299 6108.18555 7596.22314
7628.0 0.0001311 6105.07422 7595.76953
7714.0 0.0001296 6101.91943 7602.82471
7578.0 0.0001320 6098.72412 7617.70264
7894.0 0.0001267 6095.49072 7640.62939
7769.0 0.0001287 6092.21484 7671.78662
8200.0 0.0001220 6088.89941 7711.16846
7981.0 0.0001253 6085.54639 7758.64697
8263.0 0.0001210 6082.15186 7813.97021
8356.0 0.0001197 6078.71973 7876.58838
8266.0 0.0001210 6075.24951 7945.67969
8375.0 0.0001194 6071.73877 8020.25049
8341.0 0.0001199 6068.19189 8098.82666
8464.0 0.0001181 6064.60840 8179.71875
8471.0 0.0001180 6060.98584 8260.91016
8540.0 0.0001171 6057.32861 8340.04492
8510.0 0.0001175 6053.63428 8414.75488
8576.0 0.0001166 6049.90332 8482.72949
8800.0 0.0001136 6046.13867 8541.83301
8737.0 0.0001145 6042.33838 8590.48926
8636.0 0.0001158 6038.50537 8627.59863
8660.0 0.0001155 6034.63623 8652.74023
8597.0 0.0001163 6030.73389 8665.90430
8740.0 0.0001144 6026.80176 8667.50684
8638.0 0.0001158 6022.83398 8658.22168
8630.0 0.0001159 6018.83545 8638.87012
8399.0 0.0001191 6014.80811 8610.38086
8629.0 0.0001159 6010.74707 8573.75488
8466.0 0.0001181 6006.65869 8530.11230
8502.0 0.0001176 6002.54004 8480.59375
8557.0 0.0001169 5998.39160 8426.34277
8436.0 0.0001185 5994.21729 8368.54297
8375.0 0.0001194 5990.01465 8308.16016
8262.0 0.0001210 5985.78369 8246.05762
8381.0 0.0001193 5981.52930 8182.98193
8189.0 0.0001221 5977.24854 8119.42920
8028.0 0.0001246 5972.94141 8055.76660
8201.0 0.0001219 5968.61279 7992.37646
7988.0 0.0001252 5964.25928 7929.50195
7953.0 0.0001257 5959.88574 7867.48584
7951.0 0.0001258 5955.48682 7806.60010
7964.0 0.0001256 5951.06738 7747.26465
7858.0 0.0001273 5946.63037 7689.90820
7859.0 0.0001272 5942.17041 7634.91064
8067.0 0.0001240 5937.69336 7582.78857
7725.0 0.0001294 5933.19922 7534.05957
7624.0 0.0001312 5928.68506 7489.17871
7555.0 0.0001324 5924.15576 7448.72705
7551.0 0.0001324 5919.61182 7413.26758
7609.0 0.0001314 5915.05029 7383.31885
7592.0 0.0001317 5910.47754 7359.50488
7477.0 0.0001337 5905.89111 7342.43604
7407.0 0.0001350 5901.28955 7332.68457
7501.0 0.0001333 5896.67822 7330.91260
7457.0 0.0001341 5892.05713 7337.78467
7566.0 0.0001322 5887.42285 7353.98975
7545.0 0.0001325 5882.78125 7380.23145
7545.0 0.0001325 5878.13135 7417.26660
7740.0 0.0001292 5873.47510 7465.83008
7670.0 0.0001304 5868.80908 7526.76855
7694.0 0.0001300 5864.13965 7600.88135
8093.0 0.0001236 5859.46631 7688.83008
7733.0 0.0001293 5854.78564 7791.52100
8094.0 0.0001235 5850.10254 7909.56055
8238.0 0.0001214 5845.41992 8043.53760
8402.0 0.0001190 5840.73193 8194.09375
8550.0 0.0001170 5836.04395 8361.41406
8790.0 0.0001138 5831.35938 8545.62891
8998.0 0.0001111 5826.67188 8746.81250
9234.0 0.0001083 5821.98828 8964.37012
9531.0 0.0001049 5817.30811 9197.78809
9539.0 0.0001048 5812.62891 9446.04004
9799.0 0.0001021 5807.95605 9707.45410
9996.0 0.0001000 5803.28955 9980.08105
10417.0 0.0000960 5798.62646 10261.37891
10759.0 0.0000929 5793.97266 10547.55566
11239.0 0.0000890 5789.32617 10834.33594
11349.0 0.0000881 5784.68701 11116.36523
11580.0 0.0000864 5780.05957 11386.99121
11863.0 0.0000843 5775.44141 11639.30469
12040.0 0.0000831 5770.83643 11865.59863
12091.0 0.0000827 5766.24023 12058.85645
12372.0 0.0000808 5761.65820 12212.46094
12255.0 0.0000816 5757.09229 12321.31641
12468.0 0.0000802 5752.53711 12382.37695
12398.0 0.0000807 5747.99854 12394.43945
12350.0 0.0000810 5743.47852 12358.28027
12090.0 0.0000827 5738.97217 12276.09375
11714.0 0.0000854 5734.48438 12151.27930
11933.0 0.0000838 5730.01807 11988.09375
11475.0 0.0000871 5725.56738 11791.00391
11453.0 0.0000873 5721.13916 11565.39355
11089.0 0.0000902 5716.73096 11316.66504
10746.0 0.0000931 5712.34277 11050.42578
10602.0 0.0000943 5707.97949 10772.64648
10267.0 0.0000974 5703.63867 10488.77930
10075.0 0.0000993 5699.31982 10203.74316
9768.0 0.0001024 5695.02783 9922.35254
9377.0 0.0001066 5690.75928 9648.22656
9300.0 0.0001075 5686.51953 9384.60254
8953.0 0.0001117 5682.30273 9133.49707
8842.0 0.0001131 5678.11426 8896.83789
8384.0 0.0001193 5673.95654 8675.71484
8342.0 0.0001199 5669.82373 8470.44531
8151.0 0.0001227 5665.72119 8281.38477
7873.0 0.0001270 5661.65088 8108.28809
7948.0 0.0001258 5657.60791 7950.44873
7760.0 0.0001289 5653.59766 7807.25928
7721.0 0.0001295 5649.61963 7677.78027
7532.0 0.0001328 5645.67188 7560.76807
7468.0 0.0001339 5641.75879 7455.19238
7510.0 0.0001332 5637.87988 7359.80420
7184.0 0.0001392 5634.03223 7273.39063
7350.0 0.0001361 5630.22070 7194.91357
7217.0 0.0001386 5626.44482 7123.26758
6967.0 0.0001435 5622.70215 7057.42285
7035.0 0.0001421 5618.99707 6996.54492
7071.0 0.0001414 5615.32910 6939.77686
6976.0 0.0001433 5611.69580 6886.33496
6947.0 0.0001439 5608.10156 6835.65332
6768.0 0.0001478 5604.54492 6787.21826
6719.0 0.0001488 5601.02686 6740.67627
6700.0 0.0001493 5597.54590 6695.74219
6636.0 0.0001507 5594.10498 6652.37842
6557.0 0.0001525 5590.70459 6610.42676
6448.0 0.0001551 5587.34131 6569.90088
6580.0 0.0001520 5584.01904 6530.89600
6455.0 0.0001549 5580.73877 6493.47314
6352.0 0.0001574 5577.49658 6457.69189
6386.0 0.0001566 5574.29688 6423.69434
6304.0 0.0001586 5571.13867 6391.58545
6200.0 0.0001613 5568.02002 6361.45557
6233.0 0.0001604 5564.94482 6333.45752
6349.0 0.0001575 5561.91162 6307.66504
6195.0 0.0001614 5558.91895 6284.15723
6125.0 0.0001633 5555.97021 6263.05518
6193.0 0.0001615 5553.06348 6244.32813
6208.0 0.0001611 5550.19824 6228.01465
6209.0 0.0001611 5547.37695 6214.14355
5994.0 0.0001668 5544.59814 6202.67725
6083.0 0.0001644 5541.86377 6193.59424
6232.0 0.0001605 5539.16992 6186.82568
6222.0 0.0001607 5536.52051 6182.32031
6164.0 0.0001622 5533.91504 6179.97559
6061.0 0.0001650 5531.35156 6179.67871
6127.0 0.0001632 5528.83105 6181.30371
6303.0 0.0001587 5526.35547 6184.66748
6244.0 0.0001602 5523.92139 6189.59814
6221.0 0.0001607 5521.53125 6195.86719
6246.0 0.0001601 5519.18506 6203.23047
6299.0 0.0001588 5516.88037 6211.42920
6253.0 0.0001599 5514.62012 6220.20654
6277.0 0.0001593 5512.40234 6229.31787
6191.0 0.0001615 5510.22656 6238.58398
6392.0 0.0001564 5508.09473 6247.86230
6271.0 0.0001595 5506.00439 6257.08691
6433.0 0.0001554 5503.95605 6266.28857
6082.0 0.0001644 5501.95117 6275.52734
6270.0 0.0001595 5499.98730 6284.94922
6368.0 0.0001570 5498.06641 6294.71387
6292.0 0.0001589 5496.18555 6305.02002
6362.0 0.0001572 5494.34619 6316.06836
6421.0 0.0001557 5492.54883 6328.08447
6311.0 0.0001585 5490.79102 6341.32764
6423.0 0.0001557 5489.07373 6356.06787
6284.0 0.0001591 5487.39795 6372.53857
6278.0 0.0001593 5485.76025 6391.12646
6468.0 0.0001546 5484.16309 6412.09082
6374.0 0.0001569 5482.60498 6435.70703
6415.0 0.0001559 5481.08496 6462.25830
6348.0 0.0001575 5479.60400 6491.91846
6408.0 0.0001561 5478.16113 6524.82715
6422.0 0.0001557 5476.75537 6561.05029
6386.0 0.0001566 5475.38672 6600.49219
6587.0 0.0001518 5474.05518 6642.98584
6531.0 0.0001531 5472.75928 6688.23633
6480.0 0.0001543 5471.50000 6735.71973
6644.0 0.0001505 5470.27588 6784.76074
6819.0 0.0001466 5469.08594 6834.50146
6628.0 0.0001509 5467.93066 6883.79590
6782.0 0.0001474 5466.80957 6931.35791
6912.0 0.0001447 5465.72168 6975.66553
6913.0 0.0001447 5464.66602 7015.30566
6936.0 0.0001442 5463.64307 7048.69434
6876.0 0.0001454 5462.65234 7074.49219
6939.0 0.0001441 5461.69189 7091.67285
7108.0 0.0001407 5460.76172 7099.48584
6935.0 0.0001442 5459.86230 7097.68652
6960.0 0.0001437 5458.99170 7086.32129
6904.0 0.0001448 5458.14990 7065.77441
6908.0 0.0001448 5457.33643 7036.68457
6844.0 0.0001461 5456.55029 6999.78223
6746.0 0.0001482 5455.79102 6956.04004
6793.0 0.0001472 5455.05811 6906.42920
6784.0 0.0001474 5454.35059 6852.00879
6737.0 0.0001484 5453.66797 6793.97217
6679.0 0.0001497 5453.00977 6733.47461
6587.0 0.0001518 5452.37451 6671.61084
6586.0 0.0001518 5451.76270 6609.52783
6661.0 0.0001501 5451.17285 6548.14307
6541.0 0.0001529 5450.60498 6488.36182
6482.0 0.0001543 5450.05762 6430.79248
6456.0 0.0001549 5449.52979 6376.03076
6323.0 0.0001582 5449.02246 6324.51709
6162.0 0.0001623 5448.53271 6276.46484
6156.0 0.0001624 5448.06152 6232.12061
6103.0 0.0001639 5447.60742 6191.58252
6173.0 0.0001620 5447.16992 6154.83447
6227.0 0.0001606 5446.74805 6121.85645
5942.0 0.0001683 5446.34131 6092.58936
6093.0 0.0001641 5445.94873 6066.86475
5901.0 0.0001695 5445.56982 6044.55957
6027.0 0.0001659 5445.20410 6025.49756
6025.0 0.0001660 5444.84961 6009.45996
6055.0 0.0001652 5444.50732 5996.26465
5895.0 0.0001696 5444.17529 5985.69873
6217.0 0.0001608 5443.85303 5977.49609
5850.0 0.0001709 5443.54004 5971.44385
5988.0 0.0001670 5443.23535 5967.30371
5912.0 0.0001691 5442.93799 5964.83545
5966.0 0.0001676 5442.64795 5963.80176
6103.0 0.0001639 5442.36377 5963.97900
5884.0 0.0001700 5442.08545 5965.14795
6028.0 0.0001659 5441.81104 5967.03369
5966.0 0.0001676 5441.54102 5969.62402
5894.0 0.0001697 5441.27441 5972.69629
6042.0 0.0001655 5441.00977 5976.13818
5966.0 0.0001676 5440.74707 5979.85840
6149.0 0.0001626 5440.48535 5983.68945
6019.0 0.0001661 5440.22363 5987.80371
6109.0 0.0001637 5439.96191 5992.09863
6078.0 0.0001645 5439.69873 5996.59766
6084.0 0.0001644 5439.43408 6000.96387
6170.0 0.0001621 5439.16650 6006.11377
6265.0 0.0001596 5438.89600 6011.85107
6193.0 0.0001615 5438.62109 6018.37939
6346.0 0.0001576 5438.34229 6025.89209
6170.0 0.0001621 5438.05762 6034.49268
6135.0 0.0001630 5437.76709 6044.90430
6311.0 0.0001585 5437.47021 6057.23389
6213.0 0.0001610 5437.16553 6071.84424
6410.0 0.0001560 5436.85352 6089.10742
6393.0 0.0001564 5436.53223 6109.42822
6370.0 0.0001570 5436.20215 6133.19482
6246.0 0.0001601 5435.86230 6160.81689
6198.0 0.0001613 5435.51172 6192.74854
6368.0 0.0001570 5435.15039 6229.36572
6307.0 0.0001586 5434.77734 6271.06445
6334.0 0.0001579 5434.39209 6318.26221
6356.0 0.0001573 5433.99414 6371.27344
6283.0 0.0001592 5433.58252 6430.36621
6452.0 0.0001550 5433.15723 6495.86328
6369.0 0.0001570 5432.71729 6567.86572
6508.0 0.0001537 5432.26270 6646.49658
6608.0 0.0001513 5431.79199 6731.78125
6526.0 0.0001532 5431.30566 6823.51367
6670.0 0.0001499 5430.80322 6921.45605
6822.0 0.0001466 5430.28320 7025.18604
6775.0 0.0001476 5429.74561 7133.92969
7107.0 0.0001407 5429.19043 7246.83691
7267.0 0.0001376 5428.61670 7362.62061
7295.0 0.0001371 5428.02441 7479.87598
7289.0 0.0001372 5427.41260 7596.61572
7601.0 0.0001316 5426.78125 7710.60547
7584.0 0.0001319 5426.12939 7819.47119
7875.0 0.0001270 5425.45752 7920.41357
7846.0 0.0001275 5424.76514 8010.70361
8159.0 0.0001226 5424.05127 8087.87256
8136.0 0.0001229 5423.31543 8149.62988
8276.0 0.0001208 5422.55859 8194.31445
8253.0 0.0001212 5421.77930 8220.95703
8299.0 0.0001205 5420.97754 8229.18945
8189.0 0.0001221 5420.15332 8219.32324
8139.0 0.0001229 5419.30566 8192.13379
8276.0 0.0001208 5418.43506 8148.82031
8054.0 0.0001242 5417.54102 8090.81396
8154.0 0.0001226 5416.62256 8019.70898
7992.0 0.0001251 5415.68115 7937.39551
7774.0 0.0001286 5414.71533 7845.74951
7711.0 0.0001297 5413.72461 7746.81152
7639.0 0.0001309 5412.71045 7642.63574
7729.0 0.0001294 5411.67090 7535.25537
7228.0 0.0001384 5410.60742 7426.64502
7353.0 0.0001360 5409.51855 7318.44922
7198.0 0.0001389 5408.40479 7212.28955
7048.0 0.0001419 5407.26660 7109.46631
6814.0 0.0001468 5406.10205 7010.89404
6828.0 0.0001465 5404.91309 6917.45166
6794.0 0.0001472 5403.69922 6829.72900
6646.0 0.0001505 5402.45947 6748.02393
6580.0 0.0001520 5401.19482 6672.65332
6430.0 0.0001555 5399.90576 6603.75977
6436.0 0.0001554 5398.58984 6541.28076
6480.0 0.0001543 5397.25049 6485.28711
6450.0 0.0001550 5395.88525 6435.58008
6172.0 0.0001620 5394.49463 6392.01318
6419.0 0.0001558 5393.07959 6354.45605
6366.0 0.0001571 5391.63965 6322.70361
6181.0 0.0001618 5390.17432 6296.52148
6191.0 0.0001615 5388.68506 6275.72852
6127.0 0.0001632 5387.17139 6260.09717
6096.0 0.0001640 5385.63330 6249.43799
6227.0 0.0001606 5384.07080 6243.55176
6028.0 0.0001659 5382.48438 6242.28027
6246.0 0.0001601 5380.87500 6245.40723
6254.0 0.0001599 5379.24121 6252.79883
6351.0 0.0001575 5377.58447 6264.28564
6203.0 0.0001612 5375.90527 6279.71387
6246.0 0.0001601 5374.20215 6298.92871
6207.0 0.0001611 5372.47705 6321.76807
6364.0 0.0001571 5370.73047 6348.03223
6505.0 0.0001537 5368.96094 6377.56396
6443.0 0.0001552 5367.17041 6410.09570
6391.0 0.0001565 5365.35889 6445.39063
6399.0 0.0001563 5363.52539 6483.14990
6490.0 0.0001541 5361.67236 6523.02930
6639.0 0.0001506 5359.79932 6564.65771
6673.0 0.0001499 5357.90527 6607.69727
6600.0 0.0001515 5355.99268 6651.74316
6687.0 0.0001495 5354.06104 6696.53320
6858.0 0.0001458 5352.10986 6741.89404
6737.0 0.0001484 5350.14160 6787.74805
6701.0 0.0001492 5348.15527 6834.24365
6843.0 0.0001461 5346.15234 6881.66162
6931.0 0.0001443 5344.13135 6930.53125
7037.0 0.0001421 5342.09424 6981.39697
7089.0 0.0001411 5340.04248 7034.95801
7028.0 0.0001423 5337.97412 7092.04785
6999.0 0.0001429 5335.89111 7153.40967
7032.0 0.0001422 5333.79443 7219.84424
7091.0 0.0001410 5331.68311 7292.21143
7277.0 0.0001374 5329.55908 7371.16992
7262.0 0.0001377 5327.42188 7457.43799
7267.0 0.0001376 5325.27197 7551.62354
7396.0 0.0001352 5323.11182 7654.03857
7384.0 0.0001354 5320.93994 7764.95459
7570.0 0.0001321 5318.75635 7884.42480
7586.0 0.0001318 5316.56445 8012.08447
7841.0 0.0001275 5314.36279 8147.47412
8012.0 0.0001248 5312.15137 8289.89941
8231.0 0.0001215 5309.93311 8438.21484
8298.0 0.0001205 5307.70654 8591.23047
8390.0 0.0001192 5305.47412 8747.35059
8859.0 0.0001129 5303.23389 8904.96094
9114.0 0.0001097 5300.98779 9061.86133
9287.0 0.0001077 5298.73828 9215.66797
9363.0 0.0001068 5296.48291 9363.87109
9569.0 0.0001045 5294.22363 9503.39063
9727.0 0.0001028 5291.96289 9631.06152
10123.0 0.0000988 5289.69775 9743.86621
10072.0 0.0000993 5287.43164 9838.67188
10046.0 0.0000995 5285.16455 9912.91016
10218.0 0.0000979 5282.89551 9964.71191
10430.0 0.0000959 5280.62793 9992.83789
10235.0 0.0000977 5278.36133 9996.57520
10397.0 0.0000962 5276.09473 9977.40723
10547.0 0.0000948 5273.83057 9936.09473
10157.0 0.0000985 5271.57031 9874.50293
10173.0 0.0000983 5269.31152 9794.78906
10205.0 0.0000980 5267.05762 9699.54492
9924.0 0.0001008 5264.80811 9590.98535
9725.0 0.0001028 5262.56494 9472.87305
9546.0 0.0001048 5260.32666 9347.59766
9361.0 0.0001068 5258.09521 9218.26563
9346.0 0.0001070 5255.87207 9087.90918
9004.0 0.0001111 5253.65527 8959.22754
8909.0 0.0001122 5251.44824 8835.00586
8767.0 0.0001141 5249.25098 8717.67480
8695.0 0.0001150 5247.06201 8609.07617
8580.0 0.0001166 5244.88379 8510.96289
8355.0 0.0001197 5242.71875 8424.56055
8248.0 0.0001212 5240.56299 8350.51563
8176.0 0.0001223 5238.42090 8289.27539
8164.0 0.0001225 5236.29248 8240.76270
8137.0 0.0001229 5234.17627 8204.52148
8119.0 0.0001232 5232.07568 8179.79199
8062.0 0.0001240 5229.98975 8165.40088
8149.0 0.0001227 5227.91846 8159.91943
8019.0 0.0001247 5225.86426 8161.65186
8017.0 0.0001247 5223.82715 8168.75488
8155.0 0.0001226 5221.80615 8179.29443
8030.0 0.0001245 5219.80420 8191.36279
8124.0 0.0001231 5217.81982 8203.16602
8071.0 0.0001239 5215.85596 8213.09180
8046.0 0.0001243 5213.91016 8219.75391
8288.0 0.0001207 5211.98486 8221.99414
8107.0 0.0001234 5210.08105 8218.88965
8273.0 0.0001209 5208.19775 8209.70215
8366.0 0.0001195 5206.33594 8193.87207
8180.0 0.0001222 5204.49805 8171.05859
8165.0 0.0001225 5202.68115 8141.05811
7998.0 0.0001250 5200.88770 8103.91602
8186.0 0.0001222 5199.11963 8059.86523
8182.0 0.0001222 5197.37402 8009.22314
8015.0 0.0001248 5195.65430 7952.53467
7948.0 0.0001258 5193.95947 7890.31641
7954.0 0.0001257 5192.29004 7823.13037
7808.0 0.0001281 5190.64697 7751.62402
7857.0 0.0001273 5189.03076 7676.40137
7483.0 0.0001336 5187.44043 7598.09033
7458.0 0.0001341 5185.87842 7517.43311
7311.0 0.0001368 5184.34375 7435.14014
7254.0 0.0001379 5182.83789 7352.03809
7238.0 0.0001382 5181.35938 7268.76318
7229.0 0.0001383 5179.91016 7186.15771
7024.0 0.0001424 5178.49072 7104.88379
6943.0 0.0001440 5177.09961 7025.44824
6868.0 0.0001456 5175.73877 6948.43896
6902.0 0.0001449 5174.40918 6874.31689
6699.0 0.0001493 5173.10840 6803.35645
6607.0 0.0001514 5171.83936 6735.93018
6493.0 0.0001540 5170.60107 6672.25146
6458.0 0.0001548 5169.39355 6612.48975
6385.0 0.0001566 5168.21826 6556.77441
6258.0 0.0001598 5167.07471 6505.10742
6465.0 0.0001547 5165.96240 6457.41943
6280.0 0.0001592 5164.88281 6413.65430
6329.0 0.0001580 5163.83545 6373.68213
6160.0 0.0001623 5162.82031 6337.34277
6226.0 0.0001606 5161.83789 6304.54248
6163.0 0.0001623 5160.88867 6275.15332
6171.0 0.0001620 5159.97168 6249.09961
6113.0 0.0001636 5159.08838 6226.39355
5981.0 0.0001672 5158.23779 6207.04492
6021.0 0.0001661 5157.42090 6191.15283
6079.0 0.0001645 5156.63672 6178.79492
6240.0 0.0001603 5155.88672 6170.14404
6076.0 0.0001646 5155.16992 6165.36719
5948.0 0.0001681 5154.48633 6164.64941
6054.0 0.0001652 5153.83594 6168.22559
6162.0 0.0001623 5153.21973 6176.29883
6015.0 0.0001663 5152.63672 6189.13232
6002.0 0.0001666 5152.08740 6206.91504
6209.0 0.0001611 5151.57129 6229.93359
5991.0 0.0001669 5151.08838 6258.36084
6145.0 0.0001627 5150.63916 6292.32520
6369.0 0.0001570 5150.22314 6331.93896
6409.0 0.0001560 5149.84033 6377.25000
6360.0 0.0001572 5149.49072 6428.20410
6470.0 0.0001546 5149.17383 6484.67139
6623.0 0.0001510 5148.88965 6546.18457
6696.0 0.0001493 5148.63867 6612.89014
6622.0 0.0001510 5148.41992 6684.06543
6833.0 0.0001463 5148.23340 6759.00977
6928.0 0.0001443 5148.07910 6836.98486
7093.0 0.0001410 5147.95703 6916.75342
7221.0 0.0001385 5147.86670 6997.34424
7372.0 0.0001356 5147.80762 7077.26807
7485.0 0.0001336 5147.78027 7154.81689
7498.0 0.0001334 5147.78369 7228.20654
7376.0 0.0001356 5147.81836 7295.68066
7585.0 0.0001318 5147.88330 7355.36670
7704.0 0.0001298 5147.97852 7405.56836
7573.0 0.0001320 5148.10400 7444.64697
7665.0 0.0001305 5148.25879 7472.24658
7622.0 0.0001312 5148.44336 7487.44336
7625.0 0.0001311 5148.65674 7490.06934
7639.0 0.0001309 5148.89893 7480.34424
7720.0 0.0001295 5149.16943 7458.82959
7545.0 0.0001325 5149.46826 7426.06836
7334.0 0.0001364 5149.79443 7383.39258
7328.0 0.0001365 5150.14795 7331.63574
7199.0 0.0001389 5150.52832 7271.97461
7208.0 0.0001387 5150.93555 7205.59912
6903.0 0.0001449 5151.36865 7133.79736
7071.0 0.0001414 5151.82715 7057.94385
6837.0 0.0001463 5152.31152 6979.29150
6820.0 0.0001466 5152.82080 6899.18799
6688.0 0.0001495 5153.35400 6818.86475
6677.0 0.0001498 5153.91162 6739.28564
6559.0 0.0001525 5154.49268 6661.44092
6560.0 0.0001524 5155.09619 6586.08252
6340.0 0.0001577 5155.72314 6513.74902
6295.0 0.0001589 5156.37158 6444.94678
6246.0 0.0001601 5157.04199 6379.95703
6055.0 0.0001652 5157.73340 6318.94531
6096.0 0.0001640 5158.44531 6262.08984
6114.0 0.0001636 5159.17773 6209.41455
5990.0 0.0001669 5159.93018 6160.91943
5934.0 0.0001685 5160.70117 6116.55664
5919.0 0.0001689 5161.49072 6076.23975
5957.0 0.0001679 5162.29883 6039.84912
5924.0 0.0001688 5163.12451 6007.25537
5873.0 0.0001703 5163.96680 5978.27441
5910.0 0.0001692 5164.82568 5952.74463
5773.0 0.0001732 5165.70117 5930.43262
5741.0 0.0001742 5166.59180 5911.16309
5927.0 0.0001687 5167.49707 5894.72803
5764.0 0.0001735 5168.41748 5880.92236
5803.0 0.0001723 5169.35107 5869.54004
5634.0 0.0001775 5170.29785 5860.41309
5688.0 0.0001758 5171.25781 5853.36279
5721.0 0.0001748 5172.22998 5848.22607
5746.0 0.0001740 5173.21338 5844.86719
5695.0 0.0001756 5174.20850 5843.12695
5816.0 0.0001719 5175.21387 5842.86230
5649.0 0.0001770 5176.22900 5843.94238
5645.0 0.0001771 5177.25391 5846.17920
5616.0 0.0001781 5178.28760 5849.41357
5709.0 0.0001752 5179.32959 5853.47168
5792.0 0.0001727 5180.37988 5858.15967
5739.0 0.0001742 5181.43652 5863.28711
5793.0 0.0001726 5182.50049 5868.67334
5733.0 0.0001744 5183.57031 5874.14160
5792.0 0.0001727 5184.64600 5879.56689
5831.0 0.0001715 5185.72705 5884.84277
5935.0 0.0001685 5186.81152 5889.91895
5834.0 0.0001714 5187.90088 5894.81201
5812.0 0.0001721 5188.99414 5899.55029
5855.0 0.0001708 5190.08887 5904.24072
5905.0 0.0001693 5191.18750 5909.00684
5813.0 0.0001720 5192.28760 5913.98438
5874.0 0.0001702 5193.38818 5919.33740
5950.0 0.0001681 5194.49121 5925.23633
5950.0 0.0001681 5195.59326 5931.83008
6017.0 0.0001662 5196.69580 5939.28467
6016.0 0.0001662 5197.79785 5947.75049
6037.0 0.0001656 5198.89844 5957.34912
6100.0 0.0001639 5199.99756 5968.18311
6056.0 0.0001651 5201.09473 5980.32520
6127.0 0.0001632 5202.18896 5993.77588
6005.0 0.0001665 5203.28027 6008.49609
6094.0 0.0001641 5204.36865 6024.36475
6228.0 0.0001606 5205.45264 6041.17480
6098.0 0.0001640 5206.53223 6058.65771
6136.0 0.0001630 5207.60645 6076.45068
6146.0 0.0001627 5208.67676 6094.14551
6224.0 0.0001607 5209.74072 6111.20410
6113.0 0.0001636 5210.79834 6127.10889
6119.0 0.0001634 5211.84961 6141.30615
6191.0 0.0001615 5212.89453 6153.23242
6024.0 0.0001660 5213.93115 6162.37207
6145.0 0.0001627 5214.96094 6168.42969
6027.0 0.0001659 5215.98242 6171.07813
6150.0 0.0001626 5216.99561 6170.16309
5998.0 0.0001667 5218.00000 6165.67480
6062.0 0.0001650 5218.99512 6157.69482
6057.0 0.0001651 5219.98047 6146.36230
6011.0 0.0001664 5220.95703 6131.99609
5988.0 0.0001670 5221.92285 6114.86279
6027.0 0.0001659 5222.87793 6095.29297
6090.0 0.0001642 5223.82324 6073.63867
6038.0 0.0001656 5224.75684 6050.29736
5930.0 0.0001686 5225.67969 6025.68555
5849.0 0.0001710 5226.59033 6000.24316
5889.0 0.0001698 5227.48975 5974.36719
5819.0 0.0001719 5228.37646 5948.52100
5673.0 0.0001763 5229.25098 5923.05713
5725.0 0.0001747 5230.11377 5898.32422
5682.0 0.0001760 5230.96289 5874.65430
5707.0 0.0001752 5231.79932 5852.30029
5826.0 0.0001716 5232.62256 5831.48242
5857.0 0.0001707 5233.43262 5812.34424
5646.0 0.0001771 5234.22900 5794.98877
5706.0 0.0001753 5235.01172 5779.45947
5702.0 0.0001754 5235.78027 5765.77197
5549.0 0.0001802 5236.53516 5753.90283
5612.0 0.0001782 5237.27588 5743.78613
5637.0 0.0001774 5238.00195 5735.29785
5647.0 0.0001771 5238.71387 5728.30371
5587.0 0.0001790 5239.41113 5722.62598
5598.0 0.0001786 5240.09375 5718.02344
5783.0 0.0001729 5240.76172 5714.38574
5593.0 0.0001788 5241.41406 5711.42090
5727.0 0.0001746 5242.05273 5708.87061
5659.0 0.0001767 5242.67578 5706.52051
5660.0 0.0001767 5243.28369 5704.16602
5650.0 0.0001770 5243.87695 5701.58496
5618.0 0.0001780 5244.45508 5698.69287
5627.0 0.0001777 5245.01758 5695.36084
5684.0 0.0001759 5245.56543 5691.52393
5692.0 0.0001757 5246.09814 5687.16309
5612.0 0.0001782 5246.61523 5682.27295
5634.0 0.0001775 5247.11768 5676.88818
5569.0 0.0001796 5247.60449 5671.04785
5618.0 0.0001780 5248.07666 5664.80957
5647.0 0.0001771 5248.53369 5658.23682
5777.0 0.0001731 5248.97559 5651.41943
5596.0 0.0001787 5249.40234 5644.44873
5666.0 0.0001765 5249.81494 5637.39404
5644.0 0.0001772 5250.21191 5630.30420
5591.0 0.0001789 5250.59473 5623.41162
5541.0 0.0001805 5250.96240 5616.72363
5539.0 0.0001805 5251.31543 5610.34229
5661.0 0.0001766 5251.65430 5604.30859
5596.0 0.0001787 5251.97852 5598.64014
5601.0 0.0001785 5252.28857 5593.45557
5573.0 0.0001794 5252.58447 5588.74414
5607.0 0.0001783 5252.86621 5584.51758
5529.0 0.0001809 5253.13379 5580.76221
5488.0 0.0001822 5253.38818 5577.50293
5601.0 0.0001785 5253.62842 5574.72168
5713.0 0.0001750 5253.85547 5572.41260
5487.0 0.0001822 5254.06885 5570.59912
5673.0 0.0001763 5254.26904 5569.28809
5478.0 0.0001825 5254.45605 5568.47949
5602.0 0.0001785 5254.63037 5568.21533
5582.0 0.0001791 5254.79199 5568.49365
5589.0 0.0001789 5254.94141 5569.34033
5618.0 0.0001780 5255.07764 5570.80273
5640.0 0.0001773 5255.20215 5572.92236
5521.0 0.0001811 5255.31445 5575.70947
5725.0 0.0001747 5255.41504 5579.22705
5592.0 0.0001788 5255.50391 5583.53027
5673.0 0.0001763 5255.58154 5588.65430
5734.0 0.0001744 5255.64746 5594.69287
5633.0 0.0001775 5255.70264 5601.67139
5835.0 0.0001714 5255.74658 5609.66357
5679.0 0.0001761 5255.77979 5618.75977
5851.0 0.0001709 5255.80273 5629.02490
5663.0 0.0001766 5255.81543 5640.55176
5857.0 0.0001707 5255.81787 5653.43213
5807.0 0.0001722 5255.81006 5667.75342
5742.0 0.0001742 5255.79297 5683.62158
5821.0 0.0001718 5255.76611 5701.14746
5644.0 0.0001772 5255.72998 5720.42578
5902.0 0.0001694 5255.68506 5741.56836
5853.0 0.0001709 5255.63037 5764.66602
5965.0 0.0001676 5255.56738 5789.79932
5839.0 0.0001713 5255.49609 5817.07227
5866.0 0.0001705 5255.41602 5846.56006
5934.0 0.0001685 5255.32813 5878.28955
5837.0 0.0001713 5255.23193 5912.32031
5968.0 0.0001676 5255.12793 5948.70313
5897.0 0.0001696 5255.01611 5987.38965
5983.0 0.0001671 5254.89697 6028.40430
5960.0 0.0001678 5254.77051 6071.65430
6040.0 0.0001656 5254.63721 6117.11328
6152.0 0.0001625 5254.49658 6164.62012
6182.0 0.0001618 5254.34961 6213.99756
6314.0 0.0001584 5254.19580 6265.11230
6250.0 0.0001600 5254.03516 6317.65576
6196.0 0.0001614 5253.86865 6371.33301
6422.0 0.0001557 5253.69580 6425.87842
6303.0 0.0001587 5253.51660 6480.89355
6483.0 0.0001542 5253.33203 6536.07422
6427.0 0.0001556 5253.14160 6591.13965
6478.0 0.0001544 5252.94531 6645.69141
6699.0 0.0001493 5252.74365 6699.47803
6447.0 0.0001551 5252.53613 6752.23047
6720.0 0.0001488 5252.32373 6803.57324
6862.0 0.0001457 5252.10645 6853.18213
6816.0 0.0001467 5251.88330 6900.66699
6908.0 0.0001448 5251.65576 6945.52051
7159.0 0.0001397 5251.42285 6987.21045
7082.0 0.0001412 5251.18555 7025.13525
7023.0 0.0001424 5250.94287 7058.69141
6992.0 0.0001430 5250.69629 7087.20361
7160.0 0.0001397 5250.44434 7110.07275
7245.0 0.0001380 5250.18799 7126.80469
7266.0 0.0001376 5249.92725 7136.95947
7238.0 0.0001382 5249.66211 7140.29053
7270.0 0.0001376 5249.39209 7136.69287
7311.0 0.0001368 5249.11768 7126.26855
7174.0 0.0001394 5248.83887 7109.26758
7486.0 0.0001336 5248.55566 7086.06689
7304.0 0.0001369 5248.26758 7057.16602
7113.0 0.0001406 5247.97559 7023.13965
7206.0 0.0001388 5247.67871 6984.56055
7074.0 0.0001414 5247.37744 6942.10742
7099.0 0.0001409 5247.07178 6896.40479
6971.0 0.0001435 5246.76123 6848.08154
7045.0 0.0001419 5246.44629 6797.84668
6989.0 0.0001431 5246.12695 6746.29932
6930.0 0.0001443 5245.80273 6694.10889
6724.0 0.0001487 5245.47314 6641.81201
6602.0 0.0001515 5245.13916 6589.98438
6670.0 0.0001499 5244.80029 6539.13965
6645.0 0.0001505 5244.45605 6489.61572
6822.0 0.0001466 5244.10693 6441.80029
6508.0 0.0001537 5243.75244 6395.98242
6613.0 0.0001512 5243.39258 6352.31348
6378.0 0.0001568 5243.02686 6310.98828
6325.0 0.0001581 5242.65625 6272.13574
6296.0 0.0001588 5242.27930 6235.77002
6424.0 0.0001557 5241.89697 6201.98633
6256.0 0.0001598 5241.50830 6170.76025
6181.0 0.0001618 5241.11328 6142.07764
6196.0 0.0001614 5240.71191 6115.88623
6183.0 0.0001617 5240.30420 6092.10254
6147.0 0.0001627 5239.88965 6070.61572
6141.0 0.0001628 5239.46826 6051.31982
6046.0 0.0001654 5239.04004 6034.05518
6043.0 0.0001655 5238.60449 6018.63525
6232.0 0.0001605 5238.16162 6004.88086
5969.0 0.0001675 5237.71094 5992.59814
6034.0 0.0001657 5237.25244 5981.56738
6153.0 0.0001625 5236.78564 5971.54150
6033.0 0.0001658 5236.31104 5962.31445
5907.0 0.0001693 5235.82813 5953.66211
6011.0 0.0001664 5235.33594 5945.37646
5952.0 0.0001680 5234.83496 5937.26172
5898.0 0.0001695 5234.32471 5929.18604
5971.0 0.0001675 5233.80518 5920.99268
5884.0 0.0001700 5233.27637 5912.66797
5769.0 0.0001733 5232.73779 5904.14453
5762.0 0.0001736 5232.18848 5895.42383
5842.0 0.0001712 5231.62891 5886.54492
5787.0 0.0001728 5231.05957 5877.55957
5809.0 0.0001721 5230.47852 5868.53320
5788.0 0.0001728 5229.88672 5859.57520
5781.0 0.0001730 5229.28369 5850.76563
5832.0 0.0001715 5228.66846 5842.22461
5620.0 0.0001779 5228.04199 5834.06885
5651.0 0.0001770 5227.40332 5826.42480
5849.0 0.0001710 5226.75244 5819.38330
5792.0 0.0001727 5226.08887 5813.03564
5732.0 0.0001745 5225.41260 5807.48584
5660.0 0.0001767 5224.72363 5802.80518
5721.0 0.0001748 5224.02051 5799.03076
5607.0 0.0001783 5223.30371 5796.18701
5611.0 0.0001782 5222.57422 5794.26465
5620.0 0.0001779 5221.82959 5793.21338
5673.0 0.0001763 5221.07129 5792.94824
5714.0 0.0001750 5220.29883 5793.37402
5720.0 0.0001748 5219.51074 5794.34180
5758.0 0.0001737 5218.70850 5795.59521
5725.0 0.0001747 5217.89063 5797.14209
5729.0 0.0001746 5217.05713 5798.70752
5594.0 0.0001788 5216.20850 5800.10596
5686.0 0.0001759 5215.34424 5801.17773
5646.0 0.0001771 5214.46289 5801.80469
5790.0 0.0001727 5213.56641 5801.79004
5498.0 0.0001819 5212.65283 5801.28662
5580.0 0.0001792 5211.72266 5800.19385
5732.0 0.0001745 5210.77637 5798.55371
5635.0 0.0001775 5209.81250 5796.44531
5592.0 0.0001788 5208.83252 5793.97412
5626.0 0.0001777 5207.83447 5791.25586
5687.0 0.0001758 5206.81885 5788.44580
5603.0 0.0001785 5205.78662 5785.70508
5767.0 0.0001734 5204.73584 5783.19775
5734.0 0.0001744 5203.66699 5781.11914
5763.0 0.0001735 5202.58154 5779.68359
5739.0 0.0001742 5201.47705 5779.07715
5820.0 0.0001718 5200.35547 5779.54541
5773.0 0.0001732 5199.21533 5781.30322
5636.0 0.0001774 5198.05615 5784.56250
5737.0 0.0001743 5196.87939 5789.53857
5854.0 0.0001708 5195.68457 5796.41553
5717.0 0.0001749 5194.47070 5805.38623
5635.0 0.0001775 5193.23926 5816.59033
5756.0 0.0001737 5191.98926 5830.18115
5696.0 0.0001756 5190.72021 5846.26611
5804.0 0.0001723 5189.43359 5864.92188
5919.0 0.0001689 5188.12842 5886.23291
5860.0 0.0001706 5186.80566 5910.20703
5847.0 0.0001710 5185.46338 5936.88721
5842.0 0.0001712 5184.10303 5966.24316
5969.0 0.0001675 5182.72559 5998.22803
5837.0 0.0001713 5181.32910 6032.83057
6070.0 0.0001647 5179.91553 6069.95508
5940.0 0.0001684 5178.48438 6109.48926
6209.0 0.0001611 5177.03516 6151.37842
6124.0 0.0001633 5175.56836 6195.44678
6027.0 0.0001659 5174.08447 6241.50879
6315.0 0.0001584 5172.58301 6289.43359
6236.0 0.0001604 5171.06592 6338.88818
6362.0 0.0001572 5169.53125 6389.57031
6271.0 0.0001595 5167.97998 6441.17627
6169.0 0.0001621 5166.41260 6493.23486
6458.0 0.0001548 5164.83057 6545.27051
6414.0 0.0001559 5163.23096 6596.79492
6461.0 0.0001548 5161.61670 6647.19238
6504.0 0.0001538 5159.98779 6695.89111
6678.0 0.0001497 5158.34375 6742.22607
6708.0 0.0001491 5156.68457 6785.55762
6630.0 0.0001508 5155.01221 6825.12402
6692.0 0.0001494 5153.32666 6860.21484
6718.0 0.0001489 5151.62646 6890.12695
6795.0 0.0001472 5149.91455 6914.15674
6679.0 0.0001497 5148.18994 6931.68799
6869.0 0.0001456 5146.45264 6942.25732
6737.0 0.0001484 5144.70361 6945.52100
6765.0 0.0001478 5142.94434 6941.31738
7051.0 0.0001418 5141.17334 6929.69238
6792.0 0.0001472 5139.39307 6910.85986
6723.0 0.0001487 5137.60352 6885.17139
6579.0 0.0001520 5135.80322 6853.07520
6688.0 0.0001495 5133.99512 6815.15283
6544.0 0.0001528 5132.17920 6771.97412
6543.0 0.0001528 5130.35498 6724.14014
6474.0 0.0001545 5128.52539 6672.34619
6540.0 0.0001529 5126.68848 6617.23340
6316.0 0.0001583 5124.84521 6559.43945
6372.0 0.0001569 5122.99756 6499.70801
6388.0 0.0001565 5121.14502 6438.69873
6061.0 0.0001650 5119.29004 6377.12158
6198.0 0.0001613 5117.43018 6315.55811
6067.0 0.0001648 5115.56738 6254.66211
6029.0 0.0001659 5113.70459 6194.99609
5871.0 0.0001703 5111.83936 6136.96436
6075.0 0.0001646 5109.97412 6081.03369
5892.0 0.0001697 5108.10986 6027.54980
5823.0 0.0001717 5106.24561 5976.72217
5859.0 0.0001707 5104.38281 5928.80371
5900.0 0.0001695 5102.52393 5883.95410
5719.0 0.0001749 5100.66699 5842.20752
5781.0 0.0001730 5098.81543 5803.68213
5547.0 0.0001803 5096.96777 5768.36377
5681.0 0.0001760 5095.12500 5736.22803
5770.0 0.0001733 5093.28955 5707.27539
5643.0 0.0001772 5091.46094 5681.42139
5586.0 0.0001790 5089.63965 5658.58691
5537.0 0.0001806 5087.82813 5638.72363
5555.0 0.0001800 5086.02539 5621.70947
5504.0 0.0001817 5084.23438 5607.46924
5656.0 0.0001768 5082.45264 5595.88916
5548.0 0.0001802 5080.68408 5586.89453
5637.0 0.0001774 5078.92871 5580.37842
5555.0 0.0001800 5077.18604 5576.22754
5671.0 0.0001763 5075.45801 5574.36084
5638.0 0.0001774 5073.74609 5574.67188
5642.0 0.0001772 5072.04980 5577.05518
5576.0 0.0001793 5070.37061 5581.40479
5605.0 0.0001784 5068.70996 5587.61035
5547.0 0.0001803 5067.06689 5595.55225
5659.0 0.0001767 5065.44434 5605.10938
5698.0 0.0001755 5063.84229 5616.15771
5552.0 0.0001801 5062.26074 5628.54688
5700.0 0.0001754 5060.70117 5642.11865
5544.0 0.0001804 5059.16504 5656.72412
5840.0 0.0001712 5057.65186 5672.19189
5811.0 0.0001721 5056.16406 5688.33203
5691.0 0.0001757 5054.70166 5704.97266
5831.0 0.0001715 5053.26465 5721.92969
5970.0 0.0001675 5051.85547 5738.99170
5829.0 0.0001716 5050.47363 5756.00391
6037.0 0.0001656 5049.12012 5772.77979
5957.0 0.0001679 5047.79590 5789.18701
6032.0 0.0001658 5046.50195 5805.06592
5983.0 0.0001671 5045.23975 5820.33203
6257.0 0.0001598 5044.00781 5834.90039
6512.0 0.0001536 5042.80859 5848.71680
6669.0 0.0001499 5041.64307 5861.74951
6486.0 0.0001542 5040.51074 5874.01270
6456.0 0.0001549 5039.41309 5885.48975
6320.0 0.0001582 5038.35059 5896.22266
6369.0 0.0001570 5037.32373 5906.23633
6339.0 0.0001578 5036.33350 5915.56348
6200.0 0.0001613 5035.38135 5924.21680
6266.0 0.0001596 5034.46582 5932.22119
6463.0 0.0001547 5033.58887 5939.56592
6705.0 0.0001491 5032.75146 5946.25635
6607.0 0.0001514 5031.95313 5952.25977
6479.0 0.0001543 5031.19531 5957.53809
6475.0 0.0001544 5030.47803 5962.03223
6210.0 0.0001610 5029.80225 5965.65967
6225.0 0.0001606 5029.16797 5968.35645
6280.0 0.0001592 5028.57568 5970.00732
6027.0 0.0001659 5028.02686 5970.54395
6047.0 0.0001654 5027.52051 5969.87646
6109.0 0.0001637 5027.05762 5967.95020
5933.0 0.0001685 5026.63916 5964.73438
5935.0 0.0001685 5026.26465 5960.22461
6112.0 0.0001636 5025.93506 5954.43994
5918.0 0.0001690 5025.65039 5947.39893
5737.0 0.0001743 5025.41113 5939.13574
5851.0 0.0001709 5025.21729 5929.70166
5885.0 0.0001699 5025.06934 5919.10498
5755.0 0.0001738 5024.96777 5907.37109
5824.0 0.0001717 5024.91211 5894.52197
5731.0 0.0001745 5024.90332 5880.56152
5697.0 0.0001755 5024.94141 5865.50488
5700.0 0.0001754 5025.02588 5849.39111
5767.0 0.0001734 5025.15723 5831.68066
5651.0 0.0001770 5025.33594 5813.65479
5642.0 0.0001772 5025.56104 5794.74414
5547.0 0.0001803 5025.83398 5775.17773
5431.0 0.0001841 5026.15332 5755.05127
5599.0 0.0001786 5026.52002 5734.45459
5520.0 0.0001812 5026.93408 5713.60791
5349.0 0.0001870 5027.39404 5692.32031
5481.0 0.0001824 5027.90186 5671.28467
5465.0 0.0001830 5028.45557 5650.37988
5457.0 0.0001833 5029.05615 5629.72852
5443.0 0.0001837 5029.70313 5609.40234
5552.0 0.0001801 5030.39600 5589.55029
5420.0 0.0001845 5031.13428 5570.29102
5405.0 0.0001850 5031.91895 5551.73389
5471.0 0.0001828 5032.74854 5534.00000
5350.0 0.0001869 5033.62256 5517.19678
5480.0 0.0001825 5034.54150 5501.41064
5357.0 0.0001867 5035.50439 5486.75684
5294.0 0.0001889 5036.51123 5473.29492
5406.0 0.0001850 5037.56201 5461.10010
5482.0 0.0001824 5038.65479 5450.23438
5472.0 0.0001827 5039.79004 5440.73535
5393.0 0.0001854 5040.96680 5432.64404
5433.0 0.0001841 5042.18555 5425.98193
5492.0 0.0001821 5043.44482 5420.75146
5441.0 0.0001838 5044.74316 5416.97266
5328.0 0.0001877 5046.08252 5414.62500
5339.0 0.0001873 5047.46045 5413.70508
5393.0 0.0001854 5048.87549 5414.17432
5442.0 0.0001838 5050.32910 5415.99512
5461.0 0.0001831 5051.81885 5419.12549
5452.0 0.0001834 5053.34424 5423.50879
5351.0 0.0001869 5054.90576 5429.07031
5332.0 0.0001875 5056.50146 5435.72900
5509.0 0.0001815 5058.13037 5443.37842
5438.0 0.0001839 5059.79297 5451.91748
5560.0 0.0001799 5061.48682 5461.20557
5431.0 0.0001841 5063.21143 5471.11035
5499.0 0.0001819 5064.96729 5481.49023
5435.0 0.0001840 5066.75146 5492.16943
5445.0 0.0001837 5068.56445 5502.98682
5656.0 0.0001768 5070.40430 5513.76074
5549.0 0.0001802 5072.27148 5524.34473
5624.0 0.0001778 5074.16455 5534.54590
5549.0 0.0001802 5076.08057 5544.21582
5373.0 0.0001861 5078.02148 5553.20605
5490.0 0.0001821 5079.98438 5561.15186
5541.0 0.0001805 5081.96777 5568.34912
5417.0 0.0001846 5083.97314 5574.47559
5499.0 0.0001819 5085.99805 5579.42480
5567.0 0.0001796 5088.03955 5583.09619
5546.0 0.0001803 5090.10010 5585.45166
5514.0 0.0001814 5092.17529 5586.43213
5543.0 0.0001804 5094.26611 5585.93994
5474.0 0.0001827 5096.37158 5584.19189
5606.0 0.0001784 5098.48926 5581.12939
5526.0 0.0001810 5100.61865 5576.83447
5450.0 0.0001835 5102.75977 5571.38770
5569.0 0.0001796 5104.90869 5564.90137
5538.0 0.0001806 5107.06689 5557.47559
5473.0 0.0001827 5109.23340 5549.23389
5432.0 0.0001841 5111.40527 5540.29785
5545.0 0.0001803 5113.58203 5530.79980
5387.0 0.0001856 5115.76221 5520.86182
5462.0 0.0001831 5117.94678 5510.60596
5412.0 0.0001848 5120.13330 5500.15820
5483.0 0.0001824 5122.31885 5489.64795
5414.0 0.0001847 5124.50537 5479.19873
5431.0 0.0001841 5126.68994 5468.90430
5378.0 0.0001859 5128.87109 5458.89600
5333.0 0.0001875 5131.04980 5449.24219
5460.0 0.0001832 5133.22363 5440.04590
5518.0 0.0001812 5135.39160 5431.36963
5456.0 0.0001833 5137.55322 5423.01221
5431.0 0.0001841 5139.70557 5415.53320
5525.0 0.0001810 5141.85010 5408.72656
5431.0 0.0001841 5143.98535 5402.61279
5512.0 0.0001814 5146.10938 5397.21387
5414.0 0.0001847 5148.22021 5392.53320
5393.0 0.0001854 5150.32031 5388.57617
5353.0 0.0001868 5152.40576 5385.33936
5414.0 0.0001847 5154.47705 5382.81445
5320.0 0.0001880 5156.53223 5380.97998
5407.0 0.0001849 5158.57227 5379.80518
5474.0 0.0001827 5160.59424 5379.26904
5277.0 0.0001895 5162.59766 5379.33838
5386.0 0.0001857 5164.58301 5379.97754
5418.0 0.0001846 5166.54834 5381.13086
5373.0 0.0001861 5168.49268 5382.75879
5292.0 0.0001890 5170.41748 5384.81201
5449.0 0.0001835 5172.31982 5387.22461
5366.0 0.0001864 5174.19824 5389.94287
5435.0 0.0001840 5176.05518 5392.90576
5394.0 0.0001854 5177.88721 5396.03906
5458.0 0.0001832 5179.69434 5399.29199
5280.0 0.0001894 5181.47754 5402.58789
5267.0 0.0001899 5183.23438 5405.87500
5388.0 0.0001856 5184.96533 5409.09424
5343.0 0.0001872 5186.67041 5412.22217
5568.0 0.0001796 5188.34668 5415.20557
5469.0 0.0001828 5189.99658 5418.03662
5435.0 0.0001840 5191.61768 5420.70020
5441.0 0.0001838 5193.21143 5423.20264
5385.0 0.0001857 5194.77588 5425.55566
5544.0 0.0001804 5196.31104 5427.77246
5526.0 0.0001810 5197.81787 5429.88574
5496.0 0.0001820 5199.29492 5431.92236
5479.0 0.0001825 5200.74121 5433.91846
5608.0 0.0001783 5202.15869 5435.91211
5516.0 0.0001813 5203.54541 5437.94531
5614.0 0.0001781 5204.90186 5440.05664
5653.0 0.0001769 5206.22852 5442.29150
5526.0 0.0001810 5207.52441 5444.70947
5516.0 0.0001813 5208.79004 5447.35254
5585.0 0.0001791 5210.02539 5450.25195
5563.0 0.0001798 5211.22949 5453.47168
5597.0 0.0001787 5212.40381 5457.04150
5603.0 0.0001785 5213.54834 5461.00293
5549.0 0.0001802 5214.66211 5465.39014
5659.0 0.0001767 5215.74609 5470.22021
5722.0 0.0001748 5216.80029 5475.52295
5517.0 0.0001813 5217.82471 5481.29492
5483.0 0.0001824 5218.81982 5487.55664
5531.0 0.0001808 5219.78564 5494.32080
5628.0 0.0001777 5220.72266 5501.57861
5524.0 0.0001810 5221.63135 5509.33545
5589.0 0.0001789 5222.51123 5517.57715
5621.0 0.0001779 5223.36377 5526.31494
5614.0 0.0001781 5224.18945 5535.53760
5437.0 0.0001839 5224.98682 5545.21875
5528.0 0.0001809 5225.75830 5555.36230
5546.0 0.0001803 5226.50342 5565.93896
5611.0 0.0001782 5227.22217 5576.90723
5681.0 0.0001760 5227.91650 5588.23242
5642.0 0.0001772 5228.58594 5599.86377
5632.0 0.0001776 5229.23047 5611.73584
5733.0 0.0001744 5229.85205 5623.78320
5734.0 0.0001744 5230.45020 5635.91016
5979.0 0.0001673 5231.02588 5648.01904
5862.0 0.0001706 5231.57959 5660.01025
5681.0 0.0001760 5232.11182 5671.73975
5748.0 0.0001740 5232.62305 5683.10010
5647.0 0.0001771 5233.11377 5693.95166
5548.0 0.0001802 5233.58545 5704.17578
5725.0 0.0001747 5234.03760 5713.64209
5626.0 0.0001777 5234.47168 5722.25098
5593.0 0.0001788 5234.88770 5729.93311
5567.0 0.0001796 5235.28662 5736.60986
5635.0 0.0001775 5235.66895 5742.28027
5599.0 0.0001786 5236.03564 5746.95117
5516.0 0.0001813 5236.38672 5750.66406
5481.0 0.0001824 5236.72266 5753.47168
5516.0 0.0001813 5237.04492 5755.46875
5615.0 0.0001781 5237.35352 5756.74854
5444.0 0.0001837 5237.64941 5757.42139
5508.0 0.0001816 5237.93311 5757.59521
5350.0 0.0001869 5238.20459 5757.39551
5670.0 0.0001764 5238.46436 5756.93896
5515.0 0.0001813 5238.71436 5756.36035
5496.0 0.0001820 5238.95361 5755.78027
5554.0 0.0001801 5239.18311 5755.33105
5546.0 0.0001803 5239.40332 5755.14307
5572.0 0.0001795 5239.61475 5755.35840
5450.0 0.0001835 5239.81787 5756.08838
5584.0 0.0001791 5240.01318 5757.45313
5642.0 0.0001772 5240.20068 5759.55859
5490.0 0.0001821 5240.38086 5762.50781
5705.0 0.0001753 5240.55469 5766.36182
5701.0 0.0001754 5240.72119 5771.19141
5685.0 0.0001759 5240.88184 5777.02881
5559.0 0.0001799 5241.03613 5783.89209
5675.0 0.0001762 5241.18457 5791.80127
5695.0 0.0001756 5241.32666 5800.72168
5613.0 0.0001782 5241.46387 5810.61182
5816.0 0.0001719 5241.59521 5821.41064
5725.0 0.0001747 5241.72070 5832.77441
5869.0 0.0001704 5241.84082 5845.09912
5716.0 0.0001749 5241.95557 5857.99463
5857.0 0.0001707 5242.06396 5871.30762
5949.0 0.0001681 5242.16699 5884.87842
5678.0 0.0001761 5242.26416 5898.51904
5882.0 0.0001700 5242.35498 5912.05273
5946.0 0.0001682 5242.43945 5925.23389
6036.0 0.0001657 5242.51709 5938.05176
5855.0 0.0001708 5242.58740 5950.30078
5983.0 0.0001671 5242.65039 5961.87842
5922.0 0.0001689 5242.70508 5972.73389
5996.0 0.0001668 5242.75146 5982.86182
5981.0 0.0001672 5242.78857 5992.28369
6035.0 0.0001657 5242.81641 6001.05371
6030.0 0.0001658 5242.83350 6009.27393
5944.0 0.0001682 5242.83984 6017.09814
6113.0 0.0001636 5242.83398 6024.63721
6204.0 0.0001612 5242.81592 6032.07520
6010.0 0.0001664 5242.78418 6039.53906
5912.0 0.0001691 5242.73779 6047.20801
6065.0 0.0001649 5242.67676 6055.25586
6021.0 0.0001661 5242.59863 6063.82959
6117.0 0.0001635 5242.50342 6073.11084
6049.0 0.0001653 5242.39014 6083.24707
6021.0 0.0001661 5242.25684 6094.37598
6156.0 0.0001624 5242.10254 6106.61865
5964.0 0.0001677 5241.92627 6120.05713
6091.0 0.0001642 5241.72656 6134.79346
5974.0 0.0001674 5241.50195 6150.82764
5943.0 0.0001683 5241.25195 6168.13965
6124.0 0.0001633 5240.97363 6186.68555
6226.0 0.0001606 5240.66699 6206.33301
6062.0 0.0001650 5240.32959 6226.89209
6039.0 0.0001656 5239.95996 6248.16748
6130.0 0.0001631 5239.55713 6269.83887
6224.0 0.0001607 5239.11914 6291.55273
6101.0 0.0001639 5238.64453 6312.95654
6226.0 0.0001606 5238.13086 6333.58740
6310.0 0.0001585 5237.57813 6353.00537
6218.0 0.0001608 5236.98242 6370.75928
6307.0 0.0001586 5236.34375 6386.28613
6346.0 0.0001576 5235.65967 6399.41553
6329.0 0.0001580 5234.92822 6409.70166
6204.0 0.0001612 5234.14795 6416.85840
6351.0 0.0001575 5233.31787 6420.71875
6320.0 0.0001582 5232.43408 6421.19141
6364.0 0.0001571 5231.49658 6418.25000
6430.0 0.0001555 5230.50293 6411.90527
6240.0 0.0001603 5229.45215 6402.38770
6305.0 0.0001586 5228.34033 6389.78418
6259.0 0.0001598 5227.16699 6374.26318
6218.0 0.0001608 5225.93115 6356.09473
6445.0 0.0001552 5224.62939 6335.44971
6227.0 0.0001606 5223.26123 6312.58691
6329.0 0.0001580 5221.82520 6287.76807
6283.0 0.0001592 5220.31738 6261.23340
6290.0 0.0001590 5218.73730 6233.29150
6171.0 0.0001620 5217.08496 6204.22168
6152.0 0.0001625 5215.35596 6174.28613
6099.0 0.0001640 5213.55127 6143.81934
5957.0 0.0001679 5211.66748 6113.05566
5980.0 0.0001672 5209.70264 6082.21436
5990.0 0.0001669 5207.65723 6051.54150
5892.0 0.0001697 5205.52881 6021.21924
5922.0 0.0001689 5203.31543 5991.39209
5780.0 0.0001730 5201.01855 5962.22461
5985.0 0.0001671 5198.63281 5933.79102
5805.0 0.0001723 5196.16113 5906.20898
5700.0 0.0001754 5193.59863 5879.51318
5690.0 0.0001757 5190.94727 5853.76709
5665.0 0.0001765 5188.20654 5829.02441
5738.0 0.0001743 5185.37158 5805.27393
5718.0 0.0001749 5182.44434 5782.53125
5601.0 0.0001785 5179.42627 5760.80371
5489.0 0.0001822 5176.31250 5740.04297
5598.0 0.0001786 5173.10547 5720.23438
5611.0 0.0001782 5169.80615 5701.34570
5699.0 0.0001755 5166.40918 5683.29297
5618.0 0.0001780 5162.91895 5666.05908
5556.0 0.0001800 5159.33447 5649.57910
5547.0 0.0001803 5155.65381 5633.79639
5448.0 0.0001836 5151.88184 5618.67480
5547.0 0.0001803 5148.01465 5604.17285
5383.0 0.0001858 5144.05225 5590.24512
5558.0 0.0001799 5139.99902 5576.89209
5532.0 0.0001808 5135.85498 5564.08105
5377.0 0.0001860 5131.61719 5551.79688
5430.0 0.0001842 5127.29053 5540.04199
5389.0 0.0001856 5122.87549 5528.82275
5414.0 0.0001847 5118.37256 5518.14063
5407.0 0.0001849 5113.78223 5507.99268
5445.0 0.0001837 5109.10938 5498.40918
5396.0 0.0001853 5104.35547 5489.35742
5414.0 0.0001847 5099.51758 5480.89893
5482.0 0.0001824 5094.60254 5473.02295
5482.0 0.0001824 5089.61328 5465.74023
5469.0 0.0001828 5084.54639 5459.05518
5386.0 0.0001857 5079.41016 5452.98779
5377.0 0.0001860 5074.20508 5447.54736
5280.0 0.0001894 5068.93213 5442.73535
5403.0 0.0001851 5063.59863 5438.55469
5448.0 0.0001836 5058.20752 5435.02686
5419.0 0.0001845 5052.75586 5432.12207
5423.0 0.0001844 5047.25342 5429.83887
5385.0 0.0001857 5041.70166 5427.75195
5246.0 0.0001906 5036.10205 5426.63232
5305.0 0.0001885 5030.46582 5426.03613
5379.0 0.0001859 5024.78760 5425.92334
5274.0 0.0001896 5019.08008 5426.23242
5343.0 0.0001872 5013.33984 5426.88770
5417.0 0.0001846 5007.57666 5427.81885
5280.0 0.0001894 5001.79639 5428.74121
5323.0 0.0001879 4995.99658 5429.96973
5405.0 0.0001850 4990.18652 5431.20557
5415.0 0.0001847 4984.37598 5432.35693
5296.0 0.0001888 4978.56055 5433.35400
5282.0 0.0001893 4972.75244 5434.10498
5395.0 0.0001854 4966.95703 5434.58252
5423.0 0.0001844 4961.17334 5434.74316
5304.0 0.0001885 4955.41260 5434.57422
5423.0 0.0001844 4949.67920 5434.08057
5463.0 0.0001830 4943.97656 5433.30518
5408.0 0.0001849 4938.31641 5432.29395
5472.0 0.0001827 4932.69824 5431.10889
5301.0 0.0001886 4927.12842 5429.85010
5413.0 0.0001847 4921.61670 5428.59277
5308.0 0.0001884 4916.16650 5427.43848
5475.0 0.0001826 4910.78711 5426.48486
5453.0 0.0001834 4905.47754 5425.84033
5400.0 0.0001852 4900.24756 5425.61133
5344.0 0.0001871 4895.10840 5425.91943
5442.0 0.0001838 4890.05713 5426.87744
5411.0 0.0001848 4885.10645 5428.58350
5442.0 0.0001838 4880.26123 5431.17920
5506.0 0.0001816 4875.52295 5434.75049
5524.0 0.0001810 4870.90137 5439.41553
5505.0 0.0001817 4866.40479 5445.24805
5645.0 0.0001771 4862.03271 5452.33447
5561.0 0.0001798 4857.79736 5460.73975
5395.0 0.0001854 4853.69971 5470.49219
5543.0 0.0001804 4849.74512 5481.65967
5595.0 0.0001787 4845.94238 5494.21338
5551.0 0.0001801 4842.29639 5508.17578
5453.0 0.0001834 4838.80859 5523.51025
5592.0 0.0001788 4835.48730 5540.14844
5647.0 0.0001771 4832.33691 5558.03418
5795.0 0.0001726 4829.36035 5577.08789
5599.0 0.0001786 4826.56494 5597.17480
5675.0 0.0001762 4823.95313 5618.16992
5750.0 0.0001739 4821.53027 5639.92236
5649.0 0.0001770 4819.29785 5662.29395
5659.0 0.0001767 4817.26172 5685.08252
5622.0 0.0001779 4815.42432 5708.09521
5692.0 0.0001757 4813.78857 5731.17334
5701.0 0.0001754 4812.35889 5754.11377
5765.0 0.0001735 4811.13672 5776.76318
5845.0 0.0001711 4810.12402 5799.00098
5839.0 0.0001713 4809.32324 5820.69092
5914.0 0.0001691 4808.73682 5841.78516
5953.0 0.0001680 4808.36475 5862.26758
5746.0 0.0001740 4808.20947 5882.14551
5761.0 0.0001736 4808.27051 5901.47168
5947.0 0.0001682 4808.54932 5920.34424
5880.0 0.0001701 4809.04541 5938.85986
6057.0 0.0001651 4809.75830 5957.16064
5983.0 0.0001671 4810.68799 5975.38867
5980.0 0.0001672 4811.83301 5993.68213
5912.0 0.0001691 4813.19189 6012.22021
6072.0 0.0001647 4814.76221 6031.15918
6064.0 0.0001649 4816.54395 6050.69287
5976.0 0.0001673 4818.53320 6070.98291
6073.0 0.0001647 4820.72559 6092.20020
6021.0 0.0001661 4823.12061 6114.55713
6041.0 0.0001655 4825.71240 6138.19922
6046.0 0.0001654 4828.49658 6163.28418
6065.0 0.0001649 4831.47168 6189.93652
6125.0 0.0001633 4834.63086 6218.26807
6125.0 0.0001633 4837.96582 6248.31592
6128.0 0.0001632 4841.47705 6280.14258
6115.0 0.0001635 4845.15234 6313.67090
6075.0 0.0001646 4848.98975 6348.83057
6167.0 0.0001622 4852.98242 6385.52832
6256.0 0.0001598 4857.12012 6423.52637
6203.0 0.0001612 4861.39746 6462.62354
6330.0 0.0001580 4865.80811 6502.54346
6386.0 0.0001566 4870.33887 6542.91504
6245.0 0.0001601 4874.98584 6583.34619
6317.0 0.0001583 4879.74121 6623.46826
6502.0 0.0001538 4884.59229 6662.77686
6407.0 0.0001561 4889.53125 6700.82861
6565.0 0.0001523 4894.54688 6737.14600
6399.0 0.0001563 4899.63525 6771.36084
6492.0 0.0001540 4904.78271 6803.07666
6668.0 0.0001500 4909.97510 6831.96094
6436.0 0.0001554 4915.20996 6857.85986
6563.0 0.0001524 4920.47119 6880.59082
6638.0 0.0001506 4925.74805 6900.11816
6606.0 0.0001514 4931.03613 6916.47900
6565.0 0.0001523 4936.31836 6929.74170
6669.0 0.0001499 4941.58691 6940.04785
6650.0 0.0001504 4946.83252 6947.55273
6847.0 0.0001460 4952.03857 6952.42773
6814.0 0.0001468 4957.20117 6954.86719
6853.0 0.0001459 4962.30859 6955.07275
6947.0 0.0001439 4967.34766 6953.22217
6728.0 0.0001486 4972.30811 6949.54248
6982.0 0.0001432 4977.18506 6944.24072
6823.0 0.0001466 4981.96338 6937.53369
6777.0 0.0001476 4986.63770 6929.63135
6894.0 0.0001451 4991.19385 6920.76172
6861.0 0.0001458 4995.62891 6911.08594
7055.0 0.0001417 4999.93018 6900.78320
6843.0 0.0001461 5004.08936 6889.99561
6935.0 0.0001442 5008.10400 6878.77783
7029.0 0.0001423 5011.96240 6867.17920
6948.0 0.0001439 5015.65820 6855.18408
7095.0 0.0001409 5019.18994 6842.73535
6992.0 0.0001430 5022.54883 6829.74023
7041.0 0.0001420 5025.72852 6816.08398
7015.0 0.0001426 5028.72998 6801.57764
6846.0 0.0001461 5031.54590 6786.10791
6911.0 0.0001447 5034.17480 6769.51465
6876.0 0.0001454 5036.61719 6751.66992
6766.0 0.0001478 5038.87012 6732.48242
6925.0 0.0001444 5040.93408 6711.89893
6783.0 0.0001474 5042.81152 6689.90283
6779.0 0.0001475 5044.50195 6666.54932
6827.0 0.0001465 5046.00928 6641.91992
6673.0 0.0001499 5047.33691 6616.14795
6710.0 0.0001490 5048.49072 6589.36230
6730.0 0.0001486 5049.47559 6561.76318
6611.0 0.0001513 5050.29785 6533.54688
6608.0 0.0001513 5050.96680 6504.89648
6623.0 0.0001510 5051.49023 6476.02686
6475.0 0.0001544 5051.87744 6447.16162
6497.0 0.0001539 5052.14063 6418.47510
6527.0 0.0001532 5052.29102 6390.21191
6365.0 0.0001571 5052.34131 6362.59570
6372.0 0.0001569 5052.30664 6335.82275
6218.0 0.0001608 5052.20068 6310.11621
6217.0 0.0001608 5052.04004 6285.67236
6123.0 0.0001633 5051.84131 6262.67432
6361.0 0.0001572 5051.62256 6241.30371
6257.0 0.0001598 5051.40186 6221.68896
6094.0 0.0001641 5051.19971 6203.93896
6109.0 0.0001637 5051.03564 6188.13379
5997.0 0.0001668 5050.93066 6174.31641
5961.0 0.0001678 5050.90674 6162.45850
6149.0 0.0001626 5050.98584 6152.53906
6002.0 0.0001666 5051.19043 6144.47803
5983.0 0.0001671 5051.54443 6138.14844
6064.0 0.0001649 5052.07031 6133.39258
6048.0 0.0001653 5052.79248 6130.03760
5976.0 0.0001673 5053.73389 6127.87061
6030.0 0.0001658 5054.91992 6126.63818
6031.0 0.0001658 5056.37354 6126.12744
6009.0 0.0001664 5058.11670 6126.06543
6164.0 0.0001622 5060.17480 6126.20850
6144.0 0.0001628 5062.56934 6126.34277
6111.0 0.0001636 5065.32080 6126.24902
5932.0 0.0001686 5068.45459 6125.74707
6060.0 0.0001650 5071.98633 6124.69775
6060.0 0.0001650 5075.93750 6122.99463
6124.0 0.0001633 5080.32666 6120.55322
6051.0 0.0001653 5085.16504 6117.33936
6240.0 0.0001603 5090.47314 6113.33789
6201.0 0.0001613 5096.26367 6108.54834
6067.0 0.0001648 5102.54297 6103.01025
6114.0 0.0001636 5109.32178 6096.75000
6023.0 0.0001660 5116.60400 6089.84473
6205.0 0.0001612 5124.40137 6082.34033
6092.0 0.0001641 5132.70654 6074.32666
5960.0 0.0001678 5141.51953 6065.90332
6135.0 0.0001630 5150.84033 6057.13965
6127.0 0.0001632 5160.65234 6048.16309
6064.0 0.0001649 5170.94336 6039.09326
6149.0 0.0001626 5181.71045 6030.03516
6190.0 0.0001616 5192.92236 6021.10742
6076.0 0.0001646 5204.55566 6012.43408
5955.0 0.0001679 5216.59717 6004.09619
6043.0 0.0001655 5229.00195 5996.23145
5975.0 0.0001674 5241.74023 5988.90088
5984.0 0.0001671 5254.77783 5982.17725
6000.0 0.0001667 5268.06152 5976.12549
5978.0 0.0001673 5281.54395 5970.76465
5939.0 0.0001684 5295.18896 5966.15234
5791.0 0.0001727 5308.92676 5962.28418
5920.0 0.0001689 5322.70313 5959.17969
5928.0 0.0001687 5336.46045 5956.80322
5914.0 0.0001691 5350.11816 5955.15430
6010.0 0.0001664 5363.62744 5954.20605
5974.0 0.0001674 5376.89795 5953.91211
5778.0 0.0001731 5389.87500 5954.23291
5883.0 0.0001700 5402.46973 5955.11377
5850.0 0.0001709 5414.60742 5956.49902
5985.0 0.0001671 5426.22510 5958.32227
5824.0 0.0001717 5437.23877 5960.50586
5819.0 0.0001719 5447.56787 5962.97998
5913.0 0.0001691 5457.15723 5965.68164
5901.0 0.0001695 5465.92969 5968.51953
5955.0 0.0001679 5473.82520 5971.42236
5857.0 0.0001707 5480.79834 5974.34717
5952.0 0.0001680 5486.79590 5977.21436
5879.0 0.0001701 5491.78613 5979.98584
5857.0 0.0001707 5495.74902 5982.62793
5887.0 0.0001699 5498.67383 5985.04004
5941.0 0.0001683 5500.57568 5987.39941
5964.0 0.0001677 5501.48486 5989.64990
6024.0 0.0001660 5501.45557 5991.84521
5917.0 0.0001690 5500.57031 5994.06299
6058.0 0.0001651 5498.94141 5996.42383
5851.0 0.0001709 5496.71436 5999.08350
5973.0 0.0001674 5494.07471 6002.20410
5995.0 0.0001668 5491.25342 6006.09229
5997.0 0.0001668 5488.52441 6011.01758
5995.0 0.0001668 5486.22119 6017.32471
6113.0 0.0001636 5484.73486 6025.41992
5941.0 0.0001683 5484.52002 6035.78320
5870.0 0.0001704 5486.11084 6048.96973
5868.0 0.0001704 5490.11328 6065.60596
6025.0 . . .
6048.0 . . .
6043.0 . . .
6091.0 . . .
6139.0 . . .
6021.0 . . .
5917.0 . . .
6143.0 . . .
6192.0 . . .
6189.0 . . .
6085.0 . . .
6136.0 . . .
6153.0 . . .
6173.0 . . .
6209.0 . . .
6226.0 . . .
6279.0 . . .
6455.0 . . .
6476.0 . . .
6377.0 . . .
6425.0 . . .
6603.0 . . .
6525.0 . . .
6505.0 . . .
6587.0 . . .
6628.0 . . .
6638.0 . . .
6667.0 . . .
6755.0 . . .
6814.0 . . .
6699.0 . . .
6752.0 . . .
6776.0 . . .
6828.0 . . .
6741.0 . . .
6638.0 . . .
6733.0 . . .
6776.0 . . .
6732.0 . . .
6600.0 . . .
6685.0 . . .
6533.0 . . .
5938.0 . . .
6711.0 . . .
6586.0 . . .
6447.0 . . .
6549.0 . . .
6515.0 . . .
6398.0 . . .
6512.0 . . .
6351.0 . . .
6459.0 . . .
6415.0 . . .
6457.0 . . .
6379.0 . . .
6337.0 . . .
6262.0 . . .
6340.0 . . .
6387.0 . . .
6395.0 . . .
6270.0 . . .
6209.0 . . .
6436.0 . . .
6285.0 . . .
6329.0 . . .
6420.0 . . .
6250.0 . . .
6552.0 . . .
6636.0 . . .
6650.0 . . .
6589.0 . . .
6618.0 . . .
6820.0 . . .
6971.0 . . .
6800.0 . . .
6854.0 . . .
7082.0 . . .
7105.0 . . .
7375.0 . . .
7410.0 . . .
7621.0 . . .
7734.0 . . .
7822.0 . . .
7881.0 . . .
8348.0 . . .
8410.0 . . .
8636.0 . . .
8927.0 . . .
9134.0 . . .
9533.0 . . .
10201.0 . . .
10703.0 . . .
11854.0 . . .
12995.0 . . .
14596.0 . . .
16687.0 . . .
19405.0 . . .
22782.0 . . .
26943.0 . . .
31412.0 . . .
35721.0 . . .
39037.0 . . .
41780.0 . . .
42777.0 . . .
41085.0 . . .
38657.0 . . .
35318.0 . . .
31874.0 . . .
28934.0 . . .
27299.0 . . .
26311.0 . . .
25790.0 . . .
26450.0 . . .
27163.0 . . .
27688.0 . . .
27312.0 . . .
26612.0 . . .
24918.0 . . .
22731.0 . . .
20201.0 . . .
17986.0 . . .
15816.0 . . .
14379.0 . . .
12919.0 . . .
11927.0 . . .
11059.0 . . .
10554.0 . . .
10091.0 . . .
9760.0 . . .
9380.0 . . .
9360.0 . . .
8860.0 . . .
8764.0 . . .
8614.0 . . .
8460.0 . . .
8314.0 . . .
8300.0 . . .
8094.0 . . .
8072.0 . . .
7911.0 . . .
7839.0 . . .
7762.0 . . .
7911.0 . . .
7813.0 . . .
7769.0 . . .
7606.0 . . .
7676.0 . . .
7573.0 . . .
7799.0 . . .
7662.0 . . .
7555.0 . . .
7513.0 . . .
7471.0 . . .
7654.0 . . .
7688.0 . . .
7576.0 . . .
7971.0 . . .
7709.0 . . .
7588.0 . . .
7642.0 . . .
7626.0 . . .
7659.0 . . .
7651.0 . . .
7722.0 . . .
7505.0 . . .
7626.0 . . .
7653.0 . . .
7408.0 . . .
7502.0 . . .
7365.0 . . .
7553.0 . . .
7448.0 . . .
7403.0 . . .
7338.0 . . .
7435.0 . . .
7281.0 . . .
7380.0 . . .
7288.0 . . .
7151.0 . . .
7096.0 . . .
7114.0 . . .
7033.0 . . .
7033.0 . . .
7146.0 . . .
6960.0 . . .
7041.0 . . .
6969.0 . . .
7006.0 . . .
7043.0 . . .
6973.0 . . .
7049.0 . . .
7030.0 . . .
6913.0 . . .
6831.0 . . .
6897.0 . . .
6786.0 . . .
6887.0 . . .
6814.0 . . .
6929.0 . . .
6806.0 . . .
6921.0 . . .
6896.0 . . .
6849.0 . . .
6803.0 . . .
6778.0 . . .
6854.0 . . .
6773.0 . . .
7074.0 . . .
6944.0 . . .
6734.0 . . .
6733.0 . . .
6893.0 . . .
6738.0 . . .
6840.0 . . .
6791.0 . . .
6707.0 . . .
6916.0 . . .
6696.0 . . .
6798.0 . . .
6686.0 . . .
6622.0 . . .
6646.0 . . .
6603.0 . . .
6798.0 . . .
6611.0 . . .
6690.0 . . .
6545.0 . . .
6357.0 . . .
6386.0 . . .
6458.0 . . .
6319.0 . . .
6402.0 . . .
6247.0 . . .
6445.0 . . .
6338.0 . . .
6266.0 . . .
6295.0 . . .
6273.0 . . .
6130.0 . . .
6309.0 . . .
6183.0 . . .
6091.0 . . .
6334.0 . . .
6060.0 . . .
6169.0 . . .
6151.0 . . .
6144.0 . . .
loop_
_gsas_i100_meas
37.89
18.82
28.90
14.48
0.17
0.09
1.66
0.83
16.85
8.39
9.28
4.54
0.15
0.07
0.41
0.21
1.47
0.74
4.80
2.44
0.16
0.08
7.50
3.74
1.61
0.81
5.40
23.24
2.68
11.54
9.12
4.58
1.16
0.57
0.74
0.37
100.00
49.90
1.94
37.49
18.58
28.30
14.04
0.00
0.00
3.89
0.59
0.30
1.54
0.81
0.04
4.06
0.02
3.06
1.90
19.34
1.46
9.38
0.30
0.14
18.60
1.98
9.33
0.95
5.73
2.87
0.22
0.11
1.38
0.69
1.36
0.69
12.54
6.39
0.97
16.87
0.49
8.56
0.83
0.41
0.11
0.05
1.99
0.99
0.73
0.37
0.84
0.43
2.68
1.38
3.92
1.83
0.04
0.02
0.46
1.35
0.23
5.13
0.12
2.48
0.06
2.66
0.80
0.38
0.01
0.00
29.41
1.86
1.38
14.82
0.94
0.70
0.57
0.29
3.62
1.90
0.73
0.08
0.39
0.04
6.03
2.99
1.29
0.32
0.65
0.08
0.91
0.16
0.48
0.04
0.46
0.24
0.97
0.47
20.72
0.20
10.14
0.10
0.10
0.61
0.05
0.30
0.86
0.42
0.63
0.00
0.31
0.00
0.79
0.39
0.41
0.02
0.29
0.20
0.01
0.15
0.29
4.47
0.15
2.25
0.00
0.00
8.73
0.24
4.34
0.12
0.12
0.06
0.26
1.88
0.13
0.93
2.00
0.41
1.02
5.63
8.06
0.21
2.83
4.03
1.21
3.87
0.60
2.58
1.92
1.27
2.08
7.67
0.03
1.02
3.72
0.04
0.75
0.02
0.41
0.37
0.20
0.28
0.14
0.06
0.87
0.17
0.45
0.09
0.22
2.39
0.11
1.15
0.00
0.00
0.75
0.39
0.17
0.09
0.10
0.05
0.29
0.11
0.06
0.14
0.66
1.87
0.03
0.41
0.13
0.15
0.94
0.31
0.86
0.19
0.06
0.08
4.76
0.44
2.41
0.00
0.01
1.01
0.58
0.00
0.01
0.22
0.51
0.28
0.41
0.16
0.01
0.21
0.08
1.31
0.00
0.07
4.87
0.65
0.04
2.43
0.01
0.00
0.00
0.09
0.00
0.05
0.00
0.34
1.10
0.00
0.18
0.12
0.61
0.56
0.47
0.06
0.30
0.01
0.04
0.53
1.34
0.21
0.60
0.02
0.23
0.59
0.78
0.30
0.11
1.01
0.39
0.08
0.01
0.06
0.11
0.48
0.04
0.00
0.05
0.02
0.00
0.16
0.28
0.00
0.08
0.15
0.23
0.10
0.07
1.22
0.03
0.55
0.07
0.07
0.04
0.04
0.92
0.46
0.45
0.45
0.04
0.00
0.47
0.23
0.22
0.23
0.02
0.36
0.18
3.95
1.95
1.00
0.01
0.52
0.20
0.01
0.07
0.11
0.45
1.86
0.10
0.01
0.03
0.05
0.57
0.22
0.90
0.28
0.37
0.13
5.12
0.19
0.34
0.07
2.63
0.41
0.18
0.62
0.14
0.22
0.50
0.60
0.74
0.07
0.21
0.32
0.14
0.11
0.32
3.58
0.37
0.03
0.29
0.07
0.16
1.77
0.14
0.15
0.19
0.29
0.07
0.04
1.01
1.20
