#------------------------------------------------------------------------------
#$Date: 2020-03-05 02:06:21 +0200 (Thu, 05 Mar 2020) $
#$Revision: 248937 $
#$URL: file:///home/coder/svn-repositories/cod/cif/7/70/32/7703222.cif $
#------------------------------------------------------------------------------
#
# This file is available in the Crystallography Open Database (COD),
# http://www.crystallography.net/
#
# All data on this site have been placed in the public domain by the
# contributors.
#
data_7703222
loop_
_publ_author_name
'Cui, Chun-Xiao'
'Zhang, Jie'
'Qiu, Zaozao'
'Xie, Zuowei'
_publ_section_title
;
 Palladium-catalyzed intramolecular dehydrogenative coupling of BH and OH:
 synthesis of carborane-fused benzoxaboroles.
;
_journal_issue                   5
_journal_name_full
'Dalton transactions (Cambridge, England : 2003)'
_journal_page_first              1380
_journal_page_last               1383
_journal_paper_doi               10.1039/c9dt04553h
_journal_volume                  49
_journal_year                    2020
_chemical_formula_moiety         'C9 H16 B10 O'
_chemical_formula_sum            'C9 H16 B10 O'
_chemical_formula_weight         248.47
_space_group_crystal_system      triclinic
_space_group_IT_number           2
_space_group_name_Hall           '-P 1'
_space_group_name_H-M_alt        'P -1'
_symmetry_Int_Tables_number      2
_audit_creation_date             2018-10-17
_audit_creation_method
;
Olex2 1.2
(compiled 2017.08.10 svn.r3458 for OlexSys, GUI svn.r5381)
;
_audit_update_record
;
2019-10-28 deposited with the CCDC.	2020-01-03 downloaded from the CCDC.
;
_cell_angle_alpha                83.442(3)
_cell_angle_beta                 89.351(3)
_cell_angle_gamma                67.197(3)
_cell_formula_units_Z            2
_cell_length_a                   6.6777(10)
_cell_length_b                   7.7245(11)
_cell_length_c                   14.170(2)
_cell_measurement_reflns_used    1112
_cell_measurement_temperature    130
_cell_measurement_theta_max      29.76
_cell_measurement_theta_min      2.88
_cell_volume                     668.95(17)
_computing_cell_refinement       'SAINT v7.68A (Bruker, 2009)'
_computing_data_reduction        'SAINT v7.68A (Bruker, 2009)'
_computing_molecular_graphics    'Olex2 (Dolomanov et al., 2009)'
_computing_publication_material  'Olex2 (Dolomanov et al., 2009)'
_computing_structure_refinement  'olex2.refine (Bourhis et al., 2015)'
_computing_structure_solution    'ShelXT (Sheldrick, 2015)'
_diffrn_ambient_temperature      130.0
_diffrn_measured_fraction_theta_full 0.9996
_diffrn_measured_fraction_theta_max 0.9875
_diffrn_measurement_device_type  'Bruker APEX-II CCD'
_diffrn_measurement_method       '\f and \w scans'
_diffrn_radiation_monochromator  graphite
_diffrn_radiation_type           'Mo K\a'
_diffrn_radiation_wavelength     0.71073
_diffrn_reflns_av_R_equivalents  0.0388
_diffrn_reflns_av_unetI/netI     0.0875
_diffrn_reflns_limit_h_max       9
_diffrn_reflns_limit_h_min       -9
_diffrn_reflns_limit_k_max       11
_diffrn_reflns_limit_k_min       -8
_diffrn_reflns_limit_l_max       20
_diffrn_reflns_limit_l_min       -20
_diffrn_reflns_number            6776
_diffrn_reflns_theta_full        26.0000
_diffrn_reflns_theta_max         30.49
_diffrn_reflns_theta_min         2.88
_diffrn_standards_number         0
_exptl_absorpt_coefficient_mu    0.063
_exptl_absorpt_correction_T_max  0.7461
_exptl_absorpt_correction_T_min  0.6758
_exptl_absorpt_correction_type   multi-scan
_exptl_absorpt_process_details
;
SADABS-2008/1 (Bruker,2008) was used for absorption correction.
wR2(int) was 0.0461 before and 0.0362 after correction.
The Ratio of minimum to maximum transmission is 0.9058.
The \l/2 correction factor is 0.0015.
;
_exptl_crystal_colour            colourless
_exptl_crystal_colour_primary    colourless
_exptl_crystal_density_diffrn    1.2328
_exptl_crystal_description       block
_exptl_crystal_F_000             256.0687
_exptl_crystal_size_max          0.11
_exptl_crystal_size_mid          0.1
_exptl_crystal_size_min          0.05
_refine_diff_density_max         0.4864
_refine_diff_density_min         -0.5299
_refine_diff_density_rms         0.1182
_refine_ls_d_res_high            0.7003
_refine_ls_d_res_low             7.0701
_refine_ls_goodness_of_fit_ref   1.0572
_refine_ls_hydrogen_treatment    constr
_refine_ls_matrix_type           full
_refine_ls_number_constraints    30
_refine_ls_number_parameters     182
_refine_ls_number_reflns         4034
_refine_ls_number_restraints     0
_refine_ls_restrained_S_all      1.0572
_refine_ls_R_factor_all          0.1194
_refine_ls_R_factor_gt           0.0569
_refine_ls_shift/su_max          0.0000
_refine_ls_shift/su_mean         0.0000
_refine_ls_structure_factor_coef Fsqd
_refine_ls_weighting_details
'w=1/[\s^2^(Fo^2^)+(0.0745P)^2^] where P=(Fo^2^+2Fc^2^)/3'
_refine_ls_weighting_scheme      calc
_refine_ls_wR_factor_gt          0.1326
_refine_ls_wR_factor_ref         0.1660
_reflns_Friedel_coverage         0.0
_reflns_limit_h_max              9
_reflns_limit_h_min              -9
_reflns_limit_k_max              11
_reflns_limit_k_min              -10
_reflns_limit_l_max              20
_reflns_limit_l_min              0
_reflns_number_gt                2321
_reflns_number_total             4034
_reflns_threshold_expression     I>=2u(I)
_iucr_refine_instructions_details
;
TITL mo_dm16554_0m_a.res in P-1
REM Old TITL mo_dm16554_0m in P-1
REM SHELXT solution in P-1
REM R1 0.144, Rweak 0.004, Alpha 0.030, Orientation as input
REM Formula found by SHELXT: C10 B8 O
CELL 0.71073 6.6777 7.7245 14.1701 83.442 89.351 67.197
ZERR 2 0.001 0.0011 0.0021 0.003 0.003 0.003
LATT 1
SFAC C H B O
UNIT 18 32 20 2

L.S. 4
PLAN  20
SIZE 0.05 0.1 0.11
TEMP -143.15
BOND $H
list 4
fmap 2 53
MORE -1
ACTA 52
CONF 
WGHT 0.074459 0
FVAR 1.259015
REM <olex2.extras>
REM <HklSrc "%.\\mo_dm16554_0m.hkl">
REM </olex2.extras>

O1    4    -0.03830  0.46444  0.31131  11.00000  0.01571  0.02332  0.02359 =
 -0.00874  0.00330 -0.00817 
C1    1     0.35393  0.38237  0.27254  11.00000  0.01354  0.01994  0.01696 =
 -0.00190 -0.00013 -0.00623 
C2    1     0.22196  0.45715  0.16568  11.00000  0.01838  0.02038  0.01855 =
 -0.00240  0.00067 -0.00674 
C3    1     0.09124  0.66714  0.14046  11.00000  0.02892  0.02144  0.02284 =
 0.00118 -0.00253 -0.00551 
AFIX 137
H3a   2    -0.05534  0.69991  0.16470  11.00000 -1.50000 
H3b   2     0.16278  0.73878  0.16915  11.00000 -1.50000 
H3c   2     0.08178  0.69848  0.07122  11.00000 -1.50000 
AFIX 0
C4    1     0.27422  0.52654  0.33970  11.00000  0.01785  0.01691  0.01676 =
 -0.00226 -0.00006 -0.00494 
C5    1     0.38595  0.61369  0.38479  11.00000  0.01979  0.02099  0.02255 =
 -0.00034 -0.00229 -0.00831 
AFIX 43
H5    2     0.53329  0.59040  0.37144  11.00000 -1.20000 
AFIX 0
C6    1     0.27714  0.73597  0.45002  11.00000  0.03034  0.02353  0.02319 =
 -0.00425 -0.00027 -0.01440 
AFIX 43
H6    2     0.35083  0.79723  0.48176  11.00000 -1.20000 
AFIX 0
C7    1     0.06097  0.76989  0.46947  11.00000  0.03193  0.01768  0.02157 =
 -0.00503  0.00459 -0.00891 
AFIX 43
H7    2    -0.00953  0.85221  0.51527  11.00000 -1.20000 
AFIX 0
C8    1    -0.05338  0.68574  0.42325  11.00000  0.02041  0.02100  0.02308 =
 -0.00321  0.00365 -0.00702 
AFIX 43
H8    2    -0.20194  0.71212  0.43533  11.00000 -1.20000 
AFIX 0
C9    1     0.05584  0.56234  0.35908  11.00000  0.01751  0.01865  0.01965 =
 -0.00297 -0.00012 -0.00723 
B6    3     0.12162  0.34132  0.25678  11.00000  0.01426  0.02059  0.01970 =
 -0.00288  0.00084 -0.00683 
B5    3     0.36009  0.16451  0.31704  11.00000  0.01799  0.01652  0.02161 =
 -0.00183  0.00119 -0.00584 
AFIX 153
H5a   2     0.36181  0.11302  0.39431  11.00000 -1.20000 
AFIX 0
B4    3     0.59069  0.19354  0.26686  11.00000  0.01394  0.02237  0.02400 =
 -0.00380  0.00127 -0.00432 
AFIX 153
H4    2     0.74146  0.16294  0.31087  11.00000 -1.20000 
AFIX 0
B3    3     0.50043  0.38353  0.17264  11.00000  0.01775  0.02365  0.02205 =
 -0.00352  0.00569 -0.00773 
AFIX 153
H3    2     0.58952  0.47900  0.15510  11.00000 -1.20000 
AFIX 0
B10   3     0.12564  0.29652  0.13639  11.00000  0.02046  0.02335  0.01917 =
 -0.00613  0.00043 -0.00784 
AFIX 153
H10   2    -0.02881  0.33414  0.09379  11.00000 -1.20000 
AFIX 0
B9    3     0.21450  0.10550  0.23066  11.00000  0.01814  0.02060  0.02425 =
 -0.00635  0.00344 -0.00789 
AFIX 153
H9    2     0.11955  0.01549  0.24994  11.00000 -1.20000 
AFIX 0
B8    3     0.50786  0.01213  0.23591  11.00000  0.01841  0.01917  0.02491 =
 -0.00333  0.00278 -0.00450 
AFIX 153
H8a   2     0.60683 -0.14141  0.25813  11.00000 -1.20000 
AFIX 0
B7    3     0.59739  0.14629  0.14659  11.00000  0.01975  0.02218  0.02373 =
 -0.00376  0.00446 -0.00646 
AFIX 153
H7a   2     0.75476  0.08186  0.11048  11.00000 -1.20000 
AFIX 0
B11   3     0.36243  0.31779  0.08471  11.00000  0.02220  0.02494  0.01918 =
 -0.00594  0.00457 -0.00679 
AFIX 153
H11   2     0.36461  0.36706  0.00738  11.00000 -1.20000 
AFIX 0
B12   3     0.36361  0.09108  0.12424  11.00000  0.02078  0.02284  0.02243 =
 -0.00699  0.00337 -0.00724 
AFIX 153
H12   2     0.36676 -0.01045  0.07323  11.00000 -1.20000 
AFIX 0
HKLF 4

END
Q1 1 0.708333 0.222222 0.314815 11 0.05 0.49
Q2 1 0.208333 0.518519 0.37037 11 0.05 0.49
Q3 1 0.333333 0.444444 0.296296 11 0.05 0.47
Q4 1 0.333333 0.703704 0.407407 11 0.05 0.45
Q5 1 0.5 0.481481 0.148148 11 0.05 0.44
Q6 1 0.291667 0.185185 0.388889 11 0.05 0.43
Q7 1 0.25 0.222222 0.296296 11 0.05 0.43
Q8 1 0.083333 0.666667 0.148148 11 0.05 0.42
Q9 1 0 0.62963 0.388889 11 0.05 0.41
Q10 1 0.083333 0.777778 0.555556 11 0.05 0.38
Q11 1 0.166667 0.518519 0.185185 11 0.05 0.38
Q12 1 0 0.740741 0.444444 11 0.05 0.37
Q13 1 0.25 -0.111111 0.037037 11 0.05 0.37
Q14 1 0.75 0.296296 0.240741 11 0.05 0.37
Q15 1 0.208333 0.185185 0.185185 11 0.05 0.37
Q16 1 0.458333 0.185185 0.296296 11 0.05 0.37
Q17 1 -0.083333 0.62963 0.055556 11 0.05 0.36
Q18 1 -0.333333 0.37037 0.333333 11 0.05 0.35
Q19 1 -0.041667 0.407407 0.074074 11 0.05 0.35
Q20 1 0.5 0.777778 0.481481 11 0.05 0.35

  REM The information below was added by Olex2.
  REM
  REM R1 = 0.0569 for 2321 Fo > 4sig(Fo) and 0.1194 for all 4034 data
  REM 182 parameters refined using 0 restraints
  REM Highest difference peak 0.4864, deepest hole -0.5299
  REM Mean Shift 0.0000, Max Shift 0.0000.

  REM +++ Tabular Listing of Refinement Information +++
  REM R1_all = 0.1194
  REM R1_gt = 0.0569
  REM wR_ref = 0.1660
  REM GOOF = 1.0572
  REM Shift_max = 0.0000
  REM Shift_mean = 0.0000
  REM Reflections_all = 4034
  REM Reflections_gt = 2321
  REM Parameters = 182
  REM Hole = -0.5299
  REM Peak = 0.4864
  REM Flack = n/a

  
;
_cod_data_source_file            c9dt04553h2.cif
_cod_data_source_block           2b
_cod_depositor_comments
'Adding full bibliography for 7703222--7703226.cif.'
_cod_database_code               7703222
_olex2_refinement_description
;
1. Fixed Uiso
 At 1.2 times of:
  All B(H) groups, All C(H) groups
 At 1.5 times of:
  All C(H,H,H) groups
2.a Aromatic/amide H refined with riding coordinates:
 C5(H5), C6(H6), C7(H7), C8(H8)
2.b Idealised Me refined as rotating group:
 C3(H3a,H3b,H3c)
2.c Boron cage BH refined with riding coordinates:
 B5(H5a), B4(H4), B3(H3), B10(H10), B9(H9), B8(H8a), B7(H7a), B11(H11), B12(H12)
;
_iucr_refine_fcf_details
;
data_mo_dm16554_0m
_computing_structure_refinement   'olex2.refine (Bourhis et al., 2015)'
_shelx_refln_list_code            4
loop_
  _space_group_symop_id
  _space_group_symop_operation_xyz
  1  x,y,z
  2  -x,-y,-z

_space_group_crystal_system       triclinic
_space_group_IT_number            2
_space_group_name_H-M_alt         'P -1'
_space_group_name_Hall            '-P 1'
_symmetry_space_group_name_H-M    'P -1'
_symmetry_space_group_name_Hall   '-P 1'
_symmetry_Int_Tables_number       2
_cell_length_a                    6.6777(10)
_cell_length_b                    7.7245(11)
_cell_length_c                    14.170(2)
_cell_angle_alpha                 83.442(3)
_cell_angle_beta                  89.351(3)
_cell_angle_gamma                 67.197(3)
_cell_volume                      668.95(17)
loop_
  _refln_index_h
  _refln_index_k
  _refln_index_l
  _refln_F_squared_calc
  _refln_F_squared_meas
  _refln_F_squared_sigma
  _refln_F_squared_weight
  _refln_observed_status
-9 -7 1 0.850 -6.309 4.731 90.752 o
-9 -6 2 7.969 15.646 5.173 74.221 o
-9 -6 3 28.130 27.190 6.056 49.594 o
-9 -6 4 0.125 -1.072 4.416 104.187 o
-9 -5 2 8.971 12.050 4.984 80.016 o
-9 -5 3 19.805 30.849 6.183 49.219 o
-9 -5 4 2.381 -1.072 4.353 107.150 o
-9 -5 5 76.853 92.542 9.337 16.316 o
-9 -4 1 6.873 7.066 4.668 92.101 o
-9 -4 2 5.220 8.012 5.047 79.117 o
-9 -4 3 0.829 -0.063 4.290 110.396 o
-9 -4 4 37.872 40.054 7.066 34.920 o
-9 -4 5 71.940 76.833 8.832 18.811 o
-9 -4 6 8.901 8.201 5.299 71.295 o
-9 -3 2 24.281 25.361 6.498 44.568 o
-9 -3 3 5.983 5.552 5.299 71.869 o
-9 -3 4 20.447 12.933 5.678 59.721 o
-9 -3 5 21.412 25.992 6.246 48.464 o
-9 -3 6 56.147 53.933 8.138 24.406 o
-9 -1 1 4.570 -1.262 5.867 58.938 o
-9 -1 2 0.381 1.830 6.056 55.389 o
-9 -1 3 77.318 91.848 9.842 15.131 o
-8 -8 1 0.196 -6.627 2.875 245.823 o
-8 -8 2 0.156 -2.716 4.258 112.048 o
-8 -8 3 0.337 1.640 4.542 98.464 o
-8 -8 4 1.790 -4.164 4.353 107.185 o
-8 -8 5 4.931 -3.344 4.479 100.972 o
-8 -7 1 20.156 25.242 3.983 109.744 o
-8 -7 2 18.376 17.238 3.768 127.060 o
-8 -7 3 3.904 3.659 4.416 103.757 o
-8 -7 4 0.186 -3.596 3.974 128.626 o
-8 -7 5 0.001 0.694 4.353 107.228 o
-8 -7 6 52.663 63.901 8.012 24.829 o
-8 -7 7 40.422 39.360 7.066 34.540 o
-8 -6 1 13.069 14.156 3.529 150.988 o
-8 -6 2 0.134 -1.352 3.785 141.810 o
-8 -6 3 29.478 29.398 5.867 51.791 o
-8 -6 4 45.409 49.138 6.940 33.738 o
-8 -6 5 4.579 6.056 4.731 90.185 o
-8 -6 6 13.283 14.825 5.362 68.158 o
-8 -6 7 0.293 0.189 4.479 101.272 o
-8 -6 8 3.696 1.325 4.290 110.126 o
-8 -5 1 42.536 47.290 4.572 64.099 o
-8 -5 2 0.244 -2.965 3.596 157.129 o
-8 -5 3 44.099 41.189 6.435 39.285 o
-8 -5 4 23.025 20.566 5.362 64.526 o
-8 -5 5 3.575 -0.505 4.227 113.527 o
-8 -5 6 60.552 65.730 7.886 24.278 o
-8 -5 7 2.189 1.956 4.605 95.689 o
-8 -5 8 93.558 100.611 9.652 14.094 o
-8 -5 9 6.085 3.911 4.795 87.778 o
-8 -4 1 126.790 142.766 6.870 14.113 o
-8 -4 2 104.248 114.364 9.211 13.632 o
-8 -4 3 4.176 3.281 4.164 116.638 o
-8 -4 4 2.904 7.760 4.731 90.302 o
-8 -4 5 58.447 62.323 7.570 26.354 o
-8 -4 6 136.631 165.962 11.103 8.392 o
-8 -4 7 148.515 159.654 11.229 7.981 o
-8 -4 8 3.085 11.229 5.236 73.606 o
-8 -4 9 90.728 95.438 9.589 14.598 o
-8 -4 10 32.319 32.609 6.750 39.536 o
-8 -3 1 73.002 67.812 7.129 25.725 o
-8 -3 2 47.139 53.807 6.750 34.394 o
-8 -3 3 31.543 20.945 5.678 55.534 o
-8 -3 4 0.130 -2.145 3.974 128.626 o
-8 -3 5 12.479 21.891 5.552 63.154 o
-8 -3 6 2.792 4.101 4.164 116.810 o
-8 -3 7 0.269 -0.189 4.416 104.187 o
-8 -3 8 87.881 82.827 8.958 16.731 o
-8 -3 9 3.673 3.344 4.731 90.475 o
-8 -3 10 7.829 5.362 5.047 78.925 o
-8 -2 1 3.417 -1.956 4.479 101.128 o
-8 -2 2 7.327 10.188 3.569 154.913 o
-8 -2 3 25.348 25.422 4.101 99.657 o
-8 -2 4 39.093 43.761 4.684 65.332 o
-8 -2 5 0.148 -1.325 4.101 120.833 o
-8 -2 6 0.008 -2.902 4.290 110.406 o
-8 -2 7 0.090 0.252 4.605 95.800 o
-8 -2 8 1.355 1.830 4.858 86.059 o
-8 -2 9 22.011 20.314 6.183 49.833 o
-8 -2 10 2.115 -2.271 4.668 93.181 o
-8 -1 1 24.525 25.676 6.183 48.768 o
-8 -1 2 0.000 -2.271 4.479 101.273 o
-8 -1 3 7.994 18.863 5.678 61.597 o
-8 -1 4 0.067 0.946 4.290 110.402 o
-8 -1 5 4.615 6.813 4.795 87.781 o
-8 -1 6 67.490 70.209 8.012 22.544 o
-8 -1 7 7.877 7.381 5.047 78.749 o
-8 -1 8 28.171 21.821 4.508 84.350 o
-8 -1 9 2.270 0.553 3.500 165.658 o
-8 -1 10 16.107 19.620 6.687 43.814 o
-8 0 1 18.152 16.340 5.993 54.001 o
-8 0 2 114.673 113.354 10.031 11.747 o
-8 0 3 3.189 9.337 5.299 71.963 o
-8 0 4 7.439 8.454 5.425 68.249 o
-8 0 5 3.874 10.346 4.921 83.219 o
-8 0 6 30.000 27.632 6.372 44.823 o
-8 0 7 6.807 8.391 5.047 78.845 o
-8 0 8 8.808 9.211 5.552 64.990 o
-8 1 1 29.398 27.190 7.129 36.693 o
-8 1 2 12.408 18.800 6.624 45.101 o
-8 1 3 7.417 8.643 5.678 62.370 o
-8 1 4 2.750 5.110 5.489 67.294 o
-8 1 5 8.596 8.454 5.552 65.069 o
-8 1 6 7.209 7.823 5.615 63.834 o
-7 -9 1 46.240 40.455 4.862 58.855 o
-7 -9 2 18.842 19.450 4.291 99.495 o
-7 -9 3 88.463 100.548 9.968 13.842 o
-7 -9 4 31.821 33.619 7.255 34.755 o
-7 -9 5 4.697 3.028 5.552 65.722 o
-7 -8 1 0.158 -1.960 3.089 212.998 o
-7 -8 2 168.070 195.112 18.989 3.802 o
-7 -8 3 16.341 17.538 5.930 55.333 o
-7 -8 4 57.943 51.031 7.697 26.595 o
-7 -8 5 22.562 20.314 6.246 48.789 o
-7 -8 6 0.437 5.993 4.921 83.811 o
-7 -8 7 2.703 -3.028 4.731 90.686 o
-7 -8 8 2.405 2.397 4.858 85.989 o
-7 -7 1 29.071 25.238 3.769 109.887 o
-7 -7 2 8.134 6.069 3.470 164.565 o
-7 -7 3 18.934 17.553 4.132 107.124 o
-7 -7 4 25.581 25.613 5.678 56.647 o
-7 -7 5 1.712 2.523 4.290 110.276 o
-7 -7 6 0.336 -5.741 3.974 128.624 o
-7 -7 7 5.241 7.507 4.858 85.384 o
-7 -7 8 22.741 28.137 5.993 51.757 o
-7 -7 9 8.034 2.145 4.479 100.252 o
-7 -7 10 3.383 -0.946 4.668 93.108 o
-7 -6 1 2.481 0.532 2.596 300.746 o
-7 -6 2 0.648 -1.325 2.498 325.532 o
-7 -6 3 9.423 7.003 4.101 117.946 o
-7 -6 4 2.324 2.523 3.848 136.907 o
-7 -6 5 6.125 1.136 3.848 136.184 o
-7 -6 6 1.022 2.460 4.101 120.743 o
-7 -6 7 0.272 3.911 3.848 137.086 o
-7 -6 8 3.236 6.940 4.668 92.757 o
-7 -6 9 0.006 -7.823 3.785 141.811 o
-7 -6 10 28.398 23.847 6.119 49.015 o
-7 -6 11 12.996 12.617 5.489 65.454 o
-7 -5 1 35.973 36.321 3.919 89.994 o
-7 -5 2 0.831 1.443 2.696 279.240 o
-7 -5 3 6.691 9.589 4.542 96.952 o
-7 -5 4 0.076 2.650 3.848 137.155 o
-7 -5 5 0.120 -2.271 3.596 157.131 o
-7 -5 6 24.305 24.982 5.489 60.724 o
-7 -5 7 22.527 18.484 5.362 65.035 o
-7 -5 8 2.740 2.208 4.227 113.495 o
-7 -5 9 1.238 2.839 3.974 128.485 o
-7 -5 10 3.510 0.252 4.416 104.014 o
-7 -5 11 14.357 12.554 5.552 63.754 o
-7 -5 12 0.122 0.820 4.416 104.184 o
-7 -4 1 9.831 7.864 2.806 243.594 o
-7 -4 2 50.075 59.394 4.505 56.480 o
-7 -4 3 0.000 -4.795 3.344 181.744 o
-7 -4 4 11.930 13.501 4.542 94.540 o
-7 -4 5 18.026 16.718 4.858 80.270 o
-7 -4 6 2.996 9.589 4.416 103.395 o
-7 -4 7 8.853 12.554 4.668 90.876 o
-7 -4 8 104.954 81.691 8.201 16.983 o
-7 -4 9 6.325 7.697 4.605 94.662 o
-7 -4 10 5.783 1.325 4.479 100.759 o
-7 -4 11 3.540 4.921 4.605 95.401 o
-7 -4 12 0.199 1.766 4.795 88.375 o
-7 -4 13 0.261 2.271 4.731 90.740 o
-7 -3 1 251.444 261.338 6.236 5.097 o
-7 -3 2 108.150 110.497 8.359 14.977 o
-7 -3 3 17.621 19.274 3.208 167.603 o
-7 -3 4 99.247 99.791 8.454 16.091 o
-7 -3 5 21.353 13.059 4.542 90.113 o
-7 -3 6 86.153 91.028 8.454 17.795 o
-7 -3 7 54.454 45.038 6.372 36.809 o
-7 -3 8 93.275 84.088 8.327 17.750 o
-7 -3 9 23.125 27.569 6.119 49.795 o
-7 -3 10 1.285 3.785 4.542 98.361 o
-7 -3 11 3.697 0.126 4.479 101.098 o
-7 -3 12 1.197 -1.009 4.353 107.209 o
-7 -3 13 0.068 -0.442 4.416 104.188 o
-7 -2 1 88.054 87.852 5.327 28.497 o
-7 -2 2 215.518 210.916 9.842 5.793 o
-7 -2 3 45.061 48.360 4.410 64.990 o
-7 -2 4 57.387 56.689 4.605 51.675 o
-7 -2 5 6.040 5.938 2.909 234.498 o
-7 -2 6 0.110 1.633 2.565 308.792 o
-7 -2 7 5.982 6.414 3.005 219.952 o
-7 -2 8 0.911 -0.959 2.806 257.965 o
-7 -2 9 1.520 0.757 4.227 113.670 o
-7 -2 10 6.211 1.640 4.101 119.964 o
-7 -2 11 25.712 31.291 6.435 44.536 o
-7 -2 12 44.859 44.470 7.318 31.430 o
-7 -2 13 0.799 -3.154 4.416 104.179 o
-7 -1 1 42.277 29.714 5.804 48.690 o
-7 -1 2 7.865 4.164 4.101 119.106 o
-7 -1 3 1.088 -4.164 3.659 151.727 o
-7 -1 4 7.629 4.594 3.009 218.567 o
-7 -1 5 11.861 12.265 3.323 171.591 o
-7 -1 6 0.019 2.224 2.788 261.330 o
-7 -1 7 0.001 -3.493 2.622 295.602 o
-7 -1 8 11.396 10.358 3.457 160.902 o
-7 -1 9 12.667 13.457 3.574 148.287 o
-7 -1 10 3.822 2.172 3.345 180.656 o
-7 -1 11 53.329 56.318 7.223 29.644 o
-7 -1 12 5.811 8.448 3.725 143.886 o
-7 -1 13 0.284 0.302 3.204 197.979 o
-7 0 1 64.089 54.753 7.066 28.805 o
-7 0 2 36.982 34.502 6.183 44.684 o
-7 0 3 0.988 3.154 4.038 124.515 o
-7 0 4 0.837 1.640 4.038 124.587 o
-7 0 5 0.012 -0.126 3.911 132.809 o
-7 0 6 4.091 5.173 4.479 100.722 o
-7 0 7 2.047 0.883 4.416 104.106 o
-7 0 8 0.021 -1.325 4.290 110.406 o
-7 0 9 16.376 12.365 5.236 70.866 o
-7 0 10 46.797 63.207 8.138 24.968 o
-7 0 11 0.368 2.713 4.795 88.358 o
-7 0 12 1.114 8.895 5.678 62.878 o
-7 1 1 41.295 26.559 6.183 44.594 o
-7 1 2 3.132 2.397 4.605 95.592 o
-7 1 3 9.965 9.021 4.921 82.160 o
-7 1 4 1.249 -4.795 4.101 120.805 o
-7 1 5 3.971 3.785 4.668 92.867 o
-7 1 6 1.246 5.930 4.858 85.946 o
-7 1 7 105.364 109.443 9.715 12.898 o
-7 1 8 5.667 2.019 4.795 87.966 o
-7 1 9 253.060 272.194 13.753 3.613 o
-7 1 10 0.253 0.631 4.921 83.909 o
-7 1 11 30.081 30.092 7.129 36.388 o
-7 2 1 1.529 0.883 5.110 77.783 o
-7 2 2 0.022 -1.640 4.795 88.386 o
-7 2 3 56.923 60.052 8.327 23.096 o
-7 2 4 5.490 7.444 5.362 70.150 o
-7 2 5 30.194 26.433 6.498 43.353 o
-7 2 6 19.971 23.784 6.309 48.033 o
-7 2 7 50.458 49.832 7.949 26.324 o
-7 2 8 33.596 30.408 6.940 37.609 o
-7 2 9 15.776 20.440 6.372 48.074 o
-7 2 10 86.986 76.139 9.400 16.012 o
-7 3 1 3.137 3.764 4.700 91.724 o
-7 3 2 12.770 12.365 6.309 49.941 o
-7 3 3 31.563 30.723 7.318 34.450 o
-7 3 4 0.300 3.659 4.984 81.764 o
-7 3 5 0.987 8.201 5.425 68.877 o
-7 3 6 2.567 2.965 5.110 77.691 o
-7 3 7 19.793 15.141 6.246 49.736 o
-6 -10 1 0.998 -2.072 3.344 181.611 o
-6 -10 2 0.057 -2.622 3.476 168.183 o
-6 -10 3 17.018 17.791 7.003 40.082 o
-6 -9 1 4.137 4.675 3.539 160.928 o
-6 -9 2 12.909 8.832 3.656 144.058 o
-6 -9 3 0.396 -4.605 5.236 74.105 o
-6 -9 4 3.622 -6.561 5.047 79.668 o
-6 -9 5 3.439 2.082 5.362 70.539 o
-6 -9 6 30.863 38.350 7.444 32.992 o
-6 -9 7 1.751 3.785 5.678 62.963 o
-6 -8 1 87.958 95.793 6.905 21.811 o
-6 -8 2 52.554 55.610 4.937 50.441 o
-6 -8 3 110.779 115.838 6.407 18.276 o
-6 -8 4 72.493 67.433 8.075 21.847 o
-6 -8 5 148.034 161.105 11.229 7.973 o
-6 -8 6 3.133 2.019 5.110 77.685 o
-6 -8 7 12.112 7.760 5.362 69.145 o
-6 -8 8 92.920 97.393 9.778 14.009 o
-6 -8 9 20.163 18.484 6.372 47.551 o
-6 -8 10 11.728 5.804 5.615 63.391 o
-6 -7 1 0.005 -1.238 2.538 315.425 o
-6 -7 2 126.678 136.460 6.561 14.868 o
-6 -7 3 1.567 -2.661 6.593 46.743 o
-6 -7 4 323.641 344.800 13.690 2.560 o
-6 -7 5 54.758 45.795 6.687 34.104 o
-6 -7 6 4.232 -2.145 4.290 110.142 o
-6 -7 7 0.052 -5.425 4.227 113.727 o
-6 -7 8 3.370 2.839 4.921 83.716 o
-6 -7 9 1.117 -2.587 4.164 117.178 o
-6 -7 10 17.975 16.907 5.993 53.981 o
-6 -7 11 32.448 16.655 5.993 50.776 o
-6 -6 1 133.878 121.649 5.905 15.840 o
-6 -6 2 128.692 143.064 6.330 14.633 o
-6 -6 3 6.711 -1.105 3.028 218.930 o
-6 -6 4 0.646 -5.993 3.596 157.119 o
-6 -6 5 31.089 31.537 5.804 51.970 o
-6 -6 6 24.874 19.241 5.236 66.947 o
-6 -6 7 7.662 5.425 4.542 97.230 o
-6 -6 8 0.401 0.252 4.101 120.828 o
-6 -6 9 2.202 -1.199 3.848 137.089 o
-6 -6 10 11.636 9.463 5.110 75.893 o
-6 -6 11 15.832 10.409 5.425 66.561 o
-6 -6 12 0.186 -0.757 4.542 98.479 o
-6 -6 13 43.339 38.224 7.255 32.643 o
-6 -5 1 15.422 8.910 2.806 229.639 o
-6 -5 2 301.253 313.273 8.007 3.499 o
-6 -5 3 59.339 49.839 9.936 17.483 o
-6 -5 4 0.902 2.208 3.722 146.554 o
-6 -5 5 7.005 8.454 4.101 118.640 o
-6 -5 6 0.193 -0.946 3.533 162.792 o
-6 -5 7 7.182 3.217 3.722 144.670 o
-6 -5 8 53.199 50.084 6.498 35.455 o
-6 -5 9 75.172 66.613 7.318 24.613 o
-6 -5 10 15.615 14.194 4.795 83.755 o
-6 -5 11 21.970 20.377 5.741 57.225 o
-6 -5 12 1.052 0.883 4.416 104.158 o
-6 -5 13 0.818 -3.470 4.353 107.220 o
-6 -5 14 0.383 6.940 5.047 79.654 o
-6 -4 1 2.791 0.296 2.299 382.831 o
-6 -4 2 73.943 69.422 4.438 41.645 o
-6 -4 3 1.482 3.308 2.452 336.512 o
-6 -4 4 38.675 31.537 5.110 60.804 o
-6 -4 5 37.138 29.840 5.236 59.593 o
-6 -4 6 3.864 9.715 4.101 119.501 o
-6 -4 7 8.459 6.813 4.101 118.391 o
-6 -4 8 142.351 145.150 9.589 9.874 o
-6 -4 9 2.484 7.192 4.290 109.863 o
-6 -4 10 35.336 42.072 6.372 41.954 o
-6 -4 11 129.830 145.907 10.346 9.751 o
-6 -4 12 2.351 2.271 4.542 98.337 o
-6 -4 13 11.275 9.968 5.047 77.779 o
-6 -4 14 1.354 -1.956 4.353 107.204 o
-6 -3 1 0.177 0.906 1.759 656.689 o
-6 -3 2 40.298 29.169 2.580 144.347 o
-6 -3 3 3.101 3.147 2.168 427.563 o
-6 -3 4 128.310 149.086 5.557 15.361 o
-6 -3 5 5.803 3.257 2.297 375.398 o
-6 -3 6 8.324 3.213 2.807 250.095 o
-6 -3 7 34.138 30.482 3.466 112.754 o
-6 -3 8 3.327 2.019 3.785 141.354 o
-6 -3 9 37.365 37.089 6.056 45.781 o
-6 -3 10 48.797 34.060 5.930 44.321 o
-6 -3 11 80.832 81.880 8.201 19.575 o
-6 -3 12 37.569 29.525 6.119 45.974 o
-6 -3 13 4.880 4.227 4.668 92.716 o
-6 -3 14 0.762 3.028 4.605 95.743 o
-6 -3 15 7.515 1.388 4.858 85.504 o
-6 -2 1 26.395 20.784 2.462 216.287 o
-6 -2 2 71.459 60.144 4.148 47.688 o
-6 -2 3 51.015 47.016 3.878 70.739 o
-6 -2 4 2.862 2.145 2.902 240.178 o
-6 -2 5 5.635 5.256 2.532 308.783 o
-6 -2 6 13.574 12.464 2.879 219.536 o
-6 -2 7 10.246 9.764 2.946 219.803 o
-6 -2 8 8.235 3.693 2.682 272.988 o
-6 -2 9 1.148 -0.753 2.497 325.831 o
-6 -2 10 1.645 -1.050 2.744 269.556 o
-6 -2 11 14.123 12.226 3.523 151.376 o
-6 -2 12 12.089 15.006 3.680 140.237 o
-6 -2 13 26.570 22.774 5.804 54.566 o
-6 -2 14 12.435 17.033 5.489 65.111 o
-6 -2 15 0.427 7.129 4.858 85.963 o
-6 -1 1 40.830 38.786 5.268 55.385 o
-6 -1 2 23.186 21.705 3.145 159.434 o
-6 -1 3 15.011 12.229 2.943 208.136 o
-6 -1 4 2.163 -1.825 3.281 188.599 o
-6 -1 5 10.963 9.991 3.848 131.622 o
-6 -1 6 8.861 9.957 2.964 219.452 o
-6 -1 7 1.106 2.124 2.667 285.293 o
-6 -1 8 8.760 8.575 2.943 223.726 o
-6 -1 9 12.603 14.099 3.390 163.256 o
-6 -1 10 41.266 43.428 5.552 50.052 o
-6 -1 11 4.881 1.271 3.161 201.790 o
-6 -1 12 61.791 67.821 12.207 11.841 o
-6 -1 13 10.317 15.958 3.967 122.669 o
-6 -1 14 5.120 9.519 4.132 117.342 o
-6 -1 15 2.803 2.285 3.547 161.016 o
-6 0 1 27.799 27.253 5.299 62.884 o
-6 0 2 0.002 3.028 3.722 146.599 o
-6 0 3 5.855 6.498 4.038 123.096 o
-6 0 4 20.046 22.396 4.984 74.579 o
-6 0 5 3.128 5.112 2.871 244.178 o
-6 0 6 26.486 24.495 3.791 112.452 o
-6 0 7 44.823 38.124 4.303 71.107 o
-6 0 8 63.974 60.273 5.085 42.614 o
-6 0 9 3.019 2.632 4.921 83.752 o
-6 0 10 0.954 -1.942 3.032 220.902 o
-6 0 11 22.901 20.619 5.772 56.379 o
-6 0 12 0.426 0.604 3.376 178.228 o
-6 0 13 3.410 0.877 3.496 165.703 o
-6 0 14 0.241 -0.354 3.529 163.110 o
-6 0 15 5.032 1.651 4.542 98.078 o
-6 1 1 0.750 5.741 4.416 104.015 o
-6 1 2 0.774 2.397 4.101 120.764 o
-6 1 3 42.359 33.367 5.678 49.767 o
-6 1 4 4.809 5.993 4.353 106.387 o
-6 1 5 16.305 16.529 5.047 75.367 o
-6 1 6 29.905 25.172 5.489 58.770 o
-6 1 7 14.848 16.466 4.984 77.695 o
-6 1 8 40.413 44.218 6.813 36.248 o
-6 1 9 70.142 70.146 8.138 21.729 o
-6 1 10 130.526 137.832 10.409 9.846 o
-6 1 11 17.073 23.468 6.435 46.760 o
-6 1 12 1.559 4.984 5.236 73.997 o
-6 1 13 0.313 -2.587 5.236 74.106 o
-6 1 14 0.517 -3.722 5.362 70.659 o
-6 2 1 57.237 50.652 7.318 28.881 o
-6 2 2 0.002 -2.902 4.164 117.199 o
-6 2 3 5.144 2.650 4.416 103.640 o
-6 2 4 34.404 33.619 6.246 44.685 o
-6 2 5 1.968 5.867 4.605 95.534 o
-6 2 6 19.027 18.989 5.552 61.899 o
-6 2 7 34.193 28.389 5.867 50.553 o
-6 2 8 270.090 272.509 13.185 3.499 o
-6 2 9 123.073 138.147 10.536 10.060 o
-6 2 10 25.358 23.216 6.498 44.567 o
-6 2 11 141.497 155.370 11.608 8.027 o
-6 2 12 0.353 8.391 5.615 64.347 o
-6 2 13 1.300 -1.136 5.804 60.309 o
-6 3 1 1.318 0.631 4.731 90.732 o
-6 3 2 53.397 51.788 7.570 27.909 o
-6 3 3 22.110 21.702 5.930 53.690 o
-6 3 4 66.171 69.452 8.517 20.814 o
-6 3 5 0.607 -3.407 4.353 107.224 o
-6 3 6 0.003 -0.694 4.605 95.800 o
-6 3 7 6.515 6.435 5.173 75.269 o
-6 3 8 2.732 4.795 5.047 79.566 o
-6 3 9 23.553 30.471 6.876 39.845 o
-6 3 10 37.302 30.660 7.129 35.247 o
-6 3 11 14.072 18.106 6.435 47.556 o
-6 4 1 51.239 47.862 5.695 43.834 o
-6 4 2 2.240 12.732 5.615 64.080 o
-6 4 3 0.320 3.748 3.904 133.202 o
-6 4 4 9.807 10.472 5.678 61.955 o
-6 4 5 2.770 -2.334 4.858 86.037 o
-6 4 6 5.404 2.397 5.110 77.492 o
-6 4 7 1.014 -1.766 4.479 101.261 o
-6 4 8 0.221 8.264 5.678 62.936 o
-6 4 9 18.515 21.197 6.624 44.202 o
-6 5 1 29.574 36.171 5.895 50.351 o
-6 5 2 38.849 43.599 6.117 43.714 o
-6 5 3 13.940 22.055 6.151 51.608 o
-6 5 4 0.048 7.026 4.246 112.514 o
-6 5 5 6.961 12.475 4.688 90.669 o
-5 -10 1 18.101 17.435 4.014 113.607 o
-5 -10 2 20.745 23.405 7.255 36.789 o
-5 -10 3 5.118 3.344 6.246 51.937 o
-5 -10 4 5.867 8.264 6.372 49.744 o
-5 -10 5 0.158 -3.091 5.930 57.777 o
-5 -9 1 0.147 1.166 3.166 202.707 o
-5 -9 2 5.975 2.961 3.252 189.632 o
-5 -9 3 6.829 3.028 5.615 64.103 o
-5 -9 4 12.432 9.778 6.183 52.148 o
-5 -9 5 48.732 36.206 7.444 30.589 o
-5 -9 6 0.116 -18.295 4.668 93.228 o
-5 -9 7 53.245 55.636 8.706 22.088 o
-5 -9 8 51.550 50.463 8.454 23.629 o
-5 -8 1 19.049 16.113 3.395 152.389 o
-5 -8 2 0.039 -2.756 2.902 241.266 o
-5 -8 3 9.344 10.033 3.274 180.972 o
-5 -8 4 13.359 6.687 5.425 67.451 o
-5 -8 5 122.641 129.883 10.662 10.140 o
-5 -8 6 33.739 34.439 6.813 38.467 o
-5 -8 7 11.197 9.842 5.741 60.475 o
-5 -8 8 0.247 -1.009 5.110 77.811 o
-5 -8 9 32.630 38.729 7.318 33.743 o
-5 -8 10 11.139 11.797 5.993 55.463 o
-5 -7 1 82.890 73.496 4.911 34.214 o
-5 -7 2 57.460 49.771 4.341 57.150 o
-5 -7 3 77.541 70.455 4.981 36.187 o
-5 -7 4 3.441 3.596 4.605 95.496 o
-5 -7 5 184.536 180.788 10.977 6.624 o
-5 -7 6 92.004 100.106 8.832 15.907 o
-5 -7 7 16.698 17.475 5.362 66.948 o
-5 -7 8 18.237 20.188 5.615 60.647 o
-5 -7 9 0.002 -1.072 4.668 93.228 o
-5 -7 10 40.992 34.187 6.940 35.980 o
-5 -7 11 28.745 29.083 6.498 43.378 o
-5 -7 12 73.765 69.326 8.958 18.603 o
-5 -6 1 288.471 276.181 15.989 2.886 o
-5 -6 2 103.168 125.382 5.870 19.872 o
-5 -6 3 81.221 81.521 12.046 11.177 o
-5 -6 4 143.445 144.834 9.337 10.059 o
-5 -6 5 0.043 3.974 4.101 120.760 o
-5 -6 6 15.616 22.774 5.299 68.002 o
-5 -6 7 0.000 2.208 4.164 117.179 o
-5 -6 8 3.092 0.379 3.722 146.379 o
-5 -6 9 19.701 21.576 5.362 65.447 o
-5 -6 10 2.378 4.984 4.668 92.979 o
-5 -6 12 23.121 19.683 6.056 51.627 o
-5 -6 13 44.635 47.372 7.570 29.527 o
-5 -6 14 69.153 80.871 9.274 17.577 o
-5 -5 1 114.186 112.329 11.703 9.747 o
-5 -5 2 24.880 12.832 2.820 196.035 o
-5 -5 3 307.263 297.299 7.618 3.563 o
-5 -5 4 92.753 78.789 6.813 22.714 o
-5 -5 5 10.759 8.264 3.785 136.601 o
-5 -5 6 0.019 3.091 3.470 168.682 o
-5 -5 7 24.646 26.370 5.299 64.280 o
-5 -5 8 1.197 5.867 3.848 136.811 o
-5 -5 9 0.349 -2.460 3.470 168.762 o
-5 -5 10 13.099 21.386 4.921 79.341 o
-5 -5 11 1.097 -3.407 3.911 132.784 o
-5 -5 12 13.753 7.507 4.858 83.435 o
-5 -5 13 0.488 0.315 4.416 104.182 o
-5 -5 14 5.729 6.624 5.047 79.143 o
-5 -5 15 6.850 8.454 5.425 68.325 o
-5 -4 1 285.847 267.688 5.123 4.414 o
-5 -4 2 1.669 0.364 1.690 709.019 o
-5 -4 3 14.681 9.888 2.720 243.399 o
-5 -4 4 37.328 29.777 4.795 68.397 o
-5 -4 5 5.669 3.470 3.596 155.507 o
-5 -4 6 2.956 -0.126 3.344 181.395 o
-5 -4 7 8.980 8.264 3.974 125.267 o
-5 -4 8 5.334 7.255 4.038 123.144 o
-5 -4 9 78.702 70.966 7.066 24.763 o
-5 -4 10 2.244 4.542 3.974 128.219 o
-5 -4 11 90.964 68.632 7.129 22.704 o
-5 -4 12 33.472 28.704 5.615 54.677 o
-5 -4 13 11.370 13.942 5.236 71.932 o
-5 -4 14 9.263 8.706 4.984 80.323 o
-5 -4 15 0.030 -0.505 4.416 104.188 o
-5 -4 16 10.934 7.129 5.425 67.833 o
-5 -3 1 85.306 86.239 3.561 38.105 o
-5 -3 2 53.285 58.227 3.011 78.770 o
-5 -3 3 170.604 168.837 4.454 11.282 o
-5 -3 4 3.341 1.636 2.077 466.542 o
-5 -3 5 177.253 185.938 6.813 8.977 o
-5 -3 6 14.858 19.220 3.186 174.780 o
-5 -3 7 0.598 0.983 2.744 269.690 o
-5 -3 8 9.354 9.540 2.596 281.070 o
-5 -3 9 0.409 1.816 2.524 318.730 o
-5 -3 10 401.692 421.577 9.556 2.000 o
-5 -3 11 61.998 71.723 7.381 26.023 o
-5 -3 12 107.321 118.401 9.211 13.266 o
-5 -3 13 154.621 143.825 9.589 9.303 o
-5 -3 14 19.896 20.566 5.425 64.136 o
-5 -3 15 3.108 7.192 4.858 85.703 o
-5 -3 16 0.495 -0.379 4.479 101.270 o
-5 -2 1 103.180 89.168 3.711 30.070 o
-5 -2 2 171.370 162.274 4.445 11.488 o
-5 -2 3 143.650 143.599 5.442 14.111 o
-5 -2 4 179.898 187.585 5.876 9.274 o
-5 -2 5 3.169 1.410 2.303 380.547 o
-5 -2 6 164.125 159.011 5.793 11.300 o
-5 -2 7 2.878 1.689 2.384 355.433 o
-5 -2 8 0.034 -0.543 2.225 410.381 o
-5 -2 9 21.434 23.027 3.318 148.501 o
-5 -2 10 1.662 -1.160 3.375 178.256 o
-5 -2 11 184.942 196.088 7.182 8.163 o
-5 -2 12 5.283 5.958 4.038 123.366 o
-5 -2 13 35.757 35.523 6.274 43.770 o
-5 -2 14 24.134 20.765 4.385 91.690 o
-5 -2 15 0.737 0.575 3.440 171.643 o
-5 -2 16 14.795 15.393 5.362 67.724 o
-5 -2 17 2.653 -0.315 4.353 107.131 o
-5 -1 1 88.443 94.393 3.778 34.087 o
-5 -1 2 40.302 37.508 5.299 55.399 o
-5 -1 3 22.731 24.354 3.100 161.087 o
-5 -1 4 1.852 -0.093 2.334 372.397 o
-5 -1 5 11.358 10.078 2.696 256.130 o
-5 -1 6 39.927 35.391 4.129 80.531 o
-5 -1 7 15.079 16.253 3.077 188.216 o
-5 -1 8 43.405 44.015 4.014 76.224 o
-5 -1 9 0.027 1.298 2.631 293.523 o
-5 -1 10 56.047 62.416 7.444 27.392 o
-5 -1 11 17.144 16.936 3.496 146.789 o
-5 -1 12 31.134 39.675 6.435 42.499 o
-5 -1 13 11.786 10.848 3.564 151.238 o
-5 -1 14 6.968 6.814 3.476 164.541 o
-5 -1 15 132.323 142.916 7.787 12.468 o
-5 -1 16 14.688 10.725 5.678 61.148 o
-5 -1 17 5.322 3.104 3.787 140.548 o
-5 0 1 116.028 131.208 8.264 13.583 o
-5 0 2 11.374 13.942 3.501 155.238 o
-5 0 3 37.599 28.851 5.643 52.756 o
-5 0 4 127.449 108.684 5.458 18.268 o
-5 0 5 23.172 17.872 3.122 165.390 o
-5 0 6 59.649 49.841 4.190 57.751 o
-5 0 7 84.740 68.481 4.702 35.650 o
-5 0 8 73.074 73.646 5.040 36.833 o
-5 0 9 14.996 16.005 3.362 161.136 o
-5 0 10 1.782 -1.453 2.743 269.728 o
-5 0 11 9.405 8.536 3.722 141.939 o
-5 0 12 1.276 2.975 3.043 218.941 o
-5 0 13 3.705 -1.184 3.137 205.732 o
-5 0 14 5.174 1.496 3.347 179.948 o
-5 0 15 2.773 5.413 3.622 154.009 o
-5 0 16 24.507 28.144 4.875 74.069 o
-5 1 1 10.553 -1.072 3.722 143.810 o
-5 1 2 7.295 3.407 3.974 127.022 o
-5 1 3 72.824 54.942 6.309 31.459 o
-5 1 4 2.488 0.379 3.533 162.563 o
-5 1 5 266.879 240.461 10.599 4.219 o
-5 1 6 16.370 10.662 4.416 98.336 o
-5 1 7 11.301 4.353 4.038 121.308 o
-5 1 8 28.093 32.042 5.678 54.866 o
-5 1 9 53.516 45.227 6.750 33.950 o
-5 1 10 22.001 18.752 3.715 125.209 o
-5 1 11 0.100 -1.264 2.973 229.899 o
-5 1 12 4.711 3.722 5.047 79.437 o
-5 1 13 7.723 2.460 5.173 75.369 o
-5 1 14 25.285 40.874 7.760 31.085 o
-5 1 15 31.915 36.647 8.012 28.857 o
-5 1 16 0.621 -0.252 6.056 55.393 o
-5 2 1 2.438 5.236 4.227 113.327 o
-5 2 2 2.480 3.281 4.038 124.320 o
-5 2 3 6.908 3.974 4.227 112.499 o
-5 2 4 26.971 22.901 5.236 65.427 o
-5 2 5 79.182 78.852 7.633 21.863 o
-5 2 6 26.017 32.736 5.804 53.311 o
-5 2 7 6.607 4.668 4.227 112.486 o
-5 2 8 1.333 8.895 4.605 95.430 o
-5 2 9 39.618 34.250 6.372 41.865 o
-5 2 10 2.480 -2.208 4.353 107.144 o
-5 2 11 8.218 3.154 5.173 75.260 o
-5 2 12 12.055 10.914 5.741 60.268 o
-5 2 13 3.140 2.902 5.552 65.814 o
-5 2 14 0.382 2.650 5.741 61.636 o
-5 2 15 59.826 81.691 10.157 15.857 o
-5 3 1 91.804 96.321 8.769 16.233 o
-5 3 2 85.306 59.106 7.381 23.357 o
-5 3 3 2.946 -1.325 3.659 151.518 o
-5 3 4 3.934 -1.325 4.101 120.560 o
-5 3 5 19.443 10.977 4.858 80.857 o
-5 3 6 7.653 3.974 4.479 100.130 o
-5 3 7 11.546 8.264 4.479 98.306 o
-5 3 8 11.353 7.444 4.542 95.877 o
-5 3 9 12.191 12.176 5.299 70.292 o
-5 3 10 10.492 4.164 5.047 78.567 o
-5 3 11 115.021 123.953 10.725 10.571 o
-5 3 12 16.041 18.926 6.687 43.864 o
-5 3 13 15.542 22.585 7.129 38.632 o
-5 3 14 0.116 -1.830 5.741 61.649 o
-5 4 1 10.860 9.506 3.951 125.309 o
-5 4 2 38.401 33.341 4.559 71.904 o
-5 4 3 26.140 22.901 5.993 51.569 o
-5 4 4 11.273 9.274 5.047 77.862 o
-5 4 5 0.033 0.631 4.416 104.186 o
-5 4 6 0.141 -3.911 4.227 113.726 o
-5 4 7 11.413 5.993 5.047 78.198 o
-5 4 8 41.410 35.701 6.498 39.937 o
-5 4 9 10.078 13.690 5.993 55.477 o
-5 4 10 4.846 10.851 5.867 58.584 o
-5 4 11 0.635 -0.946 5.110 77.808 o
-5 4 12 46.056 52.103 8.643 23.218 o
-5 4 13 3.511 5.299 5.993 56.420 o
-5 5 1 0.268 6.736 4.069 122.497 o
-5 5 2 20.540 20.388 5.299 66.815 o
-5 5 3 65.835 57.363 5.972 35.227 o
-5 5 4 1.442 8.200 4.152 117.360 o
-5 5 5 18.157 24.100 4.877 78.039 o
-5 5 6 34.278 32.979 5.294 59.096 o
-5 5 7 5.539 3.462 4.086 120.765 o
-5 5 8 6.196 6.309 5.741 61.249 o
-5 5 9 45.484 48.949 8.138 25.953 o
-5 5 10 24.153 31.102 7.255 35.950 o
-5 6 1 0.768 5.596 4.775 89.005 o
-5 6 2 43.255 49.338 6.286 39.936 o
-5 6 3 17.398 16.016 4.964 77.457 o
-5 6 4 69.940 61.480 6.492 30.269 o
-5 6 5 101.467 104.615 7.737 17.200 o
-5 6 6 77.113 82.546 9.400 16.533 o
-5 6 7 0.663 5.741 4.377 105.881 o
-4 -10 1 1.402 3.974 6.561 47.169 o
-4 -10 2 4.834 2.650 6.498 48.015 o
-4 -10 3 31.922 34.755 8.138 28.134 o
-4 -10 4 62.713 55.384 8.769 20.939 o
-4 -10 5 2.511 4.290 6.372 49.980 o
-4 -10 6 12.675 3.028 6.498 47.562 o
-4 -9 1 21.048 14.287 3.630 134.273 o
-4 -9 2 0.256 1.331 3.034 220.715 o
-4 -9 3 73.126 79.483 8.958 18.200 o
-4 -9 4 0.510 -3.028 5.489 67.447 o
-4 -9 5 16.251 13.753 6.056 53.473 o
-4 -9 6 0.335 -8.201 5.236 74.106 o
-4 -9 7 1.335 -2.839 5.615 64.442 o
-4 -9 8 8.426 7.381 6.372 49.604 o
-4 -9 9 9.568 -0.820 5.930 57.409 o
-4 -8 1 4.383 4.978 2.987 224.754 o
-4 -8 2 0.099 -3.173 2.541 314.807 o
-4 -8 3 4.493 5.272 3.042 216.689 o
-4 -8 4 0.816 -0.883 4.479 101.265 o
-4 -8 5 34.844 35.701 6.876 37.538 o
-4 -8 6 24.009 23.216 6.183 49.138 o
-4 -8 7 11.474 6.183 5.047 78.164 o
-4 -8 8 2.124 7.444 5.425 68.829 o
-4 -8 9 10.024 4.479 5.993 55.989 o
-4 -8 10 2.980 -1.830 5.489 67.400 o
-4 -8 11 0.653 -5.489 5.489 67.446 o
-4 -7 1 7.825 2.931 2.455 325.533 o
-4 -7 2 28.804 26.913 3.911 103.141 o
-4 -7 3 23.821 17.881 3.193 158.240 o
-4 -7 4 1.776 2.902 4.731 90.655 o
-4 -7 5 8.682 4.164 4.416 102.684 o
-4 -7 6 1.680 -5.236 4.353 107.190 o
-4 -7 7 4.192 4.542 4.921 83.556 o
-4 -7 8 31.620 34.250 6.687 40.176 o
-4 -7 9 3.451 -2.587 4.605 95.668 o
-4 -7 10 1.053 -2.587 4.416 104.173 o
-4 -7 11 12.027 4.353 5.425 67.880 o
-4 -7 12 0.286 -1.577 5.236 74.106 o
-4 -7 13 53.500 50.274 8.454 23.435 o
-4 -6 1 11.408 15.630 3.015 203.209 o
-4 -6 2 415.682 398.053 8.497 2.025 o
-4 -6 3 1.463 1.517 2.471 332.172 o
-4 -6 4 13.951 4.795 4.227 109.684 o
-4 -6 5 37.214 31.102 5.489 54.937 o
-4 -6 6 2.372 8.643 4.605 95.304 o
-4 -6 7 16.393 12.428 4.984 77.854 o
-4 -6 8 1.536 8.454 4.795 88.073 o
-4 -6 9 18.931 21.891 5.615 60.248 o
-4 -6 10 78.020 76.266 8.075 20.638 o
-4 -6 11 36.756 26.118 6.183 45.826 o
-4 -6 12 69.761 83.331 8.832 18.709 o
-4 -6 13 8.704 10.283 5.678 62.117 o
-4 -6 14 5.912 -0.063 4.984 81.518 o
-4 -6 15 0.404 -0.757 5.362 70.659 o
-4 -5 1 276.879 258.540 7.854 4.340 o
-4 -5 2 5.073 5.278 2.530 310.323 o
-4 -5 3 452.184 433.472 15.929 1.498 o
-4 -5 4 11.101 14.510 4.605 92.191 o
-4 -5 5 27.924 26.307 5.173 65.715 o
-4 -5 6 3.713 4.353 4.038 123.988 o
-4 -5 7 0.356 1.136 3.344 181.710 o
-4 -5 8 14.980 20.882 4.921 78.734 o
-4 -5 9 0.297 1.072 4.038 124.625 o
-4 -5 10 34.832 32.609 5.867 49.719 o
-4 -5 11 7.031 5.425 4.542 97.376 o
-4 -5 12 0.192 -3.407 4.227 113.726 o
-4 -5 13 62.175 67.686 7.823 24.214 o
-4 -5 14 2.773 -1.766 4.353 107.122 o
-4 -5 15 0.279 -0.252 4.668 93.228 o
-4 -5 16 5.261 3.848 4.858 85.644 o
-4 -4 1 21.130 26.184 1.857 320.739 o
-4 -4 2 359.365 380.360 5.505 2.624 o
-4 -4 3 1.628 4.268 1.790 627.638 o
-4 -4 4 3.801 1.570 1.577 800.162 o
-4 -4 5 5.372 2.352 1.842 580.677 o
-4 -4 6 0.212 3.449 2.053 480.814 o
-4 -4 7 82.896 92.479 7.886 19.674 o
-4 -4 8 4.315 -0.757 3.154 203.270 o
-4 -4 9 21.111 17.286 4.668 84.746 o
-4 -4 10 6.798 0.505 3.974 127.637 o
-4 -4 11 6.243 5.425 4.164 115.878 o
-4 -4 12 14.174 15.204 4.668 88.485 o
-4 -4 13 8.692 16.844 4.984 79.491 o
-4 -4 14 10.880 4.731 4.479 99.137 o
-4 -4 15 69.065 62.134 7.760 23.927 o
-4 -4 16 0.241 -3.154 4.668 93.228 o
-4 -4 17 139.261 160.663 11.356 8.200 o
-4 -3 1 48.727 49.052 2.377 107.672 o
-4 -3 2 2.013 1.009 1.342 1117.900 o
-4 -3 3 1.472 2.865 1.426 989.354 o
-4 -3 4 21.303 23.885 2.587 215.838 o
-4 -3 5 86.969 84.195 4.826 31.580 o
-4 -3 6 12.870 8.746 3.028 205.187 o
-4 -3 7 3.677 5.018 2.479 325.617 o
-4 -3 8 13.183 8.237 2.631 265.299 o
-4 -3 9 2.243 2.902 2.498 323.842 o
-4 -3 10 3.342 6.584 2.895 239.259 o
-4 -3 11 16.194 17.790 3.974 117.126 o
-4 -3 12 11.761 14.008 3.447 159.397 o
-4 -3 13 2.465 -0.015 3.817 139.333 o
-4 -3 14 171.306 197.821 11.293 6.609 o
-4 -3 15 191.954 238.758 12.113 5.270 o
-4 -3 16 1.647 2.523 4.668 93.139 o
-4 -3 17 9.525 8.643 4.795 86.606 o
-4 -2 1 57.481 48.058 2.422 91.364 o
-4 -2 2 318.200 347.536 5.146 3.262 o
-4 -2 3 20.205 15.687 2.934 192.698 o
-4 -2 4 175.007 174.032 7.917 8.763 o
-4 -2 5 152.237 139.375 4.847 14.027 o
-4 -2 6 46.584 48.967 3.529 81.593 o
-4 -2 7 319.739 303.758 7.320 3.377 o
-4 -2 8 50.668 50.268 3.913 68.937 o
-4 -2 9 3.639 1.613 2.520 317.490 o
-4 -2 10 12.066 9.191 2.964 214.581 o
-4 -2 11 113.280 116.956 5.933 18.833 o
-4 -2 12 396.338 433.218 10.149 1.975 o
-4 -2 13 0.522 4.331 3.062 216.310 o
-4 -2 14 52.396 52.834 5.021 50.153 o
-4 -2 15 49.238 50.355 5.100 51.234 o
-4 -2 16 21.549 17.638 4.197 102.147 o
-4 -2 17 1.073 -5.396 3.691 149.145 o
-4 -2 18 1.910 7.507 4.731 90.440 o
-4 -1 1 106.666 126.832 3.492 24.341 o
-4 -1 2 70.663 79.642 4.353 41.443 o
-4 -1 3 48.677 48.059 3.232 86.563 o
-4 -1 4 32.560 29.992 3.120 132.757 o
-4 -1 5 11.891 9.159 2.384 319.932 o
-4 -1 6 29.360 24.751 3.009 152.250 o
-4 -1 7 2.688 5.347 2.497 322.237 o
-4 -1 8 303.796 299.164 12.870 3.023 o
-4 -1 9 41.853 38.149 3.809 85.888 o
-4 -1 10 9.920 9.788 2.829 237.818 o
-4 -1 11 52.345 54.335 4.590 55.447 o
-4 -1 12 252.961 271.677 8.383 4.589 o
-4 -1 13 174.713 182.041 7.410 8.876 o
-4 -1 14 36.532 38.670 4.482 73.149 o
-4 -1 15 17.995 20.109 4.092 108.766 o
-4 -1 16 75.073 75.918 8.201 20.577 o
-4 -1 17 0.300 -0.323 3.486 167.212 o
-4 -1 18 3.120 0.340 3.668 150.700 o
-4 0 1 11.247 10.329 2.318 336.477 o
-4 0 2 0.784 -0.343 2.176 428.781 o
-4 0 3 13.629 14.481 2.497 278.111 o
-4 0 4 69.486 54.196 5.899 35.165 o
-4 0 5 103.804 96.864 5.062 24.560 o
-4 0 6 13.125 15.597 2.920 211.589 o
-4 0 7 111.726 89.146 9.144 14.128 o
-4 0 8 432.341 412.940 9.234 1.863 o
-4 0 9 534.944 511.840 10.260 1.234 o
-4 0 10 73.746 80.855 6.214 28.724 o
-4 0 11 0.090 -0.886 2.649 289.599 o
-4 0 12 89.695 95.187 13.497 8.887 o
-4 0 13 1.130 -0.877 2.865 247.465 o
-4 0 14 91.206 92.583 8.861 16.242 o
-4 0 15 80.774 76.855 5.968 28.769 o
-4 0 16 12.454 14.350 4.060 116.536 o
-4 0 17 80.835 83.332 6.469 25.777 o
-4 0 18 36.851 40.099 5.293 56.446 o
-4 1 1 174.459 166.782 8.201 8.792 o
-4 1 2 3.163 3.722 3.533 161.986 o
-4 1 3 17.019 14.510 4.101 111.229 o
-4 1 4 167.032 142.690 8.201 9.802 o
-4 1 5 126.450 121.429 8.138 13.319 o
-4 1 6 1592.630 1535.810 31.383 0.138 o
-4 1 7 5.961 7.034 2.900 235.467 o
-4 1 8 272.619 257.127 7.740 4.451 o
-4 1 9 76.005 74.784 9.463 16.760 o
-4 1 10 39.287 34.173 3.922 87.521 o
-4 1 11 1.598 -0.090 4.731 90.734 o
-4 1 12 0.405 -4.041 2.793 260.372 o
-4 1 13 3.431 3.835 3.296 185.792 o
-4 1 14 6.489 3.203 3.785 140.232 o
-4 1 15 2.340 -0.376 3.496 166.072 o
-4 1 16 56.935 65.034 6.041 36.144 o
-4 1 17 1.767 -1.199 6.246 52.078 o
-4 2 1 22.993 25.739 5.173 67.886 o
-4 2 2 214.634 203.436 10.031 5.852 o
-4 2 3 134.327 113.354 8.391 12.675 o
-4 2 4 155.833 135.119 8.769 10.166 o
-4 2 5 747.460 671.741 16.655 0.641 o
-4 2 6 451.116 423.078 13.690 1.601 o
-4 2 7 5.464 -0.189 3.911 132.174 o
-4 2 8 65.043 53.681 6.435 32.661 o
-4 2 9 4.535 -0.631 4.101 120.470 o
-4 2 10 6.843 5.489 4.795 87.524 o
-4 2 11 18.291 19.683 5.741 58.205 o
-4 2 12 28.933 31.663 6.750 40.231 o
-4 2 13 4.801 -4.542 4.101 120.426 o
-4 2 14 0.513 -5.425 5.047 79.767 o
-4 2 15 1.186 -2.334 5.615 64.444 o
-4 2 16 11.922 11.166 6.813 43.068 o
-4 2 17 2.477 2.334 6.687 45.403 o
-4 3 1 45.970 43.082 5.804 45.236 o
-4 3 2 166.853 154.297 9.400 8.644 o
-4 3 3 186.248 172.145 9.211 7.594 o
-4 3 4 207.285 218.450 10.220 5.784 o
-4 3 5 0.426 -1.072 3.659 151.755 o
-4 3 6 15.847 19.178 4.668 86.874 o
-4 3 7 3.162 1.388 4.101 120.570 o
-4 3 8 5.749 -0.631 4.290 109.920 o
-4 3 9 1.587 1.514 4.479 101.205 o
-4 3 10 8.540 9.968 5.110 76.491 o
-4 3 11 6.675 2.523 4.353 106.358 o
-4 3 12 23.586 24.541 6.498 44.763 o
-4 3 13 1.108 -0.631 5.110 77.802 o
-4 3 14 42.117 40.874 7.633 29.919 o
-4 3 15 2.788 -3.344 5.615 64.412 o
-4 3 16 2.741 1.766 6.246 52.045 o
-4 4 1 72.139 65.192 5.364 36.411 o
-4 4 2 0.844 1.352 3.228 194.833 o
-4 4 3 187.746 177.255 10.472 6.821 o
-4 4 4 115.787 116.509 8.958 13.118 o
-4 4 5 6.247 1.009 3.659 150.497 o
-4 4 6 2.296 1.325 4.227 113.590 o
-4 4 7 0.580 -1.199 3.974 128.620 o
-4 4 8 32.918 37.909 6.624 40.227 o
-4 4 9 16.620 18.547 5.678 59.955 o
-4 4 10 18.229 26.496 6.561 44.667 o
-4 4 11 1.057 -2.397 4.984 81.792 o
-4 4 12 3.169 4.605 5.678 62.883 o
-4 4 13 4.379 -1.199 5.362 70.544 o
-4 4 14 0.820 1.199 5.741 61.640 o
-4 4 15 3.310 6.246 6.498 48.005 o
-4 5 1 169.106 172.796 10.725 7.365 o
-4 5 2 4.184 0.657 4.700 91.773 o
-4 5 3 83.884 85.598 6.213 25.999 o
-4 5 4 54.453 47.966 9.558 19.077 o
-4 5 5 17.026 18.530 4.176 106.150 o
-4 5 6 1.798 3.309 3.547 161.131 o
-4 5 7 0.001 0.568 4.416 104.187 o
-4 5 8 9.811 9.148 5.110 76.321 o
-4 5 9 10.140 18.106 6.183 51.924 o
-4 5 10 2.108 7.192 5.678 62.871 o
-4 5 11 7.290 10.977 6.119 53.682 o
-4 5 12 2.233 7.823 6.056 55.255 o
-4 5 13 6.392 16.592 7.066 40.270 o
-4 6 1 1.449 1.459 4.134 118.813 o
-4 6 2 6.319 4.540 4.115 118.728 o
-4 6 3 22.756 20.569 4.743 80.665 o
-4 6 4 19.449 17.845 4.582 88.419 o
-4 6 5 20.974 16.218 4.637 86.132 o
-4 6 6 0.121 -0.157 5.425 69.026 o
-4 6 7 21.220 21.983 4.953 74.999 o
-4 6 8 32.863 41.178 5.758 50.556 o
-4 6 9 0.001 -2.244 3.909 132.951 o
-4 6 10 0.043 4.213 4.409 104.466 o
-4 6 11 2.199 6.420 4.547 97.915 o
-4 7 1 0.313 -1.519 4.481 101.182 o
-4 7 2 3.887 12.897 4.749 89.042 o
-4 7 3 0.605 -1.943 4.358 106.961 o
-4 7 4 100.865 114.286 12.933 8.881 o
-4 7 5 0.246 2.906 4.431 103.462 o
-4 7 6 15.891 19.674 5.267 69.180 o
-4 7 7 3.363 8.273 4.595 95.602 o
-3 -10 1 13.296 -0.126 6.940 41.813 o
-3 -10 2 65.737 80.745 10.409 14.929 o
-3 -10 3 32.343 29.209 7.760 30.953 o
-3 -10 4 20.546 14.825 7.760 32.698 o
-3 -10 5 79.678 92.100 10.788 13.081 o
-3 -10 6 3.740 -2.523 6.309 51.008 o
-3 -9 1 8.349 8.643 6.309 50.550 o
-3 -9 2 39.980 41.252 7.886 28.522 o
-3 -9 3 24.845 37.593 7.255 35.442 o
-3 -9 4 73.210 70.714 9.211 17.842 o
-3 -9 5 0.551 0.442 6.056 55.393 o
-3 -9 6 0.153 -0.883 6.056 55.395 o
-3 -9 7 17.386 12.302 6.750 43.294 o
-3 -9 8 10.315 10.472 6.876 42.435 o
-3 -9 9 4.716 0.000 6.056 55.312 o
-3 -8 1 0.654 -0.396 2.580 305.167 o
-3 -8 2 17.809 17.293 3.333 158.287 o
-3 -8 3 2.248 5.110 5.615 64.335 o
-3 -8 4 10.158 4.479 5.741 60.949 o
-3 -8 5 40.576 41.883 7.129 33.782 o
-3 -8 6 0.956 -4.038 4.416 104.176 o
-3 -8 7 1.707 -3.154 5.236 74.087 o
-3 -8 8 87.091 82.637 9.021 16.652 o
-3 -8 9 24.784 28.137 7.192 36.647 o
-3 -8 10 25.825 25.361 7.444 34.397 o
-3 -8 11 1.849 -2.397 5.930 57.763 o
-3 -8 12 0.010 -7.381 5.804 60.316 o
-3 -7 1 5.672 6.044 2.766 259.340 o
-3 -7 2 51.034 51.281 4.148 64.120 o
-3 -7 3 3.065 1.203 2.540 313.411 o
-3 -7 4 46.409 41.694 6.309 39.883 o
-3 -7 5 40.162 37.215 6.372 41.373 o
-3 -7 6 113.264 128.117 10.157 11.248 o
-3 -7 7 111.609 130.072 10.346 11.047 o
-3 -7 8 91.329 91.028 8.706 16.663 o
-3 -7 9 119.694 122.502 9.778 11.525 o
-3 -7 10 6.300 7.066 5.110 77.108 o
-3 -7 11 36.219 35.764 7.066 35.561 o
-3 -7 12 5.407 0.315 5.489 67.278 o
-3 -7 13 1.709 1.388 5.552 65.894 o
-3 -7 14 29.210 20.125 7.129 37.199 o
-3 -6 1 45.377 47.727 3.666 80.462 o
-3 -6 2 167.126 201.245 8.832 7.979 o
-3 -6 3 1.748 -0.083 2.493 326.513 o
-3 -6 4 22.024 30.849 5.362 63.080 o
-3 -6 5 8.246 4.668 4.479 99.900 o
-3 -6 6 11.055 15.141 4.668 89.710 o
-3 -6 7 13.302 18.169 5.110 74.297 o
-3 -6 8 32.346 28.137 5.930 50.200 o
-3 -6 9 21.502 19.115 5.741 57.502 o
-3 -6 10 54.157 55.889 7.570 27.487 o
-3 -6 11 22.140 18.737 5.993 52.960 o
-3 -6 12 21.794 20.692 6.056 51.800 o
-3 -6 13 20.206 19.557 6.246 49.289 o
-3 -6 14 0.757 -1.388 5.173 75.921 o
-3 -6 15 18.918 19.305 6.498 45.933 o
-3 -5 1 25.168 20.436 3.785 116.683 o
-3 -5 2 417.907 406.657 7.832 2.007 o
-3 -5 3 56.651 50.672 3.528 70.041 o
-3 -5 4 38.918 36.016 5.425 54.297 o
-3 -5 5 1.327 4.731 4.227 113.513 o
-3 -5 6 40.970 34.502 5.615 50.952 o
-3 -5 7 2.941 -0.505 3.659 151.518 o
-3 -5 8 1.802 1.766 4.227 113.614 o
-3 -5 9 138.883 158.013 10.031 9.337 o
-3 -5 10 18.877 18.926 5.299 67.589 o
-3 -5 11 31.264 28.894 5.804 52.320 o
-3 -5 12 3.602 1.009 4.416 103.966 o
-3 -5 13 6.047 4.984 4.858 85.455 o
-3 -5 14 0.111 -0.694 4.731 90.759 o
-3 -5 15 8.542 12.996 5.425 67.744 o
-3 -5 16 18.007 25.487 6.119 51.080 o
-3 -4 1 264.783 303.125 8.548 4.062 o
-3 -4 2 419.937 428.012 7.251 1.948 o
-3 -4 3 97.773 99.888 4.469 27.555 o
-3 -4 4 7.628 4.765 1.455 859.224 o
-3 -4 5 0.012 -0.175 1.872 579.543 o
-3 -4 6 237.124 257.305 6.092 5.540 o
-3 -4 7 108.726 111.454 5.578 20.785 o
-3 -4 8 249.923 282.522 7.329 4.717 o
-3 -4 9 104.239 100.734 5.755 22.082 o
-3 -4 10 28.898 28.604 3.760 108.454 o
-3 -4 11 0.939 2.324 3.031 220.850 o
-3 -4 12 1.569 0.063 3.974 128.575 o
-3 -4 13 0.734 -4.416 3.785 141.798 o
-3 -4 14 6.589 8.264 4.416 102.696 o
-3 -4 15 45.647 33.934 6.119 43.132 o
-3 -4 16 28.711 30.029 6.246 46.475 o
-3 -4 17 0.972 0.000 4.416 104.175 o
-3 -3 1 644.746 737.165 9.320 0.776 o
-3 -3 2 422.451 516.551 4.984 1.742 o
-3 -3 3 46.965 58.936 2.316 102.823 o
-3 -3 4 2.298 6.191 1.657 721.001 o
-3 -3 5 113.488 111.698 4.026 23.390 o
-3 -3 6 868.688 873.335 15.172 0.459 o
-3 -3 7 12.507 8.669 2.609 270.637 o
-3 -3 8 24.438 22.076 3.438 136.158 o
-3 -3 9 24.994 20.945 3.407 138.145 o
-3 -3 10 12.578 13.623 3.224 179.525 o
-3 -3 11 28.692 29.364 3.785 107.166 o
-3 -3 12 20.785 18.892 3.666 129.495 o
-3 -3 13 0.195 -2.609 3.943 130.692 o
-3 -3 14 1.156 -1.885 3.066 216.135 o
-3 -3 15 39.865 31.840 4.560 71.381 o
-3 -3 16 78.359 77.774 7.791 21.484 o
-3 -3 17 2.758 4.164 4.416 103.880 o
-3 -2 1 3.400 1.167 1.058 1755.500 o
-3 -2 2 240.127 259.891 4.208 5.721 o
-3 -2 3 397.643 428.539 6.197 2.114 o
-3 -2 4 79.516 77.790 3.409 44.008 o
-3 -2 5 94.044 99.191 6.810 20.900 o
-3 -2 6 6.480 5.708 2.429 332.329 o
-3 -2 7 0.758 2.793 2.270 393.498 o
-3 -2 8 116.496 114.254 5.378 19.688 o
-3 -2 9 12.520 13.369 2.969 208.899 o
-3 -2 10 16.526 14.927 3.228 171.594 o
-3 -2 11 8.358 7.021 2.916 229.562 o
-3 -2 12 114.753 119.387 6.119 18.072 o
-3 -2 13 138.250 162.130 8.040 11.093 o
-3 -2 14 6.754 2.377 3.123 205.041 o
-3 -2 15 0.074 -3.926 2.789 261.154 o
-3 -2 16 10.609 10.498 5.110 76.008 o
-3 -2 17 0.024 -5.290 6.088 54.822 o
-3 -2 18 6.470 -1.766 7.066 40.614 o
-3 -1 1 167.632 169.340 3.681 11.924 o
-3 -1 2 31.350 21.453 1.619 290.877 o
-3 -1 3 602.434 677.665 8.394 0.902 o
-3 -1 4 165.836 212.792 5.121 9.729 o
-3 -1 5 37.505 31.308 2.696 142.749 o
-3 -1 6 19.067 20.462 2.807 203.259 o
-3 -1 7 278.361 299.953 6.825 4.075 o
-3 -1 8 24.039 22.696 4.952 73.588 o
-3 -1 9 892.770 892.942 12.333 0.444 o
-3 -1 10 6.416 7.556 2.812 248.821 o
-3 -1 11 6.333 6.233 2.798 252.432 o
-3 -1 12 14.912 14.382 5.331 68.593 o
-3 -1 13 66.674 65.865 4.982 41.242 o
-3 -1 14 13.957 17.636 3.652 138.992 o
-3 -1 15 3.244 1.355 5.741 61.579 o
-3 -1 16 2.578 1.853 3.139 205.631 o
-3 -1 17 0.033 -1.897 3.149 204.916 o
-3 -1 18 0.707 -5.110 6.309 51.050 o
-3 -1 19 26.141 29.777 8.517 26.497 o
-3 0 1 464.571 563.180 7.639 1.421 o
-3 0 2 203.873 231.235 5.962 7.078 o
-3 0 3 1069.470 1179.560 11.998 0.293 o
-3 0 4 1.527 4.852 1.822 604.741 o
-3 0 5 495.831 501.483 8.050 1.413 o
-3 0 6 4.477 4.138 2.160 425.687 o
-3 0 7 78.813 88.478 4.847 33.416 o
-3 0 8 113.048 136.021 5.540 18.228 o
-3 0 9 168.909 177.418 8.548 8.587 o
-3 0 10 0.597 0.781 2.659 287.184 o
-3 0 11 166.353 169.888 6.543 10.240 o
-3 0 12 41.018 44.488 4.183 74.266 o
-3 0 13 21.165 20.384 3.594 132.488 o
-3 0 14 7.023 6.090 3.127 202.562 o
-3 0 15 15.973 17.792 3.732 131.465 o
-3 0 16 15.612 20.521 4.028 113.653 o
-3 0 17 0.362 -0.315 6.056 55.394 o
-3 0 18 2.705 0.126 6.561 47.180 o
-3 0 19 0.001 -11.734 6.750 44.591 o
-3 1 1 66.856 79.735 5.741 33.296 o
-3 1 2 37.531 38.098 4.290 77.281 o
-3 1 3 52.476 57.024 4.984 49.556 o
-3 1 4 301.621 352.377 12.267 2.850 o
-3 1 5 6.732 13.096 2.449 315.976 o
-3 1 6 8.900 5.091 2.334 352.064 o
-3 1 7 624.143 586.289 9.916 0.936 o
-3 1 8 78.817 79.146 8.170 20.061 o
-3 1 9 3.813 3.886 2.891 240.733 o
-3 1 10 31.372 26.415 3.547 116.254 o
-3 1 11 1.926 5.294 2.789 259.462 o
-3 1 12 8.557 12.988 3.228 185.094 o
-3 1 13 6.444 5.154 2.996 221.478 o
-3 1 14 6.696 3.843 3.046 214.765 o
-3 1 15 8.546 6.318 3.436 167.274 o
-3 1 16 0.291 -7.032 3.166 202.729 o
-3 1 17 6.089 3.588 3.865 134.620 o
-3 1 18 17.272 18.232 7.633 33.872 o
-3 2 1 159.516 159.086 8.138 9.813 o
-3 2 2 44.589 29.146 4.479 70.827 o
-3 2 3 76.198 85.539 6.750 25.259 o
-3 2 4 307.966 279.512 9.778 3.446 o
-3 2 5 228.789 206.842 9.526 5.602 o
-3 2 6 416.335 372.426 12.239 1.945 o
-3 2 7 145.581 119.978 8.769 11.224 o
-3 2 8 1.021 -5.047 3.974 128.606 o
-3 2 9 23.743 21.450 5.236 66.957 o
-3 2 10 11.229 9.589 4.795 86.019 o
-3 2 11 7.332 4.353 4.921 83.147 o
-3 2 12 0.342 -5.930 4.542 98.478 o
-3 2 13 67.619 81.439 8.832 19.002 o
-3 2 14 0.029 -0.379 5.299 72.353 o
-3 2 15 26.327 25.361 7.129 37.234 o
-3 2 16 54.711 57.718 9.148 20.140 o
-3 2 17 2.750 -1.766 6.309 51.028 o
-3 2 18 2.566 7.381 6.876 42.882 o
-3 3 1 394.854 402.834 12.617 1.963 o
-3 3 2 478.070 475.434 13.501 1.406 o
-3 3 3 71.699 70.525 6.435 29.194 o
-3 3 4 42.379 37.404 5.489 51.678 o
-3 3 5 148.403 146.033 8.454 10.568 o
-3 3 6 6.773 -1.325 3.974 127.713 o
-3 3 7 26.307 23.405 5.110 68.476 o
-3 3 8 28.264 30.786 5.615 56.095 o
-3 3 9 6.263 8.138 4.668 92.117 o
-3 3 10 0.901 2.965 4.164 117.105 o
-3 3 11 0.325 0.063 4.668 93.227 o
-3 3 12 7.236 7.444 5.425 68.339 o
-3 3 13 14.256 22.396 6.056 53.084 o
-3 3 14 39.660 39.991 7.318 32.602 o
-3 3 15 76.084 89.388 10.220 14.472 o
-3 3 16 11.301 6.309 6.561 46.642 o
-3 3 17 11.454 10.977 7.003 40.846 o
-3 4 1 68.563 55.867 4.920 43.092 o
-3 4 2 3.892 3.799 3.221 194.288 o
-3 4 3 117.876 113.480 8.264 14.166 o
-3 4 4 16.098 10.662 3.911 123.664 o
-3 4 5 45.948 40.559 5.930 44.195 o
-3 4 6 0.459 2.397 3.659 151.683 o
-3 4 7 13.914 14.825 5.110 74.609 o
-3 4 8 12.389 10.914 4.921 81.278 o
-3 4 9 3.085 6.246 4.731 90.376 o
-3 4 10 10.796 14.447 5.552 64.257 o
-3 4 11 55.155 61.440 8.075 24.369 o
-3 4 12 20.993 22.585 6.435 46.204 o
-3 4 13 0.949 2.523 5.362 70.630 o
-3 4 14 2.816 1.514 5.804 60.260 o
-3 4 15 0.608 -4.416 5.552 65.922 o
-3 4 16 1.408 -1.072 6.119 54.252 o
-3 4 17 23.322 26.658 6.053 50.858 o
-3 5 1 35.396 39.035 4.637 70.233 o
-3 5 2 84.377 86.649 5.920 27.006 o
-3 5 3 4.204 6.743 3.509 163.133 o
-3 5 4 11.861 16.584 3.835 129.366 o
-3 5 5 1.839 1.976 3.221 195.465 o
-3 5 6 11.123 15.396 3.826 130.985 o
-3 5 7 103.973 110.831 9.148 13.890 o
-3 5 8 0.563 -1.199 4.227 113.722 o
-3 5 9 1.099 0.568 4.164 117.167 o
-3 5 10 23.889 27.190 6.561 43.687 o
-3 5 11 21.564 27.317 6.750 41.787 o
-3 5 12 59.825 58.033 8.643 21.581 o
-3 5 13 0.387 1.766 5.930 57.771 o
-3 5 14 63.736 72.354 9.778 16.901 o
-3 5 15 97.902 125.656 12.239 9.519 o
-3 6 1 10.250 15.186 4.017 120.093 o
-3 6 2 0.356 4.631 4.069 122.583 o
-3 6 3 0.263 4.900 3.522 163.558 o
-3 6 4 0.103 5.226 3.562 159.900 o
-3 6 5 2.229 1.134 5.899 58.364 o
-3 6 6 39.310 34.993 4.953 62.544 o
-3 6 7 0.532 -1.209 3.577 158.788 o
-3 6 8 99.477 100.186 6.907 19.758 o
-3 6 9 45.927 47.820 6.309 39.212 o
-3 6 10 16.394 21.631 5.646 60.284 o
-3 6 11 1.124 9.454 4.542 98.075 o
-3 6 12 0.039 3.149 6.151 53.694 o
-3 6 13 66.695 74.019 7.068 26.576 o
-3 6 14 61.474 75.596 22.364 3.874 o
-3 7 1 31.388 34.540 5.411 57.864 o
-3 7 2 0.373 -0.505 3.942 130.737 o
-3 7 3 2.617 4.396 4.128 118.848 o
-3 7 4 7.573 5.712 4.047 122.049 o
-3 7 5 1.998 6.258 4.317 108.640 o
-3 7 6 1.397 -1.309 3.898 133.686 o
-3 7 7 108.603 112.878 7.673 16.126 o
-3 7 8 4.857 3.399 4.260 111.326 o
-3 7 9 27.186 32.906 5.623 55.960 o
-3 7 10 8.728 15.013 5.032 78.223 o
-3 7 11 5.992 5.236 4.713 90.730 o
-3 8 1 4.329 0.915 4.630 94.536 o
-3 8 2 0.259 -2.526 4.175 116.584 o
-3 8 3 2.701 1.828 4.383 105.582 o
-3 8 4 0.531 -1.002 4.261 111.921 o
-3 8 5 0.106 0.752 5.615 64.450 o
-3 8 6 1.141 2.292 4.340 107.777 o
-2 -10 1 36.688 41.126 9.084 22.425 o
-2 -10 2 41.821 43.208 8.580 24.326 o
-2 -10 3 97.054 105.153 11.545 10.782 o
-2 -10 4 0.467 -1.451 6.940 42.191 o
-2 -10 5 26.702 29.083 8.643 25.755 o
-2 -9 1 12.729 5.173 6.561 46.575 o
-2 -9 2 58.575 53.617 8.264 23.554 o
-2 -9 3 8.767 3.154 6.372 49.723 o
-2 -9 4 32.881 33.430 7.949 29.342 o
-2 -9 5 7.497 8.643 7.003 41.146 o
-2 -9 6 6.817 1.325 6.750 44.456 o
-2 -9 7 9.668 -1.640 5.930 57.401 o
-2 -9 8 6.408 -6.813 6.246 51.954 o
-2 -9 9 31.632 35.007 8.327 26.985 o
-2 -8 1 0.034 7.760 6.183 53.105 o
-2 -8 2 4.690 -3.217 5.615 64.341 o
-2 -8 3 27.501 29.777 7.129 36.777 o
-2 -8 4 3.041 -4.227 5.362 70.604 o
-2 -8 5 48.698 38.287 7.381 30.869 o
-2 -8 6 0.519 -10.283 5.236 74.105 o
-2 -8 7 1.086 -2.776 5.867 59.021 o
-2 -8 8 38.548 34.187 7.444 32.228 o
-2 -8 9 23.879 31.165 7.381 34.840 o
-2 -8 10 11.042 8.264 6.750 44.042 o
-2 -8 11 0.287 -2.208 6.056 55.395 o
-2 -8 12 5.155 8.580 6.750 44.377 o
-2 -7 1 25.947 20.041 3.009 165.994 o
-2 -7 2 7.511 6.194 2.437 326.778 o
-2 -7 3 21.329 15.772 5.867 55.628 o
-2 -7 4 0.741 -3.974 5.110 77.807 o
-2 -7 5 7.980 4.038 5.425 68.454 o
-2 -7 6 10.232 2.397 5.425 68.279 o
-2 -7 7 193.015 201.102 11.482 5.903 o
-2 -7 8 14.964 4.605 5.552 64.390 o
-2 -7 9 82.062 100.800 9.148 16.010 o
-2 -7 10 50.173 39.423 7.381 30.547 o
-2 -7 11 2.237 6.056 5.867 58.910 o
-2 -7 12 12.868 3.848 6.561 46.617 o
-2 -7 13 8.073 2.523 6.309 50.778 o
-2 -7 14 0.085 -0.126 5.993 56.567 o
-2 -6 1 107.900 95.416 8.671 15.067 o
-2 -6 2 244.321 280.227 6.913 4.932 o
-2 -6 3 371.745 402.518 14.068 2.018 o
-2 -6 4 50.561 47.246 6.561 35.894 o
-2 -6 5 0.089 4.605 4.858 86.054 o
-2 -6 6 5.025 7.570 4.731 89.990 o
-2 -6 7 0.020 -0.694 4.668 93.228 o
-2 -6 8 148.903 163.313 10.662 8.305 o
-2 -6 9 174.109 188.610 10.788 6.913 o
-2 -6 10 74.427 77.969 8.201 20.533 o
-2 -6 11 104.678 110.894 9.589 13.098 o
-2 -6 12 4.167 -0.946 5.299 72.242 o
-2 -6 13 1.352 0.568 5.362 70.644 o
-2 -6 14 14.680 10.788 6.056 53.935 o
-2 -6 15 0.450 -7.381 4.921 83.910 o
-2 -5 1 19.918 22.134 1.625 405.950 o
-2 -5 2 288.058 267.681 4.184 4.455 o
-2 -5 3 2.987 4.055 1.777 631.065 o
-2 -5 4 122.008 138.123 5.366 17.110 o
-2 -5 5 249.796 236.461 6.562 5.392 o
-2 -5 6 50.867 56.985 4.256 60.417 o
-2 -5 7 35.792 31.459 3.991 90.434 o
-2 -5 8 0.015 -0.813 6.908 42.578 o
-2 -5 9 55.377 47.372 6.309 36.807 o
-2 -5 10 2.980 1.956 4.416 103.982 o
-2 -5 11 3.000 -2.839 4.542 98.374 o
-2 -5 12 8.474 8.264 5.047 78.561 o
-2 -5 13 5.239 5.299 4.921 83.384 o
-2 -5 14 23.059 24.478 6.183 49.205 o
-2 -5 15 5.875 4.227 5.173 75.481 o
-2 -5 16 0.249 -2.019 5.299 72.352 o
-2 -4 1 161.579 196.090 5.015 10.624 o
-2 -4 2 47.377 61.165 3.402 76.532 o
-2 -4 3 5.712 1.427 1.393 995.014 o
-2 -4 4 1.972 3.524 2.242 401.317 o
-2 -4 5 46.684 49.200 3.404 84.286 o
-2 -4 6 27.631 28.317 3.411 127.503 o
-2 -4 7 34.375 33.454 3.782 97.973 o
-2 -4 8 68.316 65.673 4.617 43.669 o
-2 -4 9 15.445 15.859 3.618 140.736 o
-2 -4 10 53.877 66.120 5.867 38.303 o
-2 -4 11 16.975 16.994 3.758 129.250 o
-2 -4 12 0.168 2.316 3.396 176.162 o
-2 -4 13 20.168 16.858 4.069 109.419 o
-2 -4 14 4.378 -2.022 5.047 79.621 o
-2 -4 15 1.863 -0.820 4.542 98.439 o
-2 -4 16 8.923 18.547 5.678 61.471 o
-2 -3 1 7.880 14.885 1.861 502.672 o
-2 -3 2 146.365 176.948 4.826 12.764 o
-2 -3 3 178.152 180.278 3.060 10.881 o
-2 -3 4 39.134 38.787 2.409 142.661 o
-2 -3 5 86.974 87.720 4.220 33.870 o
-2 -3 6 106.011 108.493 4.751 23.667 o
-2 -3 7 408.104 420.814 9.463 1.968 o
-2 -3 8 1.529 2.196 2.831 253.015 o
-2 -3 9 2.876 4.795 3.127 206.413 o
-2 -3 10 42.217 33.945 3.984 82.916 o
-2 -3 11 0.344 -2.050 4.038 124.636 o
-2 -3 12 29.389 25.673 3.865 105.095 o
-2 -3 13 11.519 6.436 3.381 169.842 o
-2 -3 14 1.751 -1.875 2.904 240.784 o
-2 -3 15 47.470 52.018 5.129 51.300 o
-2 -3 16 2.986 -0.156 3.627 154.168 o
-2 -3 17 84.624 101.052 11.482 11.490 o
-2 -3 18 7.247 5.173 8.201 30.102 o
-2 -2 1 1168.180 1240.030 7.486 0.256 o
-2 -2 2 65.909 78.181 3.500 51.551 o
-2 -2 3 712.263 734.938 7.169 0.695 o
-2 -2 4 97.366 101.215 4.668 26.824 o
-2 -2 5 47.837 42.335 2.607 109.653 o
-2 -2 6 49.435 39.558 2.775 104.171 o
-2 -2 7 45.232 51.638 3.382 85.086 o
-2 -2 8 1.088 0.442 3.249 192.408 o
-2 -2 9 17.087 11.624 2.916 207.418 o
-2 -2 10 4.460 7.867 3.974 127.228 o
-2 -2 11 147.937 142.129 6.466 12.699 o
-2 -2 12 0.091 -2.646 3.281 188.801 o
-2 -2 13 7.386 4.507 2.978 223.318 o
-2 -2 14 30.643 34.075 4.201 87.376 o
-2 -2 15 1.827 -5.143 3.596 157.031 o
-2 -2 16 92.870 112.608 7.823 17.512 o
-2 -2 17 1.811 -4.858 6.750 44.583 o
-2 -2 18 12.461 7.444 7.633 34.487 o
-2 -2 19 3.929 -21.702 7.381 37.268 o
-2 -1 1 235.138 228.288 3.007 6.562 o
-2 -1 2 50.038 46.309 2.409 106.921 o
-2 -1 3 241.179 218.013 4.125 6.366 o
-2 -1 4 108.878 112.354 3.412 25.794 o
-2 -1 5 0.217 -1.971 1.703 700.273 o
-2 -1 6 14.586 13.980 2.226 332.955 o
-2 -1 7 26.443 17.799 5.015 71.969 o
-2 -1 8 1.033 3.223 2.178 426.788 o
-2 -1 9 15.219 14.000 3.438 155.841 o
-2 -1 10 37.240 30.506 3.501 106.689 o
-2 -1 11 14.471 15.796 3.265 170.830 o
-2 -1 12 36.832 30.773 3.745 97.948 o
-2 -1 13 7.027 5.203 4.227 112.291 o
-2 -1 14 6.646 5.450 3.596 154.545 o
-2 -1 15 2.125 -3.733 3.848 137.096 o
-2 -1 16 3.089 4.952 3.111 208.350 o
-2 -1 17 17.171 16.466 7.633 33.943 o
-2 -1 18 1.186 -2.902 7.192 39.280 o
-2 -1 19 0.211 -10.977 7.760 33.744 o
-2 0 1 10.090 8.374 1.490 746.418 o
-2 0 2 564.182 548.773 6.600 1.144 o
-2 0 3 181.452 248.594 4.728 8.040 o
-2 0 4 412.245 444.821 10.567 1.840 o
-2 0 5 55.677 44.655 3.943 66.530 o
-2 0 6 0.231 -1.210 1.757 657.988 o
-2 0 7 2.241 4.432 2.271 390.217 o
-2 0 8 40.763 26.520 3.754 95.475 o
-2 0 9 352.179 360.640 7.923 2.668 o
-2 0 10 0.015 -2.694 2.459 336.020 o
-2 0 11 134.542 137.987 7.570 12.748 o
-2 0 12 11.158 8.100 3.045 206.511 o
-2 0 13 1.983 -1.884 2.397 352.950 o
-2 0 14 6.831 9.938 4.038 122.069 o
-2 0 15 7.114 10.395 3.196 191.940 o
-2 0 16 11.206 9.316 3.473 160.175 o
-2 0 17 13.769 5.489 7.255 38.116 o
-2 0 18 58.575 54.374 9.715 18.059 o
-2 0 19 2.205 -1.451 7.255 38.594 o
-2 1 1 35.265 49.328 4.353 73.092 o
-2 1 2 292.038 335.779 8.327 3.440 o
-2 1 3 310.798 298.502 5.563 3.678 o
-2 1 4 120.438 145.690 4.410 18.222 o
-2 1 5 796.952 858.139 10.002 0.534 o
-2 1 6 21.030 14.224 2.289 282.507 o
-2 1 7 3.313 6.265 2.238 397.391 o
-2 1 8 125.314 137.721 5.290 16.807 o
-2 1 9 77.600 79.557 4.608 36.820 o
-2 1 10 230.356 214.896 9.113 5.579 o
-2 1 11 8.569 12.412 4.385 102.815 o
-2 1 12 2.760 1.370 2.483 328.032 o
-2 1 13 7.075 8.012 5.489 66.778 o
-2 1 14 2.231 -0.012 4.605 95.745 o
-2 1 15 100.599 98.123 9.018 14.883 o
-2 1 16 12.741 12.803 4.164 111.397 o
-2 1 17 15.286 18.169 7.318 36.931 o
-2 1 18 8.049 7.003 7.381 37.070 o
-2 1 19 1.719 -0.631 7.444 36.660 o
-2 2 1 0.003 -2.271 2.019 498.554 o
-2 2 2 186.967 214.791 7.381 7.582 o
-2 2 3 26.095 33.303 3.848 105.211 o
-2 2 4 121.918 133.227 6.876 15.065 o
-2 2 5 24.354 32.546 4.101 97.299 o
-2 2 6 45.559 50.084 5.047 53.818 o
-2 2 7 28.475 22.333 4.668 79.164 o
-2 2 8 179.231 181.923 9.842 7.342 o
-2 2 9 130.239 126.539 8.580 12.249 o
-2 2 10 3.968 7.760 5.173 75.497 o
-2 2 11 7.643 2.397 4.795 87.652 o
-2 2 12 5.662 -1.009 4.668 92.892 o
-2 2 13 153.751 165.647 11.103 7.779 o
-2 2 14 269.449 262.479 12.680 3.652 o
-2 2 15 75.937 80.114 9.274 17.052 o
-2 2 16 49.788 61.629 8.958 21.108 o
-2 2 17 36.107 39.864 8.391 26.003 o
-2 2 18 0.103 -5.993 6.372 50.046 o
-2 2 19 0.223 0.126 6.940 42.191 o
-2 3 1 20.682 9.386 2.542 252.525 o
-2 3 2 3.558 8.419 1.568 779.141 o
-2 3 3 241.337 226.456 8.832 5.240 o
-2 3 4 3.780 6.750 3.659 150.343 o
-2 3 5 119.966 132.596 8.075 13.483 o
-2 3 6 0.531 0.631 3.344 181.715 o
-2 3 7 145.473 163.060 8.832 9.912 o
-2 3 8 13.145 7.823 4.731 87.943 o
-2 3 9 51.977 64.594 7.192 29.352 o
-2 3 10 43.597 43.650 6.561 37.912 o
-2 3 11 14.745 1.956 4.858 83.939 o
-2 3 12 73.908 63.333 8.012 22.168 o
-2 3 13 2.360 1.766 5.236 74.037 o
-2 3 14 9.977 6.056 5.678 62.223 o
-2 3 15 139.104 152.342 11.671 8.114 o
-2 3 16 18.837 10.914 6.056 53.282 o
-2 3 17 32.992 23.405 7.760 31.194 o
-2 3 18 30.605 33.177 8.454 26.404 o
-2 4 1 17.606 18.396 6.593 44.920 o
-2 4 2 153.685 136.679 6.399 12.510 o
-2 4 3 173.699 167.659 3.876 11.386 o
-2 4 4 415.164 388.093 6.506 2.123 o
-2 4 5 1.882 0.924 2.934 235.735 o
-2 4 6 109.719 100.137 5.123 22.788 o
-2 4 7 46.512 38.527 3.713 83.122 o
-2 4 8 16.323 14.762 4.984 77.482 o
-2 4 9 8.449 17.349 5.110 75.716 o
-2 4 10 32.822 21.954 5.867 51.899 o
-2 4 11 18.386 11.923 5.489 64.329 o
-2 4 12 19.343 14.952 5.930 55.005 o
-2 4 13 23.822 11.797 6.056 52.292 o
-2 4 14 60.113 55.699 8.012 24.404 o
-2 4 15 12.636 12.138 4.489 96.694 o
-2 4 16 46.485 46.569 5.680 45.907 o
-2 4 17 30.599 33.879 5.595 55.108 o
-2 4 18 54.224 68.262 6.737 31.444 o
-2 5 1 0.279 -0.238 3.043 219.356 o
-2 5 2 2.275 3.419 3.034 219.852 o
-2 5 3 2.870 2.021 3.722 146.267 o
-2 5 4 5.196 4.133 4.479 100.622 o
-2 5 5 0.457 1.049 2.923 237.799 o
-2 5 6 10.712 4.306 3.278 182.176 o
-2 5 7 26.200 20.105 2.700 193.006 o
-2 5 8 13.594 9.121 2.940 214.858 o
-2 5 9 23.023 11.499 5.236 68.975 o
-2 5 10 151.795 140.350 6.533 12.383 o
-2 5 11 2.452 -7.012 3.785 141.664 o
-2 5 12 96.372 91.206 6.077 23.461 o
-2 5 13 42.223 42.218 4.949 59.113 o
-2 5 14 12.720 14.999 4.491 95.954 o
-2 5 15 4.735 0.983 4.239 112.651 o
-2 5 16 89.925 116.130 7.642 18.083 o
-2 5 17 3.615 -2.118 4.549 98.015 o
-2 6 1 0.120 4.188 3.370 178.707 o
-2 6 2 7.951 11.970 4.605 93.686 o
-2 6 3 4.960 6.498 3.428 170.512 o
-2 6 4 34.547 29.428 4.212 85.667 o
-2 6 5 0.000 4.970 3.370 178.658 o
-2 6 6 373.475 357.970 9.918 2.389 o
-2 6 7 13.607 10.140 3.803 132.599 o
-2 6 8 30.693 32.331 4.769 72.163 o
-2 6 9 84.854 103.583 6.781 22.089 o
-2 6 10 29.768 30.712 8.450 26.585 o
-2 6 11 4.484 10.677 5.205 74.355 o
-2 6 12 1.450 0.949 4.096 121.049 o
-2 6 13 3.514 -1.088 4.320 108.717 o
-2 6 14 73.086 77.983 7.048 25.201 o
-2 6 15 57.768 54.501 9.652 18.309 o
-2 7 1 1.234 0.728 3.522 163.719 o
-2 7 2 6.871 9.602 3.753 140.885 o
-2 7 3 75.635 79.640 6.143 28.789 o
-2 7 4 19.483 17.948 4.272 100.381 o
-2 7 5 73.840 75.448 5.979 30.592 o
-2 7 6 8.586 7.452 3.858 133.166 o
-2 7 7 10.201 15.126 4.329 104.086 o
-2 7 8 199.628 213.018 9.183 6.445 o
-2 7 9 0.597 3.038 4.187 115.833 o
-2 7 10 54.856 61.154 6.300 35.226 o
-2 7 11 4.066 2.343 4.423 103.507 o
-2 7 12 27.091 39.388 6.080 47.963 o
-2 7 13 202.267 267.482 11.470 4.959 o
-2 8 1 1.254 0.009 6.813 43.765 o
-2 8 2 0.004 2.582 4.128 119.217 o
-2 8 3 61.014 59.226 6.088 35.455 o
-2 8 4 2.127 -2.038 6.340 50.531 o
-2 8 5 3.079 3.965 4.282 110.414 o
-2 8 6 21.532 28.899 5.801 55.153 o
-2 8 7 31.105 26.134 7.539 32.962 o
-2 8 8 3.637 6.711 4.551 97.514 o
-2 8 9 109.433 128.715 8.210 14.326 o
-2 8 10 35.081 47.570 6.229 42.922 o
-2 9 1 0.050 1.956 8.391 28.860 o
-2 9 2 1.699 -0.946 8.454 28.429 o
-2 9 3 3.659 1.009 7.823 33.179 o
-2 9 4 9.554 6.687 8.769 26.283 o
-1 -10 1 0.273 -4.731 7.633 34.869 o
-1 -10 2 40.371 53.365 10.157 17.785 o
-1 -10 3 50.495 46.615 9.905 18.219 o
-1 -10 4 0.703 -0.694 7.633 34.868 o
-1 -9 1 2.131 -4.542 6.750 44.580 o
-1 -9 2 3.300 2.208 6.876 42.926 o
-1 -9 3 0.135 -6.687 6.813 43.769 o
-1 -9 4 22.495 21.197 8.138 29.477 o
-1 -9 5 1.755 -0.126 7.066 40.692 o
-1 -9 6 20.148 7.697 7.570 34.596 o
-1 -9 7 0.015 -11.608 6.561 47.200 o
-1 -9 8 0.986 -3.281 7.129 39.979 o
-1 -8 1 0.617 -2.587 6.119 54.257 o
-1 -8 2 0.504 3.533 5.741 61.626 o
-1 -8 3 0.030 -5.047 5.930 57.777 o
-1 -8 4 0.843 -0.442 6.246 52.086 o
-1 -8 5 25.877 12.428 6.750 42.239 o
-1 -8 6 43.127 46.299 7.949 27.454 o
-1 -8 7 23.636 26.244 7.697 32.475 o
-1 -8 8 0.302 -3.344 5.615 64.451 o
-1 -8 9 9.377 4.038 6.813 43.469 o
-1 -8 10 0.174 -3.154 6.372 50.046 o
-1 -8 11 42.743 33.367 8.201 26.748 o
-1 -7 1 0.014 3.028 5.552 65.912 o
-1 -7 2 18.416 26.307 6.183 49.948 o
-1 -7 3 12.027 11.356 6.056 54.252 o
-1 -7 4 0.682 8.832 6.119 54.166 o
-1 -7 5 4.518 5.552 5.930 57.563 o
-1 -7 6 6.372 7.570 5.930 57.362 o
-1 -7 7 47.176 49.328 7.381 30.236 o
-1 -7 8 18.092 26.118 6.435 46.391 o
-1 -7 9 2.392 -2.208 5.552 65.894 o
-1 -7 10 7.399 -4.605 5.552 65.637 o
-1 -7 11 5.551 4.731 6.246 51.883 o
-1 -7 12 0.290 -1.325 5.930 57.777 o
-1 -7 13 51.026 41.505 8.201 25.412 o
-1 -6 1 4.948 4.690 2.850 246.179 o
-1 -6 2 1.817 2.291 1.847 591.747 o
-1 -6 3 7.087 4.155 3.244 189.354 o
-1 -6 4 0.543 3.237 5.489 67.423 o
-1 -6 5 0.869 2.184 3.386 177.052 o
-1 -6 6 15.890 23.721 5.552 62.101 o
-1 -6 7 7.106 6.876 5.425 68.390 o
-1 -6 8 1.630 5.110 5.489 67.352 o
-1 -6 9 64.970 45.795 7.129 29.091 o
-1 -6 10 22.461 12.933 5.615 60.495 o
-1 -6 11 42.688 43.208 7.255 32.344 o
-1 -6 12 0.143 -2.145 5.489 67.449 o
-1 -6 13 1.698 3.091 5.930 57.735 o
-1 -6 14 0.811 -8.706 5.299 72.348 o
-1 -5 1 51.691 54.252 2.656 90.855 o
-1 -5 2 45.404 37.266 2.319 131.227 o
-1 -5 3 78.795 80.692 6.593 25.904 o
-1 -5 4 87.033 79.606 4.469 34.086 o
-1 -5 5 205.875 209.670 8.454 6.568 o
-1 -5 6 42.669 39.518 4.237 73.733 o
-1 -5 7 10.790 13.211 5.236 72.144 o
-1 -5 8 56.855 58.346 4.928 47.785 o
-1 -5 9 0.002 1.930 3.486 167.166 o
-1 -5 10 0.401 -1.016 3.571 159.313 o
-1 -5 11 61.088 58.495 10.031 16.830 o
-1 -5 12 24.295 22.704 4.694 80.752 o
-1 -5 13 3.461 -3.154 4.668 93.102 o
-1 -5 14 0.066 -4.038 5.047 79.769 o
-1 -5 15 6.785 6.309 5.552 65.408 o
-1 -4 1 60.467 75.424 2.487 67.872 o
-1 -4 2 0.909 0.676 1.240 1317.970 o
-1 -4 3 8.938 8.738 2.310 351.958 o
-1 -4 4 127.689 131.853 6.214 15.512 o
-1 -4 5 15.926 17.341 5.236 70.285 o
-1 -4 6 196.956 197.660 6.834 7.747 o
-1 -4 7 409.139 452.413 9.208 1.882 o
-1 -4 8 248.833 275.739 13.971 3.605 o
-1 -4 9 2.238 1.020 4.448 102.618 o
-1 -4 10 3.887 0.028 4.479 101.084 o
-1 -4 11 8.493 4.687 3.573 155.635 o
-1 -4 12 4.551 2.205 3.563 159.046 o
-1 -4 13 23.570 20.847 4.329 94.107 o
-1 -4 14 49.908 50.216 7.791 27.248 o
-1 -4 15 0.050 -3.985 5.078 78.781 o
-1 -4 16 1.343 -15.204 7.633 34.867 o
-1 -3 1 173.439 158.068 2.551 12.421 o
-1 -3 2 4.691 10.275 1.271 1096.130 o
-1 -3 3 16.230 20.300 2.129 325.289 o
-1 -3 4 313.795 338.699 5.856 3.334 o
-1 -3 5 339.171 381.148 7.160 2.736 o
-1 -3 6 62.935 76.479 5.962 33.438 o
-1 -3 7 0.136 1.787 2.659 287.175 o
-1 -3 8 104.449 105.450 10.659 11.645 o
-1 -3 9 1.803 8.139 3.324 182.458 o
-1 -3 10 97.500 97.157 6.000 22.937 o
-1 -3 11 19.320 12.835 3.641 136.456 o
-1 -3 12 7.649 3.225 4.952 82.138 o
-1 -3 13 37.411 39.986 4.481 72.050 o
-1 -3 14 66.403 68.963 5.424 37.282 o
-1 -3 15 31.779 41.332 5.362 57.183 o
-1 -3 16 105.628 112.913 11.797 9.964 o
-1 -3 17 11.925 11.860 8.706 26.532 o
-1 -3 18 114.193 104.901 12.554 8.989 o
-1 -2 1 95.221 82.888 4.445 30.888 o
-1 -2 2 110.369 114.320 2.488 26.966 o
-1 -2 3 227.809 214.083 4.248 6.903 o
-1 -2 4 17.653 16.966 2.039 347.888 o
-1 -2 5 526.161 565.263 10.283 1.183 o
-1 -2 6 378.037 409.691 6.814 2.299 o
-1 -2 7 54.106 73.910 4.080 54.796 o
-1 -2 8 34.151 32.026 3.265 120.492 o
-1 -2 9 187.291 185.724 6.438 8.652 o
-1 -2 10 1.638 4.861 3.018 222.031 o
-1 -2 11 3.061 2.229 3.817 139.066 o
-1 -2 12 322.213 313.947 8.487 3.186 o
-1 -2 13 3.703 4.877 3.017 220.941 o
-1 -2 14 0.992 0.144 2.876 245.560 o
-1 -2 15 79.070 98.445 5.928 26.839 o
-1 -2 16 130.166 144.330 12.428 7.958 o
-1 -2 17 114.262 123.764 12.239 8.981 o
-1 -2 18 3.520 -16.529 7.823 33.186 o
-1 -2 19 80.977 87.684 11.923 11.253 o
-1 -1 1 4613.520 4541.820 31.544 0.017 o
-1 -1 2 948.286 951.805 7.405 0.402 o
-1 -1 3 982.843 986.652 8.319 0.374 o
-1 -1 4 101.339 97.103 3.438 30.245 o
-1 -1 5 776.436 836.598 8.657 0.566 o
-1 -1 6 274.449 321.075 5.803 4.064 o
-1 -1 7 216.508 238.238 5.574 6.583 o
-1 -1 8 122.998 129.858 4.970 18.186 o
-1 -1 9 284.967 288.066 6.838 4.062 o
-1 -1 10 167.496 155.475 10.154 8.086 o
-1 -1 11 654.274 662.158 10.712 0.810 o
-1 -1 12 157.115 164.748 6.314 11.214 o
-1 -1 13 6.531 5.998 3.312 181.519 o
-1 -1 14 0.649 1.304 2.765 265.640 o
-1 -1 15 41.878 46.885 5.962 44.117 o
-1 -1 16 76.296 86.801 10.094 14.810 o
-1 -1 17 3.698 -4.921 6.940 42.162 o
-1 -1 18 107.262 120.672 12.365 9.148 o
-1 -1 19 8.764 1.451 8.264 29.652 o
-1 0 1 1266.860 1251.860 8.696 0.228 o
-1 0 2 344.451 364.457 4.390 2.891 o
-1 0 3 138.785 178.580 5.930 12.439 o
-1 0 4 50.315 47.091 2.583 101.022 o
-1 0 5 165.601 164.234 4.092 12.098 o
-1 0 6 28.194 18.048 2.807 179.897 o
-1 0 7 23.099 19.386 2.299 256.104 o
-1 0 8 211.960 208.609 5.461 7.354 o
-1 0 9 437.420 496.408 9.211 1.634 o
-1 0 10 26.387 27.246 3.165 145.518 o
-1 0 11 122.614 111.892 5.281 19.087 o
-1 0 12 20.199 20.733 4.290 98.131 o
-1 0 13 0.180 0.491 2.432 343.528 o
-1 0 14 30.301 45.066 5.331 57.566 o
-1 0 15 3.768 -1.830 6.119 54.208 o
-1 0 16 33.445 28.389 7.949 29.542 o
-1 0 17 0.545 -6.813 6.561 47.200 o
-1 0 18 40.031 37.657 9.084 22.312 o
-1 0 19 44.485 36.458 10.031 18.420 o
-1 0 20 0.211 -18.863 7.255 38.602 o
-1 1 1 393.932 413.868 7.697 2.141 o
-1 1 2 98.261 86.359 4.353 29.773 o
-1 1 3 36.138 32.165 2.051 185.990 o
-1 1 4 0.187 -0.796 1.409 1024.040 o
-1 1 5 548.356 643.988 7.787 1.054 o
-1 1 6 610.230 680.569 8.414 0.885 o
-1 1 7 0.882 2.765 1.768 647.694 o
-1 1 8 0.001 -0.705 1.838 601.606 o
-1 1 9 213.647 261.968 6.395 6.091 o
-1 1 10 226.752 251.746 6.687 5.787 o
-1 1 11 99.806 102.913 5.099 24.663 o
-1 1 12 6.905 5.313 2.735 263.712 o
-1 1 13 27.994 27.987 3.429 126.162 o
-1 1 14 4.743 3.529 2.821 252.000 o
-1 1 15 7.124 -1.893 5.993 56.371 o
-1 1 16 63.185 52.734 8.769 21.021 o
-1 1 17 20.075 16.276 6.876 41.258 o
-1 1 18 22.114 13.627 8.012 30.667 o
-1 1 19 3.206 -4.101 7.633 34.854 o
-1 1 20 6.765 -3.217 8.201 30.158 o
-1 2 1 0.001 0.825 0.982 2105.990 o
-1 2 2 456.557 428.819 8.832 1.711 o
-1 2 3 455.854 455.884 9.526 1.635 o
-1 2 4 1.060 -0.631 2.145 441.360 o
-1 2 5 321.082 396.021 10.031 2.657 o
-1 2 6 329.730 349.021 9.715 2.818 o
-1 2 7 299.572 295.214 10.157 3.410 o
-1 2 8 10.806 19.620 4.858 82.446 o
-1 2 9 162.123 150.134 9.148 9.140 o
-1 2 10 162.586 165.521 11.040 7.519 o
-1 2 11 20.370 25.108 6.561 44.443 o
-1 2 12 85.590 67.433 8.138 20.057 o
-1 2 13 77.027 93.236 9.400 16.122 o
-1 2 14 52.383 47.435 8.201 24.921 o
-1 2 15 87.583 84.530 9.463 15.499 o
-1 2 16 42.757 48.066 8.643 23.711 o
-1 2 17 9.522 9.148 6.750 44.117 o
-1 2 18 0.449 -4.542 7.129 39.981 o
-1 2 19 6.375 -0.379 7.697 34.242 o
-1 3 1 113.974 105.894 3.178 25.798 o
-1 3 2 379.910 388.452 4.413 2.443 o
-1 3 3 546.521 608.156 6.839 1.111 o
-1 3 4 55.228 65.525 4.605 50.434 o
-1 3 5 12.263 10.031 3.154 190.149 o
-1 3 6 169.754 156.758 7.633 9.676 o
-1 3 7 38.332 45.795 5.552 50.722 o
-1 3 8 261.047 267.399 10.409 4.127 o
-1 3 9 109.803 123.700 9.715 12.167 o
-1 3 10 280.892 256.359 11.482 3.734 o
-1 3 11 20.451 24.036 6.056 51.731 o
-1 3 12 33.345 20.314 6.119 48.250 o
-1 3 13 252.723 256.233 13.059 3.849 o
-1 3 14 0.261 1.640 5.173 75.917 o
-1 3 15 67.898 71.219 9.021 18.851 o
-1 3 16 38.662 35.511 7.444 32.119 o
-1 3 17 0.092 -4.892 4.858 86.105 o
-1 3 18 2.758 -1.200 4.317 108.898 o
-1 3 19 0.081 -5.976 4.304 109.693 o
-1 4 1 104.520 104.614 3.265 28.513 o
-1 4 2 0.003 0.250 1.224 1355.710 o
-1 4 3 413.017 441.973 5.469 1.991 o
-1 4 4 210.298 195.582 4.355 8.036 o
-1 4 5 149.642 150.788 4.331 14.155 o
-1 4 6 1.266 3.996 2.681 281.612 o
-1 4 7 262.647 253.925 6.700 4.850 o
-1 4 8 0.005 1.946 2.919 238.407 o
-1 4 9 156.740 142.498 12.144 7.373 o
-1 4 10 79.280 62.526 4.678 39.081 o
-1 4 11 6.086 7.697 3.289 183.703 o
-1 4 12 24.738 19.425 3.916 111.272 o
-1 4 13 0.690 -1.899 3.296 186.978 o
-1 4 14 11.763 12.969 4.006 120.453 o
-1 4 15 57.793 51.406 5.381 44.041 o
-1 4 16 2.217 -3.673 4.045 124.061 o
-1 4 17 3.794 6.710 4.426 103.071 o
-1 4 18 1.988 -6.166 4.243 112.791 o
-1 5 1 2.973 1.226 2.871 245.633 o
-1 5 2 2.032 0.960 1.434 980.847 o
-1 5 3 110.576 109.531 3.487 25.550 o
-1 5 4 135.834 125.122 5.614 15.812 o
-1 5 5 105.306 98.052 4.014 27.162 o
-1 5 6 290.659 297.470 6.040 3.967 o
-1 5 7 63.422 47.030 3.276 69.219 o
-1 5 8 0.039 2.894 2.370 361.443 o
-1 5 9 1.603 2.334 2.405 350.193 o
-1 5 10 67.716 59.106 3.836 53.430 o
-1 5 11 46.873 45.788 4.608 61.151 o
-1 5 12 0.457 2.043 3.287 188.006 o
-1 5 13 5.623 6.734 3.843 135.716 o
-1 5 14 0.058 -3.007 3.656 152.030 o
-1 5 15 4.488 -0.131 4.131 118.736 o
-1 5 16 55.369 60.558 6.210 35.873 o
-1 5 17 4.857 3.280 5.836 59.484 o
-1 5 18 1.128 -3.405 4.563 97.572 o
-1 6 1 8.937 4.524 3.180 194.959 o
-1 6 2 9.610 6.291 3.067 207.125 o
-1 6 3 37.201 40.194 4.325 75.817 o
-1 6 4 50.034 48.302 4.483 60.372 o
-1 6 5 6.718 3.684 3.149 201.176 o
-1 6 6 26.057 21.142 3.940 107.896 o
-1 6 7 220.664 223.615 6.616 6.427 o
-1 6 8 2.798 1.186 2.349 366.452 o
-1 6 9 5.827 7.045 2.716 267.666 o
-1 6 10 1.583 2.799 2.715 274.751 o
-1 6 11 1.820 1.827 2.793 259.824 o
-1 6 12 16.461 25.141 3.664 131.062 o
-1 6 13 2.684 -0.771 3.052 217.782 o
-1 6 14 0.010 -8.250 4.416 104.188 o
-1 6 15 4.602 0.510 4.165 116.756 o
-1 6 16 28.045 32.362 9.618 20.878 o
-1 7 1 6.714 7.270 3.351 176.812 o
-1 7 2 10.570 13.598 4.700 88.987 o
-1 7 3 21.240 25.627 5.895 54.018 o
-1 7 4 71.223 74.653 13.658 9.425 o
-1 7 5 24.773 19.126 4.025 106.326 o
-1 7 6 30.460 32.495 4.523 78.653 o
-1 7 7 6.316 2.915 3.559 158.588 o
-1 7 8 28.721 41.883 5.047 64.406 o
-1 7 9 50.590 49.717 5.538 45.463 o
-1 7 10 17.506 16.237 4.485 93.495 o
-1 7 11 12.336 17.294 4.772 85.152 o
-1 7 12 0.676 3.604 8.674 26.997 o
-1 7 13 15.404 23.377 9.208 23.466 o
-1 7 14 17.290 27.632 7.949 30.987 o
-1 7 15 0.179 -2.460 6.372 50.046 o
-1 8 1 12.958 13.182 3.953 122.650 o
-1 8 2 25.115 26.898 4.431 87.219 o
-1 8 3 6.916 10.487 4.416 102.277 o
-1 8 4 37.426 34.882 4.877 65.119 o
-1 8 5 7.405 8.994 5.047 78.690 o
-1 8 6 16.864 17.608 4.420 96.025 o
-1 8 7 3.871 6.361 5.047 79.387 o
-1 8 8 9.709 4.802 4.108 117.879 o
-1 8 9 0.282 3.728 4.235 113.192 o
-1 8 10 27.866 34.607 5.578 56.216 o
-1 8 11 4.675 -1.026 4.376 105.799 o
-1 8 12 0.411 -1.181 4.803 88.067 o
-1 9 1 15.111 5.804 7.697 33.843 o
-1 9 2 21.757 13.311 8.769 25.757 o
-1 9 3 0.109 -9.148 6.876 42.969 o
-1 9 4 8.589 4.164 8.327 29.182 o
-1 9 5 0.005 0.252 8.138 30.678 o
-1 9 6 18.802 19.746 9.463 22.188 o
-1 9 7 3.577 2.397 8.580 27.581 o
-1 9 8 1.984 1.388 8.643 27.194 o
-1 9 9 1.654 -6.940 8.327 29.297 o
0 -10 1 2.483 -10.599 7.760 33.736 o
0 -9 1 5.574 -1.893 7.381 37.242 o
0 -9 2 1.811 -0.820 7.318 37.934 o
0 -9 3 32.446 31.039 8.517 25.981 o
0 -9 4 0.235 -17.538 6.940 42.192 o
0 -9 5 0.393 -10.157 7.444 36.664 o
0 -9 6 0.067 -2.334 7.633 34.869 o
0 -9 7 2.285 -11.671 7.066 40.688 o
0 -8 1 6.705 8.769 7.066 40.453 o
0 -8 2 0.486 -2.839 5.804 60.316 o
0 -8 3 0.562 -4.921 5.552 65.923 o
0 -8 4 35.626 36.269 8.327 26.571 o
0 -8 5 3.030 -6.183 6.624 46.282 o
0 -8 6 7.441 -7.570 6.813 43.641 o
0 -8 7 6.858 -6.561 6.750 44.478 o
0 -8 8 0.005 2.145 7.066 40.696 o
0 -8 9 3.132 5.173 7.444 36.611 o
0 -8 10 3.227 -14.636 6.561 47.172 o
0 -7 1 8.854 2.560 4.038 122.733 o
0 -7 2 5.824 7.519 2.597 291.442 o
0 -7 3 0.082 -2.334 6.119 54.259 o
0 -7 4 3.370 -3.596 6.119 54.218 o
0 -7 5 37.099 29.714 7.507 32.245 o
0 -7 6 0.725 1.072 6.246 52.083 o
0 -7 7 2.980 -0.757 6.056 55.362 o
0 -7 8 9.156 -5.110 5.867 58.674 o
0 -7 9 1.104 -4.164 6.056 55.390 o
0 -7 10 40.657 36.773 8.138 27.156 o
0 -7 11 0.054 -9.526 6.246 52.089 o
0 -7 12 16.550 9.968 6.876 41.956 o
0 -6 1 21.844 22.820 3.688 124.478 o
0 -6 2 247.811 239.420 7.563 5.210 o
0 -6 3 6.184 2.176 3.197 196.243 o
0 -6 4 2.058 2.786 3.456 169.695 o
0 -6 5 4.262 3.237 3.486 166.050 o
0 -6 6 0.595 3.037 5.741 61.629 o
0 -6 7 5.666 7.431 4.126 117.842 o
0 -6 8 2.158 0.400 3.919 132.192 o
0 -6 9 0.687 -5.534 4.080 122.045 o
0 -6 10 10.437 14.573 6.183 52.102 o
0 -6 11 156.301 160.852 11.986 7.211 o
0 -6 12 379.797 410.587 16.276 1.833 o
0 -6 13 0.028 -7.633 5.678 63.027 o
0 -5 1 163.457 159.724 5.365 11.633 o
0 -5 2 5.960 10.113 2.938 227.510 o
0 -5 3 33.463 29.680 5.202 61.937 o
0 -5 4 72.796 70.025 4.886 38.695 o
0 -5 5 3.660 3.685 3.790 140.688 o
0 -5 6 1.874 1.457 3.814 139.526 o
0 -5 7 50.285 48.168 4.702 56.851 o
0 -5 8 128.537 141.137 7.728 12.908 o
0 -5 9 268.259 317.062 9.520 3.766 o
0 -5 10 48.562 51.645 14.068 9.604 o
0 -5 11 137.642 154.782 8.613 10.801 o
0 -5 12 43.109 42.912 5.546 49.519 o
0 -5 13 0.621 -5.574 4.202 115.065 o
0 -5 14 7.872 -1.325 8.769 26.371 o
0 -4 1 240.276 257.704 3.843 5.797 o
0 -4 2 116.604 137.795 4.818 18.812 o
0 -4 3 27.912 20.761 5.142 67.618 o
0 -4 4 118.833 116.346 5.640 18.639 o
0 -4 5 11.055 15.168 4.637 90.883 o
0 -4 6 249.202 276.693 7.821 4.711 o
0 -4 7 289.925 298.940 8.672 3.688 o
0 -4 8 649.331 684.923 11.660 0.794 o
0 -4 9 391.390 446.498 10.331 1.958 o
0 -4 10 31.880 20.629 4.085 96.427 o
0 -4 11 12.918 8.982 4.036 119.243 o
0 -4 12 8.227 8.511 4.061 120.392 o
0 -4 13 0.054 -3.204 3.563 160.091 o
0 -4 14 12.684 19.872 8.832 25.633 o
0 -4 15 0.167 -23.657 7.697 34.300 o
0 -4 16 6.136 -14.321 9.463 22.666 o
0 -4 17 18.561 10.346 10.599 17.867 o
0 -3 1 1026.640 1076.610 7.283 0.334 o
0 -3 2 518.716 612.823 11.983 1.116 o
0 -3 3 403.287 440.377 26.875 1.209 o
0 -3 4 264.005 270.308 5.842 4.761 o
0 -3 5 559.801 601.707 8.787 1.068 o
0 -3 6 1885.200 1983.880 18.797 0.098 o
0 -3 7 253.859 285.927 7.711 4.541 o
0 -3 8 124.239 127.079 6.469 15.784 o
0 -3 9 19.511 21.964 5.489 62.681 o
0 -3 10 0.005 1.739 3.848 137.182 o
0 -3 11 5.786 0.513 3.230 193.064 o
0 -3 12 5.832 6.736 4.006 124.985 o
0 -3 13 4.360 1.040 3.429 171.932 o
0 -3 14 43.104 44.154 9.148 21.581 o
0 -3 15 4.908 -7.697 7.823 33.170 o
0 -3 16 0.755 -13.816 8.138 30.678 o
0 -3 17 15.339 5.678 9.211 23.722 o
0 -3 18 1.059 -20.692 9.526 22.390 o
0 -2 1 523.010 576.578 4.432 1.238 o
0 -2 2 2547.280 2564.020 17.081 0.056 o
0 -2 3 2515.000 2552.800 17.442 0.057 o
0 -2 4 275.231 274.628 5.286 4.542 o
0 -2 5 87.906 79.766 6.056 26.416 o
0 -2 6 391.676 440.503 7.204 2.085 o
0 -2 7 470.486 514.731 8.120 1.482 o
0 -2 8 8.226 7.860 2.846 239.986 o
0 -2 9 80.038 80.115 4.983 33.658 o
0 -2 10 283.309 272.336 7.901 4.096 o
0 -2 11 3.894 6.625 3.243 190.872 o
0 -2 12 11.862 5.279 3.035 208.771 o
0 -2 13 65.797 68.479 4.948 41.343 o
0 -2 14 2.862 -0.631 7.633 34.857 o
0 -2 15 57.719 71.092 10.094 16.476 o
0 -2 16 0.046 -6.813 7.760 33.744 o
0 -2 17 67.984 66.676 11.860 12.243 o
0 -2 18 22.946 22.711 9.968 19.870 o
0 -2 19 2.819 -4.290 9.400 22.990 o
0 -1 1 2704.470 2668.640 18.923 0.050 o
0 -1 2 2463.780 2260.310 13.979 0.063 o
0 -1 3 4041.610 3905.400 59.358 0.022 o
0 -1 4 3576.600 3504.520 21.578 0.029 o
0 -1 5 50.904 51.736 2.899 88.630 o
0 -1 6 752.839 813.276 11.703 0.589 o
0 -1 7 254.418 269.264 5.788 4.999 o
0 -1 8 336.721 392.866 7.096 2.706 o
0 -1 9 64.167 60.921 4.155 51.667 o
0 -1 10 3.869 4.594 2.597 297.053 o
0 -1 11 206.751 199.052 6.671 7.371 o
0 -1 12 38.673 39.129 3.712 91.792 o
0 -1 13 60.814 58.148 4.366 52.133 o
0 -1 14 1.802 -3.217 6.940 42.185 o
0 -1 15 0.026 -13.311 6.813 43.769 o
0 -1 16 23.852 18.674 8.327 28.196 o
0 -1 17 16.434 10.977 8.643 26.776 o
0 -1 18 9.380 10.346 9.148 24.131 o
0 -1 19 0.155 -3.533 8.832 26.047 o
0 0 2 2636.010 2508.820 22.109 0.054 o
0 0 3 306.533 290.912 3.763 3.926 o
0 0 4 515.263 513.981 5.718 1.353 o
0 0 5 421.636 462.994 5.741 1.874 o
0 0 6 48.275 44.196 2.551 108.607 o
0 0 7 401.086 440.003 6.399 2.049 o
0 0 8 51.735 55.261 3.267 77.566 o
0 0 9 0.096 2.506 1.941 538.815 o
0 0 10 317.836 316.664 6.706 3.366 o
0 0 11 1.716 1.043 3.091 212.354 o
0 0 12 36.837 28.471 3.238 120.145 o
0 0 13 73.011 68.768 4.348 42.934 o
0 0 14 2.293 7.255 7.003 41.362 o
0 0 15 6.870 0.189 7.129 39.887 o
0 0 16 0.720 -0.820 7.192 39.282 o
0 0 17 9.266 8.327 7.886 32.441 o
0 0 18 7.346 -7.697 7.949 32.089 o
0 0 19 0.380 -4.416 8.264 29.749 o
0 0 20 20.734 12.533 5.461 64.256 o
0 1 0 2508.310 2371.940 14.822 0.060 o
0 1 1 370.598 369.944 2.890 2.642 o
0 1 2 921.837 873.537 9.968 0.437 o
0 1 3 357.589 318.746 7.633 2.835 o
0 1 4 12.735 20.188 3.596 142.937 o
0 1 5 43.923 52.047 5.489 48.171 o
0 1 6 261.576 274.527 4.688 4.908 o
0 1 7 37.249 39.223 2.696 133.368 o
0 1 8 2.006 0.628 1.633 757.810 o
0 1 9 186.437 186.362 4.991 9.339 o
0 1 10 2.664 6.202 2.870 244.171 o
0 1 11 42.437 44.286 3.453 91.523 o
0 1 12 23.908 26.915 3.163 151.110 o
0 1 13 12.909 11.790 2.670 253.991 o
0 1 14 0.290 -3.722 6.246 52.088 o
0 1 15 1.563 7.318 7.003 41.378 o
0 1 16 4.480 6.309 7.003 41.314 o
0 1 17 1.366 -6.876 6.940 42.188 o
0 1 18 5.577 -0.126 7.697 34.256 o
0 1 19 15.258 9.510 4.921 80.626 o
0 1 20 1.388 -14.771 5.615 64.442 o
0 2 0 28.341 26.593 1.264 346.151 o
0 2 1 76.490 70.463 2.135 57.535 o
0 2 2 262.637 257.186 3.308 5.235 o
0 2 3 36.110 33.314 1.986 188.074 o
0 2 4 0.912 1.488 3.627 154.331 o
0 2 5 482.486 517.008 10.409 1.390 o
0 2 6 87.075 121.114 7.381 18.781 o
0 2 7 38.230 43.587 5.173 57.012 o
0 2 8 16.609 16.844 4.795 82.824 o
0 2 9 56.272 64.279 6.498 33.047 o
0 2 10 152.224 156.632 10.977 8.080 o
0 2 11 60.000 48.571 7.570 27.158 o
0 2 12 145.385 151.711 10.725 8.623 o
0 2 13 88.584 90.018 8.643 17.121 o
0 2 14 6.168 4.984 6.309 50.816 o
0 2 15 89.040 93.425 10.094 13.794 o
0 2 16 0.544 -6.119 6.372 50.045 o
0 2 17 23.841 19.945 4.657 82.930 o
0 2 18 24.164 16.818 5.015 73.191 o
0 2 19 1.540 -7.142 4.515 99.640 o
0 2 20 8.521 2.503 6.119 53.920 o
0 3 0 15.971 8.450 1.094 923.048 o
0 3 1 41.204 39.035 1.827 163.572 o
0 3 2 4.955 9.741 1.310 1039.990 o
0 3 3 169.856 187.349 3.415 11.116 o
0 3 4 290.993 320.181 4.500 3.895 o
0 3 5 4.371 14.206 2.119 422.010 o
0 3 6 43.968 51.797 3.596 81.407 o
0 3 7 89.100 97.633 4.734 29.330 o
0 3 8 57.307 63.024 4.123 55.765 o
0 3 9 4.315 7.821 3.160 200.128 o
0 3 10 20.888 24.353 6.025 52.109 o
0 3 11 22.110 20.089 3.969 111.040 o
0 3 12 32.061 30.503 4.134 89.883 o
0 3 13 37.126 38.846 4.502 72.187 o
0 3 14 0.730 1.315 3.581 158.388 o
0 3 15 20.547 17.660 4.637 85.996 o
0 3 16 34.200 29.801 4.818 69.692 o
0 3 17 0.572 0.672 4.072 122.499 o
0 3 18 24.000 19.921 10.315 18.601 o
0 3 19 62.757 54.127 14.289 9.068 o
0 4 0 20.278 19.573 1.514 449.665 o
0 4 1 32.946 30.932 1.737 231.091 o
0 4 2 61.720 60.693 2.448 75.590 o
0 4 3 30.937 19.841 1.779 279.226 o
0 4 4 1.966 0.822 1.545 845.934 o
0 4 5 40.607 33.114 2.373 148.481 o
0 4 6 31.320 34.992 2.590 161.517 o
0 4 7 95.214 89.474 3.831 32.284 o
0 4 8 33.570 22.563 2.760 161.567 o
0 4 9 2.246 5.474 3.249 191.376 o
0 4 10 0.410 -1.136 6.403 49.554 o
0 4 11 8.999 3.821 3.239 188.399 o
0 4 12 11.358 12.393 3.652 144.159 o
0 4 13 22.426 21.872 4.283 96.352 o
0 4 14 1.212 -0.133 3.574 159.006 o
0 4 15 11.146 13.727 4.229 108.768 o
0 4 16 5.050 -2.639 3.909 132.437 o
0 4 17 10.076 12.470 4.698 89.421 o
0 4 18 71.396 76.108 6.942 26.146 o
0 4 19 1.655 -4.761 5.457 68.215 o
0 5 0 31.403 28.716 1.983 223.487 o
0 5 1 2.856 2.085 2.781 261.371 o
0 5 2 159.264 160.801 3.863 12.987 o
0 5 3 70.524 77.273 4.461 41.249 o
0 5 4 229.178 209.002 4.813 6.829 o
0 5 5 124.091 124.544 4.343 19.454 o
0 5 6 3.840 5.219 2.253 392.192 o
0 5 7 7.561 12.527 2.607 279.557 o
0 5 8 35.416 36.698 3.273 113.905 o
0 5 9 22.263 21.394 2.864 186.775 o
0 5 10 32.523 30.653 3.073 134.706 o
0 5 11 43.687 41.431 3.470 91.266 o
0 5 12 31.338 30.380 3.387 120.911 o
0 5 13 0.597 -0.424 3.531 162.920 o
0 5 14 90.172 100.860 6.548 22.184 o
0 5 15 4.548 4.940 3.986 126.920 o
0 5 16 8.390 8.105 4.517 97.771 o
0 5 17 4.214 -1.821 4.889 84.843 o
0 5 18 17.308 13.645 5.017 76.371 o
0 6 0 55.742 44.220 4.183 62.643 o
0 6 1 34.971 23.425 3.407 119.692 o
0 6 2 0.693 1.795 1.728 679.055 o
0 6 3 97.333 94.379 5.779 23.941 o
0 6 4 0.755 3.834 1.876 574.731 o
0 6 5 172.752 178.828 4.951 10.480 o
0 6 6 32.165 31.959 6.174 46.358 o
0 6 7 56.400 56.672 3.407 69.346 o
0 6 8 4.210 0.918 2.283 385.799 o
0 6 9 2.969 6.248 2.575 302.163 o
0 6 10 4.805 2.681 2.671 281.077 o
0 6 11 0.577 0.083 2.609 298.481 o
0 6 12 26.308 27.183 7.208 36.358 o
0 6 13 0.709 -0.880 3.363 179.632 o
0 6 14 85.497 103.173 6.727 22.191 o
0 6 15 0.236 -2.484 4.033 124.918 o
0 6 16 3.525 3.907 4.181 115.737 o
0 6 17 9.470 7.399 4.772 87.565 o
0 7 0 3.604 2.103 2.911 238.350 o
0 7 1 6.984 8.744 4.006 124.151 o
0 7 2 9.704 12.077 3.384 168.421 o
0 7 3 0.012 2.215 2.911 239.766 o
0 7 4 83.136 88.548 5.648 28.259 o
0 7 5 0.562 -1.377 2.976 229.464 o
0 7 6 46.630 46.876 4.758 58.502 o
0 7 7 20.413 22.492 2.895 187.242 o
0 7 8 2.396 3.521 3.819 138.929 o
0 7 9 35.171 35.961 3.437 108.231 o
0 7 10 11.271 12.733 2.970 211.910 o
0 7 11 50.152 49.436 4.397 61.294 o
0 7 12 39.496 49.173 4.186 73.512 o
0 7 13 0.028 -4.899 3.500 165.837 o
0 7 14 8.824 7.357 7.097 40.031 o
0 7 15 0.817 -6.793 3.848 137.180 o
0 7 16 14.029 9.459 4.726 87.579 o
0 8 0 0.398 -4.542 6.372 50.045 o
0 8 1 3.366 1.956 6.813 43.725 o
0 8 2 1.811 2.271 6.750 44.570 o
0 8 3 20.917 22.837 7.697 32.870 o
0 8 4 46.321 52.609 10.693 15.956 o
0 8 5 70.401 68.942 5.556 35.049 o
0 8 6 1.796 -0.966 3.420 173.590 o
0 8 7 43.202 50.137 5.188 52.914 o
0 8 8 5.942 2.222 5.520 66.413 o
0 8 9 16.957 15.799 4.712 85.648 o
0 8 10 4.472 5.997 4.253 111.486 o
0 8 11 6.762 8.961 7.097 40.089 o
0 8 12 0.233 -2.902 5.678 63.027 o
0 8 13 17.445 18.043 7.192 38.014 o
0 8 14 0.184 -2.082 6.561 47.200 o
0 9 0 16.943 16.340 7.823 32.380 o
0 9 1 0.000 -4.921 7.318 37.940 o
0 9 2 0.200 5.236 7.823 33.192 o
0 9 3 0.000 -3.344 7.381 37.294 o
0 9 4 11.286 13.816 8.264 29.398 o
0 9 5 0.615 3.785 7.886 32.665 o
0 9 6 16.699 0.757 8.138 30.349 o
0 9 7 28.918 17.980 8.580 26.335 o
0 9 8 2.836 -8.012 7.697 34.288 o
0 9 9 47.519 43.145 9.652 19.364 o
0 9 10 11.246 15.204 9.021 24.700 o
0 9 11 0.033 -13.816 7.444 36.665 o
0 10 0 0.063 -8.012 7.697 34.300 o
0 10 1 21.859 24.793 9.274 22.857 o
0 10 2 0.133 -6.498 7.886 32.673 o
0 10 3 1.209 2.965 8.643 27.194 o
0 10 4 0.574 -16.276 7.633 34.869 o
0 10 5 0.511 -2.587 8.327 29.299 o
1 -9 0 20.705 12.491 8.706 26.189 o
1 -9 1 4.708 4.668 7.697 34.229 o
1 -9 2 126.486 149.061 13.374 7.297 o
1 -9 3 5.264 2.523 7.318 37.866 o
1 -9 4 31.643 37.341 9.905 19.473 o
1 -8 0 72.138 71.723 9.968 15.862 o
1 -8 1 30.477 22.396 8.075 29.241 o
1 -8 2 89.363 95.185 10.914 12.289 o
1 -8 3 180.134 215.801 14.952 4.748 o
1 -8 4 1.913 -2.460 6.624 46.296 o
1 -8 5 172.596 178.138 14.952 5.180 o
1 -8 6 3.412 -13.627 7.066 40.675 o
1 -8 7 7.601 0.126 8.454 28.374 o
1 -8 8 15.464 5.930 8.517 27.692 o
1 -8 9 24.191 5.047 7.823 32.275 o
1 -7 0 0.008 -0.090 3.328 183.505 o
1 -7 1 0.834 1.601 3.496 166.179 o
1 -7 2 68.620 65.757 5.495 36.558 o
1 -7 3 23.379 32.922 4.785 75.782 o
1 -7 4 24.721 37.078 7.630 32.337 o
1 -7 5 6.605 9.141 10.819 17.312 o
1 -7 6 12.337 13.975 5.457 66.186 o
1 -7 7 14.066 9.905 7.318 37.319 o
1 -7 8 6.362 7.760 7.823 33.063 o
1 -7 9 3.553 -1.577 6.813 43.739 o
1 -7 10 0.230 -10.662 6.309 51.052 o
1 -7 11 38.643 23.657 8.454 26.136 o
1 -6 0 13.658 10.889 3.279 174.422 o
1 -6 1 48.226 37.924 4.210 70.434 o
1 -6 2 7.051 2.435 3.372 176.065 o
1 -6 3 191.935 179.385 6.531 8.534 o
1 -6 4 85.924 82.486 5.855 27.409 o
1 -6 5 1.121 0.638 3.714 147.272 o
1 -6 6 29.370 33.234 6.716 40.386 o
1 -6 7 0.144 -0.236 4.125 119.426 o
1 -6 8 1.659 5.473 7.980 31.879 o
1 -6 9 6.580 5.120 8.422 28.562 o
1 -6 10 0.436 0.304 13.406 11.306 o
1 -6 11 4.703 -0.764 4.931 83.387 o
1 -6 12 0.683 -15.078 5.552 65.922 o
1 -5 0 489.633 502.750 20.188 1.154 o
1 -5 1 474.054 495.597 10.186 1.464 o
1 -5 2 518.056 491.857 10.125 1.319 o
1 -5 3 74.888 66.461 4.033 45.085 o
1 -5 4 38.067 27.206 4.221 83.291 o
1 -5 5 32.678 28.487 4.500 79.136 o
1 -5 6 7.312 7.800 3.754 141.102 o
1 -5 7 1.879 3.551 3.836 137.801 o
1 -5 8 24.645 24.736 4.698 79.831 o
1 -5 9 24.747 29.037 4.680 79.069 o
1 -5 10 109.107 102.346 6.717 18.739 o
1 -5 11 32.539 32.049 5.334 59.293 o
1 -5 12 51.972 53.981 6.056 39.041 o
1 -5 13 0.497 -3.470 8.138 30.678 o
1 -5 14 10.439 -5.236 9.337 23.236 o
1 -5 15 0.291 -19.620 8.958 25.318 o
1 -4 0 609.749 605.559 9.412 0.949 o
1 -4 1 0.050 0.117 3.817 139.476 o
1 -4 2 18.548 25.999 3.219 158.554 o
1 -4 3 109.186 127.179 5.968 18.612 o
1 -4 4 2.859 -2.474 3.225 194.921 o
1 -4 5 3.923 4.039 3.779 141.401 o
1 -4 6 40.661 38.912 4.617 67.233 o
1 -4 7 70.600 76.038 7.854 22.387 o
1 -4 8 27.275 25.678 4.310 90.144 o
1 -4 9 26.892 26.989 4.511 83.390 o
1 -4 10 16.114 16.036 4.321 101.037 o
1 -4 11 27.180 27.140 4.549 81.984 o
1 -4 12 0.020 3.432 3.916 132.401 o
1 -4 13 0.667 -5.173 7.444 36.664 o
1 -4 14 9.793 2.965 9.211 23.862 o
1 -4 15 4.176 -8.327 9.589 22.086 o
1 -4 16 1.130 -22.396 9.463 22.689 o
1 -3 0 151.768 202.757 5.457 10.826 o
1 -3 1 0.669 -0.581 2.492 327.145 o
1 -3 2 511.891 536.223 8.016 1.300 o
1 -3 3 361.780 347.259 5.702 2.750 o
1 -3 4 31.835 34.761 3.455 113.465 o
1 -3 5 1.043 2.902 4.763 89.500 o
1 -3 6 0.066 0.044 3.126 207.958 o
1 -3 7 941.503 988.107 21.825 0.366 o
1 -3 8 24.765 24.576 4.197 96.746 o
1 -3 9 81.634 80.478 5.305 31.383 o
1 -3 10 28.149 28.883 4.119 94.781 o
1 -3 11 0.044 -3.217 3.196 198.960 o
1 -3 12 23.985 29.792 4.346 89.844 o
1 -3 13 9.310 4.921 7.886 32.495 o
1 -3 14 17.002 23.468 9.021 24.357 o
1 -3 15 11.120 6.561 8.706 26.628 o
1 -3 16 19.428 -1.262 10.094 19.762 o
1 -3 17 30.465 14.825 10.536 17.740 o
1 -2 0 44.748 42.518 2.839 108.103 o
1 -2 1 409.172 467.301 6.566 1.914 o
1 -2 2 1.010 0.150 1.617 776.411 o
1 -2 3 1525.150 1653.760 13.990 0.147 o
1 -2 4 390.458 432.591 7.309 2.115 o
1 -2 5 77.272 80.599 4.970 34.576 o
1 -2 6 30.019 29.175 3.092 140.505 o
1 -2 7 36.485 43.913 3.707 91.710 o
1 -2 8 90.240 98.155 5.505 26.004 o
1 -2 9 10.246 8.223 3.279 180.483 o
1 -2 10 18.895 14.980 5.678 59.843 o
1 -2 11 22.461 17.742 4.069 107.071 o
1 -2 12 2.676 -0.278 2.867 246.647 o
1 -2 13 0.219 -9.274 6.498 48.121 o
1 -2 14 0.670 -3.848 7.633 34.868 o
1 -2 15 1.046 -1.893 8.138 30.677 o
1 -2 16 13.049 7.192 9.211 23.759 o
1 -2 17 3.363 -19.241 9.021 24.957 o
1 -2 18 9.602 1.644 5.170 75.266 o
1 -1 0 756.432 706.123 10.031 0.648 o
1 -1 1 213.568 189.225 4.006 8.125 o
1 -1 2 67.457 68.768 4.389 45.336 o
1 -1 3 86.421 81.529 3.907 36.861 o
1 -1 4 311.815 312.302 5.411 3.572 o
1 -1 5 7.211 9.170 2.997 217.947 o
1 -1 6 0.111 -1.198 1.888 570.247 o
1 -1 7 89.658 72.600 3.845 37.714 o
1 -1 8 9.614 14.121 2.489 295.363 o
1 -1 9 3.240 3.251 3.123 207.115 o
1 -1 10 2.347 4.644 2.587 301.260 o
1 -1 11 7.693 2.720 4.668 92.373 o
1 -1 12 99.562 103.639 10.409 12.328 o
1 -1 13 9.982 18.295 7.886 32.206 o
1 -1 14 1.690 -1.199 7.760 33.740 o
1 -1 15 1.754 -0.252 8.012 31.648 o
1 -1 16 2.158 -4.290 8.580 27.597 o
1 -1 17 23.705 13.956 4.908 76.931 o
1 -1 18 19.427 12.206 6.750 43.073 o
1 -1 19 0.436 -3.460 6.876 42.969 o
1 0 0 11.855 6.192 0.726 1883.960 o
1 0 1 6418.060 6231.350 67.023 0.009 o
1 0 2 218.950 218.086 3.719 7.285 o
1 0 3 174.136 166.255 5.640 10.426 o
1 0 4 1.148 4.013 4.069 122.532 o
1 0 5 12.788 10.252 1.448 703.421 o
1 0 6 255.532 263.797 4.253 5.237 o
1 0 7 5.792 5.285 1.672 684.069 o
1 0 8 0.046 -0.049 1.538 859.392 o
1 0 9 13.648 12.971 2.061 387.316 o
1 0 10 0.222 -0.015 1.884 572.653 o
1 0 11 5.881 6.132 3.659 149.556 o
1 0 12 2.173 16.907 7.949 32.016 o
1 0 13 2.384 -0.379 6.435 49.053 o
1 0 14 9.080 24.099 8.391 28.417 o
1 0 15 0.647 6.056 8.075 31.144 o
1 0 16 11.420 7.318 8.391 28.633 o
1 0 17 40.364 41.438 5.579 50.398 o
1 0 18 145.926 141.893 8.378 10.919 o
1 0 19 4.487 0.741 4.853 86.048 o
1 1 0 1732.430 1742.580 10.494 0.121 o
1 1 1 1006.120 966.321 5.238 0.370 o
1 1 2 1971.260 1888.160 9.122 0.097 o
1 1 3 4.688 7.644 1.850 563.991 o
1 1 4 21.345 21.886 2.087 293.435 o
1 1 5 6.716 9.165 1.831 554.017 o
1 1 6 40.910 33.832 1.500 193.704 o
1 1 7 0.933 -0.516 1.262 1274.580 o
1 1 8 56.405 51.614 4.605 53.662 o
1 1 9 1.718 1.826 1.406 1019.300 o
1 1 10 182.118 183.387 4.530 9.899 o
1 1 11 8.062 20.882 7.129 39.328 o
1 1 12 2.376 10.536 7.886 32.598 o
1 1 13 10.164 10.094 6.624 45.712 o
1 1 14 57.808 58.800 8.580 22.001 o
1 1 15 167.252 170.562 7.680 9.401 o
1 1 16 7.410 2.661 4.040 123.084 o
1 1 17 24.754 17.970 4.747 80.201 o
1 1 18 26.417 20.038 11.415 15.210 o
1 1 19 7.871 3.349 4.824 86.474 o
1 1 20 6.603 2.522 5.081 78.240 o
1 2 0 83.569 83.533 3.375 40.556 o
1 2 1 33.560 44.708 2.208 161.537 o
1 2 2 322.838 306.925 5.526 3.446 o
1 2 3 638.209 648.521 5.211 0.880 o
1 2 4 328.543 300.067 4.594 3.470 o
1 2 5 62.191 76.266 2.530 65.120 o
1 2 6 277.085 313.270 6.106 4.057 o
1 2 7 55.533 53.114 3.429 71.629 o
1 2 8 198.354 185.356 7.444 7.693 o
1 2 9 81.656 85.882 5.142 31.409 o
1 2 10 77.584 63.836 4.703 39.327 o
1 2 11 646.182 612.942 10.979 0.862 o
1 2 12 36.578 34.106 4.283 79.899 o
1 2 13 30.570 25.920 4.308 87.463 o
1 2 14 29.722 31.771 10.217 18.554 o
1 2 15 148.305 150.048 7.516 11.327 o
1 2 16 78.732 73.434 6.057 29.223 o
1 2 17 3.753 3.996 4.231 112.999 o
1 2 18 14.061 13.506 4.948 79.523 o
1 2 19 0.669 -9.387 4.188 115.847 o
1 2 20 4.807 -7.238 4.937 83.180 o
1 3 0 104.648 106.608 5.399 22.421 o
1 3 1 0.596 1.923 1.016 1955.530 o
1 3 2 24.861 24.402 1.496 361.414 o
1 3 3 18.173 21.148 1.626 434.121 o
1 3 4 1054.430 1159.840 8.761 0.305 o
1 3 5 344.479 372.165 4.944 2.830 o
1 3 6 168.572 178.221 3.985 11.319 o
1 3 7 322.680 331.712 5.717 3.273 o
1 3 8 0.333 3.676 3.588 157.726 o
1 3 9 0.229 2.217 2.102 459.385 o
1 3 10 13.879 21.985 8.422 28.042 o
1 3 11 237.874 258.829 13.753 3.896 o
1 3 12 95.248 83.690 5.472 26.646 o
1 3 13 90.621 79.278 5.366 28.779 o
1 3 14 44.678 52.022 5.148 52.348 o
1 3 15 79.330 71.248 5.774 30.829 o
1 3 16 61.472 56.805 5.708 38.717 o
1 3 17 114.578 126.821 7.624 14.919 o
1 3 18 0.890 -0.551 4.446 102.761 o
1 3 19 27.128 21.766 5.609 58.017 o
1 4 0 17.958 19.906 1.494 489.469 o
1 4 1 27.303 29.568 2.776 168.340 o
1 4 2 1.553 1.375 1.365 1083.240 o
1 4 3 32.563 36.395 2.422 166.326 o
1 4 4 0.171 1.206 1.517 882.677 o
1 4 5 9.807 17.545 1.959 433.439 o
1 4 6 351.498 360.965 5.618 2.788 o
1 4 7 3.788 2.005 2.151 433.740 o
1 4 8 19.377 21.120 2.666 218.085 o
1 4 9 606.432 605.051 7.955 0.968 o
1 4 10 225.462 225.963 8.373 5.767 o
1 4 11 83.380 72.646 3.708 41.417 o
1 4 12 120.773 115.798 6.181 17.385 o
1 4 13 63.133 62.027 5.583 38.328 o
1 4 14 10.602 6.217 3.790 137.031 o
1 4 15 11.951 12.608 4.239 108.111 o
1 4 16 3.815 -3.962 3.674 150.095 o
1 4 17 14.466 11.802 4.759 85.831 o
1 4 18 3.800 -3.079 5.457 68.149 o
1 4 19 75.158 80.693 7.180 24.065 o
1 5 0 67.748 59.273 2.670 66.618 o
1 5 1 118.243 135.848 3.480 20.837 o
1 5 2 300.960 294.743 4.727 3.925 o
1 5 3 117.749 112.637 3.713 22.973 o
1 5 4 0.423 -0.896 1.781 640.188 o
1 5 5 23.087 24.811 2.524 214.493 o
1 5 6 43.971 40.721 2.899 109.226 o
1 5 7 523.564 486.657 7.095 1.355 o
1 5 8 348.144 375.829 6.801 2.694 o
1 5 9 782.880 740.780 11.871 0.594 o
1 5 10 0.695 -0.338 2.377 359.685 o
1 5 11 42.116 46.505 3.496 89.294 o
1 5 12 1.122 -1.198 3.160 203.397 o
1 5 13 14.987 12.992 3.874 125.818 o
1 5 14 23.916 21.013 4.331 93.723 o
1 5 15 20.720 21.701 4.546 87.872 o
1 5 16 16.671 10.016 4.458 96.600 o
1 5 17 0.027 -5.735 8.138 30.678 o
1 5 18 22.658 25.540 5.331 64.468 o
1 6 0 8.164 6.846 1.896 517.812 o
1 6 1 168.358 154.131 6.030 10.996 o
1 6 2 8.369 8.482 1.922 497.071 o
1 6 3 401.685 377.248 6.008 2.271 o
1 6 4 181.681 192.847 4.911 9.464 o
1 6 5 176.435 171.119 4.958 10.489 o
1 6 6 223.403 203.853 5.491 6.984 o
1 6 7 235.429 261.522 6.019 5.542 o
1 6 8 26.517 23.503 2.893 169.617 o
1 6 9 2.220 3.739 2.430 341.743 o
1 6 10 7.067 9.572 2.676 270.581 o
1 6 11 0.731 0.672 2.704 277.770 o
1 6 12 6.436 4.765 3.349 178.107 o
1 6 13 0.955 -2.605 3.331 183.087 o
1 6 14 0.063 -5.203 3.556 160.677 o
1 6 15 24.463 28.817 4.911 72.986 o
1 6 16 6.678 3.455 4.440 102.152 o
1 6 17 9.601 6.446 4.804 86.507 o
1 6 18 12.250 7.038 7.539 35.369 o
1 7 0 0.738 1.817 2.148 439.726 o
1 7 1 7.323 9.478 6.624 45.930 o
1 7 2 74.624 75.983 3.535 46.442 o
1 7 3 129.109 126.441 4.089 18.836 o
1 7 4 25.661 24.331 2.486 209.352 o
1 7 5 3.092 4.544 2.036 481.997 o
1 7 6 44.330 43.479 3.224 96.072 o
1 7 7 122.116 126.587 4.936 18.629 o
1 7 8 42.913 40.480 5.201 55.099 o
1 7 9 11.511 11.980 2.795 237.219 o
1 7 10 5.302 2.247 2.787 258.276 o
1 7 11 10.844 11.324 3.627 146.916 o
1 7 12 8.408 0.258 3.431 169.993 o
1 7 13 156.325 206.695 8.240 8.681 o
1 7 14 29.751 44.933 7.854 29.701 o
1 7 15 38.641 45.989 9.715 19.584 o
1 7 16 0.517 -3.582 4.203 114.990 o
1 8 0 54.331 69.326 8.454 22.333 o
1 8 1 52.733 46.930 8.012 25.883 o
1 8 2 55.225 54.374 8.517 22.761 o
1 8 3 119.408 111.083 10.094 11.460 o
1 8 4 163.376 171.514 12.933 6.346 o
1 8 5 59.542 66.802 8.832 20.463 o
1 8 6 24.191 19.935 7.129 37.840 o
1 8 7 4.588 0.439 2.827 252.454 o
1 8 8 3.892 -0.857 2.504 322.187 o
1 8 9 30.186 30.754 3.476 118.124 o
1 8 10 22.401 20.608 3.393 143.605 o
1 8 11 2.630 4.115 3.377 177.336 o
1 8 12 16.837 15.006 4.017 115.484 o
1 8 13 48.901 55.720 5.557 44.758 o
1 8 14 2.181 -0.883 3.674 150.363 o
1 8 15 1.275 -6.642 3.840 137.782 o
1 9 0 226.232 249.104 15.015 3.843 o
1 9 1 81.805 67.118 9.526 16.447 o
1 9 2 1.955 -4.101 6.687 45.426 o
1 9 3 0.145 -7.381 6.624 46.306 o
1 9 4 55.027 50.148 9.084 20.662 o
1 9 5 7.117 -4.353 7.003 41.330 o
1 9 6 18.503 9.905 7.507 35.204 o
1 9 7 19.715 9.842 8.264 29.111 o
1 9 8 0.128 -6.372 7.192 39.283 o
1 9 9 13.759 -0.505 8.075 30.938 o
1 9 10 14.421 11.671 8.517 27.627 o
1 10 0 31.319 28.578 9.211 22.585 o
1 10 1 23.597 10.536 8.517 27.241 o
1 10 2 7.836 0.126 7.760 33.658 o
1 10 3 0.087 -13.942 7.381 37.294 o
1 10 4 12.000 -1.199 7.886 32.488 o
1 10 5 0.171 -12.113 7.381 37.294 o
1 10 6 5.739 4.353 8.454 28.370 o
1 10 7 77.532 70.209 11.040 13.267 o
1 10 8 12.681 -0.568 8.769 26.288 o
2 -8 0 0.880 1.759 4.479 101.235 o
2 -8 1 90.977 114.538 10.346 12.605 o
2 -8 2 40.684 50.779 13.340 10.767 o
2 -8 3 87.641 91.091 11.797 11.110 o
2 -8 4 120.871 142.690 13.438 7.481 o
2 -8 5 0.455 -1.703 8.075 31.159 o
2 -8 6 10.814 -4.164 8.138 30.546 o
2 -7 0 3.098 -1.407 3.621 154.718 o
2 -7 1 1.107 -2.964 3.668 150.964 o
2 -7 2 115.191 130.161 13.911 7.427 o
2 -7 3 61.087 62.903 6.077 35.010 o
2 -7 4 100.778 131.828 13.027 8.531 o
2 -7 5 68.513 81.811 6.880 26.446 o
2 -7 6 12.849 19.103 15.485 8.430 o
2 -7 7 0.783 5.862 5.030 80.197 o
2 -7 8 0.754 7.995 13.942 10.450 o
2 -7 9 0.083 -14.194 7.444 36.665 o
2 -7 10 3.292 -17.601 7.255 38.583 o
2 -6 0 10.248 13.687 3.819 132.755 o
2 -6 1 1.310 -0.326 3.401 175.626 o
2 -6 2 8.426 7.440 3.898 130.604 o
2 -6 3 7.371 5.968 2.956 225.669 o
2 -6 4 0.157 -3.073 4.101 120.833 o
2 -6 5 7.253 8.061 4.605 94.404 o
2 -6 6 0.018 1.162 7.413 36.977 o
2 -6 7 4.535 5.125 4.858 85.655 o
2 -6 8 2.596 5.925 9.968 20.435 o
2 -6 9 33.640 38.059 9.176 22.320 o
2 -6 10 0.102 2.066 11.419 15.583 o
2 -6 11 15.143 16.781 8.391 28.312 o
2 -6 12 0.360 -17.475 8.138 30.678 o
2 -5 0 41.627 22.444 3.739 97.384 o
2 -5 1 68.340 59.230 6.119 33.260 o
2 -5 2 97.001 77.732 5.460 26.982 o
2 -5 3 56.788 45.733 4.759 53.069 o
2 -5 4 27.527 20.882 6.403 45.603 o
2 -5 5 0.015 -1.282 3.727 146.252 o
2 -5 6 0.397 -1.595 8.296 29.523 o
2 -5 7 29.707 34.260 4.996 66.921 o
2 -5 8 0.978 0.077 7.287 38.267 o
2 -5 9 9.274 12.132 7.823 32.891 o
2 -5 10 14.056 12.206 4.814 84.041 o
2 -5 11 4.446 2.650 8.012 31.612 o
2 -5 12 7.766 10.220 8.454 28.270 o
2 -5 13 0.084 -7.886 8.327 29.300 o
2 -5 14 0.909 1.703 9.400 22.993 o
2 -4 0 1.911 5.593 4.889 84.804 o
2 -4 1 291.684 278.471 11.132 3.494 o
2 -4 2 6.045 0.243 3.028 219.338 o
2 -4 3 72.442 67.371 5.105 37.755 o
2 -4 4 89.624 69.444 5.493 29.762 o
2 -4 5 10.292 3.174 3.970 126.137 o
2 -4 6 3.033 -0.554 3.769 142.785 o
2 -4 7 0.105 -0.725 4.069 122.713 o
2 -4 8 6.124 -0.491 5.173 75.664 o
2 -4 9 114.046 116.807 11.671 9.699 o
2 -4 10 2.435 -1.989 3.838 137.823 o
2 -4 11 129.866 164.764 13.059 7.217 o
2 -4 12 2.674 0.883 7.381 37.278 o
2 -4 13 1.095 7.760 8.832 26.027 o
2 -4 14 5.866 -11.671 8.706 26.777 o
2 -4 15 3.527 6.813 9.905 20.687 o
2 -3 0 3.266 -1.692 2.276 390.343 o
2 -3 1 0.004 -1.782 2.134 446.053 o
2 -3 2 0.798 0.471 2.544 313.774 o
2 -3 3 15.760 15.091 3.150 180.413 o
2 -3 4 15.977 17.374 3.746 130.798 o
2 -3 5 370.908 386.951 9.479 2.323 o
2 -3 6 5.671 5.623 6.246 51.853 o
2 -3 7 59.516 50.984 4.985 47.630 o
2 -3 8 0.165 -2.550 5.173 75.925 o
2 -3 9 44.653 44.209 5.741 46.242 o
2 -3 10 105.941 112.545 6.727 18.455 o
2 -3 11 9.806 11.545 7.507 35.673 o
2 -3 12 117.306 122.880 11.608 9.518 o
2 -3 13 103.740 100.421 11.608 10.520 o
2 -3 14 22.852 37.530 10.472 17.833 o
2 -3 15 0.718 -3.911 9.337 23.307 o
2 -3 16 21.393 15.898 10.914 16.759 o
2 -3 17 0.237 -18.800 9.400 22.995 o
2 -2 0 2.988 5.489 2.713 273.101 o
2 -2 1 133.009 158.177 5.001 14.956 o
2 -2 2 26.464 24.260 2.711 184.354 o
2 -2 3 92.802 75.654 3.841 35.771 o
2 -2 4 101.881 90.969 2.612 33.675 o
2 -2 5 148.604 156.988 4.315 13.946 o
2 -2 6 122.732 120.140 7.577 14.539 o
2 -2 7 57.878 43.922 2.867 84.921 o
2 -2 8 62.803 57.672 3.212 65.517 o
2 -2 9 161.804 161.728 5.074 11.892 o
2 -2 10 13.838 12.514 2.536 273.528 o
2 -2 11 21.318 23.354 4.416 91.590 o
2 -2 12 18.365 14.626 3.795 126.781 o
2 -2 13 0.003 -4.625 4.668 93.228 o
2 -2 14 0.273 -5.173 3.594 157.309 o
2 -2 15 1.128 -8.012 8.643 27.199 o
2 -2 16 18.571 23.216 10.220 19.044 o
2 -2 17 0.017 -11.419 9.905 20.712 o
2 -2 18 24.566 17.033 11.482 15.103 o
2 -1 0 58.261 55.005 4.542 52.426 o
2 -1 1 149.663 168.691 4.416 13.157 o
2 -1 2 129.640 128.847 3.375 19.501 o
2 -1 3 99.253 103.354 2.276 33.140 o
2 -1 4 18.978 21.077 1.905 351.844 o
2 -1 5 33.888 35.088 2.021 191.602 o
2 -1 6 120.965 115.294 3.624 22.147 o
2 -1 7 112.158 124.119 3.848 22.677 o
2 -1 8 64.510 57.488 3.381 61.837 o
2 -1 9 0.874 -0.749 2.166 432.965 o
2 -1 10 105.870 109.719 4.363 24.571 o
2 -1 11 3.199 0.147 3.273 189.233 o
2 -1 12 92.911 97.331 6.114 23.416 o
2 -1 13 36.701 37.531 4.574 71.278 o
2 -1 14 0.136 0.307 3.814 139.704 o
2 -1 15 8.317 1.960 3.951 128.383 o
2 -1 16 5.410 0.684 4.277 110.578 o
2 -1 17 1.475 -0.544 4.686 92.524 o
2 -1 18 61.386 63.630 6.974 29.011 o
2 0 0 325.851 316.355 3.441 3.449 o
2 0 1 98.925 106.995 2.679 31.537 o
2 0 2 980.138 1020.740 8.289 0.367 o
2 0 3 311.757 320.519 10.346 3.097 o
2 0 4 258.873 287.130 3.698 4.923 o
2 0 5 11.419 11.689 1.661 581.516 o
2 0 6 10.067 7.203 1.517 735.461 o
2 0 7 15.176 7.131 1.568 610.979 o
2 0 8 4.265 2.909 1.827 594.082 o
2 0 9 822.127 812.420 8.370 0.536 o
2 0 10 37.625 39.093 5.899 47.420 o
2 0 11 24.271 28.229 4.178 96.357 o
2 0 12 3.180 -0.158 3.408 174.558 o
2 0 13 25.253 22.138 5.015 71.531 o
2 0 14 10.040 5.674 7.728 33.789 o
2 0 15 49.084 46.847 5.415 48.064 o
2 0 16 14.931 6.215 4.212 109.584 o
2 0 17 0.138 -8.378 4.234 113.351 o
2 0 18 66.045 68.507 6.886 28.138 o
2 0 19 107.617 104.699 14.258 7.629 o
2 1 0 75.689 72.973 2.027 57.860 o
2 1 1 121.319 111.300 2.227 24.740 o
2 1 2 415.514 421.652 3.884 2.070 o
2 1 3 89.904 98.742 3.499 33.843 o
2 1 4 1.031 1.710 1.490 911.272 o
2 1 5 644.199 704.119 8.548 0.807 o
2 1 6 77.770 74.829 3.911 42.338 o
2 1 7 142.858 134.136 5.053 15.149 o
2 1 8 19.752 21.389 5.078 72.371 o
2 1 9 100.449 108.895 6.529 19.968 o
2 1 10 21.750 20.037 3.806 119.694 o
2 1 11 26.455 18.952 4.098 101.710 o
2 1 12 0.663 1.425 3.376 178.172 o
2 1 13 3.648 -1.766 3.463 169.012 o
2 1 14 26.270 28.015 4.767 76.040 o
2 1 15 37.258 27.642 5.142 61.824 o
2 1 16 165.953 169.428 14.223 5.690 o
2 1 17 54.345 54.980 14.510 8.949 o
2 1 18 15.063 10.981 5.194 72.521 o
2 1 19 17.611 8.050 5.804 58.319 o
2 2 0 1.353 -0.087 1.537 858.216 o
2 2 1 64.834 58.060 3.384 61.272 o
2 2 2 104.346 122.051 2.526 27.543 o
2 2 3 1.260 1.782 0.973 2121.790 o
2 2 4 55.118 46.548 1.858 109.271 o
2 2 5 17.879 14.936 2.934 199.420 o
2 2 6 344.701 375.744 6.740 2.730 o
2 2 7 27.818 34.829 3.181 134.041 o
2 2 8 37.221 44.976 3.732 89.451 o
2 2 9 175.178 164.730 6.265 10.024 o
2 2 10 130.601 127.984 8.864 11.822 o
2 2 11 1.326 4.635 4.385 105.513 o
2 2 12 230.955 231.628 7.848 5.677 o
2 2 13 64.288 63.786 5.772 36.208 o
2 2 14 209.278 219.621 8.651 6.238 o
2 2 15 105.349 119.509 10.536 11.404 o
2 2 16 293.643 306.828 9.998 3.430 o
2 2 17 0.299 2.104 4.249 112.500 o
2 2 18 4.266 0.724 4.596 95.963 o
2 2 19 0.256 -8.103 4.658 93.655 o
2 3 0 411.232 459.691 6.074 1.936 o
2 3 1 83.285 93.698 2.371 42.909 o
2 3 2 192.159 198.199 3.260 9.250 o
2 3 3 86.479 95.091 2.823 38.902 o
2 3 4 486.017 523.189 5.400 1.445 o
2 3 5 310.955 334.384 4.458 3.484 o
2 3 6 74.013 94.636 4.834 34.066 o
2 3 7 37.772 38.529 2.122 162.283 o
2 3 8 22.255 25.298 2.216 256.836 o
2 3 9 87.208 90.341 7.914 19.202 o
2 3 10 436.543 416.450 9.283 1.830 o
2 3 11 39.951 41.781 5.173 56.625 o
2 3 12 251.768 243.144 8.327 4.922 o
2 3 13 252.205 258.543 8.291 4.755 o
2 3 14 109.258 100.442 10.564 11.659 o
2 3 15 30.898 28.518 4.738 73.948 o
2 3 16 0.149 -1.656 3.754 144.150 o
2 3 17 10.771 6.240 4.399 102.493 o
2 3 18 3.673 -0.707 4.423 103.682 o
2 3 19 0.403 -13.306 4.258 112.046 o
2 4 0 16.909 23.897 4.763 82.132 o
2 4 1 279.817 262.486 6.749 4.399 o
2 4 2 0.718 2.473 2.176 428.067 o
2 4 3 80.888 101.571 3.125 38.708 o
2 4 4 158.150 208.919 4.194 10.835 o
2 4 5 56.825 54.024 2.605 84.292 o
2 4 6 237.371 231.160 5.733 5.979 o
2 4 7 0.405 2.030 2.047 484.467 o
2 4 8 90.293 78.501 3.779 36.523 o
2 4 9 63.010 69.218 3.339 58.666 o
2 4 10 449.214 422.582 9.443 1.745 o
2 4 11 158.792 150.220 6.493 11.481 o
2 4 12 35.336 36.067 4.385 77.425 o
2 4 13 26.367 18.039 4.021 105.538 o
2 4 14 0.482 5.275 3.658 151.570 o
2 4 15 11.638 11.532 4.000 121.329 o
2 4 16 2.994 -7.154 7.917 32.402 o
2 4 17 9.565 5.276 4.433 101.511 o
2 4 18 3.775 6.764 4.671 92.592 o
2 4 19 24.624 27.427 5.643 57.290 o
2 5 0 202.847 203.633 3.249 8.492 o
2 5 1 80.000 78.067 2.537 49.140 o
2 5 2 47.161 55.293 2.878 92.050 o
2 5 3 46.597 41.123 2.319 123.204 o
2 5 4 25.932 26.883 2.297 223.358 o
2 5 5 11.590 10.359 2.213 363.425 o
2 5 6 60.505 62.463 4.235 52.545 o
2 5 7 157.953 163.766 6.732 10.862 o
2 5 8 407.069 381.133 8.580 2.130 o
2 5 9 134.314 141.615 5.206 15.536 o
2 5 10 407.721 379.268 8.866 2.121 o
2 5 11 27.013 38.221 4.317 85.080 o
2 5 12 13.709 10.020 3.611 146.163 o
2 5 13 2.190 -0.574 3.417 173.814 o
2 5 14 11.969 7.455 4.574 94.387 o
2 5 15 0.008 -3.014 3.562 160.168 o
2 5 16 3.441 -4.972 3.798 140.568 o
2 5 17 16.005 9.935 4.702 87.594 o
2 5 18 1.726 -12.073 4.637 94.469 o
2 6 0 51.464 46.107 3.563 77.024 o
2 6 1 11.862 7.427 1.619 631.226 o
2 6 2 352.881 352.539 7.400 2.728 o
2 6 3 128.861 132.152 7.761 13.204 o
2 6 4 406.734 400.679 6.167 2.147 o
2 6 5 18.678 17.979 2.506 248.778 o
2 6 6 46.390 51.510 3.279 86.175 o
2 6 7 762.844 748.734 9.078 0.622 o
2 6 8 199.919 195.430 5.548 8.158 o
2 6 9 48.441 41.590 3.328 88.786 o
2 6 10 20.634 20.622 3.659 129.021 o
2 6 11 2.317 0.674 5.268 73.176 o
2 6 12 14.134 10.977 3.785 133.004 o
2 6 13 17.075 13.547 4.921 79.321 o
2 6 14 42.152 34.776 4.905 61.965 o
2 6 15 0.541 -3.478 4.227 113.722 o
2 6 16 0.175 -4.379 3.955 129.893 o
2 6 17 0.247 -5.124 4.321 108.800 o
2 6 18 0.276 -7.684 4.145 118.261 o
2 7 0 0.002 3.570 2.288 387.519 o
2 7 1 25.067 24.627 3.055 159.022 o
2 7 2 0.002 2.368 2.312 379.922 o
2 7 3 205.162 208.542 6.567 7.281 o
2 7 4 297.697 295.758 9.431 3.514 o
2 7 5 64.510 76.517 5.874 33.571 o
2 7 6 0.000 0.484 2.045 485.941 o
2 7 7 30.591 31.072 3.023 141.285 o
2 7 8 13.382 13.940 2.751 236.530 o
2 7 9 0.741 -2.437 2.533 316.704 o
2 7 10 5.630 3.956 3.099 208.495 o
2 7 11 111.998 120.354 6.457 17.709 o
2 7 12 35.990 31.673 6.873 37.724 o
2 7 13 134.044 163.865 7.806 11.553 o
2 7 14 23.186 23.857 6.971 39.350 o
2 7 15 69.366 70.214 6.255 30.775 o
2 7 16 1.247 -8.294 3.790 141.411 o
2 7 17 2.331 -20.629 6.246 52.071 o
2 8 0 36.271 30.689 3.636 102.704 o
2 8 1 25.126 23.581 3.254 145.668 o
2 8 2 262.175 285.866 7.877 4.356 o
2 8 3 4.249 4.512 2.658 283.491 o
2 8 4 416.509 423.661 9.249 1.920 o
2 8 5 19.067 11.944 4.101 110.666 o
2 8 6 0.926 -2.493 2.799 259.235 o
2 8 7 53.142 67.880 6.624 32.476 o
2 8 8 3.082 1.734 3.267 189.673 o
2 8 9 10.686 9.924 3.522 156.178 o
2 8 10 0.002 -1.640 3.785 141.811 o
2 8 11 22.085 27.569 5.489 61.026 o
2 8 12 174.773 205.076 10.788 6.643 o
2 8 13 11.407 7.055 4.795 86.323 o
2 8 14 155.509 173.803 8.322 9.493 o
2 8 15 20.066 21.545 4.983 74.779 o
2 9 0 8.313 6.876 6.940 41.896 o
2 9 1 402.218 435.633 16.529 1.665 o
2 9 2 109.116 88.252 9.968 12.924 o
2 9 3 39.266 41.252 8.075 27.440 o
2 9 4 18.029 14.321 7.507 35.078 o
2 9 5 17.357 2.208 6.624 45.436 o
2 9 6 2.430 -3.722 6.435 49.052 o
2 9 7 2.631 0.677 8.296 29.514 o
2 9 8 3.247 -1.539 12.523 12.954 o
2 9 9 0.780 -1.640 3.848 137.186 o
2 9 10 4.580 0.000 4.479 101.013 o
2 9 11 1.652 -7.633 3.911 132.751 o
2 9 12 6.299 2.019 4.731 90.228 o
2 9 13 2.752 -1.136 4.416 104.088 o
2 10 0 3.696 -4.858 7.318 37.916 o
2 10 1 26.872 19.935 8.391 27.552 o
2 10 2 2.511 -5.362 7.003 41.422 o
2 10 3 3.560 -3.344 7.318 37.918 o
2 10 4 30.745 19.494 8.454 26.910 o
2 10 5 1.893 -1.577 7.444 36.659 o
2 10 6 1.371 5.173 7.633 34.846 o
2 10 7 0.479 -3.596 7.318 37.940 o
2 10 8 3.049 -14.005 7.444 36.650 o
3 -8 0 0.299 -6.433 4.358 106.968 o
3 -8 1 0.061 -7.975 4.598 96.104 o
3 -8 2 1.090 8.722 5.075 78.672 o
3 -7 0 0.285 2.542 4.056 123.493 o
3 -7 1 10.617 7.286 4.657 91.589 o
3 -7 2 21.570 18.871 5.320 66.246 o
3 -7 3 47.906 54.243 6.620 35.218 o
3 -7 4 14.928 26.813 11.005 16.506 o
3 -7 5 12.336 14.674 13.059 11.848 o
3 -7 6 13.144 29.985 25.673 3.074 o
3 -7 7 2.570 13.346 21.226 4.508 o
3 -6 0 6.778 10.676 3.863 132.929 o
3 -6 1 27.116 24.232 4.592 81.676 o
3 -6 2 69.781 76.379 6.375 29.290 o
3 -6 3 10.654 9.717 3.425 164.853 o
3 -6 4 2.482 0.546 7.318 37.927 o
3 -6 5 3.891 6.464 7.192 39.188 o
3 -6 6 31.147 37.495 15.768 7.975 o
3 -6 7 1.745 6.375 9.242 23.770 o
3 -6 8 30.391 32.083 10.185 18.631 o
3 -6 9 2.984 4.361 14.352 9.861 o
3 -6 10 2.923 8.958 8.012 31.586 o
3 -5 0 21.144 16.147 3.843 120.401 o
3 -5 1 16.654 15.911 3.789 128.214 o
3 -5 2 109.786 111.513 7.980 15.485 o
3 -5 3 23.464 22.886 4.649 82.534 o
3 -5 4 0.442 2.714 4.168 116.912 o
3 -5 5 0.770 3.176 4.186 115.880 o
3 -5 6 3.660 0.663 7.223 38.911 o
3 -5 7 5.498 4.602 4.410 103.666 o
3 -5 8 124.174 136.811 21.131 3.777 o
3 -5 9 1.808 -0.879 11.356 15.756 o
3 -5 10 4.259 14.384 7.697 34.114 o
3 -5 11 0.832 10.409 8.454 28.396 o
3 -5 12 23.542 34.250 9.842 20.131 o
3 -4 0 140.129 138.057 7.003 12.956 o
3 -4 1 1.096 0.432 3.279 188.869 o
3 -4 2 0.035 1.076 5.394 69.834 o
3 -4 3 13.515 10.343 3.699 139.746 o
3 -4 4 5.353 5.871 2.979 224.617 o
3 -4 5 39.413 34.740 7.820 29.408 o
3 -4 6 13.517 12.583 5.520 64.629 o
3 -4 7 2.110 1.483 4.059 123.149 o
3 -4 8 22.022 24.448 6.119 50.371 o
3 -4 9 1.516 -2.453 6.151 53.696 o
3 -4 10 75.557 74.058 9.778 16.017 o
3 -4 11 25.630 35.701 8.832 24.579 o
3 -4 12 57.413 81.691 11.293 13.428 o
3 -4 13 0.002 6.750 9.463 22.683 o
3 -4 14 1.346 12.554 9.905 20.681 o
3 -3 0 280.832 283.942 10.816 3.645 o
3 -3 1 150.152 141.214 6.412 12.605 o
3 -3 2 3.186 6.077 3.179 199.228 o
3 -3 3 17.900 10.928 3.514 148.348 o
3 -3 4 20.427 23.213 3.365 146.666 o
3 -3 5 45.206 49.479 5.038 54.267 o
3 -3 6 230.359 238.050 8.498 5.447 o
3 -3 7 8.428 12.888 4.056 119.519 o
3 -3 8 14.703 19.179 4.463 95.057 o
3 -3 9 98.558 97.634 6.091 22.422 o
3 -3 10 103.260 86.612 9.652 13.907 o
3 -3 11 219.586 255.728 14.952 3.900 o
3 -3 12 5.820 6.119 7.949 32.058 o
3 -3 13 108.948 102.882 12.176 9.601 o
3 -3 14 2.102 -0.694 9.274 23.622 o
3 -3 15 8.189 0.505 10.536 18.276 o
3 -3 16 51.525 56.015 12.554 11.731 o
3 -2 0 14.850 11.734 3.785 132.063 o
3 -2 1 175.764 199.398 8.832 7.668 o
3 -2 2 9.196 6.528 3.533 157.952 o
3 -2 3 270.256 279.420 7.559 4.311 o
3 -2 4 435.829 419.338 4.813 1.935 o
3 -2 5 478.330 488.771 11.112 1.440 o
3 -2 6 137.849 134.369 3.961 17.035 o
3 -2 7 93.030 91.189 5.608 25.784 o
3 -2 8 7.676 6.447 5.205 74.206 o
3 -2 9 1.856 2.311 3.754 143.976 o
3 -2 10 64.665 68.821 9.463 17.864 o
3 -2 11 30.397 42.640 8.769 24.337 o
3 -2 12 243.609 301.965 16.087 3.163 o
3 -2 13 32.954 37.341 9.400 21.404 o
3 -2 14 0.319 -6.687 8.643 27.200 o
3 -2 15 5.777 -10.977 9.084 24.595 o
3 -2 16 17.240 6.876 10.662 17.710 o
3 -2 17 2.641 -3.911 11.356 15.755 o
3 -1 0 153.676 167.855 7.381 10.495 o
3 -1 1 36.541 34.863 2.254 165.729 o
3 -1 2 247.602 238.895 4.448 5.776 o
3 -1 3 235.995 250.788 14.226 3.876 o
3 -1 4 28.726 30.843 2.036 227.101 o
3 -1 5 13.644 12.466 2.046 393.776 o
3 -1 6 3.914 4.069 1.877 562.751 o
3 -1 7 28.478 25.138 2.640 182.716 o
3 -1 8 36.397 35.611 3.353 109.944 o
3 -1 9 30.729 31.851 3.606 110.644 o
3 -1 10 10.388 12.468 3.261 179.549 o
3 -1 11 20.915 20.916 3.577 133.477 o
3 -1 12 8.796 6.460 3.603 152.302 o
3 -1 13 120.422 118.655 6.649 16.410 o
3 -1 14 5.107 2.002 4.385 105.189 o
3 -1 15 14.496 14.889 9.842 20.724 o
3 -1 16 93.102 118.023 14.573 7.542 o
3 -1 17 2.929 -8.895 10.220 19.449 o
3 -1 18 7.301 -8.264 10.788 17.439 o
3 0 0 506.749 530.362 5.421 1.357 o
3 0 1 149.217 163.034 4.634 13.310 o
3 0 2 17.507 27.604 2.053 306.546 o
3 0 3 97.881 129.579 3.187 26.962 o
3 0 4 172.158 172.588 7.160 9.413 o
3 0 5 187.688 193.668 5.544 8.826 o
3 0 6 0.214 2.434 1.688 711.736 o
3 0 7 173.523 151.247 5.342 11.195 o
3 0 8 12.656 11.731 2.127 378.441 o
3 0 9 28.116 24.470 3.638 117.799 o
3 0 10 182.864 196.813 6.913 8.371 o
3 0 11 51.417 62.291 4.652 52.855 o
3 0 12 3.714 -0.463 3.397 175.593 o
3 0 13 3.098 4.403 5.646 63.595 o
3 0 14 22.569 15.944 4.353 95.622 o
3 0 15 32.992 26.363 4.699 74.335 o
3 0 16 11.674 13.253 9.526 22.188 o
3 0 17 107.691 114.979 7.895 15.682 o
3 0 18 0.908 -7.507 4.571 97.254 o
3 1 0 70.133 67.207 4.898 40.227 o
3 1 1 172.740 194.928 3.272 10.660 o
3 1 2 23.215 21.618 1.381 426.924 o
3 1 3 498.005 599.081 5.628 1.271 o
3 1 4 948.251 1031.450 10.201 0.377 o
3 1 5 135.112 150.564 4.679 15.514 o
3 1 6 680.784 751.550 9.633 0.715 o
3 1 7 139.099 131.452 5.243 15.527 o
3 1 8 83.788 90.949 5.188 29.842 o
3 1 9 24.267 25.897 5.394 62.504 o
3 1 10 84.392 98.991 7.820 19.293 o
3 1 11 2.523 2.011 7.003 41.409 o
3 1 12 7.028 2.991 3.457 167.551 o
3 1 13 9.666 11.587 4.416 101.133 o
3 1 14 0.151 -1.445 3.498 166.060 o
3 1 15 10.981 8.278 4.240 109.573 o
3 1 16 3.205 -0.318 4.209 114.545 o
3 1 17 7.618 0.419 7.791 33.389 o
3 1 18 1.035 -10.394 4.163 117.214 o
3 1 19 0.064 -15.386 4.516 99.620 o
3 2 0 2.499 2.203 1.069 1728.520 o
3 2 1 37.978 42.691 1.986 161.063 o
3 2 2 2.080 1.291 1.125 1581.920 o
3 2 3 57.041 66.383 2.383 78.931 o
3 2 4 574.994 620.367 5.551 1.036 o
3 2 5 7.539 9.298 1.864 528.867 o
3 2 6 84.244 98.566 9.397 15.366 o
3 2 7 181.148 177.411 5.647 9.615 o
3 2 8 26.256 21.575 4.038 103.227 o
3 2 9 3.720 8.621 3.299 183.955 o
3 2 10 13.406 8.603 3.662 143.258 o
3 2 11 0.248 -1.529 3.168 202.508 o
3 2 12 55.626 52.642 5.552 42.895 o
3 2 13 10.064 12.340 3.945 125.342 o
3 2 14 39.372 43.701 5.128 57.190 o
3 2 15 152.860 149.522 7.689 10.878 o
3 2 16 0.188 -7.937 4.017 125.893 o
3 2 17 21.191 10.188 4.983 76.591 o
3 2 18 2.389 -7.947 4.350 107.275 o
3 2 19 0.472 -10.127 4.312 109.282 o
3 3 0 1.353 1.387 1.194 1415.360 o
3 3 1 530.358 590.714 5.576 1.187 o
3 3 2 1.359 -0.264 1.326 1152.420 o
3 3 3 0.423 4.226 1.352 1102.030 o
3 3 4 580.224 642.117 6.123 0.996 o
3 3 5 421.623 436.451 4.951 1.966 o
3 3 6 201.301 191.924 4.558 8.519 o
3 3 7 2.028 -0.629 2.617 296.223 o
3 3 8 208.477 220.867 6.987 6.786 o
3 3 9 191.330 181.545 8.201 7.715 o
3 3 10 0.037 1.947 3.356 180.363 o
3 3 11 49.399 43.517 7.192 31.649 o
3 3 12 12.350 16.453 3.895 125.327 o
3 3 13 78.770 78.191 5.807 29.902 o
3 3 14 162.887 147.938 7.536 10.418 o
3 3 15 72.832 61.256 5.893 33.252 o
3 3 16 197.116 200.592 8.808 6.875 o
3 3 17 12.356 10.156 5.032 77.953 o
3 3 18 30.762 27.985 5.583 56.273 o
3 3 19 0.001 -3.354 5.646 63.733 o
3 4 0 596.535 650.626 8.381 0.939 o
3 4 1 352.215 369.849 6.243 2.709 o
3 4 2 175.925 187.611 3.779 10.498 o
3 4 3 38.533 31.841 2.121 172.091 o
3 4 4 177.739 191.628 4.192 10.060 o
3 4 5 2.872 5.689 2.025 485.945 o
3 4 6 0.009 0.127 1.701 702.631 o
3 4 7 55.715 50.772 2.572 89.031 o
3 4 8 9.279 7.105 3.187 192.413 o
3 4 9 11.461 8.073 3.197 187.959 o
3 4 10 83.257 85.731 5.576 28.909 o
3 4 11 29.213 28.469 4.051 96.486 o
3 4 12 0.009 -6.127 3.002 225.513 o
3 4 13 7.375 8.460 3.974 125.980 o
3 4 14 7.133 5.382 3.782 139.735 o
3 4 15 91.125 93.055 6.570 22.613 o
3 4 16 12.705 9.303 4.504 96.618 o
3 4 17 17.102 13.016 4.793 83.439 o
3 4 18 1.309 -6.904 4.472 101.582 o
3 4 19 5.755 -3.154 9.526 22.370 o
3 5 0 12.010 14.868 2.520 278.950 o
3 5 1 104.712 128.786 8.075 14.976 o
3 5 2 92.310 101.140 2.948 34.443 o
3 5 3 121.131 118.101 3.680 21.722 o
3 5 4 194.201 174.860 4.452 9.439 o
3 5 5 22.915 24.084 2.911 176.912 o
3 5 6 26.172 27.770 2.588 190.801 o
3 5 7 33.408 36.852 2.893 135.563 o
3 5 8 2.372 2.972 3.123 207.546 o
3 5 9 2.546 3.068 3.027 220.831 o
3 5 10 0.126 0.037 2.889 243.392 o
3 5 11 4.028 5.415 3.363 177.920 o
3 5 12 6.160 10.172 3.627 150.852 o
3 5 13 10.775 12.956 3.840 131.236 o
3 5 14 29.997 29.705 4.657 76.271 o
3 5 15 12.693 7.550 4.088 116.913 o
3 5 16 27.863 37.858 6.621 41.270 o
3 5 17 0.298 -2.185 4.163 117.246 o
3 5 18 6.006 -0.708 4.390 104.942 o
3 6 0 1.358 0.590 2.337 371.448 o
3 6 1 9.439 12.316 2.870 229.968 o
3 6 2 11.201 12.529 2.823 232.912 o
3 6 3 69.905 55.825 7.034 27.812 o
3 6 4 5.368 9.392 2.136 422.289 o
3 6 5 54.105 61.113 3.242 72.122 o
3 6 6 0.163 -2.141 2.259 398.041 o
3 6 7 1.624 -0.865 2.184 425.220 o
3 6 8 72.386 63.174 3.545 51.826 o
3 6 9 1.301 1.836 2.892 242.521 o
3 6 10 4.938 -0.451 3.008 223.098 o
3 6 11 28.619 24.802 6.025 50.238 o
3 6 12 0.149 0.322 3.238 193.762 o
3 6 13 12.136 7.630 3.790 135.534 o
3 6 14 0.232 -4.499 5.362 70.660 o
3 6 15 7.272 3.649 3.992 125.917 o
3 6 16 36.473 40.516 5.532 52.733 o
3 6 17 1.681 -14.521 8.454 28.429 o
3 7 0 1.315 0.459 2.426 344.992 o
3 7 1 9.719 7.084 2.645 273.500 o
3 7 2 9.971 13.100 2.894 224.535 o
3 7 3 0.007 -0.390 2.386 356.926 o
3 7 4 122.513 123.411 5.957 17.059 o
3 7 5 1.087 -2.613 4.195 115.424 o
3 7 6 0.339 -3.055 4.227 113.725 o
3 7 7 1.183 2.786 2.777 262.904 o
3 7 8 0.867 -6.429 2.588 303.303 o
3 7 9 22.770 17.311 3.622 130.645 o
3 7 10 3.897 2.242 3.817 138.885 o
3 7 11 6.049 2.424 3.244 190.770 o
3 7 12 3.510 -0.686 3.312 184.683 o
3 7 13 3.169 -4.405 7.192 39.264 o
3 7 14 31.395 29.708 5.517 56.903 o
3 7 15 1.025 -2.601 4.012 126.191 o
3 7 16 10.004 11.497 4.687 89.969 o
3 8 0 51.306 55.948 6.435 35.712 o
3 8 1 0.856 1.414 3.564 159.849 o
3 8 2 78.767 90.069 5.405 30.337 o
3 8 3 83.287 87.692 5.502 28.986 o
3 8 4 3.345 3.461 2.913 237.747 o
3 8 5 31.717 33.721 5.138 63.065 o
3 8 6 11.793 9.339 3.596 149.414 o
3 8 7 0.452 -4.552 4.290 110.403 o
3 8 8 4.250 4.479 3.785 140.791 o
3 8 9 1.788 2.902 4.038 124.441 o
3 8 10 22.601 34.060 5.552 58.570 o
3 8 11 13.483 11.040 4.858 82.977 o
3 8 12 18.217 15.015 5.362 66.868 o
3 8 13 188.501 188.610 10.977 6.398 o
3 8 14 28.607 31.600 6.687 40.983 o
3 8 15 29.442 30.282 6.624 41.656 o
3 9 0 0.816 2.482 2.804 258.124 o
3 9 1 38.386 38.355 4.177 79.320 o
3 9 2 76.157 70.532 12.144 11.410 o
3 9 3 97.479 93.670 10.375 12.783 o
3 9 4 111.107 122.617 6.412 17.767 o
3 9 5 0.068 -5.145 3.596 157.131 o
3 9 6 101.979 112.642 8.138 15.877 o
3 9 7 0.655 -7.739 7.287 38.268 o
3 9 8 11.182 7.760 4.542 95.882 o
3 9 9 24.462 38.918 6.119 48.147 o
3 9 10 24.289 28.137 5.867 53.402 o
3 9 11 15.386 21.828 5.930 55.106 o
3 9 12 3.506 -2.397 4.416 104.026 o
3 9 13 40.196 30.976 6.435 41.426 o
3 10 0 2.643 2.460 7.066 40.668 o
3 10 1 7.157 -4.164 6.750 44.468 o
3 10 2 16.279 5.615 7.255 37.955 o
3 10 3 91.091 91.911 10.599 12.810 o
3 10 4 4.989 -0.505 6.940 42.138 o
3 10 5 28.503 17.538 8.012 30.050 o
3 10 6 1.052 -12.428 7.129 39.979 o
3 10 7 10.870 -5.867 7.381 37.096 o
3 10 9 7.010 5.552 4.795 87.488 o
3 10 10 0.672 -0.126 4.353 107.223 o
4 -7 0 2.496 0.804 4.715 91.313 o
4 -7 1 24.185 17.934 5.712 57.505 o
4 -7 2 13.612 7.981 7.561 35.070 o
4 -7 3 9.521 18.227 13.343 11.358 o
4 -6 0 2.287 3.655 4.396 104.923 o
4 -6 1 7.734 1.010 4.921 83.336 o
4 -6 2 59.074 53.257 14.068 9.406 o
4 -6 3 221.833 227.708 8.277 5.870 o
4 -6 4 14.240 8.440 5.183 73.340 o
4 -6 5 1.953 5.325 5.317 71.725 o
4 -6 6 5.130 7.860 5.962 56.844 o
4 -6 7 2.085 -4.564 12.870 12.267 o
4 -5 0 109.808 92.363 6.591 19.651 o
4 -5 1 162.407 185.530 8.488 8.739 o
4 -5 2 49.491 46.895 6.119 40.190 o
4 -5 3 138.657 141.985 6.902 13.030 o
4 -5 4 2.572 2.189 5.015 80.669 o
4 -5 5 1.362 1.351 5.142 76.830 o
4 -5 6 13.877 10.774 8.012 31.208 o
4 -5 7 0.170 -1.371 6.498 48.121 o
4 -5 8 33.949 35.385 8.832 24.023 o
4 -5 9 0.015 13.311 8.327 29.253 o
4 -5 10 0.033 15.456 8.895 25.631 o
4 -4 0 307.324 301.727 9.397 3.355 o
4 -4 1 57.623 60.510 5.372 42.430 o
4 -4 2 9.550 8.595 3.699 143.576 o
4 -4 3 0.325 2.281 3.803 140.428 o
4 -4 4 0.742 -0.826 2.859 248.559 o
4 -4 5 47.370 45.441 8.548 23.854 o
4 -4 6 0.043 1.946 4.405 104.675 o
4 -4 7 2.004 -5.491 4.303 109.666 o
4 -4 8 19.607 25.739 7.697 32.858 o
4 -4 9 2.577 13.374 7.697 34.178 o
4 -4 10 0.042 1.577 7.886 32.672 o
4 -4 11 0.001 18.169 9.148 24.223 o
4 -4 12 0.780 0.315 8.327 29.299 o
4 -3 0 96.111 88.441 7.381 19.725 o
4 -3 1 3.858 1.304 3.179 200.118 o
4 -3 2 4.120 7.213 3.438 169.820 o
4 -3 3 8.148 6.345 3.517 160.220 o
4 -3 4 0.199 1.869 2.924 237.611 o
4 -3 5 3.792 7.514 3.874 134.125 o
4 -3 6 3.069 3.094 4.012 125.831 o
4 -3 7 24.982 22.290 7.444 34.654 o
4 -3 8 6.139 9.652 6.813 43.491 o
4 -3 9 0.469 9.148 7.381 37.251 o
4 -3 10 0.013 10.283 7.381 37.249 o
4 -3 11 6.414 9.084 8.391 28.740 o
4 -3 12 18.294 16.970 9.211 23.461 o
4 -3 13 11.982 6.435 9.274 23.470 o
4 -3 14 0.444 1.199 9.463 22.689 o
4 -2 0 368.002 329.218 11.986 2.411 o
4 -2 1 61.413 45.479 6.119 37.012 o
4 -2 2 198.061 190.314 10.094 6.476 o
4 -2 3 29.545 22.498 6.813 40.216 o
4 -2 4 28.370 32.321 3.553 116.053 o
4 -2 5 78.274 73.941 5.269 33.589 o
4 -2 6 25.828 25.095 4.168 96.754 o
4 -2 7 0.672 -2.996 3.627 154.397 o
4 -2 8 2.155 10.977 6.056 55.178 o
4 -2 9 2.306 0.315 6.876 42.956 o
4 -2 10 103.531 102.819 10.788 11.575 o
4 -2 11 27.805 39.234 8.895 23.998 o
4 -2 12 26.385 30.786 8.454 26.818 o
4 -2 13 16.359 35.827 9.968 19.871 o
4 -2 14 0.869 6.624 9.715 21.517 o
4 -2 15 4.472 1.703 10.220 19.440 o
4 -1 0 31.562 36.836 5.110 62.968 o
4 -1 1 49.988 36.079 5.299 51.458 o
4 -1 2 29.109 22.701 2.201 228.902 o
4 -1 3 8.365 6.860 1.873 527.643 o
4 -1 4 19.476 21.945 2.138 296.430 o
4 -1 5 0.606 -2.231 1.767 650.513 o
4 -1 6 13.464 18.616 2.332 302.579 o
4 -1 7 0.330 -1.497 1.838 601.160 o
4 -1 8 11.297 7.886 6.498 47.478 o
4 -1 9 7.872 5.678 6.687 45.151 o
4 -1 10 1.199 1.514 6.435 49.058 o
4 -1 11 3.786 9.778 7.507 35.933 o
4 -1 12 5.602 12.113 8.327 29.159 o
4 -1 13 17.000 23.721 9.148 23.700 o
4 -1 14 14.500 13.438 9.842 20.740 o
4 -1 15 17.639 15.330 10.788 17.226 o
4 -1 16 16.501 19.368 11.229 15.900 o
4 0 0 63.074 45.530 2.824 77.762 o
4 0 1 230.343 236.447 5.170 6.231 o
4 0 2 1.245 3.646 1.802 621.485 o
4 0 3 25.641 24.112 2.233 239.371 o
4 0 4 12.666 15.957 5.299 69.744 o
4 0 5 111.302 95.561 4.874 23.596 o
4 0 6 230.629 217.056 7.179 6.066 o
4 0 7 81.711 76.155 3.915 40.091 o
4 0 8 95.914 81.981 4.681 29.838 o
4 0 9 28.689 29.431 3.644 113.376 o
4 0 10 26.436 27.081 3.745 113.121 o
4 0 11 4.655 5.419 5.709 62.078 o
4 0 12 0.477 -3.713 6.940 42.191 o
4 0 13 33.122 35.941 6.971 36.923 o
4 0 14 4.654 -0.992 3.859 135.966 o
4 0 15 179.866 194.604 16.781 4.315 o
4 0 16 77.918 98.403 14.005 8.611 o
4 0 17 102.928 98.718 14.762 7.387 o
4 1 0 9.882 10.378 2.149 392.470 o
4 1 1 13.005 11.047 1.603 594.611 o
4 1 2 14.389 10.858 1.597 577.284 o
4 1 3 20.409 19.003 2.417 252.571 o
4 1 4 336.772 331.713 6.498 3.057 o
4 1 5 82.047 85.707 4.376 35.282 o
4 1 6 214.546 191.905 7.260 7.000 o
4 1 7 276.501 245.224 6.671 4.649 o
4 1 8 17.837 19.477 10.406 18.444 o
4 1 9 169.935 162.787 9.334 8.370 o
4 1 10 11.111 15.161 3.493 155.587 o
4 1 11 23.613 29.191 3.943 106.119 o
4 1 12 1.655 0.155 3.297 186.753 o
4 1 13 5.473 6.645 3.870 133.956 o
4 1 14 39.444 33.672 4.899 63.876 o
4 1 15 22.547 22.605 4.847 77.207 o
4 1 16 29.005 24.715 5.300 62.887 o
4 1 17 1.464 -6.923 4.341 107.809 o
4 1 18 1.592 -4.642 4.889 84.976 o
4 2 0 169.844 174.926 5.025 10.785 o
4 2 1 138.993 142.704 4.345 15.886 o
4 2 2 28.763 25.935 1.956 250.266 o
4 2 3 49.365 52.064 2.481 100.764 o
4 2 4 2.237 1.932 1.537 850.755 o
4 2 5 145.837 153.409 5.864 12.990 o
4 2 6 317.064 319.201 7.201 3.322 o
4 2 7 143.092 123.101 9.116 10.907 o
4 2 8 89.233 82.861 5.263 29.123 o
4 2 9 4.016 3.926 3.050 216.360 o
4 2 10 4.381 2.704 3.098 209.968 o
4 2 11 14.210 11.704 3.582 147.017 o
4 2 12 15.553 11.482 3.888 125.176 o
4 2 13 18.599 19.939 7.034 39.460 o
4 2 14 30.555 33.455 4.857 69.817 o
4 2 15 78.525 75.758 6.446 27.113 o
4 2 16 0.331 -7.864 3.903 133.399 o
4 2 17 0.003 -6.887 4.065 122.939 o
4 2 18 5.342 -3.561 5.457 68.070 o
4 3 0 39.496 35.615 2.127 161.067 o
4 3 1 74.230 82.713 3.107 47.723 o
4 3 2 285.795 260.727 4.548 4.541 o
4 3 3 58.307 58.823 2.711 77.221 o
4 3 4 24.565 20.269 1.928 303.975 o
4 3 5 50.936 55.984 2.651 90.800 o
4 3 6 14.087 10.852 1.471 654.814 o
4 3 7 78.683 97.005 5.293 29.934 o
4 3 8 41.244 32.551 4.034 83.195 o
4 3 9 64.372 69.760 5.078 40.584 o
4 3 10 9.634 5.402 6.971 41.491 o
4 3 11 28.682 26.074 4.129 95.232 o
4 3 12 151.858 147.611 11.384 7.966 o
4 3 13 5.709 6.772 3.820 137.348 o
4 3 14 151.414 150.512 13.501 6.578 o
4 3 15 14.640 21.519 4.654 87.388 o
4 3 16 3.083 3.949 8.990 25.121 o
4 3 17 28.397 24.131 5.387 61.470 o
4 3 18 0.597 -3.849 4.666 93.317 o
4 4 0 108.628 118.017 3.443 25.054 o
4 4 1 54.362 51.829 2.503 91.761 o
4 4 2 8.069 7.700 1.841 543.255 o
4 4 3 18.555 18.945 2.089 322.435 o
4 4 4 60.039 68.475 3.228 62.861 o
4 4 5 179.867 166.282 4.668 10.569 o
4 4 6 222.972 223.431 4.524 6.853 o
4 4 7 50.845 53.402 4.525 57.571 o
4 4 8 442.398 429.526 9.351 1.764 o
4 4 9 41.718 37.667 7.034 34.724 o
4 4 10 43.781 42.546 4.795 60.804 o
4 4 11 1.843 2.968 3.419 173.459 o
4 4 12 18.707 11.862 3.901 121.543 o
4 4 13 8.857 10.185 3.848 132.910 o
4 4 14 0.476 -1.428 3.730 146.054 o
4 4 15 32.680 34.758 5.176 61.638 o
4 4 16 5.842 5.373 4.428 102.671 o
4 4 17 11.341 9.201 6.719 44.395 o
4 4 18 2.669 -11.415 11.419 15.581 o
4 5 0 268.197 247.126 6.506 4.832 o
4 5 1 147.584 153.422 6.526 12.199 o
4 5 2 18.601 22.803 2.809 200.968 o
4 5 3 40.052 44.106 2.737 119.565 o
4 5 4 191.558 199.259 4.976 8.695 o
4 5 5 195.977 194.502 4.971 8.588 o
4 5 6 154.382 140.085 4.510 14.066 o
4 5 7 9.448 7.085 4.321 106.431 o
4 5 8 50.127 54.103 4.464 58.720 o
4 5 9 41.922 33.052 4.634 67.980 o
4 5 10 11.977 7.469 3.482 159.600 o
4 5 11 10.927 12.111 3.798 134.239 o
4 5 12 11.368 8.416 3.855 131.439 o
4 5 13 11.755 10.981 4.021 120.230 o
4 5 14 0.473 0.556 3.644 152.974 o
4 5 15 8.874 -0.200 10.378 18.832 o
4 5 16 19.996 20.813 5.013 74.143 o
4 5 17 0.015 -3.022 5.993 56.567 o
4 6 0 270.769 248.820 6.942 4.692 o
4 6 1 15.447 15.933 3.015 194.638 o
4 6 2 6.120 5.164 2.652 281.340 o
4 6 3 133.851 148.084 6.403 13.775 o
4 6 4 0.121 -3.796 2.934 236.105 o
4 6 5 265.055 257.594 13.469 3.605 o
4 6 6 38.821 28.770 3.098 122.590 o
4 6 7 2.557 -0.280 2.672 284.023 o
4 6 8 8.480 5.958 6.498 47.755 o
4 6 9 3.679 0.509 3.038 219.253 o
4 6 10 2.314 -5.924 2.791 260.334 o
4 6 11 3.384 -0.033 9.589 22.090 o
4 6 12 8.656 5.663 9.873 20.775 o
4 6 13 10.941 4.602 3.811 135.872 o
4 6 14 0.098 3.548 3.936 131.080 o
4 6 15 0.321 0.047 4.106 120.541 o
4 6 16 36.549 40.261 9.870 19.290 o
4 6 17 26.795 22.775 8.138 29.100 o
4 7 0 15.152 8.742 3.091 193.599 o
4 7 1 14.035 10.975 2.895 218.025 o
4 7 2 60.764 54.116 4.207 55.359 o
4 7 3 21.073 20.814 3.234 157.529 o
4 7 4 0.012 -0.592 2.425 345.437 o
4 7 5 0.045 -6.314 2.361 364.387 o
4 7 6 20.716 15.611 3.099 175.051 o
4 7 7 3.067 3.659 3.533 162.026 o
4 7 8 14.208 15.709 4.479 95.561 o
4 7 9 23.926 33.303 5.362 61.923 o
4 7 10 10.348 11.986 4.290 106.595 o
4 7 11 1.510 -1.956 3.785 141.755 o
4 7 12 3.456 3.154 4.164 116.779 o
4 7 13 25.901 25.625 4.749 77.407 o
4 7 14 32.058 28.380 8.766 24.745 o
4 7 15 0.463 -9.529 5.394 69.835 o
4 7 16 21.536 21.959 12.302 13.199 o
4 8 0 18.135 14.093 3.312 162.177 o
4 8 1 34.153 31.063 3.849 97.233 o
4 8 2 25.612 26.055 5.804 54.378 o
4 8 3 33.039 32.897 3.986 92.668 o
4 8 4 31.201 29.067 3.826 102.653 o
4 8 5 37.542 31.803 4.024 87.478 o
4 8 6 46.308 43.444 4.276 68.436 o
4 8 7 1.504 -1.136 3.596 157.064 o
4 8 8 0.393 -1.199 3.470 168.761 o
4 8 9 24.432 25.866 5.362 63.110 o
4 8 10 0.595 2.650 4.101 120.768 o
4 8 11 14.308 16.087 5.110 74.308 o
4 8 12 13.131 20.188 5.236 70.680 o
4 8 13 47.989 50.022 6.940 33.152 o
4 8 14 31.285 33.177 6.372 43.935 o
4 8 15 1.456 -1.830 4.542 98.455 o
4 9 0 78.898 84.463 5.698 29.611 o
4 9 1 43.258 46.178 4.668 62.249 o
4 9 2 58.273 66.749 5.930 36.372 o
4 9 3 0.047 2.248 3.344 181.689 o
4 9 4 0.059 3.063 3.206 197.533 o
4 9 5 6.382 2.923 3.943 129.431 o
4 9 6 0.504 -1.195 3.375 178.353 o
4 9 7 29.079 35.890 5.741 52.903 o
4 9 8 3.968 0.757 4.353 106.967 o
4 9 9 4.976 4.227 4.731 90.260 o
4 9 10 22.894 27.632 5.867 53.833 o
4 9 11 57.725 69.011 7.823 24.732 o
4 9 12 5.059 11.229 5.425 68.374 o
4 9 13 11.079 7.066 5.173 74.461 o
4 10 0 0.876 -4.984 6.183 53.154 o
4 10 1 0.122 2.156 5.110 77.801 o
4 10 2 12.088 6.426 8.738 26.415 o
4 10 3 15.031 17.306 4.041 114.726 o
4 10 4 0.587 -4.558 6.309 51.051 o
4 10 5 0.089 0.577 3.544 161.785 o
4 10 6 16.728 24.225 5.552 61.814 o
4 10 7 17.114 22.964 5.489 63.220 o
4 10 8 16.892 19.998 5.489 63.682 o
4 10 9 2.022 4.858 4.605 95.580 o
4 10 10 21.363 24.352 5.993 52.515 o
4 11 2 4.971 -6.056 7.003 41.383 o
4 11 3 1.180 -7.003 6.876 42.966 o
5 -6 0 0.946 -0.564 4.502 100.241 o
5 -6 1 5.827 4.913 5.044 79.346 o
5 -6 2 0.022 0.396 6.710 45.124 o
5 -6 3 8.786 22.730 6.435 47.912 o
5 -5 0 2.551 3.880 7.476 36.324 o
5 -5 1 20.089 12.649 9.084 24.118 o
5 -5 2 59.802 69.697 6.774 29.899 o
5 -5 3 16.814 18.607 4.421 95.722 o
5 -5 4 0.333 8.754 5.146 76.556 o
5 -5 5 0.815 -1.921 5.001 81.250 o
5 -5 6 2.370 0.812 5.442 68.574 o
5 -5 7 50.766 72.039 10.409 16.010 o
5 -4 0 4.960 3.682 3.442 169.870 o
5 -4 1 203.202 196.373 13.816 4.899 o
5 -4 2 3.973 4.936 4.078 121.437 o
5 -4 3 84.486 79.194 5.313 30.708 o
5 -4 4 0.164 4.393 4.542 98.414 o
5 -4 5 1.702 1.353 4.229 113.529 o
5 -4 6 82.106 85.473 7.244 22.358 o
5 -4 7 0.044 7.507 7.255 38.577 o
5 -4 8 64.763 84.719 11.040 13.531 o
5 -4 9 29.528 29.398 9.400 21.806 o
5 -4 10 34.015 44.344 10.346 17.695 o
5 -3 0 211.919 219.354 8.340 6.263 o
5 -3 1 3.130 5.090 3.548 160.408 o
5 -3 2 300.411 315.278 9.656 3.330 o
5 -3 3 6.365 12.006 3.974 125.629 o
5 -3 4 2.573 0.137 3.790 141.249 o
5 -3 5 5.213 8.533 8.611 27.318 o
5 -3 6 0.291 4.899 4.444 102.777 o
5 -3 7 141.395 147.232 11.608 8.171 o
5 -3 8 27.689 37.783 8.769 24.705 o
5 -3 9 23.608 33.303 9.211 22.873 o
5 -3 10 36.245 44.911 10.031 18.622 o
5 -3 11 4.492 14.825 9.084 24.516 o
5 -3 12 0.066 0.063 8.832 26.047 o
5 -2 0 22.894 17.475 5.047 72.729 o
5 -2 1 30.289 30.660 5.867 51.373 o
5 -2 2 0.466 -2.839 3.848 137.195 o
5 -2 3 47.562 47.867 4.788 57.204 o
5 -2 4 8.841 11.293 4.921 82.157 o
5 -2 5 4.505 6.024 5.362 70.320 o
5 -2 6 6.099 4.168 3.958 128.335 o
5 -2 7 0.939 2.902 5.678 63.000 o
5 -2 8 9.791 27.064 7.570 34.642 o
5 -2 9 0.247 14.321 7.570 35.369 o
5 -2 10 23.880 25.929 8.706 25.674 o
5 -2 11 90.114 78.221 11.545 11.648 o
5 -2 12 42.383 43.587 9.968 18.555 o
5 -2 13 3.720 18.737 9.968 20.364 o
5 -2 14 15.444 21.702 10.157 19.375 o
5 -1 0 87.525 87.116 7.949 19.255 o
5 -1 1 28.956 26.559 5.047 68.029 o
5 -1 2 24.684 18.737 5.110 70.137 o
5 -1 3 4.280 4.984 4.542 97.943 o
5 -1 4 16.607 20.806 3.789 125.791 o
5 -1 5 2.716 4.932 3.423 172.459 o
5 -1 6 2.573 6.529 3.592 156.488 o
5 -1 7 18.107 36.269 7.444 34.642 o
5 -1 8 29.634 29.146 7.760 31.246 o
5 -1 9 54.346 64.594 9.778 17.805 o
5 -1 10 2.899 9.211 7.570 35.367 o
5 -1 11 58.690 56.898 10.220 16.498 o
5 -1 12 12.085 9.400 8.643 26.950 o
5 -1 13 55.632 64.721 11.797 12.839 o
5 -1 14 7.723 9.274 9.968 20.373 o
5 -1 15 4.347 7.255 10.662 17.850 o
5 0 0 1.230 -0.505 3.785 141.774 o
5 0 1 183.566 192.569 5.464 9.118 o
5 0 2 1.250 -1.615 2.004 505.239 o
5 0 3 1.975 0.832 1.788 632.875 o
5 0 4 62.397 59.553 4.290 51.651 o
5 0 5 8.549 10.379 2.575 286.289 o
5 0 6 123.059 110.425 6.340 17.145 o
5 0 7 49.358 46.529 5.299 49.463 o
5 0 8 79.015 75.067 9.463 16.516 o
5 0 9 173.794 158.203 12.933 6.255 o
5 0 10 110.328 125.656 11.923 9.405 o
5 0 11 3.784 13.438 8.012 31.519 o
5 0 12 8.557 7.192 8.391 28.712 o
5 0 13 18.178 20.692 9.778 20.813 o
5 0 14 6.268 -9.337 9.211 23.923 o
5 0 15 21.410 19.872 11.293 15.636 o
5 0 16 13.007 17.160 11.545 15.114 o
5 1 0 388.780 381.671 6.102 2.349 o
5 1 1 9.101 8.290 2.891 231.192 o
5 1 2 19.494 21.973 3.817 120.534 o
5 1 3 2.874 -0.131 2.396 352.666 o
5 1 4 8.599 4.896 2.550 298.616 o
5 1 5 698.322 643.220 9.931 0.763 o
5 1 6 214.229 213.625 6.534 6.849 o
5 1 7 14.546 13.125 2.867 218.054 o
5 1 8 2.696 -1.920 2.679 282.492 o
5 1 9 58.249 64.817 4.650 48.522 o
5 1 10 75.656 69.404 5.836 31.716 o
5 1 11 1.672 -1.911 2.929 236.691 o
5 1 12 2.643 4.094 3.319 183.530 o
5 1 13 2.124 -0.728 4.164 117.124 o
5 1 14 0.229 -4.711 3.706 147.944 o
5 1 15 41.962 66.802 12.996 11.110 o
5 1 16 22.157 6.561 11.356 15.564 o
5 2 0 1.229 -0.989 1.672 725.579 o
5 2 1 197.767 195.689 4.516 8.620 o
5 2 2 65.674 60.633 3.030 63.723 o
5 2 3 114.699 108.050 4.727 21.967 o
5 2 4 27.465 24.677 3.302 137.248 o
5 2 5 89.857 85.260 4.780 30.740 o
5 2 6 2.907 5.968 2.966 228.769 o
5 2 7 316.062 318.646 8.706 3.212 o
5 2 8 105.996 92.857 5.191 24.132 o
5 2 9 20.571 17.341 3.535 139.124 o
5 2 10 26.496 28.613 5.864 52.792 o
5 2 11 0.213 -3.772 3.025 222.001 o
5 2 12 49.823 45.376 5.016 53.312 o
5 2 13 3.497 -1.775 3.415 173.811 o
5 2 14 4.295 3.354 3.916 131.748 o
5 2 15 6.605 -1.068 4.298 109.338 o
5 2 16 15.024 8.877 4.977 79.058 o
5 2 17 0.067 -5.582 4.486 100.969 o
5 3 0 150.123 146.982 4.069 14.537 o
5 3 1 7.681 7.213 2.008 467.729 o
5 3 2 5.044 6.094 2.174 415.869 o
5 3 3 807.271 822.625 12.269 0.533 o
5 3 4 246.517 251.420 5.042 5.539 o
5 3 5 61.266 49.352 2.740 79.038 o
5 3 6 30.859 25.572 3.553 117.335 o
5 3 7 267.957 265.008 7.591 4.487 o
5 3 8 7.453 7.278 4.511 98.396 o
5 3 9 52.006 45.288 4.442 60.716 o
5 3 10 5.299 5.948 3.294 184.348 o
5 3 11 0.322 1.667 3.272 189.746 o
5 3 12 41.958 44.738 5.056 56.816 o
5 3 13 57.096 49.693 5.899 39.577 o
5 3 14 0.905 -1.719 3.982 128.121 o
5 3 15 5.516 6.970 4.795 87.625 o
5 3 16 2.001 -2.026 5.078 78.751 o
5 3 17 0.004 -12.989 4.826 87.235 o
5 4 0 198.690 197.549 7.222 7.520 o
5 4 1 402.752 407.871 6.721 2.134 o
5 4 2 19.217 17.167 2.928 193.977 o
5 4 3 579.313 592.492 7.415 1.045 o
5 4 4 1.742 2.848 1.956 527.527 o
5 4 5 23.479 21.800 2.819 187.153 o
5 4 6 1.461 1.762 4.984 81.756 o
5 4 7 48.129 43.660 4.315 66.230 o
5 4 8 19.337 21.318 3.750 124.837 o
5 4 9 113.553 105.180 5.904 19.750 o
5 4 10 24.131 20.957 3.945 109.756 o
5 4 11 3.691 5.599 3.571 158.019 o
5 4 12 0.061 -4.337 3.356 180.403 o
5 4 13 0.752 -0.282 3.685 149.589 o
5 4 14 0.035 -2.122 7.097 40.337 o
5 4 15 2.519 -0.139 4.228 113.579 o
5 4 16 2.934 0.584 4.444 102.760 o
5 4 17 2.973 -7.188 13.122 11.799 o
5 5 0 23.105 31.327 3.268 141.286 o
5 5 1 264.485 243.181 6.666 4.935 o
5 5 2 91.318 86.694 4.883 29.648 o
5 5 3 0.801 -0.970 2.136 445.319 o
5 5 4 19.012 21.461 2.509 239.816 o
5 5 5 0.283 1.971 2.978 229.075 o
5 5 6 43.739 36.338 4.025 79.220 o
5 5 7 6.208 4.864 5.930 57.477 o
5 5 8 16.413 12.208 3.562 145.808 o
5 5 9 29.649 26.218 4.098 95.389 o
5 5 10 3.001 -2.700 3.154 203.753 o
5 5 11 0.466 -1.775 3.196 198.965 o
5 5 12 105.533 93.697 7.536 17.823 o
5 5 13 27.713 29.158 5.769 53.906 o
5 5 14 4.327 0.769 4.140 118.170 o
5 5 15 74.376 84.835 11.703 11.913 o
5 5 16 19.620 8.535 14.289 9.883 o
5 6 0 31.043 32.727 3.455 116.261 o
5 6 1 204.590 198.330 6.443 7.557 o
5 6 2 0.786 5.862 2.744 268.581 o
5 6 3 19.451 16.768 2.944 192.092 o
5 6 4 28.842 17.557 2.871 173.232 o
5 6 5 8.044 6.813 2.487 312.104 o
5 6 6 0.041 -1.262 3.154 204.208 o
5 6 7 140.300 116.004 7.823 12.852 o
5 6 8 108.524 96.447 7.507 17.381 o
5 6 9 80.117 89.829 7.570 21.202 o
5 6 10 0.635 -1.269 6.750 44.590 o
5 6 11 6.843 3.826 5.331 71.027 o
5 6 12 3.335 -2.978 8.044 31.391 o
5 6 13 6.656 -3.047 9.936 20.558 o
5 6 14 86.462 84.245 6.874 23.092 o
5 6 15 3.053 2.957 4.283 110.472 o
5 6 16 56.837 46.280 6.360 36.148 o
5 7 0 16.401 13.685 3.088 186.934 o
5 7 1 13.654 11.507 3.060 197.458 o
5 7 2 31.361 29.020 7.378 34.080 o
5 7 3 32.175 33.036 3.723 103.121 o
5 7 4 60.832 55.767 6.403 33.642 o
5 7 5 21.524 22.936 6.593 44.033 o
5 7 6 32.565 35.827 5.615 53.747 o
5 7 7 31.657 30.660 5.236 61.837 o
5 7 8 84.819 85.665 7.570 20.847 o
5 7 9 1.280 7.192 4.038 124.192 o
5 7 10 85.700 71.786 7.507 21.897 o
5 7 11 7.292 8.832 4.416 102.414 o
5 7 12 0.101 2.965 4.227 113.687 o
5 7 13 17.280 27.884 5.804 56.302 o
5 7 14 3.452 7.129 4.605 95.255 o
5 7 15 0.018 -2.334 4.227 113.727 o
5 8 0 27.047 24.863 3.674 117.205 o
5 8 1 56.629 49.855 4.399 56.843 o
5 8 2 3.148 2.993 2.838 250.564 o
5 8 3 22.150 19.892 3.627 129.441 o
5 8 4 5.158 8.267 4.069 121.157 o
5 8 5 8.204 3.911 3.848 134.883 o
5 8 6 28.573 29.209 5.236 63.472 o
5 8 7 1.059 0.568 3.785 141.767 o
5 8 8 21.070 20.251 5.047 72.905 o
5 8 9 10.696 8.706 4.542 95.886 o
5 8 10 8.742 5.615 4.416 102.461 o
5 8 11 9.666 7.570 4.416 101.859 o
5 8 12 8.067 6.119 4.858 85.007 o
5 8 13 0.600 2.523 4.479 101.230 o
5 8 14 23.809 20.188 5.867 54.539 o
5 9 0 3.323 0.143 3.127 207.134 o
5 9 1 63.118 65.344 5.179 41.103 o
5 9 2 4.073 -0.958 4.006 126.287 o
5 9 3 3.528 3.371 3.180 199.657 o
5 9 4 23.974 20.881 4.078 103.942 o
5 9 5 78.860 68.695 7.318 23.866 o
5 9 6 18.298 25.172 5.425 63.923 o
5 9 7 42.639 46.425 6.624 37.237 o
5 9 8 95.915 88.000 8.264 17.435 o
5 9 9 0.029 2.334 4.668 93.213 o
5 9 10 3.502 3.470 4.542 98.158 o
5 9 11 0.272 3.722 4.858 86.065 o
5 9 12 27.690 37.719 6.876 38.610 o
5 10 0 2.564 -1.757 4.132 118.882 o
5 10 1 5.021 5.961 3.641 151.455 o
5 10 2 3.264 1.909 3.396 175.560 o
5 10 3 1.271 -1.275 3.265 190.515 o
5 10 4 2.091 -0.793 3.331 182.946 o
5 10 5 11.502 12.617 5.110 75.550 o
5 10 6 67.894 79.672 8.138 21.427 o
5 10 7 46.024 58.412 7.507 28.900 o
5 10 8 27.028 32.925 6.309 45.700 o
5 10 9 2.313 2.523 4.731 90.632 o
6 -5 0 2.546 5.977 4.801 87.852 o
6 -5 1 2.017 -2.462 7.728 34.015 o
6 -4 0 3.108 6.815 5.110 77.501 o
6 -4 1 34.424 38.621 5.864 48.964 o
6 -4 2 8.145 5.998 5.362 69.916 o
6 -4 3 1.884 2.347 3.879 134.835 o
6 -4 4 2.279 8.110 5.196 74.993 o
6 -4 5 4.497 11.734 7.444 36.490 o
6 -4 6 60.663 85.602 10.977 13.834 o
6 -3 0 45.528 41.011 5.083 55.541 o
6 -3 1 109.849 106.577 9.495 13.048 o
6 -3 2 52.843 52.382 5.776 41.678 o
6 -3 3 59.751 65.066 10.892 14.554 o
6 -3 4 6.441 8.602 4.594 94.990 o
6 -3 5 8.733 3.785 6.813 43.508 o
6 -3 6 0.231 3.785 7.255 38.594 o
6 -3 7 2.132 3.281 7.444 36.642 o
6 -3 8 43.488 41.379 9.652 19.666 o
6 -3 9 2.518 19.368 8.958 25.203 o
6 -2 0 61.808 57.592 7.697 25.569 o
6 -2 1 146.567 151.269 10.788 8.536 o
6 -2 2 108.223 132.464 7.582 15.337 o
6 -2 3 4.838 4.772 3.118 206.328 o
6 -2 4 149.218 165.521 8.163 10.198 o
6 -2 5 0.657 6.561 6.435 49.024 o
6 -2 6 7.210 7.129 6.813 43.501 o
6 -2 7 39.574 52.419 9.211 21.276 o
6 -2 8 2.313 12.428 7.949 32.066 o
6 -2 9 22.726 35.575 9.905 19.892 o
6 -2 10 6.632 -3.533 8.201 30.160 o
6 -2 11 0.038 14.005 9.274 23.592 o
6 -1 0 25.569 23.153 5.615 58.177 o
6 -1 1 7.324 5.173 4.795 87.465 o
6 -1 2 2.100 -4.605 4.542 98.428 o
6 -1 3 91.302 76.187 6.035 26.159 o
6 -1 4 56.196 51.689 4.803 51.236 o
6 -1 5 2.193 3.911 6.183 53.098 o
6 -1 6 2.610 2.650 6.309 51.003 o
6 -1 7 2.386 13.248 7.003 41.267 o
6 -1 8 3.859 6.435 7.192 39.189 o
6 -1 9 69.847 97.141 11.608 12.002 o
6 -1 10 91.871 92.227 11.923 10.746 o
6 -1 11 3.359 4.038 9.148 24.261 o
6 -1 12 27.916 31.852 10.346 18.177 o
6 -1 13 1.212 9.652 9.842 20.959 o
6 0 0 28.610 18.484 5.047 70.058 o
6 0 1 7.362 2.523 4.290 109.318 o
6 0 2 23.498 27.884 5.867 53.644 o
6 0 3 0.117 -3.089 3.240 193.495 o
6 0 4 18.557 12.176 5.489 64.256 o
6 0 5 0.033 0.063 5.299 72.353 o
6 0 6 91.688 82.637 9.589 14.990 o
6 0 7 1.115 2.271 6.624 46.292 o
6 0 8 0.285 4.353 7.066 40.686 o
6 0 9 0.197 8.517 7.570 35.422 o
6 0 10 159.505 177.255 14.447 5.637 o
6 0 11 25.088 25.235 9.526 21.558 o
6 0 12 3.613 10.283 9.463 22.642 o
6 0 13 0.926 4.668 9.589 22.090 o
6 0 14 36.823 25.361 11.166 15.543 o
6 1 0 0.671 -2.029 2.077 471.033 o
6 1 1 121.525 123.235 5.229 18.472 o
6 1 2 3.196 2.546 2.399 349.969 o
6 1 3 0.028 1.026 2.352 367.173 o
6 1 4 45.997 44.383 3.898 76.242 o
6 1 5 0.956 4.370 2.634 291.736 o
6 1 6 141.564 133.455 6.076 14.127 o
6 1 7 88.029 82.749 5.296 29.314 o
6 1 8 231.738 251.123 14.510 3.869 o
6 1 9 3.732 13.816 7.381 37.104 o
6 1 10 217.270 223.112 14.762 4.195 o
6 1 11 12.330 4.858 8.201 29.969 o
6 1 12 7.026 -2.776 8.895 25.639 o
6 1 13 0.176 -1.325 9.526 22.390 o
6 1 14 0.000 -4.227 10.031 20.194 o
6 2 0 0.948 -1.804 1.722 684.491 o
6 2 1 46.329 41.744 3.848 78.342 o
6 2 2 2.868 -0.644 2.108 454.967 o
6 2 3 139.656 149.825 6.053 13.538 o
6 2 4 273.953 281.381 7.405 4.246 o
6 2 5 12.034 11.618 3.047 201.740 o
6 2 6 50.337 46.078 4.193 65.859 o
6 2 7 153.392 157.456 6.619 11.507 o
6 2 8 18.393 18.820 7.760 32.710 o
6 2 9 46.553 54.378 4.767 56.248 o
6 2 10 35.394 37.029 4.495 74.238 o
6 2 11 23.588 31.474 4.476 85.224 o
6 2 12 0.339 -1.994 3.471 168.614 o
6 2 13 0.801 1.446 5.268 73.207 o
6 2 14 4.536 7.823 10.536 18.276 o
6 2 15 20.575 27.695 12.113 13.579 o
6 3 0 40.271 34.482 2.387 146.700 o
6 3 1 70.267 73.202 3.601 49.425 o
6 3 2 2.503 3.141 2.495 324.307 o
6 3 3 121.305 120.106 4.279 20.450 o
6 3 4 157.909 153.835 4.523 12.996 o
6 3 5 43.534 41.138 4.023 77.237 o
6 3 6 32.065 30.162 3.688 106.517 o
6 3 7 1.895 5.908 3.011 222.721 o
6 3 8 5.230 10.482 3.429 168.910 o
6 3 9 0.253 3.866 3.627 154.272 o
6 3 10 9.827 13.015 3.718 140.278 o
6 3 11 21.206 21.367 8.170 29.340 o
6 3 12 0.547 -1.911 3.280 188.827 o
6 3 13 0.532 -0.997 3.811 139.882 o
6 3 14 1.334 2.883 4.258 111.931 o
6 3 15 14.486 7.773 12.933 12.088 o
6 4 0 113.961 114.512 5.196 20.476 o
6 4 1 151.566 150.557 4.642 13.697 o
6 4 2 353.974 368.195 6.481 2.690 o
6 4 3 4.884 9.060 2.608 289.421 o
6 4 4 82.426 89.722 15.516 7.239 o
6 4 5 0.328 -1.873 2.595 301.757 o
6 4 6 12.478 14.643 5.520 64.631 o
6 4 7 12.553 12.187 4.290 105.495 o
6 4 8 0.597 -0.776 4.637 94.497 o
6 4 9 22.454 23.714 5.548 60.316 o
6 4 10 1.454 -2.809 3.237 193.856 o
6 4 11 3.804 4.595 3.853 135.989 o
6 4 12 2.154 -2.447 3.657 151.804 o
6 4 13 0.528 -4.506 3.755 144.133 o
6 4 14 0.194 -4.943 12.838 12.328 o
6 4 15 7.660 -0.486 4.122 118.570 o
6 5 0 45.236 40.281 3.606 86.335 o
6 5 1 67.806 63.401 4.117 49.135 o
6 5 2 84.081 88.058 5.078 30.677 o
6 5 3 0.503 5.234 2.359 363.478 o
6 5 4 0.560 0.631 3.344 181.713 o
6 5 5 4.784 4.542 3.659 150.382 o
6 5 6 49.484 50.084 5.930 41.591 o
6 5 7 14.112 14.822 3.683 138.153 o
6 5 8 18.051 15.220 3.863 122.793 o
6 5 9 5.188 4.903 3.453 168.371 o
6 5 10 3.470 0.665 3.515 163.989 o
6 5 11 17.783 15.880 10.188 19.271 o
6 5 12 1.105 -1.184 7.223 38.938 o
6 5 13 20.541 7.692 7.949 31.428 o
6 5 14 20.737 17.581 4.898 77.743 o
6 5 15 7.890 4.700 8.674 26.910 o
6 6 0 12.631 12.853 3.005 204.729 o
6 6 1 1.194 1.903 2.473 331.591 o
6 6 2 0.121 -0.883 2.275 392.553 o
6 6 3 0.369 1.830 2.452 337.640 o
6 6 4 49.829 47.624 5.930 41.868 o
6 6 5 31.886 26.749 5.047 66.575 o
6 6 6 40.405 35.511 5.425 53.794 o
6 6 7 250.250 253.079 10.788 4.358 o
6 6 8 14.222 7.697 4.101 115.315 o
6 6 9 93.199 79.735 7.507 20.320 o
6 6 10 16.269 18.800 4.921 78.639 o
6 6 11 5.155 9.274 4.542 97.365 o
6 6 12 34.163 35.322 6.309 43.773 o
6 6 13 6.878 9.905 5.236 73.186 o
6 6 14 144.381 176.182 10.914 8.054 o
6 6 15 4.750 4.479 5.110 77.454 o
6 7 0 2.323 6.118 3.091 211.051 o
6 7 1 0.075 -0.360 2.538 315.425 o
6 7 2 5.189 3.640 2.565 303.309 o
6 7 3 20.709 24.096 5.142 69.871 o
6 7 4 3.105 -1.325 3.470 168.434 o
6 7 5 5.218 11.545 4.479 99.793 o
6 7 6 146.029 140.418 8.769 10.576 o
6 7 7 3.763 7.381 3.974 127.521 o
6 7 8 120.162 116.067 8.517 13.476 o
6 7 9 48.554 47.309 6.435 37.450 o
6 7 10 45.081 60.494 7.192 30.924 o
6 7 11 3.214 2.902 4.290 110.086 o
6 7 12 8.584 12.617 5.047 78.093 o
6 7 13 4.296 1.703 4.921 83.686 o
6 7 14 9.525 10.094 5.173 74.469 o
6 8 0 21.189 22.287 3.746 122.361 o
6 8 1 9.925 8.874 3.184 190.886 o
6 8 2 4.015 1.775 3.154 202.999 o
6 8 3 0.615 -1.724 2.737 271.264 o
6 8 4 11.936 10.157 4.479 97.796 o
6 8 5 1.662 4.290 4.038 124.366 o
6 8 6 0.455 -2.902 3.533 162.786 o
6 8 7 34.156 41.883 6.372 42.260 o
6 8 8 3.029 -1.072 3.785 141.588 o
6 8 9 4.857 2.019 4.416 103.736 o
6 8 10 13.520 12.428 5.047 76.873 o
6 8 11 3.462 2.397 4.542 98.225 o
6 8 12 10.866 12.428 5.236 72.213 o
6 9 0 7.309 8.255 3.638 149.895 o
6 9 1 0.924 -3.605 3.943 130.675 o
6 9 2 1.528 -3.690 2.976 229.335 o
6 9 3 2.536 0.065 3.212 196.658 o
6 9 4 15.677 21.197 5.425 65.255 o
6 9 5 11.709 19.052 5.362 68.031 o
6 9 6 45.050 44.974 6.750 35.768 o
6 9 7 9.821 21.639 5.489 65.177 o
6 9 8 40.495 47.246 6.940 34.859 o
6 9 9 4.516 8.012 4.921 83.296 o
6 9 10 37.254 35.575 6.624 39.573 o
6 10 0 32.836 30.028 4.729 72.547 o
6 10 1 2.367 2.669 3.577 158.409 o
6 10 2 5.410 3.400 6.119 54.079 o
6 10 3 6.055 12.428 5.110 76.721 o
6 10 4 0.038 -0.252 4.164 117.199 o
6 10 5 46.396 53.428 7.255 30.876 o
6 10 6 25.559 48.633 7.318 34.043 o
6 10 7 27.155 28.137 6.372 45.367 o
7 -3 0 16.686 19.173 5.104 73.213 o
7 -3 1 4.897 5.958 4.617 94.643 o
7 -3 2 0.678 -1.976 3.578 158.709 o
7 -3 3 8.555 12.050 7.192 38.889 o
7 -3 4 7.603 18.232 7.823 32.833 o
7 -2 0 2.844 7.886 5.867 58.832 o
7 -2 1 2.086 -3.596 5.425 69.001 o
7 -2 2 2.221 5.445 3.573 158.415 o
7 -2 3 2.494 14.372 4.751 89.115 o
7 -2 4 10.088 21.702 7.760 33.150 o
7 -2 5 12.082 25.866 8.327 28.663 o
7 -2 6 0.343 12.176 7.823 33.147 o
7 -2 7 11.661 18.989 8.201 29.721 o
7 -2 8 0.642 1.514 7.633 34.866 o
7 -1 0 7.154 8.769 5.425 68.266 o
7 -1 1 59.835 39.928 7.444 28.574 o
7 -1 2 2.809 3.129 7.980 31.879 o
7 -1 3 1.235 15.456 6.813 43.583 o
7 -1 4 56.224 57.213 8.706 21.725 o
7 -1 5 25.992 24.730 7.949 30.412 o
7 -1 6 7.668 14.447 7.697 33.986 o
7 -1 7 4.170 16.970 8.201 30.032 o
7 -1 8 3.209 12.807 8.391 28.768 o
7 -1 9 17.579 21.450 9.526 21.913 o
7 -1 10 0.051 8.895 8.643 27.182 o
7 0 0 170.018 157.073 10.472 7.758 o
7 0 1 24.355 15.709 5.741 57.212 o
7 0 2 2.930 7.914 3.854 135.736 o
7 0 3 26.037 29.714 7.003 38.223 o
7 0 4 3.501 7.318 6.183 52.982 o
7 0 5 5.396 13.248 6.940 41.882 o
7 0 6 1.616 0.946 6.750 44.580 o
7 0 7 0.189 12.617 7.760 33.686 o
7 0 8 1.858 4.542 8.012 31.631 o
7 0 9 0.031 3.596 8.391 28.858 o
7 0 10 3.623 13.816 8.895 25.590 o
7 0 11 0.003 -0.252 8.643 27.200 o
7 1 0 0.512 -1.766 3.974 128.621 o
7 1 1 4.120 3.785 4.731 90.399 o
7 1 2 10.266 14.636 5.867 57.748 o
7 1 3 9.961 13.879 5.993 55.480 o
7 1 4 0.011 2.019 5.930 57.773 o
7 1 5 3.594 9.778 6.435 48.860 o
7 1 6 49.592 56.583 8.769 22.123 o
7 1 7 4.391 6.876 7.066 40.575 o
7 1 8 61.912 85.413 11.103 13.523 o
7 1 9 112.143 129.315 12.743 8.486 o
7 1 10 0.006 15.456 9.274 23.585 o
7 1 11 46.379 35.196 10.346 17.347 o
7 1 12 22.802 38.477 11.040 16.095 o
7 2 0 44.054 39.721 3.183 100.601 o
7 2 1 0.620 0.398 1.925 548.260 o
7 2 2 21.164 23.041 6.719 42.530 o
7 2 3 2.496 2.809 5.489 67.365 o
7 2 4 0.462 -1.485 2.618 296.403 o
7 2 5 0.629 2.363 2.814 256.333 o
7 2 6 0.620 5.229 3.189 199.310 o
7 2 7 22.871 22.311 3.811 116.932 o
7 2 8 64.164 67.749 9.652 17.388 o
7 2 9 9.188 7.697 8.454 28.266 o
7 2 10 215.247 233.963 15.709 3.917 o
7 2 11 0.137 4.101 9.274 23.622 o
7 2 12 42.380 51.220 11.419 14.331 o
7 2 13 0.113 -4.542 10.472 18.527 o
7 3 0 4.233 7.562 2.093 447.459 o
7 3 1 126.388 141.178 5.077 16.740 o
7 3 2 44.835 47.141 6.924 34.162 o
7 3 3 0.001 5.548 5.709 62.296 o
7 3 4 21.997 24.774 5.425 62.810 o
7 3 5 0.000 11.652 4.038 124.002 o
7 3 6 0.298 0.452 2.898 241.939 o
7 3 7 36.290 38.960 4.492 72.969 o
7 3 8 9.617 8.183 7.034 40.683 o
7 3 9 126.315 131.017 6.930 14.649 o
7 3 10 0.815 0.453 3.337 182.394 o
7 3 11 18.242 16.084 9.242 23.322 o
7 3 12 7.325 10.281 4.155 115.141 o
7 3 13 4.277 0.000 10.977 16.856 o
7 4 0 52.921 58.158 4.416 56.336 o
7 4 1 10.934 10.147 2.788 241.793 o
7 4 2 14.887 14.312 2.855 217.349 o
7 4 3 0.560 3.217 3.533 162.642 o
7 4 4 6.051 7.279 3.375 174.812 o
7 4 5 0.799 0.494 2.927 237.064 o
7 4 6 14.078 14.707 3.630 141.982 o
7 4 7 5.760 7.402 3.449 167.708 o
7 4 8 2.376 2.707 3.943 130.405 o
7 4 9 0.012 4.248 3.520 163.820 o
7 4 10 5.611 6.530 3.943 129.081 o
7 4 11 11.492 11.275 4.361 102.906 o
7 4 12 0.124 0.134 3.909 132.941 o
7 4 13 43.156 43.482 5.953 44.347 o
7 5 0 11.566 12.869 3.055 200.490 o
7 5 1 0.127 2.660 2.518 320.262 o
7 5 2 7.964 7.257 2.586 289.460 o
7 5 3 1.471 -0.694 3.722 146.602 o
7 5 4 137.043 151.332 8.958 10.597 o
7 5 5 1.537 -1.893 3.722 146.597 o
7 5 6 12.652 10.788 4.353 102.873 o
7 5 7 0.904 -1.072 3.470 168.738 o
7 5 8 3.182 6.119 3.848 136.316 o
7 5 9 1.902 5.362 4.101 120.462 o
7 5 10 15.941 19.052 5.173 71.646 o
7 5 11 40.600 42.199 6.498 39.374 o
7 5 12 9.358 8.832 4.858 84.433 o
7 5 13 15.934 7.104 10.630 17.833 o
7 6 0 6.086 7.012 4.542 97.409 o
7 6 1 11.648 12.861 3.025 204.135 o
7 6 2 0.000 -0.504 2.384 357.568 o
7 6 3 36.169 25.235 5.110 63.540 o
7 6 4 9.855 13.690 4.542 95.305 o
7 6 5 1.236 5.047 4.101 120.583 o
7 6 6 0.050 7.129 4.164 116.982 o
7 6 7 12.632 21.702 5.173 72.256 o
7 6 8 71.062 60.935 6.940 27.622 o
7 6 9 1.374 2.713 4.101 120.701 o
7 6 10 13.177 14.699 5.110 74.836 o
7 6 11 0.006 0.315 4.542 98.480 o
7 6 12 10.235 11.923 5.362 69.107 o
7 6 13 59.756 60.431 7.823 25.041 o
7 7 0 10.519 12.259 3.166 189.741 o
7 7 1 22.998 22.267 3.421 139.416 o
7 7 2 0.014 -1.636 2.518 320.526 o
7 7 3 1.577 7.444 4.038 124.112 o
7 7 4 3.595 2.523 3.911 132.307 o
7 7 5 10.585 9.400 4.542 95.807 o
7 7 6 9.515 7.444 4.353 104.841 o
7 7 7 84.834 88.189 8.264 18.596 o
7 7 8 19.024 27.758 5.741 57.033 o
7 7 9 58.363 67.181 7.507 26.321 o
7 7 10 3.992 2.397 4.668 92.945 o
7 7 11 0.974 -0.252 4.353 107.216 o
7 7 12 81.436 81.312 8.643 18.234 o
7 8 0 19.382 19.128 4.101 107.619 o
7 8 1 0.042 -0.482 2.943 234.560 o
7 8 2 0.867 1.830 4.038 124.579 o
7 8 3 5.982 0.883 3.911 131.933 o
7 8 4 33.727 36.332 6.246 44.516 o
7 8 5 48.633 46.867 6.687 35.326 o
7 8 6 12.827 15.646 5.299 69.743 o
7 8 7 7.930 8.769 5.047 78.615 o
7 8 8 20.915 12.428 5.047 74.467 o
7 8 9 34.613 49.580 7.192 33.630 o
7 8 10 46.049 47.309 7.003 33.304 o
7 9 0 9.528 9.684 3.678 144.721 o
7 9 1 14.066 19.707 4.059 113.620 o
7 9 2 23.849 24.604 5.741 56.162 o
7 9 3 6.839 7.192 4.542 97.216 o
7 9 4 27.039 32.673 5.930 51.048 o
7 9 5 1.775 -1.703 4.416 104.146 o
7 9 6 21.468 28.011 6.119 50.109 o
7 9 7 29.567 29.146 6.183 47.225 o
7 9 8 0.382 -2.082 4.605 95.799 o
7 10 1 47.599 42.830 7.318 31.120 o
7 10 2 16.114 11.040 5.489 64.962 o
7 10 3 26.240 21.639 6.056 50.716 o
8 -1 0 52.958 44.659 8.580 23.200 o
8 -1 1 25.671 33.239 11.132 15.834 o
8 -1 2 15.529 36.899 8.391 27.740 o
8 -1 3 7.167 11.860 7.255 38.295 o
8 -1 4 7.605 28.767 8.264 29.239 o
8 -1 5 0.099 18.989 8.075 31.052 o
8 0 0 54.531 37.657 8.075 25.894 o
8 0 1 191.955 197.192 9.226 6.931 o
8 0 2 0.005 10.662 6.750 44.522 o
8 0 3 39.406 39.044 8.517 25.056 o
8 0 4 0.382 7.507 7.633 34.844 o
8 0 5 1.816 17.475 8.327 29.184 o
8 0 6 54.273 55.447 10.094 17.153 o
8 0 7 0.830 17.664 8.580 27.516 o
8 1 0 80.126 96.195 9.589 15.339 o
8 1 1 76.144 72.301 6.354 28.440 o
8 1 2 64.171 69.389 9.021 19.265 o
8 1 3 10.206 23.657 7.318 37.111 o
8 1 4 2.812 19.935 7.823 32.985 o
8 1 5 25.519 49.958 9.148 22.585 o
8 1 6 38.086 52.230 9.842 18.987 o
8 1 8 15.804 31.789 9.463 22.079 o
8 1 9 19.821 23.090 9.337 22.677 o
8 2 0 0.417 3.191 6.561 47.189 o
8 2 1 10.529 24.225 6.624 45.010 o
8 2 2 13.046 21.954 6.876 41.715 o
8 2 3 68.232 81.312 9.148 17.998 o
8 2 4 3.807 13.248 6.498 47.818 o
8 2 5 29.316 39.991 8.517 25.875 o
8 2 6 12.321 23.784 8.138 30.024 o
8 2 7 18.617 27.064 8.769 25.576 o
8 2 8 17.200 33.682 9.148 23.480 o
8 2 9 5.266 19.935 9.400 22.848 o
8 2 10 20.421 26.749 9.905 20.134 o
8 3 0 175.173 187.671 7.159 8.851 o
8 3 1 10.423 10.057 5.672 62.031 o
8 3 2 124.545 151.866 11.668 8.640 o
8 3 3 33.647 39.734 4.984 63.703 o
8 3 4 0.021 8.641 7.350 37.583 o
8 3 5 1.652 5.557 4.069 122.356 o
8 3 6 0.099 4.100 8.359 29.074 o
8 3 7 9.015 14.131 7.760 33.391 o
8 3 8 14.706 27.127 8.895 25.055 o
8 3 9 17.198 14.258 8.958 24.866 o
8 3 10 1.018 -0.883 9.274 23.625 o
8 4 0 191.231 215.046 10.879 6.006 o
8 4 1 23.709 18.484 5.110 70.580 o
8 4 2 3.963 -0.883 3.974 128.312 o
8 4 3 9.965 13.311 4.353 103.511 o
8 4 4 21.032 13.438 4.668 85.761 o
8 4 5 3.188 3.974 3.848 136.591 o
8 4 6 0.032 1.956 4.164 117.182 o
8 4 7 0.120 -2.334 3.722 146.658 o
8 4 8 0.156 2.839 4.353 107.195 o
8 4 9 7.311 8.580 4.858 84.912 o
8 4 10 21.110 26.760 5.091 70.437 o
8 4 11 6.079 2.263 7.318 37.849 o
8 5 0 20.671 23.603 3.769 120.902 o
8 5 1 13.099 15.456 4.984 78.426 o
8 5 2 19.011 17.475 4.795 81.648 o
8 5 3 18.776 15.204 4.921 78.363 o
8 5 4 22.574 22.837 5.362 64.294 o
8 5 5 74.387 69.137 7.318 24.537 o
8 5 6 7.626 5.552 4.542 97.224 o
8 5 7 12.602 2.965 4.542 96.201 o
8 5 8 5.755 13.438 4.921 82.604 o
8 5 9 6.348 3.785 4.731 90.086 o
8 5 10 2.163 4.101 4.542 98.271 o
8 5 11 18.447 17.286 5.615 60.955 o
8 6 0 1.522 1.552 3.036 220.128 o
8 6 1 0.604 2.523 4.164 117.141 o
8 6 2 9.310 9.148 4.416 101.711 o
8 6 3 159.002 162.997 9.968 8.400 o
8 6 4 35.127 37.972 6.056 46.289 o
8 6 5 30.554 33.745 6.119 47.263 o
8 6 6 68.811 73.364 7.949 22.424 o
8 6 7 14.485 21.323 5.615 61.416 o
8 6 8 67.534 80.366 8.517 20.092 o
8 6 9 7.076 11.040 5.173 74.832 o
8 6 10 0.936 4.164 4.984 81.727 o
8 7 0 0.000 -4.222 4.889 84.998 o
8 7 1 1.660 3.344 4.416 104.042 o
8 7 2 1.913 3.533 4.164 116.974 o
8 7 3 0.696 -1.262 4.101 120.824 o
8 7 4 0.023 8.138 4.795 88.228 o
8 7 5 106.571 124.331 9.463 12.722 o
8 7 6 29.335 27.758 6.119 48.321 o
8 7 7 36.104 37.972 6.750 38.304 o
8 7 8 26.262 38.287 6.750 40.118 o
8 7 9 1.104 1.766 4.795 88.349 o
8 8 0 2.453 7.760 4.984 81.477 o
8 8 1 44.048 41.820 6.876 35.224 o
8 8 2 6.035 11.103 5.110 76.838 o
8 8 3 0.177 0.883 4.668 93.225 o
8 8 4 6.940 9.652 4.984 80.693 o
8 8 5 48.871 60.494 7.697 27.214 o
8 8 6 0.139 4.227 4.605 95.744 o
8 8 7 3.869 7.697 5.047 79.312 o
8 9 0 1.083 -0.379 4.731 90.747 o
8 9 1 16.201 14.510 5.552 63.147 o
8 9 2 0.051 7.381 5.173 75.827 o
8 9 3 36.393 38.287 6.624 39.469 o
9 1 0 23.133 38.161 7.697 31.933 o
9 1 1 79.055 89.514 10.220 14.286 o
9 1 2 48.227 56.456 9.274 20.236 o
9 2 0 1.385 24.730 7.066 40.322 o
9 2 1 64.119 78.978 9.337 17.881 o
9 2 3 33.887 62.323 9.148 21.591 o
9 2 4 44.682 65.604 9.526 19.252 o
9 4 1 18.977 23.973 5.930 54.140 o
9 4 2 1.214 -0.820 4.479 101.255 o
9 4 3 1.016 -3.911 4.227 113.711 o
9 4 4 0.385 -1.893 4.227 113.724 o
9 4 5 0.656 1.388 4.227 113.698 o
9 5 0 5.946 3.785 5.236 73.700 o
9 5 1 26.854 27.947 6.309 46.276 o
9 5 2 1.926 1.956 4.795 88.306 o
9 5 3 31.735 36.395 6.309 44.225 o
9 5 4 1.686 0.379 4.290 110.354 o
9 5 5 11.574 16.781 5.362 68.326 o
9 5 6 3.142 8.327 4.858 85.628 o
9 6 0 2.081 -0.946 4.668 93.183 o
9 6 1 9.772 16.844 5.930 56.468 o
9 6 2 77.150 81.249 8.580 18.850 o
9 6 3 6.484 13.311 5.552 65.027 o
9 6 4 112.623 105.847 9.337 13.133 o
9 6 5 3.803 10.788 5.362 70.152 o
9 7 0 7.919 6.813 5.299 71.547 o
9 7 1 0.162 -3.154 4.605 95.800 o
9 7 2 4.098 6.498 5.047 79.354 o
9 7 3 12.356 10.472 5.615 62.929 o
;
_olex2_submission_special_instructions 'No special instructions were received'
loop_
_space_group_symop_id
_space_group_symop_operation_xyz
1 x,y,z
2 -x,-y,-z
loop_
_atom_site_label
_atom_site_type_symbol
_atom_site_fract_x
_atom_site_fract_y
_atom_site_fract_z
_atom_site_U_iso_or_equiv
_atom_site_adp_type
_atom_site_occupancy
_atom_site_refinement_flags_posn
O1 O -0.0383(2) 0.46444(18) 0.31131(9) 0.0202(3) Uani 1.000000 .
C1 C 0.3539(3) 0.3824(3) 0.27254(13) 0.0169(4) Uani 1.000000 .
C2 C 0.2220(3) 0.4572(3) 0.16568(13) 0.0193(4) Uani 1.000000 .
C3 C 0.0912(3) 0.6671(3) 0.14046(15) 0.0260(4) Uani 1.000000 .
H3a H -0.0553(8) 0.6999(4) 0.1647(8) 0.0390(7) Uiso 1.000000 GR
H3b H 0.1628(12) 0.7388(3) 0.1691(8) 0.0390(7) Uiso 1.000000 GR
H3c H 0.0818(18) 0.6985(4) 0.07122(15) 0.0390(7) Uiso 1.000000 GR
C4 C 0.2742(3) 0.5265(3) 0.33970(13) 0.0177(4) Uani 1.000000 .
C5 C 0.3860(3) 0.6137(3) 0.38479(14) 0.0212(4) Uani 1.000000 .
H5 H 0.5333(3) 0.5904(3) 0.37144(14) 0.0254(5) Uiso 1.000000 R
C6 C 0.2771(3) 0.7360(3) 0.45002(14) 0.0244(4) Uani 1.000000 .
H6 H 0.3508(3) 0.7972(3) 0.48176(14) 0.0292(5) Uiso 1.000000 R
C7 C 0.0610(3) 0.7699(3) 0.46947(14) 0.0238(4) Uani 1.000000 .
H7 H -0.0095(3) 0.8522(3) 0.51527(14) 0.0285(5) Uiso 1.000000 R
C8 C -0.0534(3) 0.6857(3) 0.42325(14) 0.0218(4) Uani 1.000000 .
H8 H -0.2019(3) 0.7121(3) 0.43533(14) 0.0261(5) Uiso 1.000000 R
C9 C 0.0558(3) 0.5623(3) 0.35908(13) 0.0185(4) Uani 1.000000 .
B6 B 0.1216(3) 0.3413(3) 0.25678(15) 0.0181(4) Uani 1.000000 .
B5 B 0.3601(3) 0.1645(3) 0.31704(16) 0.0190(4) Uani 1.000000 .
H5a H 0.3618(3) 0.1130(3) 0.39431(16) 0.0228(5) Uiso 1.000000 R
B4 B 0.5907(3) 0.1935(3) 0.26686(16) 0.0209(4) Uani 1.000000 .
H4 H 0.7415(3) 0.1629(3) 0.31087(16) 0.0250(5) Uiso 1.000000 R
B3 B 0.5004(3) 0.3835(3) 0.17264(16) 0.0212(4) Uani 1.000000 .
H3 H 0.5895(3) 0.4790(3) 0.15510(16) 0.0255(5) Uiso 1.000000 R
B10 B 0.1256(4) 0.2965(3) 0.13639(15) 0.0209(4) Uani 1.000000 .
H10 H -0.0288(4) 0.3341(3) 0.09379(15) 0.0251(5) Uiso 1.000000 R
B9 B 0.2145(3) 0.1055(3) 0.23066(16) 0.0206(4) Uani 1.000000 .
H9 H 0.1196(3) 0.0155(3) 0.24994(16) 0.0247(5) Uiso 1.000000 R
B8 B 0.5079(3) 0.0121(3) 0.23591(16) 0.0216(4) Uani 1.000000 .
H8a H 0.6068(3) -0.1414(3) 0.25813(16) 0.0260(5) Uiso 1.000000 R
B7 B 0.5974(4) 0.1463(3) 0.14659(16) 0.0224(5) Uani 1.000000 .
H7a H 0.7548(4) 0.0819(3) 0.11048(16) 0.0268(5) Uiso 1.000000 R
B11 B 0.3624(3) 0.3178(3) 0.08471(16) 0.0226(5) Uani 1.000000 .
H11 H 0.3646(3) 0.3671(3) 0.00738(16) 0.0271(5) Uiso 1.000000 R
B12 B 0.3636(3) 0.0911(3) 0.12424(16) 0.0221(4) Uani 1.000000 .
H12 H 0.3668(3) -0.0105(3) 0.07323(16) 0.0265(5) Uiso 1.000000 R
loop_
_atom_site_aniso_label
_atom_site_aniso_U_11
_atom_site_aniso_U_22
_atom_site_aniso_U_33
_atom_site_aniso_U_12
_atom_site_aniso_U_13
_atom_site_aniso_U_23
O1 0.0157(6) 0.0233(7) 0.0236(7) -0.0082(5) 0.0033(5) -0.0087(6)
C1 0.0135(8) 0.0199(9) 0.0170(9) -0.0062(7) -0.0001(7) -0.0019(7)
C2 0.0184(9) 0.0204(9) 0.0185(9) -0.0067(8) 0.0007(7) -0.0024(7)
C3 0.0289(11) 0.0214(10) 0.0228(10) -0.0055(8) -0.0025(8) 0.0012(8)
C4 0.0178(9) 0.0169(9) 0.0168(9) -0.0049(7) -0.0001(7) -0.0023(7)
C5 0.0198(9) 0.0210(9) 0.0225(10) -0.0083(8) -0.0023(7) -0.0003(8)
C6 0.0303(11) 0.0235(10) 0.0232(10) -0.0144(9) -0.0003(8) -0.0042(8)
C7 0.0319(11) 0.0177(9) 0.0216(10) -0.0089(8) 0.0046(8) -0.0050(8)
C8 0.0204(9) 0.0210(9) 0.0231(10) -0.0070(8) 0.0037(8) -0.0032(8)
C9 0.0175(9) 0.0187(9) 0.0197(9) -0.0072(7) -0.0001(7) -0.0030(7)
B6 0.0143(9) 0.0206(10) 0.0197(10) -0.0068(8) 0.0008(8) -0.0029(8)
B5 0.0180(10) 0.0165(10) 0.0216(11) -0.0058(8) 0.0012(8) -0.0018(8)
B4 0.0139(9) 0.0224(11) 0.0240(11) -0.0043(8) 0.0013(8) -0.0038(9)
B3 0.0178(10) 0.0236(11) 0.0220(11) -0.0077(9) 0.0057(8) -0.0035(9)
B10 0.0205(10) 0.0233(11) 0.0192(10) -0.0078(9) 0.0004(8) -0.0061(9)
B9 0.0181(10) 0.0206(11) 0.0242(11) -0.0079(8) 0.0034(8) -0.0063(9)
B8 0.0184(10) 0.0192(10) 0.0249(11) -0.0045(8) 0.0028(9) -0.0033(9)
B7 0.0198(10) 0.0222(11) 0.0237(11) -0.0065(9) 0.0045(9) -0.0038(9)
B11 0.0222(11) 0.0249(11) 0.0192(11) -0.0068(9) 0.0046(9) -0.0059(9)
B12 0.0208(10) 0.0228(11) 0.0224(11) -0.0072(9) 0.0034(9) -0.0070(9)
loop_
_atom_type_symbol
_atom_type_scat_dispersion_real
_atom_type_scat_dispersion_imag
_atom_type_scat_Cromer_Mann_a1
_atom_type_scat_Cromer_Mann_a2
_atom_type_scat_Cromer_Mann_a3
_atom_type_scat_Cromer_Mann_a4
_atom_type_scat_Cromer_Mann_b1
_atom_type_scat_Cromer_Mann_b2
_atom_type_scat_Cromer_Mann_b3
_atom_type_scat_Cromer_Mann_b4
_atom_type_scat_Cromer_Mann_c
_atom_type_scat_source
_atom_type_scat_dispersion_source
H 0.00000 0.00000 0.49300 0.32291 0.14019 0.04081 10.51090 26.12570 3.14236
57.79970 0.0030380000826
'International Tables Volume C Table 6.1.1.4 (pp. 500-502)'
'Henke, Gullikson and Davis, At. Data and Nucl. Data Tables, 1993, 54, 2'
C 0.00347 0.00161 2.31000 1.02000 1.58860 0.86500 20.84390 10.20750 0.56870
51.65120 0.215599998832
'International Tables Volume C Table 6.1.1.4 (pp. 500-502)'
'Henke, Gullikson and Davis, At. Data and Nucl. Data Tables, 1993, 54, 2'
B 0.00141 0.00067 2.05450 1.33260 1.09790 0.70680 23.21850 1.02100 60.34980
0.14030 -0.193200007081
'International Tables Volume C Table 6.1.1.4 (pp. 500-502)'
'Henke, Gullikson and Davis, At. Data and Nucl. Data Tables, 1993, 54, 2'
O 0.01158 0.00611 3.04850 2.28680 1.54630 0.86700 13.27710 5.70110 0.32390
32.90890 0.250800013542
'International Tables Volume C Table 6.1.1.4 (pp. 500-502)'
'Henke, Gullikson and Davis, At. Data and Nucl. Data Tables, 1993, 54, 2'
loop_
_geom_angle_atom_site_label_1
_geom_angle_atom_site_label_2
_geom_angle_atom_site_label_3
_geom_angle
B6 O1 C9 108.65(13)
C4 C1 C2 112.55(15)
B6 C1 C2 62.21(11)
B6 C1 C4 99.52(14)
B5 C1 C2 111.40(13)
B5 C1 C4 114.09(15)
B5 C1 B6 62.87(11)
B4 C1 C2 111.39(14)
B4 C1 C4 132.90(16)
B4 C1 B6 115.43(14)
B4 C1 B5 62.59(12)
B3 C1 C2 60.86(11)
B3 C1 C4 128.96(15)
B3 C1 B6 115.23(14)
B3 C1 B5 114.70(14)
B3 C1 B4 63.17(13)
C3 C2 C1 118.34(15)
B6 C2 C1 59.90(11)
B6 C2 C3 116.27(15)
B3 C2 C1 60.37(11)
B3 C2 C3 117.05(16)
B3 C2 B6 112.81(14)
B10 C2 C1 109.67(14)
B10 C2 C3 120.60(16)
B10 C2 B6 61.89(12)
B10 C2 B3 116.06(15)
B11 C2 C1 110.06(15)
B11 C2 C3 122.28(17)
B11 C2 B6 114.15(15)
B11 C2 B3 63.32(12)
B11 C2 B10 64.12(12)
H3a C3 C2 109.5
H3b C3 C2 109.5
H3b C3 H3a 109.5
H3c C3 C2 109.5
H3c C3 H3a 109.5
H3c C3 H3b 109.5
C5 C4 C1 129.36(16)
C9 C4 C1 109.82(15)
C9 C4 C5 120.72(17)
H5 C5 C4 120.86(11)
C6 C5 C4 118.28(17)
C6 C5 H5 120.86(11)
H6 C6 C5 119.63(11)
C7 C6 C5 120.74(17)
C7 C6 H6 119.63(11)
H7 C7 C6 119.34(11)
C8 C7 C6 121.31(18)
C8 C7 H7 119.34(11)
H8 C8 C7 121.06(11)
C9 C8 C7 117.89(17)
C9 C8 H8 121.06(10)
C4 C9 O1 115.75(15)
C8 C9 O1 123.21(16)
C8 C9 C4 121.03(16)
C1 B6 O1 106.18(14)
C2 B6 O1 114.30(15)
C2 B6 C1 57.89(10)
B5 B6 O1 118.54(16)
B5 B6 C1 58.35(11)
B5 B6 C2 104.48(13)
B10 B6 O1 133.07(17)
B10 B6 C1 104.28(14)
B10 B6 C2 57.22(11)
B10 B6 B5 107.69(15)
B9 B6 O1 139.15(16)
B9 B6 C1 104.92(14)
B9 B6 C2 104.47(14)
B9 B6 B5 59.87(12)
B9 B6 B10 60.71(12)
B6 B5 C1 58.77(11)
H5a B5 C1 125.26(9)
H5a B5 B6 121.73(10)
B4 B5 C1 58.17(11)
B4 B5 B6 108.32(15)
B4 B5 H5a 120.53(10)
B9 B5 C1 104.81(15)
B9 B5 B6 59.31(12)
B9 B5 H5a 121.41(10)
B9 B5 B4 110.37(16)
B8 B5 C1 105.01(15)
B8 B5 B6 108.63(16)
B8 B5 H5a 121.33(11)
B8 B5 B4 61.17(12)
B8 B5 B9 61.61(12)
B5 B4 C1 59.24(11)
H4 B4 C1 124.73(9)
H4 B4 B5 121.59(10)
B3 B4 C1 58.92(12)
B3 B4 B5 108.49(15)
B3 B4 H4 121.26(9)
B8 B4 C1 104.06(14)
B8 B4 B5 58.87(11)
B8 B4 H4 122.98(10)
B8 B4 B3 107.72(15)
B7 B4 C1 104.37(15)
B7 B4 B5 107.37(15)
B7 B4 H4 122.70(10)
B7 B4 B3 59.66(12)
B7 B4 B8 60.09(12)
C2 B3 C1 58.77(11)
B4 B3 C1 57.90(12)
B4 B3 C2 105.53(14)
H3 B3 C1 124.64(9)
H3 B3 C2 124.16(10)
H3 B3 B4 122.04(9)
B7 B3 C1 103.88(15)
B7 B3 C2 104.09(14)
B7 B3 B4 60.04(12)
B7 B3 H3 123.48(10)
B11 B3 C1 104.07(14)
B11 B3 C2 57.28(11)
B11 B3 B4 107.51(15)
B11 B3 H3 122.99(10)
B11 B3 B7 59.71(12)
B6 B10 C2 60.89(11)
H10 B10 C2 123.90(10)
H10 B10 B6 121.17(10)
B9 B10 C2 106.20(15)
B9 B10 B6 59.30(12)
B9 B10 H10 122.07(9)
B11 B10 C2 57.64(11)
B11 B10 B6 108.13(15)
B11 B10 H10 122.10(10)
B11 B10 B9 107.82(15)
B12 B10 C2 104.26(14)
B12 B10 B6 107.29(15)
B12 B10 H10 123.04(10)
B12 B10 B9 60.08(12)
B12 B10 B11 59.51(12)
B5 B9 B6 60.82(12)
B10 B9 B6 59.99(12)
B10 B9 B5 107.87(15)
H9 B9 B6 121.40(9)
H9 B9 B5 122.29(10)
H9 B9 B10 121.84(9)
B8 B9 B6 107.40(14)
B8 B9 B5 58.54(11)
B8 B9 B10 107.05(15)
B8 B9 H9 122.75(10)
B12 B9 B6 107.57(15)
B12 B9 B5 106.32(14)
B12 B9 B10 59.74(13)
B12 B9 H9 122.53(10)
B12 B9 B8 59.33(12)
B4 B8 B5 59.96(12)
B9 B8 B5 59.85(12)
B9 B8 B4 108.03(15)
H8a B8 B5 122.02(11)
H8a B8 B4 121.81(10)
H8a B8 B9 121.61(10)
B7 B8 B5 107.88(15)
B7 B8 B4 59.63(12)
B7 B8 B9 108.70(16)
B7 B8 H8a 121.30(10)
B12 B8 B5 107.79(16)
B12 B8 B4 108.33(16)
B12 B8 B9 59.85(12)
B12 B8 H8a 121.42(10)
B12 B8 B7 61.01(12)
B3 B7 B4 60.31(12)
B8 B7 B4 60.28(12)
B8 B7 B3 108.39(15)
H7a B7 B4 121.49(10)
H7a B7 B3 121.25(10)
H7a B7 B8 121.95(10)
B11 B7 B4 108.38(15)
B11 B7 B3 60.54(12)
B11 B7 B8 107.31(15)
B11 B7 H7a 121.81(10)
B12 B7 B4 107.43(15)
B12 B7 B3 107.74(15)
B12 B7 B8 59.23(12)
B12 B7 H7a 122.54(10)
B12 B7 B11 59.34(12)
B3 B11 C2 59.40(12)
B10 B11 C2 58.24(11)
B10 B11 B3 108.07(15)
B7 B11 C2 105.77(15)
B7 B11 B3 59.75(12)
B7 B11 B10 109.10(16)
H11 B11 C2 124.48(10)
H11 B11 B3 121.33(10)
H11 B11 B10 121.54(10)
H11 B11 B7 121.39(10)
B12 B11 C2 105.08(15)
B12 B11 B3 108.75(16)
B12 B11 B10 59.96(12)
B12 B11 B7 61.40(12)
B12 B11 H11 121.75(10)
B9 B12 B10 60.18(12)
B8 B12 B10 108.59(15)
B8 B12 B9 60.83(12)
B7 B12 B10 107.85(14)
B7 B12 B9 108.48(15)
B7 B12 B8 59.76(12)
B11 B12 B10 60.53(12)
B11 B12 B9 108.72(15)
B11 B12 B8 107.67(15)
B11 B12 B7 59.25(12)
H12 B12 B10 121.41(10)
H12 B12 B9 120.97(10)
H12 B12 B8 121.54(10)
H12 B12 B7 122.11(10)
H12 B12 B11 121.79(10)
loop_
_geom_bond_atom_site_label_1
_geom_bond_atom_site_label_2
_geom_bond_distance
O1 C9 1.386(2)
O1 B6 1.416(2)
C1 C2 1.685(3)
C1 C4 1.483(2)
C1 B6 1.721(3)
C1 B5 1.713(3)
C1 B4 1.694(3)
C1 B3 1.713(3)
C2 C3 1.516(3)
C2 B6 1.760(3)
C2 B3 1.721(3)
C2 B10 1.693(3)
C2 B11 1.682(3)
C3 H3a 0.9800
C3 H3b 0.9800
C3 H3c 0.9800
C4 C5 1.384(2)
C4 C9 1.405(2)
C5 H5 0.9500
C5 C6 1.388(3)
C6 H6 0.9500
C6 C7 1.394(3)
C7 H7 0.9500
C7 C8 1.388(3)
C8 H8 0.9500
C8 C9 1.383(2)
B6 B5 1.791(3)
B6 B10 1.777(3)
B6 B9 1.764(3)
B5 H5a 1.1200
B5 B4 1.770(3)
B5 B9 1.775(3)
B5 B8 1.750(3)
B4 H4 1.1200
B4 B3 1.785(3)
B4 B8 1.791(3)
B4 B7 1.780(3)
B3 H3 1.1200
B3 B7 1.773(3)
B3 B11 1.787(3)
B10 H10 1.1200
B10 B9 1.790(3)
B10 B11 1.792(3)
B10 B12 1.782(3)
B9 H9 1.1200
B9 B8 1.805(3)
B9 B12 1.788(3)
B8 H8a 1.1200
B8 B7 1.788(3)
B8 B12 1.778(3)
B7 H7a 1.1200
B7 B11 1.772(3)
B7 B12 1.810(3)
B11 H11 1.1200
B11 B12 1.774(3)
B12 H12 1.1200
