#------------------------------------------------------------------------------
#$Date: 2020-08-06 16:55:41 +0300 (Thu, 06 Aug 2020) $
#$Revision: 254964 $
#$URL: file:///home/coder/svn-repositories/cod/cif/7/70/46/7704690.cif $
#------------------------------------------------------------------------------
#
# This file is available in the Crystallography Open Database (COD),
# http://www.crystallography.net/
#
# All data on this site have been placed in the public domain by the
# contributors.
#
data_7704690
loop_
_publ_author_name
'Yan, Dongming'
'Xiao, Yu'
'Liu, Chang'
'Hou, Peipei'
'Chai, Wenxiang'
'Hosono, Hideo'
'Lin, Hua'
'Liu, Yi'
_publ_section_title
;
 Two new members in the quaternary Cs-Ag-As-S family with different
 arrangements of Ag-S and As-S asymmetric building units: syntheses,
 structures, and theoretical studies.
;
_journal_issue                   28
_journal_name_full
'Dalton transactions (Cambridge, England : 2003)'
_journal_page_first              9743
_journal_page_last               9750
_journal_paper_doi               10.1039/d0dt01375g
_journal_volume                  49
_journal_year                    2020
_chemical_formula_sum            'Ag2 As2 Cs2 S5'
_chemical_formula_weight         791.70
_space_group_crystal_system      triclinic
_space_group_IT_number           2
_space_group_name_Hall           '-P 1'
_space_group_name_H-M_alt        'P -1'
_audit_creation_method           SHELXL-2014/7
_audit_update_record
;
2020-03-12 deposited with the CCDC.	2020-06-22 downloaded from the CCDC.
;
_cell_angle_alpha                63.28(3)
_cell_angle_beta                 82.11(3)
_cell_angle_gamma                87.78(3)
_cell_formula_units_Z            2
_cell_length_a                   7.4900(15)
_cell_length_b                   9.3000(19)
_cell_length_c                   9.940(2)
_cell_measurement_reflns_used    2374
_cell_measurement_temperature    293(2)
_cell_measurement_theta_max      29.4362
_cell_measurement_theta_min      3.5227
_cell_volume                     612.4(3)
_computing_structure_refinement  'SHELXL-2014/7 (Sheldrick, 2014)'
_diffrn_ambient_temperature      293(2)
_diffrn_detector_area_resol_mean 10.3592
_diffrn_measured_fraction_theta_full 0.996
_diffrn_measured_fraction_theta_max 0.841
_diffrn_measurement_device_type  'Xcalibur, Atlas, Gemini ultra'
_diffrn_measurement_method       '\w scans'
_diffrn_radiation_type           MoK\a
_diffrn_radiation_wavelength     0.71073
_diffrn_reflns_av_R_equivalents  0.0223
_diffrn_reflns_av_unetI/netI     0.0432
_diffrn_reflns_Laue_measured_fraction_full 0.996
_diffrn_reflns_Laue_measured_fraction_max 0.841
_diffrn_reflns_limit_h_max       8
_diffrn_reflns_limit_h_min       -10
_diffrn_reflns_limit_k_max       10
_diffrn_reflns_limit_k_min       -12
_diffrn_reflns_limit_l_max       12
_diffrn_reflns_limit_l_min       -13
_diffrn_reflns_number            4426
_diffrn_reflns_point_group_measured_fraction_full 0.996
_diffrn_reflns_point_group_measured_fraction_max 0.841
_diffrn_reflns_theta_full        25.242
_diffrn_reflns_theta_max         29.514
_diffrn_reflns_theta_min         3.531
_exptl_absorpt_coefficient_mu    15.212
_exptl_absorpt_correction_T_max  1.00000
_exptl_absorpt_correction_T_min  0.64512
_exptl_absorpt_correction_type   multi-scan
_exptl_crystal_colour            YELLOW
_exptl_crystal_density_diffrn    4.293
_exptl_crystal_description       BLOCK
_exptl_crystal_F_000             700
_exptl_crystal_size_max          0.15
_exptl_crystal_size_mid          0.12
_exptl_crystal_size_min          0.08
_refine_diff_density_max         0.933
_refine_diff_density_min         -1.391
_refine_diff_density_rms         0.199
_refine_ls_extinction_coef       0.0176(2)
_refine_ls_extinction_expression Fc^*^=kFc[1+0.001xFc^2^\l^3^/sin(2\q)]^-1/4^
_refine_ls_extinction_method     'SHELXL-2014/7 (Sheldrick 2014'
_refine_ls_goodness_of_fit_ref   1.074
_refine_ls_hydrogen_treatment    undef
_refine_ls_matrix_type           full
_refine_ls_number_parameters     101
_refine_ls_number_reflns         2866
_refine_ls_number_restraints     0
_refine_ls_restrained_S_all      1.074
_refine_ls_R_factor_all          0.0346
_refine_ls_R_factor_gt           0.0257
_refine_ls_shift/su_max          0.000
_refine_ls_shift/su_mean         0.000
_refine_ls_structure_factor_coef Fsqd
_refine_ls_weighting_details
'w=1/[\s^2^(Fo^2^)+(0.0071P)^2^] where P=(Fo^2^+2Fc^2^)/3'
_refine_ls_weighting_scheme      calc
_refine_ls_wR_factor_gt          0.0407
_refine_ls_wR_factor_ref         0.0427
_reflns_Friedel_coverage         0.000
_reflns_number_gt                2418
_reflns_number_total             2866
_reflns_threshold_expression     'I > 2\s(I)'
_cod_data_source_file            d0dt01375g2.cif
_cod_data_source_block           Cs2Ag2As2S5
_cod_depositor_comments
'Adding full bibliography for 7704690--7704691.cif.'
_cod_database_code               7704690
_shelx_shelxl_version_number     2014/7
_shelx_space_group_comment
;
The symmetry employed for this shelxl refinement is uniquely defined
by the following loop, which should always be used as a source of
symmetry information in preference to the above space-group names.
They are only intended as comments.
;
_shelx_res_file
;

    A.res created by SHELXL-2014/7


TITL A in P-1
CELL 0.71073   7.4900   9.3000   9.9400  63.280  82.110  87.780
ZERR    2.00   0.0015   0.0019   0.0020   0.030   0.030   0.030
LATT  1
SFAC S AS AG CS
UNIT 10 4 4 4

L.S. 40
BOND
ACTA
FMAP 2
PLAN 20

WGHT    0.007100
EXTI    0.017598
FVAR       0.23670
CS1   4    0.250107    0.348571    0.658500    11.00000    0.03088    0.02761 =
         0.02204   -0.00759   -0.00150   -0.00461
CS2   4    0.738521    0.050294    0.569313    11.00000    0.03321    0.02338 =
         0.02105   -0.00687   -0.00623    0.00348
AG1   3    0.603092    0.262932    0.120292    11.00000    0.02445    0.05288 =
         0.03579   -0.02803   -0.00595    0.01110
AG2   3    0.202317    0.921251    0.055666    11.00000    0.05520    0.02270 =
         0.02782   -0.01183   -0.01159    0.00104
AS1   2    0.060054    0.291337    0.072502    11.00000    0.02249    0.01386 =
         0.01810   -0.00409   -0.00668    0.00121
AS2   2    0.304939    0.511911    0.186259    11.00000    0.01686    0.01401 =
         0.01394   -0.00521   -0.00227    0.00030
S1    1    0.507107    0.353609    0.320249    11.00000    0.02358    0.02827 =
         0.02469   -0.01445   -0.01095    0.01013
S2    1    0.323397    0.180029    0.042696    11.00000    0.01883    0.02474 =
         0.02289   -0.01250   -0.00110   -0.00365
S3    1    0.230308    0.670271    0.295098    11.00000    0.03285    0.01713 =
         0.02064   -0.00978   -0.00337    0.00316
S4    1    0.873894    0.073158    0.186415    11.00000    0.01772    0.01909 =
         0.02338   -0.01001   -0.00523    0.00061
S5    1    0.060694    0.333288    0.283197    11.00000    0.02160    0.01914 =
         0.02502   -0.01116    0.00079   -0.00539
HKLF 4

REM  A in P-1
REM R1 =  0.0257 for    2418 Fo > 4sig(Fo)  and  0.0346 for all    2866 data
REM    101 parameters refined using      0 restraints

END

WGHT      0.0145      0.0000

REM Highest difference peak  0.933,  deepest hole -1.391,  1-sigma level  0.199
Q1    1   0.6643  0.3256  0.1170  11.00000  0.05    0.93
Q2    1   0.6390  0.1141  0.4912  11.00000  0.05    0.92
Q3    1   0.2849  0.9015  0.1038  11.00000  0.05    0.90
Q4    1   0.7086  0.2384  0.5354  11.00000  0.05    0.85
Q5    1   0.1025  0.5362  0.5822  11.00000  0.05    0.80
Q6    1   0.5643  0.2229  0.1998  11.00000  0.05    0.80
Q7    1   0.1466  0.1399  0.3411  11.00000  0.05    0.79
Q8    1   0.1674  0.4014  0.6014  11.00000  0.05    0.78
Q9    1   0.6888 -0.0440  0.5575  11.00000  0.05    0.77
Q10   1   0.7935  0.0147  0.4755  11.00000  0.05    0.69
Q11   1   0.1621  0.8238  0.0795  11.00000  0.05    0.69
Q12   1   0.2350  1.0279  0.0606  11.00000  0.05    0.68
Q13   1   0.5252  0.3196  0.0932  11.00000  0.05    0.67
Q14   1   0.3585  0.2982  0.6864  11.00000  0.05    0.65
Q15   1   0.7454  0.1494  0.5575  11.00000  0.05    0.65
Q16   1   0.7688  0.0945  0.5413  11.00000  0.05    0.65
Q17   1   0.6544  0.0405  0.6237  11.00000  0.05    0.65
Q18   1   0.9111  0.0255  0.0951  11.00000  0.05    0.64
Q19   1   0.2117  0.2050  0.2196  11.00000  0.05    0.63
Q20   1   0.7293 -0.0024  0.1930  11.00000  0.05    0.62
;
_shelx_res_checksum              29134
_shelx_hkl_file
;
   0   0   2   34.75    3.01
   0   0  -2   35.37    2.02
   0   0  -3  215.72    5.44
   0   0  -3  199.43    7.74
   0   0   3  218.71    8.09
   0   0  -4  532.85    9.36
   0   0   4  550.06   14.32
   0   0  -4  538.01   14.27
   0   0  -5  104.01    7.15
   0   0   5  104.43    7.09
   0   0  -5  104.29    4.49
   0   0  -6   10.42    1.74
   0   0   6   13.14    3.46
   0   0  -6    9.82    2.81
   0   0  -7   39.84    5.24
   0   0   7   36.51    5.21
   0   0  -7   39.80    3.06
   0   0   8  958.35   25.70
   0   0  -8  946.76   14.76
   0   0  -9    7.10    1.49
   0   0   9    6.78    2.97
   0   0  10   38.10    6.08
   0   0  11    1.05    2.59
   0   0  12   -0.45    2.20
   0  -1  11    4.81    3.05
   0  -1  10  109.96    9.93
   0  -1   9   12.67    3.82
   0   1  -9   12.95    2.08
   0   1  -8   18.25    2.54
   0  -1   8   14.71    3.76
   0  -1   7   -0.05    2.32
   0   1  -7   -0.69    1.21
   0   1  -7   -0.25    1.76
   0  -1   6 1043.92   24.24
   0   1  -6 1002.10   16.05
   0   1  -6 1044.01   24.44
   0   1  -5  219.06   10.35
   0   1  -5  215.71    7.09
   0  -1   5  221.70   10.42
   0  -1   5  238.41    8.55
   0   1  -4  112.46    6.71
   0  -1   4  128.90    7.46
   0   1  -4  116.13    4.88
   0  -1   4  122.56    5.69
   0  -1   3    8.10    1.60
   0   1  -3    8.13    2.04
   0   1  -3    7.74    1.46
   0  -1   3   10.42    2.41
   0  -1   2 3341.32   22.84
   0   1  -2 3361.50   26.07
   0  -1   2 3414.84   26.06
   0   1  -1   61.81    2.69
   0  -1   1   65.16    2.86
   0   1  -1   60.86    2.46
   0   1   2    5.13    1.53
   0   1   3  314.28    8.80
   0   1   4    6.66    2.22
   0  -1  -4    9.22    2.47
   0  -1  -5   55.00    3.21
   0   1   5   54.46    5.11
   0  -1  -5   61.64    5.49
   0  -1  -6  308.80   12.99
   0   1   6  310.94   12.70
   0  -1  -6  323.46    7.83
   0  -1  -7  589.46   19.34
   0  -1  -7  601.56   10.78
   0   1   7  581.76   18.64
   0  -1  -8  118.73    4.84
   0   1   8  131.97    9.63
   0   1   9    1.49    2.80
   0  -1  -9    0.16    0.76
   0   1  10   20.01    4.66
   0   1  11  219.90   14.25
   0  -1 -11  219.56   13.18
   0   1  12    0.49    2.74
   0  -1 -12    4.76    3.12
   0  -2  11   25.71    5.50
   0  -2  10    4.06    3.20
   0  -2   9   24.83    5.17
   0   2  -8  491.22   13.42
   0  -2   8  464.57   18.91
   0   2  -7  133.14    8.90
   0  -2   7  131.17    9.61
   0   2  -7  125.88    6.70
   0  -2   6   31.55    4.80
   0   2  -6   24.21    3.00
   0  -2   5    9.37    2.30
   0  -2   5   12.74    3.27
   0   2  -5    6.69    1.78
   0   2  -4  117.69    5.73
   0  -2   4  126.74    6.33
   0  -2   4  122.88    7.19
   0   2  -4  123.94    6.53
   0   2  -3 1314.76   18.42
   0  -2   3 1321.46   18.74
   0   2  -3 1276.22   17.64
   0  -2   3 1294.44   20.39
   0   2  -2   95.24    4.32
   0   2  -2   97.99    4.69
   0  -2   2   99.83    4.70
   0  -2   2   94.15    4.88
   0  -2   1  258.50    6.10
   0   2  -1  249.74    6.86
   0   2  -1  251.59    5.84
   0  -2   0   17.68    1.69
   0   2   0   16.88    1.62
   0   2   0   16.35    2.01
   0  -2  -1  567.79    8.04
   0  -2  -2  406.95    7.76
   0  -2  -3   50.57    3.54
   0  -2  -4  290.92    9.08
   0   2   4  283.81    9.43
   0  -2  -5 3310.25   36.80
   0   2   5 3305.87   35.90
   0   2   6   66.20    5.83
   0  -2  -6   70.84    6.18
   0   2   7    8.12    2.92
   0  -2  -7    5.36    1.45
   0  -2  -7    6.67    2.69
   0  -2  -8  116.21    4.86
   0   2   8  110.70    8.69
   0  -2  -9  180.95   10.89
   0   2   9  187.77   11.94
   0  -2  -9  203.53    5.96
   0  -2 -10    2.92    2.39
   0   2  10    6.00    3.37
   0   2  11    3.21    2.68
   0  -2 -11    2.00    2.27
   0   2  12    5.95    3.59
   0  -2 -12    9.54    3.64
   0  -2 -13  140.96   11.88
   0  -3  10   64.95    8.11
   0  -3   9  136.06   11.14
   0   3  -8   19.95    3.31
   0  -3   8   18.67    4.53
   0  -3   7   -0.04    2.16
   0  -3   7    0.78    1.38
   0   3  -7    0.19    1.57
   0  -3   6   18.16    4.08
   0  -3   6   21.71    3.57
   0   3  -6   17.58    3.33
   0   3  -6   23.48    3.39
   0   3  -5 1036.44   21.21
   0  -3   5 1044.93   23.91
   0   3  -5 1031.89   19.78
   0   3  -4  460.03   12.74
   0   3  -4  435.53   12.46
   0  -3   4  437.53   14.21
   0   3  -3  186.86    7.27
   0  -3   3  177.36    8.23
   0   3  -3  179.01    7.71
   0  -3   2  189.92    7.59
   0   3  -2  194.23    6.60
   0   3  -2  179.80    7.33
   0  -3   2  192.59    7.45
   0   3  -1 1651.55   20.81
   0   3  -1 1643.33   17.31
   0  -3   1 1622.64   17.70
   0   3   0 1448.20   18.26
   0   3   0 1474.51   15.45
   0  -3   0 1442.71   15.53
   0   3   1   28.42    2.39
   0  -3  -1   29.20    2.44
   0   3   1   25.22    2.69
   0  -3  -2  197.67    6.18
   0  -3  -3 3548.21   28.06
   0  -3  -4    4.31    1.89
   0  -3  -5   42.73    4.18
   0  -3  -6   52.95    5.05
   0   3   6   56.77    5.49
   0  -3  -6   50.56    5.08
   0  -3  -7    6.37    2.64
   0   3   7    9.92    3.05
   0  -3  -7    7.57    2.53
   0  -3  -8   55.92    3.85
   0   3   8   48.36    5.96
   0  -3  -8   44.50    5.40
   0  -3  -9  110.50    8.63
   0   3   9  106.31    9.17
   0  -3  -9  116.95    5.12
   0  -3 -10    1.20    2.30
   0   3  10    0.73    2.32
   0  -3 -11  153.65   11.36
   0   3  11  148.40   11.81
   0  -3 -12   50.62    7.16
   0  -3 -13   61.09    7.94
   0  -4   9   15.94    4.61
   0  -4   8   25.00    5.24
   0  -4   7    4.25    3.04
   0   4  -7    3.11    2.20
   0   4  -6  114.13    7.85
   0  -4   6   93.56    8.40
   0   4  -6   97.56    7.12
   0   4  -5    7.83    2.63
   0  -4   5    5.76    2.08
   0   4  -5    7.16    2.33
   0  -4   5    4.13    2.45
   0  -4   4   38.95    4.85
   0   4  -4   35.19    4.35
   0  -4   4   41.77    4.57
   0   4  -4   38.32    3.95
   0  -4   3 1817.69   28.28
   0   4  -3 1784.22   26.99
   0   4  -3 1851.14   24.13
   0  -4   3 1847.40   27.63
   0   4  -2  793.09   17.32
   0   4  -2  806.35   14.66
   0  -4   1   87.86    4.82
   0   4  -1   83.94    4.51
   0   4  -1   90.71    5.79
   0  -4   0   16.09    2.22
   0   4   0   24.39    3.09
   0   4   0   24.07    2.42
   0   4   1  504.24   10.39
   0  -4  -1  512.84   10.77
   0   4   1  517.32   12.23
   0  -4  -2  408.30    9.75
   0   4   2  403.41    9.83
   0  -4  -3  281.46    8.63
   0  -4  -3  289.04    8.44
   0  -4  -4   24.59    2.60
   0  -4  -4   20.66    2.87
   0  -4  -5  536.19   13.85
   0  -4  -6   72.66    5.91
   0  -4  -6   59.92    5.37
   0  -4  -7  508.74   16.43
   0  -4  -7  501.75   16.82
   0  -4  -8   73.50    6.89
   0  -4  -9   27.48    4.72
   0  -4 -10  547.78   20.58
   0  -4 -10  592.76   12.02
   0  -4 -11   42.53    6.20
   0  -4 -12    4.66    3.26
   0  -4 -13   55.33    7.45
   0  -5   8    2.89    2.87
   0  -5   7   18.11    4.70
   0  -5   6    7.12    3.21
   0   5  -6    5.30    2.25
   0  -5   5  350.25   15.62
   0   5  -5  347.00   14.00
   0   5  -5  341.66   12.85
   0   5  -4  247.64   10.16
   0  -5   4  238.66   11.99
   0   5  -4  243.88   11.48
   0  -5   3   10.25    2.67
   0   5  -3   13.83    2.42
   0   5  -3   14.48    3.54
   0  -5   3   21.27    3.70
   0   5  -2   18.89    2.57
   0  -5   2   14.99    2.94
   0   5  -2   14.71    3.23
   0  -5   1  193.79    7.85
   0   5  -1  199.81    9.43
   0   5  -1  193.21    7.54
   0  -5   1  181.12    8.74
   0  -5   0 1156.85   18.33
   0   5   0 1134.06   17.54
   0   5   0 1146.14   21.49
   0  -5  -1  759.58   14.67
   0   5   1  766.91   16.88
   0   5   1  752.83   14.35
   0   5   2   34.74    3.31
   0  -5  -2   37.71    3.59
   0   5   3  217.91    8.24
   0  -5  -3  214.19    8.16
   0  -5  -3  229.74    8.61
   0  -5  -4  138.49    6.63
   0  -5  -4  128.58    6.79
   0  -5  -5 1470.12   20.63
   0  -5  -5 1400.42   23.38
   0  -5  -6   92.55    5.20
   0  -5  -6   96.59    6.82
   0  -5  -6  103.85    7.12
   0  -5  -7  376.75   13.99
   0  -5  -7  372.83   10.07
   0  -5  -8 1131.62   17.31
   0  -5  -8 1148.99   25.98
   0  -5  -9    6.89    2.93
   0  -5  -9    6.42    1.50
   0  -5 -10   13.18    3.71
   0  -5 -11  133.56   10.72
   0  -5 -12    2.02    2.45
   0  -5 -13    4.19    2.75
   0  -6   7    3.99    3.18
   0  -6   6  218.78   13.95
   0  -6   5   78.63    8.07
   0   6  -5   76.14    7.38
   0   6  -4    9.02    3.13
   0  -6   4    6.61    2.88
   0   6  -3  112.32    6.96
   0   6  -3  107.86    8.24
   0  -6   3  111.04    8.29
   0   6  -2  134.60    7.20
   0   6  -2  193.32   10.71
   0   6  -1  504.99   16.55
   0   6  -1  528.73   13.53
   0  -6   1  492.55   13.68
   0   6   0   31.50    4.54
   0   6   0   28.14    3.20
   0  -6   0   29.99    3.97
   0  -6   0   30.54    3.50
   0   6   1   28.98    3.26
   0  -6  -1   36.33    3.84
   0   6   2  900.98   17.72
   0  -6  -2  925.03   17.93
   0  -6  -3 1772.94   25.49
   0   6   3 1732.87   25.05
   0  -6  -3 1706.25   26.04
   0   6   4  106.22    6.75
   0  -6  -4   97.86    6.31
   0  -6  -4  104.54    6.45
   0   6   5  132.80    7.73
   0  -6  -5  126.33    6.92
   0  -6  -5  120.98    7.43
   0  -6  -6  278.77    9.94
   0  -6  -6  272.49   11.55
   0  -6  -7   91.25    7.32
   0  -6  -7   88.42    5.66
   0  -6  -8  144.08    6.98
   0  -6  -8  161.81   10.21
   0  -6  -9    4.15    1.50
   0  -6  -9    5.82    2.69
   0  -6 -10  117.74    9.80
   0  -6 -11   29.79    5.50
   0  -6 -12   58.92    7.79
   0  -7   6   14.93    4.73
   0  -7   5    9.53    3.74
   0  -7   4  125.14   10.00
   0  -7   3   85.26    7.94
   0   7  -2  185.78    8.98
   0  -7   1    1.38    1.57
   0   7  -1    2.32    1.50
   0  -7   0  734.05   17.58
   0   7   0  570.98   14.98
   0   7   1  476.47   13.71
   0  -7  -1  487.24   14.24
   0  -7  -2    0.59    1.86
   0   7   2    1.72    1.51
   0   7   3    9.69    2.29
   0  -7  -3   11.76    2.87
   0  -7  -4  301.17   11.91
   0  -7  -4  310.13   11.89
   0   7   4  313.35   12.01
   0  -7  -5  458.23   14.75
   0  -7  -5  501.53   14.92
   0  -7  -6  718.03   19.38
   0  -7  -6  760.37   18.07
   0  -7  -7    2.68    1.70
   0  -7  -7    1.49    1.90
   0  -7  -8  337.16   11.65
   0  -7  -8  328.01   14.83
   0  -7  -9   24.39    4.52
   0  -7  -9   23.25    3.18
   0  -7 -10  285.97   15.55
   0  -7 -11    0.18    2.50
   0  -7 -12   46.66    7.19
   0  -8   5    6.99    3.46
   0  -8   4   96.77    9.46
   0  -8   3    7.07    3.16
   0  -8   2   11.20    3.60
   0  -8   1  112.52    7.80
   0  -8   0  108.95    7.48
   0  -8  -1  145.94    8.53
   0  -8  -2  683.37   18.36
   0  -8  -3  358.82   13.40
   0  -8  -4  831.85   20.96
   0  -8  -5    9.47    2.65
   0  -8  -6   26.44    4.15
   0  -8  -7   73.60    7.01
   0  -8  -8  629.56   20.87
   0  -8  -9   35.28    5.53
   0  -8 -10  139.91   11.10
   0  -8 -11   58.07    7.69
   0  -8 -12    1.11    2.11
   0  -9   4   34.04    6.20
   0  -9   3   87.73    9.09
   0  -9   2   51.57    6.86
   0  -9   1  163.70    9.94
   0  -9   0  145.33    9.31
   0  -9  -1    1.46    1.80
   0  -9  -2  317.97   13.54
   0  -9  -3  197.77   10.90
   0  -9  -4   22.96    4.05
   0  -9  -5  277.45   13.32
   0  -9  -6  376.52   15.65
   0  -9  -7   43.18    5.71
   0  -9  -8   30.45    4.99
   0  -9  -9   26.57    5.11
   0  -9 -10   14.00    4.00
   0  -9 -11   42.69    6.81
   0 -10   2    7.77    3.48
   0 -10   0   49.02    5.97
   0 -10  -1  235.61   12.35
   0 -10  -2    1.09    1.93
   0 -10  -3   35.52    5.16
   0 -10  -4   84.60    7.81
   0 -10  -5    4.65    2.74
   0 -10  -6  104.32    9.03
   0 -10  -7  262.62   14.41
   0 -10  -8   26.70    5.05
   0 -10  -9  252.33   15.02
   0 -10 -10   91.13    9.61
   0 -11   1   72.99    8.58
   0 -11  -1   63.69    7.02
   0 -11  -2   49.22    6.25
   0 -11  -3   14.26    3.65
   0 -11  -4  264.79   14.48
   0 -11  -5  237.97   13.81
   0 -11  -6    1.47    2.06
   0 -11  -7  175.89   12.48
   0 -11  -8   76.82    8.56
   0 -11  -9    0.24    2.85
   0 -12  -2   98.12    9.07
   0 -12  -3    0.79    1.95
   0 -12  -4   27.86    5.32
   0 -12  -5   56.21    7.28
   0 -12  -6   92.03    9.32
   0 -12  -7   10.26    3.70
   1 -12  -7   53.26    7.33
   1 -12  -6   69.34    7.91
   1 -12  -5   32.20    5.53
   1 -12  -4   49.42    6.55
   1 -12  -3   -0.64    2.18
   1 -11  -9    3.45    2.96
   1 -11  -8    5.58    3.00
   1 -11  -7    6.10    2.84
   1 -11  -6   31.37    5.35
   1 -11  -5   13.29    3.73
   1 -11  -4   59.62    6.89
   1 -11  -3   91.53    8.17
   1 -11  -2   99.57    8.26
   1 -10 -10  112.00   10.69
   1 -10  -9    1.25    2.15
   1 -10  -8  268.17   15.16
   1 -10  -7    3.46    2.09
   1 -10  -6  120.23    9.56
   1 -10  -5  212.82   12.32
   1 -10  -4   -0.33    1.98
   1 -10  -3   33.82    4.90
   1 -10  -2  136.32    9.12
   1 -10  -1  214.43   11.18
   1 -10   0  133.37    8.81
   1 -10   2   13.10    3.59
   1  -9 -11  112.24   11.09
   1  -9 -10   42.09    6.68
   1  -9  -9    3.78    3.08
   1  -9  -8    0.07    2.09
   1  -9  -7  187.92   11.66
   1  -9  -6   52.17    6.06
   1  -9  -5  145.58    9.58
   1  -9  -4  105.92    8.07
   1  -9  -3    8.29    2.62
   1  -9  -2   12.13    2.92
   1  -9  -1   37.77    4.54
   1  -9   0   10.15    2.54
   1  -9   1    5.72    2.29
   1  -9   2   64.13    7.33
   1  -9   3  192.62   12.61
   1  -8 -11  159.49   12.86
   1  -8 -10   27.08    5.50
   1  -8  -9  218.01   13.60
   1  -8  -8   37.61    5.67
   1  -8  -7   53.65    6.16
   1  -8  -6    4.09    2.15
   1  -8  -5  157.91    9.36
   1  -8  -4   41.78    4.89
   1  -8  -3  713.51   18.75
   1  -8  -2  118.50    7.47
  -1   8   2  110.78    7.13
  -1   8   1   35.87    5.44
   1  -8  -1   32.12    3.91
  -1   8   1   32.70    3.82
  -1   8   0  158.91    8.13
   1  -8   0  165.18    8.45
  -1   8   0  160.14   11.40
   1  -8   1  194.12    9.34
  -1   8  -1  190.65   12.80
  -1   8  -2    6.54    3.10
   1  -8   2    3.11    2.09
  -1   8  -3  206.32   13.96
   1  -8   3  230.51   12.95
  -1   8  -4  344.65   18.35
   1  -8   4  369.43   17.00
   1  -7 -12    1.43    2.86
   1  -7 -11  112.43   10.65
   1  -7 -10   32.61    5.65
   1  -7  -9   35.97    5.59
   1  -7  -8  115.19    9.17
   1  -7  -8  113.49    6.71
   1  -7  -7  227.18   12.10
   1  -7  -7  211.61    9.32
   1  -7  -6  124.81    7.42
   1  -7  -6  131.22    8.71
   1  -7  -5  772.04   19.65
   1  -7  -5  798.15   18.86
   1  -7  -4   24.78    3.66
   1  -7  -4   24.62    3.81
  -1   7   4   28.16    3.77
  -1   7   3    4.27    1.67
   1  -7  -3    2.11    1.96
   1  -7  -2  236.02    9.71
  -1   7   2  227.94   11.35
  -1   7   2  227.40    9.41
   1  -7  -1   14.15    2.71
  -1   7   1   17.33    2.65
  -1   7   1   16.61    4.17
  -1   7   0    4.72    1.61
   1  -7   0    5.93    1.99
  -1   7   0    7.64    3.31
   1  -7   1  402.72   12.34
  -1   7  -1  428.68   12.18
  -1   7  -1  414.32   17.11
  -1   7  -2  229.58   13.23
  -1   7  -2  237.11    9.11
   1  -7   3  290.94   13.54
  -1   7  -3  279.79   15.04
  -1   7  -4   98.29    9.30
   1  -7   4  106.33    8.70
  -1   7  -5    7.17    3.45
   1  -7   5   18.16    4.18
  -1   7  -6   -1.27    2.60
   1  -6 -12   40.17    6.64
   1  -6 -11  147.86   11.96
   1  -6 -10   45.03    6.50
   1  -6  -9   49.32    3.75
   1  -6  -9   46.87    6.32
   1  -6  -8  812.57   15.68
   1  -6  -8  752.50   22.60
   1  -6  -7    3.50    2.35
   1  -6  -7    3.63    1.59
   1  -6  -6  135.36    8.49
   1  -6  -6  123.06    6.57
   1  -6  -5  286.39   12.06
   1  -6  -5  267.49   11.15
   1  -6  -5  275.20   10.08
   1  -6  -4  209.27    9.27
   1  -6  -4  226.56    9.36
   1  -6  -3   71.06    5.52
  -1   6   3   77.08    5.37
   1  -6  -3   74.08    5.33
  -1   6   3   88.39    6.29
  -1   6   2   16.89    3.29
   1  -6  -2   12.28    2.71
  -1   6   2   14.29    2.38
   1  -6  -2   14.07    2.54
   1  -6  -1  148.47    6.83
  -1   6   1  152.88    8.86
   1  -6  -1  159.00    8.68
  -1   6   1  136.00    6.39
  -1   6   0   33.04    3.18
   1  -6   0   35.52    3.51
  -1   6   0   35.85    4.95
   1  -6   1    2.35    1.37
  -1   6  -1    3.28    1.38
  -1   6  -2  852.04   15.66
  -1   6  -2  859.61   23.34
   1  -6   3  145.18    8.83
  -1   6  -3  141.34    6.64
  -1   6  -3  149.74   10.24
   1  -6   4   -0.94    2.02
  -1   6  -4    3.35    2.79
   1  -6   5   82.47    7.64
  -1   6  -5   79.60    7.95
  -1   6  -6   74.54    7.89
   1  -6   6   77.72    7.83
  -1   6  -7    8.54    3.44
   1  -5 -12   13.15    4.26
   1  -5 -11   84.59    9.21
   1  -5 -10  666.87   24.28
   1  -5  -9  147.59    5.18
   1  -5  -9  140.18   10.65
   1  -5  -8  467.59   18.20
   1  -5  -8  464.86   10.13
   1  -5  -7  133.71    5.83
   1  -5  -7  141.15    9.46
   1  -5  -6  102.00    5.23
   1  -5  -6  110.16    7.71
   1  -5  -6  110.86    7.78
   1  -5  -5  110.74    5.65
   1  -5  -5  100.74    6.60
   1  -5  -4   95.63    6.00
   1  -5  -4  102.93    5.65
   1  -5  -3  146.96    7.01
   1  -5  -3  135.21    6.64
  -1   5   3  145.94    7.05
  -1   5   3  139.72    6.69
   1  -5  -2  285.99   10.05
  -1   5   2  268.17    9.87
   1  -5  -2  282.52    8.81
  -1   5   2  281.89    9.02
  -1   5   1  143.81    5.88
  -1   5   1  148.91    7.93
   1  -5  -1  142.54    6.12
   1  -5   0 2332.89   23.82
  -1   5   0 2330.78   22.95
  -1   5   0 2375.97   32.43
  -1   5  -1   73.96    4.09
   1  -5   1   73.45    4.29
  -1   5  -1   76.24    6.36
   1  -5   1   72.21    5.98
  -1   5  -2  114.88    5.22
   1  -5   2  121.65    8.13
  -1   5  -2  117.83    8.06
   1  -5   3   91.74    6.48
  -1   5  -3   94.46    5.05
  -1   5  -3   76.29    6.79
  -1   5  -4  100.87    5.49
  -1   5  -4  102.78    8.00
   1  -5   4  104.14    7.42
   1  -5   5   14.65    3.35
  -1   5  -5   19.32    4.12
   1  -5   6  201.08   11.80
  -1   5  -6  186.98   11.44
   1  -5   7  225.33   13.21
  -1   5  -7  222.95   12.60
  -1   5  -8  169.23   11.10
   1  -4 -12  322.43   18.10
   1  -4 -11    0.48    2.07
  -1   4  11   -2.87    3.37
  -1   4  10   23.70    5.25
   1  -4 -10   31.58    5.48
   1  -4  -9   -0.87    2.39
  -1   4   9    2.59    2.74
  -1   4   8    8.33    3.36
   1  -4  -8    6.19    2.71
   1  -4  -8    5.69    0.99
   1  -4  -7   65.23    6.44
   1  -4  -7   64.33    3.27
  -1   4   7   55.73    6.17
   1  -4  -6  681.15   18.56
   1  -4  -6  717.11   11.45
   1  -4  -5  606.71   16.12
   1  -4  -5  603.86   11.18
   1  -4  -4  195.16    8.45
   1  -4  -4  193.27    6.63
   1  -4  -3  158.76    6.71
   1  -4  -3  157.52    6.27
  -1   4   3  167.53    6.47
  -1   4   2 1255.06   17.11
   1  -4  -2 1271.77   17.23
   1  -4  -2 1199.56   18.06
  -1   4   2 1247.65   18.40
   1  -4  -1    3.62    1.47
  -1   4   1    2.37    1.89
   1  -4   0  949.00   13.11
  -1   4   0  949.69   18.31
  -1   4   0  967.10   12.91
  -1   4  -1  333.54    7.46
   1  -4   1  330.75    7.86
  -1   4  -1  333.18   11.58
  -1   4  -2    1.27    1.78
  -1   4  -2    0.99    0.89
   1  -4   3  339.12   11.15
  -1   4  -3  335.98    8.41
   1  -4   3  330.83   12.57
  -1   4  -3  340.10   12.89
   1  -4   4   91.14    6.52
  -1   4  -4   84.62    4.78
  -1   4  -4   80.62    6.70
   1  -4   4   81.09    6.69
   1  -4   5   50.43    5.31
  -1   4  -5   55.64    4.26
  -1   4  -5   48.71    5.35
  -1   4  -6   61.38    6.30
  -1   4  -6   63.49    4.95
   1  -4   6   59.25    6.18
   1  -4   7  491.02   18.34
  -1   4  -7  472.97   16.88
   1  -4   8  155.60   10.84
  -1   4  -8  143.80    9.57
   1  -3 -12  163.36   12.81
  -1   3  12  167.52   13.88
  -1   3  11    1.76    2.69
   1  -3 -11    2.44    2.39
  -1   3  10   -1.97    3.11
   1  -3 -10   -0.83    2.39
  -1   3   9  139.44   11.01
  -1   3   8  845.69   24.92
   1  -3  -7  131.76    3.17
  -1   3   7  140.59    9.68
   1  -3  -6   13.19    3.05
   1  -3  -6   14.40    1.33
  -1   3   6   16.37    3.66
  -1   3   5  669.82   17.56
   1  -3  -5  670.48    9.23
   1  -3  -4   19.76    1.90
  -1   3   4   20.70    3.12
   1  -3  -3   57.75    4.17
   1  -3  -3   57.46    3.23
  -1   3   3   66.14    3.43
   1  -3  -2  891.53   13.23
  -1   3   2  922.52   13.27
   1  -3  -2  926.88   13.84
   1  -3  -1  206.35    5.73
  -1   3   1  199.06    6.90
  -1   3   1  195.61    5.58
   1  -3   0  240.27    5.66
  -1   3   0  231.38    8.03
  -1   3   0  223.95    5.28
  -1   3  -1  695.15    8.94
  -1   3  -1  703.61   14.87
   1  -3   1  699.11    9.36
  -1   3  -2   93.23    6.02
  -1   3  -2   96.62    3.62
   1  -3   3   74.67    4.82
  -1   3  -3   79.72    3.81
  -1   3  -3   77.58    5.84
   1  -3   4  116.78    6.68
  -1   3  -4  122.39    5.42
   1  -3   4  125.51    7.74
  -1   3  -4  138.04    7.87
  -1   3  -5 1486.28   26.27
   1  -3   5 1486.44   26.23
   1  -3   5 1533.91   28.10
  -1   3  -5 1481.98   21.42
   1  -3   6  239.34   11.59
  -1   3  -6  242.34   10.98
  -1   3  -6  260.25   10.04
   1  -3   6  254.61   12.04
  -1   3  -7   10.39    2.68
   1  -3   7   11.34    3.11
  -1   3  -8   15.44    3.31
   1  -3   8   10.62    3.24
   1  -3   9   28.39    4.80
  -1   2  12   13.98    4.54
   1  -2 -12   15.23    4.74
  -1   2  11  140.12   12.12
  -1   2  10  176.16   13.08
  -1   2   9   17.12    4.57
  -1   2   8  579.51   20.98
  -1   2   7  453.58   17.66
   1  -2  -6   77.35    7.03
  -1   2   6   76.93    6.98
  -1   2   5   28.61    4.25
   1  -2  -4   34.79    1.64
  -1   2   4   36.87    4.21
   1  -2  -3   62.82    2.58
  -1   2   3   67.60    4.67
   1  -2  -2    3.19    1.19
  -1   2   2    0.88    0.99
  -1   2   1 1163.74   13.32
   1  -2  -1 1214.56   12.65
  -1   2   0 1144.27    9.71
   1  -2   0 1186.11    9.69
  -1   2   0 1154.99   15.17
   1  -2   1  100.00    2.68
  -1   2  -1   90.84    4.96
  -1   2  -1   92.96    2.44
  -1   2  -2  292.93    9.43
   1  -2   2  297.45    7.10
  -1   2  -2  299.42    5.34
   1  -2   3 1622.52   20.03
  -1   2  -3 1726.36   23.86
   1  -2   3 1702.50   24.46
  -1   2  -3 1691.89   16.27
  -1   2  -4  111.36    5.18
   1  -2   4   92.31    6.25
  -1   2  -4  111.16    6.52
   1  -2   4  102.57    5.97
  -1   2  -5  193.80    8.89
  -1   2  -5  192.78    7.79
   1  -2   5  203.33    9.38
   1  -2   6    3.17    2.18
  -1   2  -6    5.00    2.22
   1  -2   6    2.56    1.92
  -1   2  -7   73.38    5.88
  -1   2  -7   75.57    6.01
   1  -2   7   76.52    6.82
   1  -2   8  270.13   13.34
  -1   2  -8  278.23   11.42
  -1   2  -9   10.89    2.58
   1  -2   9   15.82    3.82
   1  -2  10   68.98    7.46
  -1   1  12   23.92    5.61
  -1   1  11   49.72    7.49
  -1   1  10  334.13   17.88
  -1   1   9  182.59   12.61
  -1   1   8   27.10    4.91
  -1   1   7  368.26   15.99
   1  -1  -6  123.61    8.90
  -1   1   6  119.25    8.73
   1  -1  -5  128.08    8.35
  -1   1   5  116.47    7.96
  -1   1   4  116.86    7.36
  -1   1   3 2689.35   30.40
  -1   1   2  924.34   15.03
   1  -1  -1   37.01    2.22
  -1   1   1   40.04    2.58
  -1   1   0   24.05    2.22
  -1   1  -1  263.48    7.41
   1  -1   2   94.38    3.50
  -1   1  -2   86.50    4.93
   1  -1   3  610.02   11.76
  -1   1  -3  594.90   11.02
  -1   1  -3  612.89   13.38
   1  -1   3  597.19   13.57
  -1   1  -4  209.67    7.98
  -1   1  -4  232.02    8.90
   1  -1   4  241.26    9.32
   1  -1   4  237.36    8.64
  -1   1  -5    5.90    1.89
  -1   1  -5    4.72    1.90
   1  -1   5    5.95    2.13
  -1   1  -6  708.96   18.45
   1  -1   6  703.47   18.05
  -1   1  -6  682.69   16.17
  -1   1  -7  289.29   10.71
   1  -1   7  291.54   12.64
   1  -1   8    4.16    2.20
  -1   1  -8    8.32    2.25
  -1   1  -9   54.56    4.88
   1  -1   9   65.41    6.88
  -1   1 -10  665.41   19.94
   1  -1  10  645.69   22.06
   1  -1  11   86.82    8.44
  -1   0  11    2.10    2.49
  -1   0  10   51.28    7.27
  -1   0   9  698.10   24.90
  -1   0   8  131.78   10.45
  -1   0   7    2.74    2.38
   1   0  -6    9.00    2.87
  -1   0   6   14.28    3.70
  -1   0   5 1758.96   31.04
   1   0  -5 1741.81   31.08
  -1   0   4    0.66    2.21
   1   0  -4    1.38    1.91
  -1   0   3  883.30   18.19
  -1   0   2  292.21    9.07
  -1   0   1  208.15    6.10
  -1   0  -2   47.23    3.48
  -1   0  -2   42.10    1.82
   1   0   2   43.54    2.08
  -1   0  -2   46.55    2.39
   1   0   3  151.27    5.36
  -1   0  -3  148.86    6.26
  -1   0  -3  150.86    5.71
   1   0   4  579.59   12.66
  -1   0  -4  604.09   13.56
  -1   0  -4  602.44   13.38
  -1   0  -5 1976.86   27.61
  -1   0  -5 1941.57   25.12
   1   0   5 1980.67   26.63
  -1   0  -6  346.67   11.04
  -1   0  -6  369.23   13.30
   1   0   6  345.64   12.43
   1   0   7  511.33   16.29
  -1   0  -7  478.39   13.33
  -1   0  -7  488.19   16.66
  -1   0  -8  845.77   23.22
   1   0   8  829.50   22.28
  -1   0  -8  844.90   17.87
  -1   0  -9   38.97    3.97
   1   0   9   38.26    5.22
   1   0  10    8.82    3.19
  -1   0 -10   12.24    3.22
  -1   0 -11   52.23    6.05
   1   0  11   40.55    5.93
  -1  -1  11  234.12   15.87
  -1  -1  10  108.92   10.61
  -1  -1   9   17.74    4.46
  -1  -1   8   31.54    5.42
  -1  -1   7  167.53   11.36
  -1  -1   6   -0.13    2.45
   1   1  -6   -1.80    2.45
  -1  -1   5  880.83   22.41
   1   1  -5  877.34   22.33
  -1  -1   5  893.55   13.98
   1   1  -5  863.06   11.82
   1   1  -4  203.74    9.95
   1   1  -4  205.24    5.43
  -1  -1   4  196.90    9.78
  -1  -1   4  203.54    5.98
  -1  -1   3   41.62    4.22
  -1  -1   3   41.73    2.47
   1   1  -3   41.58    4.27
  -1  -1   2  638.11   13.36
  -1  -1   2  662.81    8.41
  -1  -1   1  319.50    7.83
  -1  -1   0  232.58    5.27
  -1  -1  -1  207.05    4.40
  -1  -1  -2  877.42    9.46
  -1  -1  -3 2691.63   19.28
  -1  -1  -3 2584.79   20.90
   1   1   4  302.77    8.45
  -1  -1  -4  303.09    8.99
  -1  -1  -4  320.18    8.15
   1   1   5  702.54   15.13
  -1  -1  -5  705.23   16.19
  -1  -1  -5  718.01   14.74
  -1  -1  -5  730.39   14.09
  -1  -1  -6  199.33    8.27
  -1  -1  -6  221.70   10.30
   1   1   6  211.52    9.33
  -1  -1  -6  195.14    8.16
  -1  -1  -7   69.68    6.45
  -1  -1  -7   71.09    5.55
  -1  -1  -7   64.48    4.95
   1   1   7   64.37    5.78
  -1  -1  -8   19.49    2.96
   1   1   8   15.94    3.69
  -1  -1  -8   18.47    3.47
  -1  -1  -8   20.63    4.06
   1   1   9    0.19    2.21
  -1  -1  -9    0.86    1.38
  -1  -1  -9    0.67    1.89
  -1  -1 -10   27.20    4.47
  -1  -1 -10   26.25    3.17
   1   1  10   25.96    4.78
  -1  -1 -11  355.57   15.86
   1   1  11  315.16   16.13
   1   1  12   20.08    4.67
  -1  -1 -12   22.61    4.57
  -1  -2  10    1.16    2.96
  -1  -2   9   34.21    6.12
  -1  -2   8   31.98    5.80
  -1  -2   7   14.02    3.98
  -1  -2   7    3.66    1.44
  -1  -2   6    4.14    1.65
  -1  -2   6    0.53    2.39
  -1  -2   5  116.15    5.81
  -1  -2   5  124.74    8.76
   1   2  -5  113.82    7.85
   1   2  -4 1378.14   24.50
   1   2  -4 1335.24   17.26
  -1  -2   4 1326.41   25.64
  -1  -2   4 1349.21   18.22
   1   2  -3  524.02   13.69
  -1  -2   3  538.29   14.68
  -1  -2   3  518.18   10.36
  -1  -2   2    7.68    1.40
   1   2  -2    6.27    1.70
  -1  -2   2    7.50    2.19
   1   2  -1  378.46    8.96
  -1  -2   1  369.34    8.93
  -1  -2   1  371.65    7.90
  -1  -2   0 1464.48   15.77
  -1  -2  -1  884.50   11.51
  -1  -2  -2  299.83    6.68
  -1  -2  -3   60.53    3.36
  -1  -2  -4   43.48    3.30
  -1  -2  -4   43.51    3.43
  -1  -2  -5  133.39    6.79
  -1  -2  -5  139.43    6.45
  -1  -2  -6  143.29    7.34
   1   2   6  135.86    7.44
  -1  -2  -6  134.33    7.77
  -1  -2  -7  126.29    8.38
   1   2   7  120.98    7.73
  -1  -2  -7  125.06    6.85
  -1  -2  -7  116.17    7.21
   1   2   8    4.54    2.61
  -1  -2  -8    1.41    1.63
  -1  -2  -8    1.93    1.93
  -1  -2  -8   -0.45    1.82
  -1  -2  -9  354.45   14.39
   1   2   9  354.89   15.42
  -1  -2  -9  361.77   11.63
  -1  -2 -10  758.75   16.47
   1   2  10  725.92   23.21
  -1  -2 -10  746.56   22.20
   1   2  11    6.60    2.79
  -1  -2 -11    7.77    3.15
  -1  -2 -12   54.25    6.68
  -1  -3  10    1.97    2.38
  -1  -3   9  157.28   12.87
  -1  -3   8   92.64    9.68
  -1  -3   7  219.55   13.82
  -1  -3   6 1072.37   28.48
  -1  -3   5  435.23   16.75
   1   3  -5  400.47   14.85
  -1  -3   4   39.63    4.93
   1   3  -4   40.36    4.53
  -1  -3   3    1.39    1.23
   1   3  -3    3.28    1.61
  -1  -3   3    3.17    2.16
   1   3  -2  393.95   11.17
  -1  -3   2  399.27   10.13
  -1  -3   2  412.52   12.43
  -1  -3   1   11.64    1.87
   1   3  -1   11.70    1.98
  -1  -3   1   13.41    2.35
   1   3   0 1231.25   16.59
  -1  -3   0 1278.53   16.93
  -1  -3  -1  583.93   11.06
  -1  -3  -2  479.28    9.96
  -1  -3  -3   21.48    2.45
  -1  -3  -4 1265.86   17.69
  -1  -3  -5    5.53    1.89
  -1  -3  -5    6.30    1.92
  -1  -3  -6   52.14    4.45
  -1  -3  -6   50.10    4.79
  -1  -3  -7  204.10   10.30
  -1  -3  -7  176.23    8.80
  -1  -3  -8 1949.68   31.38
  -1  -3  -8 1997.25   35.46
  -1  -3  -9  292.55   13.01
  -1  -3  -9  293.92   10.95
  -1  -3 -10  157.22   10.32
  -1  -3 -10  183.71    8.48
  -1  -3 -11   17.40    3.93
  -1  -3 -12    0.35    2.09
  -1  -3 -13   11.58    3.81
  -1  -4   9   60.88    8.50
  -1  -4   8  244.78   16.00
  -1  -4   7  203.78   14.10
  -1  -4   6   45.30    6.61
  -1  -4   5   -0.15    1.34
  -1  -4   5    0.56    2.29
   1   4  -5   -1.91    2.04
  -1  -4   4    3.04    2.22
  -1  -4   4    5.16    1.97
   1   4  -4    5.69    2.31
  -1  -4   3   25.20    4.11
   1   4  -3   22.70    3.35
  -1  -4   3   21.22    3.05
   1   4  -2  163.29    7.73
  -1  -4   2  179.15    8.99
   1   4  -1  265.93    9.19
  -1  -4   1  276.03    9.46
   1   4   0  193.47    7.29
  -1  -4   0  203.04    7.67
   1   4   1  416.24   10.46
  -1  -4  -1  429.12   10.78
  -1  -4  -2 1532.71   20.14
  -1  -4  -3  108.09    5.52
  -1  -4  -4  504.07   12.05
  -1  -4  -5  102.85    5.90
  -1  -4  -5  115.08    6.33
  -1  -4  -6 1222.02   22.52
  -1  -4  -6 1228.26   21.78
  -1  -4  -7   78.40    6.37
  -1  -4  -7   80.58    6.12
  -1  -4  -8  211.65   10.47
  -1  -4  -9   25.01    4.18
  -1  -4 -10   11.56    3.17
  -1  -4 -11    6.89    2.90
  -1  -4 -12  101.05    9.28
  -1  -4 -13    2.88    2.55
  -1  -5   8   35.02    6.52
  -1  -5   7    1.94    2.89
  -1  -5   6   23.71    5.28
  -1  -5   5   27.62    5.23
  -1  -5   4  235.25   12.73
   1   5  -4  239.60   11.37
   1   5  -3   27.76    3.87
  -1  -5   3   22.08    3.39
  -1  -5   3   31.55    4.62
  -1  -5   2  133.70    7.50
   1   5  -2  136.37    7.51
  -1  -5   2  131.32    8.38
  -1  -5   1  568.01   14.88
   1   5  -1  566.08   14.28
  -1  -5   1  587.97   15.37
  -1  -5   0 1075.42   19.36
  -1  -5   0 1112.78   20.54
   1   5   0 1102.31   19.32
   1   5   1   11.15    2.21
  -1  -5  -1    7.66    2.10
   1   5   2  337.36   10.39
  -1  -5  -2  324.81   10.25
  -1  -5  -3   10.81    2.33
  -1  -5  -4  160.38    7.40
  -1  -5  -5  343.93   11.26
  -1  -5  -6   78.32    5.95
   1   5   6   83.39    6.18
  -1  -5  -6   82.04    6.11
  -1  -5  -7   44.63    4.93
  -1  -5  -7   28.24    3.82
  -1  -5  -8    2.18    2.06
  -1  -5  -9  290.45   13.65
  -1  -5 -10  287.69   14.19
  -1  -5 -11    0.68    2.10
  -1  -5 -12    6.58    3.19
  -1  -5 -13  558.83   22.85
  -1  -6   7   39.24    7.09
  -1  -6   6  389.98   19.88
  -1  -6   5   50.95    7.21
  -1  -6   4  286.69   15.03
  -1  -6   3  430.76   17.13
   1   6  -2  407.31   13.67
  -1  -6   2  430.53   16.26
   1   6  -1   95.88    6.58
  -1  -6   1   91.84    6.67
  -1  -6   0    0.85    1.73
   1   6   0    3.53    1.72
  -1  -6   0    1.60    1.67
  -1  -6  -1   62.99    5.24
  -1  -6  -1   60.67    5.35
   1   6   1   64.69    5.07
  -1  -6  -2    5.09    2.06
   1   6   2    0.09    1.28
  -1  -6  -3  182.35    8.52
   1   6   3  194.51    8.76
  -1  -6  -3  181.29    8.83
  -1  -6  -4  720.46   17.09
  -1  -6  -4  719.06   17.32
  -1  -6  -5   92.90    6.26
   1   6   5   99.31    6.87
  -1  -6  -5   86.23    6.17
  -1  -6  -6   81.89    6.30
  -1  -6  -7  853.77   21.00
  -1  -6  -8   77.73    6.86
  -1  -6  -9   24.21    4.28
  -1  -6 -10    5.47    2.89
  -1  -6 -11  554.33   21.62
  -1  -6 -12  107.66   10.12
  -1  -6 -13    2.57    2.51
  -1  -7   6   23.29    5.59
  -1  -7   5   30.56    5.93
  -1  -7   4   76.82    8.54
  -1  -7   3   78.93    8.16
  -1  -7   2   21.25    4.09
  -1  -7   1   41.85    4.96
  -1  -7   0   22.46    3.67
   1   7   1  254.46   10.74
  -1  -7  -1  268.15   11.35
  -1  -7  -2   53.33    5.20
   1   7   2   54.01    4.99
   1   7   3    1.75    1.67
  -1  -7  -3   -0.63    1.94
  -1  -7  -4   77.53    6.18
  -1  -7  -5  833.74   20.05
  -1  -7  -6    4.34    2.37
  -1  -7  -7  148.69    9.19
  -1  -7  -8   15.80    3.55
  -1  -7  -9   41.02    5.74
  -1  -7 -10   32.55    5.32
  -1  -7 -11   49.34    6.81
  -1  -7 -12   74.47    8.69
  -1  -8   5   12.97    4.67
  -1  -8   4   31.94    5.97
  -1  -8   3    2.28    2.73
  -1  -8   2   41.02    6.13
  -1  -8   1  604.66   19.19
  -1  -8   0   85.82    7.22
  -1  -8  -1  319.52   13.32
  -1  -8  -2   35.24    4.65
  -1  -8  -3  424.48   15.17
  -1  -8  -4    7.82    2.60
  -1  -8  -5  136.78    8.91
  -1  -8  -6   47.21    5.45
  -1  -8  -7   19.16    3.75
  -1  -8  -8  381.03   15.98
  -1  -8  -9  609.53   21.08
  -1  -8 -10   19.69    4.56
  -1  -8 -11    3.03    2.41
  -1  -8 -12  126.96   11.48
  -1  -9   4   14.85    4.53
  -1  -9   3  320.94   17.85
  -1  -9   2    3.41    3.25
  -1  -9   1  151.72   10.36
  -1  -9   0    5.88    2.84
  -1  -9  -1   74.73    7.15
  -1  -9  -2   46.43    5.65
  -1  -9  -3    4.99    2.60
  -1  -9  -4    4.42    2.47
  -1  -9  -5   40.51    5.30
  -1  -9  -6    6.65    2.85
  -1  -9  -7  610.04   20.52
  -1  -9  -8   -0.34    2.40
  -1  -9  -9   11.88    3.71
  -1  -9 -10  243.72   14.63
  -1  -9 -11   87.99    9.26
  -1 -10   2   38.39    6.59
  -1 -10   1   14.52    4.29
  -1 -10   0    7.17    3.07
  -1 -10  -1   79.80    7.78
  -1 -10  -2    1.60    2.17
  -1 -10  -3   63.04    6.95
  -1 -10  -4  292.69   14.70
  -1 -10  -5   -0.90    2.71
  -1 -10  -6  118.36    9.55
  -1 -10  -7    3.72    2.35
  -1 -10  -8   90.96    8.88
  -1 -10  -9   11.38    3.83
  -1 -10 -10   -0.56    1.96
  -1 -11   0    4.86    2.79
  -1 -11  -1    4.20    2.81
  -1 -11  -2  280.55   15.01
  -1 -11  -3   58.85    7.21
  -1 -11  -4  309.35   15.99
  -1 -11  -5    1.49    2.35
  -1 -11  -6   -1.11    2.61
  -1 -11  -7   36.43    5.81
  -1 -11  -8    3.41    2.68
  -1 -11  -9   11.36    3.90
  -1 -12  -2   41.08    6.47
  -1 -12  -3    9.44    3.82
  -1 -12  -4    9.27    3.62
  -1 -12  -5   52.13    7.10
  -1 -12  -6   41.60    6.39
   2 -12  -7   76.26    8.82
   2 -12  -6   38.24    6.11
   2 -12  -5   81.15    8.30
   2 -12  -4   38.91    5.72
   2 -11  -8  231.90   14.81
   2 -11  -7    6.91    3.02
   2 -11  -6   46.77    6.45
   2 -11  -5   25.43    4.81
   2 -11  -4   24.65    4.41
   2 -11  -3    3.86    2.24
   2 -10  -9    7.47    3.17
   2 -10  -8  145.63   11.49
   2 -10  -7    3.04    2.90
   2 -10  -6   19.53    4.28
   2 -10  -5   92.85    8.32
   2 -10  -4    8.55    3.06
   2 -10  -3  363.96   14.73
   2 -10  -2  179.16    9.99
  -2  10   1   61.24    8.40
   2 -10  -1   54.67    5.34
  -2  10   0   76.72    9.72
   2  -9 -10   93.40    9.90
   2  -9  -9   25.79    5.43
   2  -9  -8    1.29    2.31
   2  -9  -7  166.11   11.47
   2  -9  -6   15.48    3.54
   2  -9  -5  613.29   19.58
   2  -9  -4    3.73    2.09
  -2   9   3  237.13   13.63
   2  -9  -3  231.06   11.30
  -2   9   2   95.90    9.24
   2  -9  -2   86.72    6.62
   2  -9  -1   10.68    2.60
  -2   9   1    8.66    3.70
   2  -9   0  174.17    8.67
  -2   9   0  172.65   13.25
  -2   9  -1    6.16    3.32
   2  -9   2   11.00    2.98
  -2   9  -2   10.64    4.39
  -2   9  -3   46.60    7.74
   2  -8 -11   33.14    6.18
   2  -8 -10    4.08    3.27
   2  -8  -9  132.76   11.02
   2  -8  -8   62.61    7.33
   2  -8  -7  209.33   12.31
   2  -8  -6  261.85   13.08
   2  -8  -5  457.96   16.10
   2  -8  -4   33.47    4.41
  -2   8   3    7.95    2.91
   2  -8  -3    4.28    2.02
   2  -8  -2  151.89    8.21
  -2   8   2  147.75   10.51
  -2   8   2  134.95    7.76
  -2   8   1  173.92    8.48
   2  -8  -1  173.05    8.33
  -2   8   1  188.81   12.35
   2  -8   0  193.15    8.53
  -2   8   0  210.79   13.57
  -2   8   0  215.05    9.21
  -2   8  -1   53.34    7.39
   2  -8   1   54.56    4.54
  -2   8  -2  329.41   17.97
   2  -8   3   77.54    7.03
  -2   8  -3   87.39    9.72
  -2   8  -4   55.53    8.13
  -2   8  -5   41.01    7.08
   2  -7 -11  179.69   13.76
   2  -7 -10  118.52   10.90
   2  -7  -9    1.50    2.10
   2  -7  -8  724.75   23.53
   2  -7  -8  751.85   17.25
   2  -7  -7  344.83   12.10
   2  -7  -7  301.89   14.40
   2  -7  -6    8.04    2.94
   2  -7  -6    6.84    2.13
   2  -7  -5    0.39    1.67
   2  -7  -5    2.07    1.64
   2  -7  -4   11.10    2.81
  -2   7   4   18.74    3.59
  -2   7   3   49.44    5.49
   2  -7  -3   50.24    4.75
   2  -7  -2  753.69   16.98
  -2   7   2  731.08   20.76
   2  -7  -1   12.41    2.34
  -2   7   1   11.49    2.24
   2  -7   0  807.31   15.91
  -2   7   0  870.90   16.81
  -2   7   0  840.52   24.71
  -2   7  -1   23.50    4.72
  -2   7  -1   20.46    2.62
   2  -7   1   18.04    2.54
  -2   7  -2  188.96   12.63
  -2   7  -3    5.87    3.08
   2  -7   3    9.13    2.69
  -2   7  -4   10.59    3.79
   2  -7   4   12.22    2.82
  -2   7  -5   55.22    7.63
  -2   7  -6   52.83    7.59
   2  -6 -11   -2.85    2.98
   2  -6 -10  390.18   19.62
   2  -6  -9   49.71    6.92
   2  -6  -8    0.33    2.19
   2  -6  -8    1.59    1.09
   2  -6  -7   43.75    3.95
   2  -6  -7   40.89    5.64
   2  -6  -6  118.05    8.42
   2  -6  -6  119.29    6.68
   2  -6  -5   14.29    3.18
   2  -6  -5   19.18    3.45
   2  -6  -5    9.42    2.38
  -2   6   4  259.95   10.28
   2  -6  -4  254.53   10.54
   2  -6  -4  264.95   11.31
   2  -6  -4  253.20   10.38
  -2   6   3  276.59   11.01
   2  -6  -3  269.78   10.09
   2  -6  -3  280.83   11.37
  -2   6   2  396.86   14.07
   2  -6  -2  417.87   14.47
   2  -6  -2  387.41   11.21
  -2   6   1  463.52   15.95
   2  -6  -1  467.54   15.92
  -2   6   1  443.63   11.34
   2  -6  -1  453.54   11.50
  -2   6   0  330.73   14.16
   2  -6   0  313.57    9.01
  -2   6   0  312.50    9.13
  -2   6  -1    3.29    1.13
   2  -6   1    4.08    1.28
  -2   6  -1    3.51    3.10
  -2   6  -2    3.09    2.70
  -2   6  -2    3.44    1.21
  -2   6  -3  248.65   13.83
  -2   6  -3  262.69    7.46
   2  -6   3  259.10   10.83
  -2   6  -4   15.51    4.19
   2  -6   4   12.79    2.81
  -2   6  -5    7.31    3.49
   2  -6   5    6.66    2.30
  -2   6  -6  102.45    9.70
  -2   6  -7  120.93   10.52
   2  -5 -11   10.60    3.81
   2  -5 -10    1.11    2.44
   2  -5  -9   55.11    7.01
   2  -5  -8  152.15    5.42
   2  -5  -8  136.59   10.19
   2  -5  -7  219.61    7.31
   2  -5  -7  208.07   11.82
   2  -5  -6   40.79    3.51
   2  -5  -6   40.78    5.09
   2  -5  -5 1137.38   24.02
   2  -5  -5 1190.23   19.14
   2  -5  -5 1211.64   25.07
  -2   5   4   43.75    3.94
   2  -5  -4   42.15    4.44
   2  -5  -4   50.56    4.78
   2  -5  -4   48.49    4.25
   2  -5  -3 2020.94   26.08
   2  -5  -3 2004.19   27.48
   2  -5  -2  660.12   16.68
   2  -5  -2  648.18   13.59
  -2   5   2  645.78   16.06
   2  -5  -1   78.24    4.40
  -2   5   1   79.32    6.30
   2  -5  -1   77.86    6.12
   2  -5   0  207.51    6.54
  -2   5   0  217.31   10.66
  -2   5   0  212.78    6.69
   2  -5   1   -0.48    1.94
  -2   5  -1   -1.37    2.45
   2  -5   1    1.87    0.98
  -2   5  -1    0.16    0.80
  -2   5  -2  272.94    6.65
  -2   5  -2  264.18   12.92
   2  -5   3  587.10   14.61
  -2   5  -3  567.87   19.36
  -2   5  -3  593.42    9.74
  -2   5  -4   40.00    5.62
   2  -5   4   40.62    4.26
  -2   5  -4   38.95    2.64
   2  -5   5  930.06   21.19
  -2   5  -5  916.26   25.89
  -2   5  -6   14.03    3.85
   2  -5   6   15.28    3.32
  -2   5  -7    4.32    2.70
  -2   5  -8   16.33    4.15
   2  -4 -12    7.38    3.84
   2  -4 -11   70.90    8.54
  -2   4  11   84.60   10.10
   2  -4 -10   72.80    8.36
  -2   4  10   70.11    8.90
  -2   4   9  319.00   17.41
  -2   4   8   61.01    7.31
   2  -4  -7  832.55   10.57
  -2   4   7  784.46   24.07
   2  -4  -6  272.86    7.32
   2  -4  -6  282.70   13.26
  -2   4   6  277.11   13.15
   2  -4  -5 1679.49   19.82
  -2   4   5 1695.64   29.35
   2  -4  -4  561.19   15.18
   2  -4  -4  570.06   12.32
  -2   4   4  577.40   11.43
   2  -4  -3   30.98    3.51
   2  -4  -3   33.28    3.42
  -2   4   3   38.15    3.43
   2  -4  -2  996.71   16.22
   2  -4  -2 1015.99   18.66
   2  -4  -2 1069.23   17.44
  -2   4   2 1017.13   17.83
  -2   4   1  353.67   11.47
   2  -4  -1  329.47    8.22
   2  -4  -1  372.18   11.95
   2  -4   0  145.92    4.84
  -2   4   0  146.26    8.00
  -2   4  -1  819.73   19.67
   2  -4   1  874.65   10.70
  -2   4  -1  872.42   10.86
  -2   4  -2   94.01    7.18
  -2   4  -2   95.00    3.23
   2  -4   2   95.86    7.16
  -2   4  -3  946.66   22.88
   2  -4   3  947.20   16.42
  -2   4  -3  945.18   10.26
   2  -4   3  968.82   23.39
  -2   4  -4    2.14    0.78
   2  -4   4    4.89    1.71
   2  -4   5    2.88    1.55
  -2   4  -5    1.74    2.49
  -2   4  -5    2.70    0.87
  -2   4  -6    6.46    3.38
   2  -4   6   -0.44    1.35
  -2   4  -7   37.36    5.58
   2  -4   7   46.26    5.18
  -2   4  -8   68.32    7.24
  -2   3  11  176.73   14.14
  -2   3  10    3.13    3.30
  -2   3   9  179.62   13.12
  -2   3   8   16.48    4.11
  -2   3   7   54.17    6.75
   2  -3  -6    1.29    1.75
  -2   3   6    0.46    2.63
   2  -3  -5   15.78    1.68
  -2   3   5   15.17    3.36
  -2   3   4  994.86   12.09
   2  -3  -4  989.19   13.93
  -2   3   4 1012.82   21.14
  -2   3   3  394.55    8.64
   2  -3  -3  391.28    9.58
  -2   3   3  391.08   11.71
  -2   3   2  386.95    9.57
   2  -3  -2  386.00   10.20
   2  -3  -2  377.82   10.14
   2  -3  -1   42.45    3.87
   2  -3  -1   40.70    2.93
   2  -3  -1   38.07    2.84
  -2   3   1   32.71    3.48
  -2   3   0  982.69   18.67
   2  -3   0  982.98   11.01
   2  -3   1    1.73    0.54
  -2   3  -1    0.49    2.10
  -2   3  -2  986.26   21.37
  -2   3  -2  959.65    7.43
   2  -3   3   -0.24    1.97
  -2   3  -3    2.00    2.50
  -2   3  -3    0.89    0.42
   2  -3   3    1.23    1.03
  -2   3  -4   31.47    4.43
   2  -3   4   37.23    4.81
   2  -3   4   33.85    3.27
  -2   3  -4   35.51    2.03
  -2   3  -5  230.85   11.60
   2  -3   5  234.78    9.44
  -2   3  -5  246.89    6.44
   2  -3   5  216.87   11.56
   2  -3   6    5.35    1.93
  -2   3  -6    8.93    1.62
  -2   3  -6    7.90    2.91
  -2   3  -7   34.81    5.10
   2  -3   7   31.34    4.15
   2  -3   8    2.95    1.60
  -2   3  -8   13.18    3.42
  -2   3  -9   48.68    5.91
  -2   2  11   22.81    5.49
  -2   2  10   16.64    4.74
  -2   2   9  274.45   16.20
  -2   2   8  219.42   13.82
  -2   2   7  180.57   11.99
  -2   2   6  618.09   20.54
   2  -2  -6  662.50   21.20
  -2   2   5  359.66   14.68
  -2   2   4 1137.56   23.56
  -2   2   3  112.56    3.70
  -2   2   3  108.82    6.69
   2  -2  -3  107.11    4.40
   2  -2  -2 1971.77   20.91
  -2   2   2 1974.71   18.86
   2  -2  -1  720.77   12.22
  -2   2   1  733.34   11.52
  -2   2   1  747.25   13.60
   2  -2   0 2293.82   16.58
  -2   2   0 2240.13   26.46
  -2   2  -1  503.12   13.74
   2  -2   2  246.61    4.84
  -2   2  -2  254.51   10.45
  -2   2  -3 1113.97   22.75
   2  -2   3 1089.52   13.46
  -2   2  -4  616.62   17.49
  -2   2  -4  628.77    8.32
   2  -2   4  634.89   12.53
  -2   2  -5  116.19    8.00
  -2   2  -5  124.16    4.90
   2  -2   5  121.19    6.40
   2  -2   6  110.26    6.72
  -2   2  -6  113.49    5.59
  -2   2  -6  102.95    7.74
  -2   2  -7   25.83    4.17
  -2   2  -7   30.93    3.36
   2  -2   7   27.71    3.75
  -2   2  -8  701.57   20.17
  -2   2  -8  750.44   16.19
   2  -2   8  698.10   19.09
   2  -2   9    1.06    1.93
  -2   2  -9    1.42    1.59
  -2   1  11  207.18   15.44
  -2   1  10   17.24    4.94
  -2   1   9   83.39    9.29
  -2   1   8  470.48   20.27
  -2   1   7  137.90   10.69
   2  -1  -6  849.25   24.24
  -2   1   6  828.36   24.04
  -2   1   5  143.50    9.58
  -2   1   4 1545.07   28.65
  -2   1   3  643.09    6.84
  -2   1   3  643.91   16.73
  -2   1   2  229.94    8.97
  -2   1   2  233.12    5.96
  -2   1   1  710.66   12.40
  -2   1   1  714.36   13.08
  -2   1   0    3.08    1.15
  -2   1   0    2.30    2.22
   2  -1   0    2.64    1.25
   2  -1   1 1668.18    9.43
  -2   1  -1 1616.66   23.08
  -2   1  -2 1849.00   26.39
  -2   1  -3   14.48    3.09
  -2   1  -3   12.92    0.85
   2  -1   3   18.95    1.59
  -2   1  -4    5.19    1.18
   2  -1   4    5.02    1.22
  -2   1  -4    6.10    2.50
  -2   1  -4    6.67    1.01
  -2   1  -5  241.39   10.86
  -2   1  -5  228.93    8.18
   2  -1   5  245.50    8.32
  -2   1  -5  237.38    6.47
  -2   1  -6   87.41    4.67
  -2   1  -6   80.67    5.63
   2  -1   6   87.77    5.73
  -2   1  -6   88.85    6.95
   2  -1   7   16.98    3.03
  -2   1  -7   20.17    2.65
  -2   1  -7   20.16    3.74
  -2   1  -7   20.23    3.29
  -2   1  -8   59.58    5.91
  -2   1  -8   51.48    4.44
   2  -1   8   67.98    5.88
  -2   1  -8   56.57    5.67
   2  -1   9    1.03    1.77
  -2   1  -9   -0.59    1.96
  -2   1  -9    0.91    1.29
  -2   1 -10  128.21    8.50
   2  -1  10  131.21    9.05
  -2   0  10   83.57    9.70
  -2   0   9    7.86    3.91
  -2   0   8  198.99   13.47
  -2   0   7  128.65   10.36
  -2   0   6  331.02   15.62
   2   0  -5  170.34   10.49
  -2   0   5  151.76   10.16
  -2   0   4  978.36   23.29
  -2   0   3   93.92    6.84
  -2   0   2   72.89    5.43
  -2   0   1  695.33   13.40
  -2   0   0 1741.65   16.77
   2   0   1  109.29    3.35
  -2   0  -1  114.50    3.11
  -2   0  -1  108.21    3.48
  -2   0  -2  628.62    6.99
   2   0   2  624.28    6.88
  -2   0  -3  921.29   18.58
  -2   0  -3  935.84   10.93
  -2   0  -3  968.87    9.06
  -2   0  -4  613.25   11.63
  -2   0  -4  594.52    8.64
  -2   0  -4  600.46   15.78
   2   0   4  602.06    9.79
  -2   0  -5  561.59   10.06
  -2   0  -5  581.39   13.31
   2   0   5  574.05   11.71
  -2   0  -5  563.62   15.96
  -2   0  -6   44.41    4.27
  -2   0  -6   42.24    3.37
  -2   0  -6   48.93    5.01
   2   0   6   43.98    3.92
  -2   0  -7  176.07    9.51
  -2   0  -7  179.90    7.73
  -2   0  -7  184.26    9.44
   2   0   7  176.59    8.49
  -2   0  -8  510.72   14.26
  -2   0  -8  489.03   16.20
  -2   0  -8  498.96   16.53
   2   0   8  485.64   15.25
  -2   0  -9   77.17    6.02
   2   0   9   71.99    6.46
  -2   0  -9   77.89    6.62
  -2   0 -10   99.92    7.19
  -2   0 -10   93.87    7.17
   2   0  10   94.10    7.80
   2   0  11    1.50    2.11
  -2  -1  10    3.30    2.84
  -2  -1   9   49.05    7.40
  -2  -1   8    5.34    2.96
  -2  -1   7    8.22    3.51
  -2  -1   6  971.63   27.09
  -2  -1   6 1034.37   13.10
   2   1  -5   97.83    8.30
  -2  -1   5   88.69    7.95
  -2  -1   5   98.92    3.93
  -2  -1   4  726.90    9.83
   2   1  -4  725.23   20.29
  -2  -1   4  709.84   20.02
  -2  -1   3  424.01    7.42
  -2  -1   3  425.96   13.92
  -2  -1   2 1026.32   19.21
  -2  -1   1  667.27   13.52
  -2  -1   0 1018.15   14.30
  -2  -1   0 1027.41   14.17
  -2  -1  -1 1558.29   15.40
  -2  -1  -2  703.11    9.73
   2   1   2  703.59    9.73
   2   1   3   82.80    3.54
  -2  -1  -3   80.45    3.41
   2   1   4  228.56    6.60
  -2  -1  -4  211.61    5.88
  -2  -1  -4  224.91    6.71
  -2  -1  -5  313.06    8.01
  -2  -1  -5  315.83    9.66
  -2  -1  -6  828.11   14.65
  -2  -1  -6  847.40   19.81
  -2  -1  -6  869.05   18.53
  -2  -1  -7  814.18   16.30
  -2  -1  -7  839.43   20.32
  -2  -1  -7  822.97   20.24
   2   1   7  797.11   17.54
  -2  -1  -8  142.29    7.53
   2   1   8  151.25    8.48
  -2  -1  -8  151.38    9.01
   2   1   9    1.77    1.87
  -2  -1  -9    2.98    1.79
  -2  -1  -9    8.16    3.00
  -2  -1  -9    1.59    1.78
  -2  -1 -10   18.34    3.38
  -2  -1 -10   14.75    3.26
  -2  -1 -11  213.36   11.24
  -2  -2  10    5.21    3.70
  -2  -2   9   -0.05    2.30
  -2  -2   8  341.25   18.63
  -2  -2   7  155.12   12.05
  -2  -2   6  229.43   13.61
  -2  -2   6  233.78    7.90
  -2  -2   5  284.87   14.13
   2   2  -5  276.88   13.31
  -2  -2   5  311.86    8.72
  -2  -2   4  117.28    8.46
   2   2  -4  123.06    8.27
  -2  -2   4  118.54    5.07
  -2  -2   3  480.81   15.37
  -2  -2   3  476.25    9.76
   2   2  -3  496.33   14.96
  -2  -2   2  161.38    8.05
  -2  -2   2  158.17    5.60
  -2  -2   1 1032.08   18.09
  -2  -2   0  159.52    6.39
  -2  -2  -1 2391.83   22.20
  -2  -2  -2   34.73    2.82
   2   2   3  108.46    4.70
  -2  -2  -3   99.84    4.41
   2   2   4  490.17   10.64
  -2  -2  -4  455.43    9.57
  -2  -2  -5 1809.43   20.56
  -2  -2  -5 1715.18   21.84
  -2  -2  -6    5.60    1.85
  -2  -2  -6    2.86    1.51
  -2  -2  -7   52.89    4.42
  -2  -2  -7   50.94    5.08
  -2  -2  -8   25.80    3.55
  -2  -2  -8   20.96    3.67
  -2  -2  -8   26.82    4.00
  -2  -2  -9   82.06    6.43
  -2  -2  -9   91.41    7.21
  -2  -2  -9   89.07    7.98
  -2  -2 -10   22.58    3.83
  -2  -2 -10   19.56    3.55
  -2  -2 -11    3.92    2.35
  -2  -2 -12    8.29    3.02
  -2  -3   9  256.83   17.38
  -2  -3   8    0.09    2.43
  -2  -3   7   15.15    4.61
  -2  -3   6    0.73    1.05
  -2  -3   6    1.19    2.87
  -2  -3   5    0.46    0.75
  -2  -3   5   14.82    3.72
  -2  -3   4    0.87    2.03
  -2  -3   4    0.10    1.03
  -2  -3   3   14.78    3.46
  -2  -3   3   13.13    2.13
   2   3  -3   11.37    2.67
  -2  -3   2    3.65    2.30
  -2  -3   2    4.47    1.48
   2   3  -2    2.90    1.80
  -2  -3   1 3445.10   29.95
  -2  -3   1 3472.79   36.29
   2   3  -1 3430.13   34.14
  -2  -3   1 3440.08   34.48
  -2  -3   0  326.18    9.94
  -2  -3  -1  608.32   12.79
  -2  -3  -2   42.75    3.50
  -2  -3  -3 1500.62   19.16
  -2  -3  -4   48.80    3.64
  -2  -3  -5  719.76   14.06
  -2  -3  -5  696.21   14.06
  -2  -3  -6  309.10    9.94
  -2  -3  -6  315.10   10.70
  -2  -3  -7  755.73   16.84
  -2  -3  -7  755.72   18.67
  -2  -3  -8   81.58    6.16
  -2  -3  -8   78.24    6.78
  -2  -3  -9   63.49    5.88
  -2  -3 -10   49.27    5.59
  -2  -3 -10   48.55    5.61
  -2  -3 -11   80.00    6.71
  -2  -3 -11   63.37    6.69
  -2  -3 -12  139.21   10.19
  -2  -4   8    4.65    3.68
  -2  -4   7   78.83    9.54
  -2  -4   6    3.46    3.12
  -2  -4   5   43.05    6.32
  -2  -4   5   36.59    4.11
  -2  -4   4  158.46   10.63
  -2  -4   4  161.99    7.98
  -2  -4   3 1512.28   23.34
   2   4  -3 1519.37   28.16
  -2  -4   3 1495.64   30.00
  -2  -4   2   24.59    3.94
   2   4  -2   29.74    3.91
   2   4  -1  803.74   17.68
  -2  -4   1  806.93   18.05
   2   4   0   23.04    3.05
  -2  -4   0   23.01    3.18
  -2  -4  -1  514.67   12.97
  -2  -4  -2    8.69    2.06
  -2  -4  -3  686.90   14.35
  -2  -4  -4  940.66   16.95
  -2  -4  -5  357.42   10.66
  -2  -4  -6  399.79   11.88
  -2  -4  -6  408.05   12.44
  -2  -4  -7  286.73   10.92
  -2  -4  -7  279.99   11.28
  -2  -4  -8   20.89    3.49
  -2  -4  -8   21.36    3.63
  -2  -4  -9    4.32    2.63
  -2  -4 -10  493.25   17.57
  -2  -4 -11   90.09    7.53
  -2  -4 -11   82.47    7.76
  -2  -4 -12    4.22    2.54
  -2  -4 -13   58.63    7.18
  -2  -5   7    4.25    2.96
  -2  -5   6   50.24    7.55
  -2  -5   5  254.87   15.26
  -2  -5   4  618.29   22.07
  -2  -5   4  617.73   17.29
  -2  -5   3   49.89    4.81
  -2  -5   3   50.73    6.13
  -2  -5   2    1.96    2.52
  -2  -5   2    3.14    1.73
   2   5  -2    1.81    2.01
   2   5  -1  100.31    6.78
  -2  -5   1  103.16    6.62
  -2  -5   1  101.47    6.97
   2   5   0    0.94    1.31
  -2  -5   0    2.48    1.54
  -2  -5   0    0.12    1.72
  -2  -5  -1   29.22    3.64
   2   5   1   34.93    3.85
  -2  -5  -2  392.85   12.11
  -2  -5  -3   12.72    2.66
  -2  -5  -4 2746.19   31.74
  -2  -5  -5   14.78    2.75
   2   5   6   62.50    5.56
  -2  -5  -6   44.41    4.38
  -2  -5  -7   40.71    4.44
  -2  -5  -7   41.48    4.58
  -2  -5  -8  652.35   18.10
  -2  -5  -9    2.78    2.47
  -2  -5 -10    1.69    2.08
  -2  -5 -11    7.21    3.13
  -2  -5 -12   71.71    7.88
  -2  -5 -13   -0.06    2.21
  -2  -6   6  347.70   19.77
  -2  -6   5   18.55    4.84
  -2  -6   4   13.95    3.84
  -2  -6   3   30.72    5.29
  -2  -6   2  251.46   13.21
  -2  -6   1  252.54   11.72
  -2  -6   0   36.20    4.45
   2   6   0   35.15    4.32
  -2  -6  -1  278.79   11.55
  -2  -6  -1  252.77   10.89
   2   6   1  265.12   10.97
  -2  -6  -2 2524.99   34.54
  -2  -6  -2 2480.37   33.21
   2   6   2 2590.26   33.13
  -2  -6  -3   12.20    2.65
   2   6   3   13.15    2.59
   2   6   4  321.88   11.99
  -2  -6  -4  295.88   11.18
   2   6   5   20.92    3.37
  -2  -6  -5   15.06    3.09
  -2  -6  -6  116.23    7.34
  -2  -6  -7   33.59    4.35
  -2  -6  -8   61.94    5.90
  -2  -6  -9   52.25    5.93
  -2  -6 -10  149.30   10.29
  -2  -6 -11   32.07    5.27
  -2  -6 -12   84.20    8.76
  -2  -6 -13    9.15    3.55
  -2  -7   5    4.02    3.48
  -2  -7   4  237.66   15.36
  -2  -7   3   59.30    7.58
  -2  -7   2   11.87    3.73
  -2  -7   1  507.46   17.71
  -2  -7   0  770.00   20.99
  -2  -7  -1  174.52    9.72
  -2  -7  -2  191.88   10.10
  -2  -7  -3    0.64    2.14
  -2  -7  -4    2.37    2.12
  -2  -7  -5    2.63    2.20
  -2  -7  -6   22.56    3.95
  -2  -7  -7  187.82   10.25
  -2  -7  -8   12.93    3.19
  -2  -7  -9  480.15   17.69
  -2  -7 -10  112.73    9.09
  -2  -7 -11    1.86    2.18
  -2  -7 -12  155.79   11.85
  -2  -7 -13  137.98   11.71
  -2  -8   4   50.76    7.64
  -2  -8   3   69.08    8.40
  -2  -8   2   36.43    6.07
  -2  -8   1  383.16   16.42
  -2  -8   0   -0.37    1.91
  -2  -8  -1    9.86    3.09
  -2  -8  -2    2.83    1.78
  -2  -8  -3   43.43    5.29
  -2  -8  -4  632.70   19.15
  -2  -8  -5    2.29    1.99
  -2  -8  -6   87.07    7.42
  -2  -8  -7  975.26   24.59
  -2  -8  -8   41.61    5.46
  -2  -8  -9   -0.13    2.22
  -2  -8 -10  155.97   11.18
  -2  -8 -11   88.10    8.88
  -2  -8 -12   25.19    5.16
  -2  -9   3  127.01   11.78
  -2  -9   2   33.94    6.39
  -2  -9   1    5.59    2.88
  -2  -9   0    8.09    3.19
  -2  -9  -1  312.87   15.07
  -2  -9  -2  340.03   15.47
  -2  -9  -3   34.09    5.15
  -2  -9  -4  379.53   16.04
  -2  -9  -5  509.66   18.53
  -2  -9  -6   65.53    6.71
  -2  -9  -7   -0.46    2.35
  -2  -9  -8   31.81    5.17
  -2  -9  -9    5.50    2.57
  -2  -9 -10   28.59    5.31
  -2  -9 -11   -0.02    2.26
  -2 -10   1  115.09   11.19
  -2 -10   0   46.65    6.61
  -2 -10  -1   32.94    5.53
  -2 -10  -2  161.31   11.38
  -2 -10  -3   23.64    4.69
  -2 -10  -4  198.05   12.54
  -2 -10  -5   23.11    4.53
  -2 -10  -6   -0.08    1.74
  -2 -10  -7   25.63    4.71
  -2 -10  -8    0.43    1.84
  -2 -10  -9  184.18   12.82
  -2 -10 -10   10.65    3.78
  -2 -11  -1   50.41    7.01
  -2 -11  -2  171.14   12.47
  -2 -11  -3   55.70    7.20
  -2 -11  -4   45.22    6.59
  -2 -11  -5   -0.37    1.83
  -2 -11  -6   39.93    6.27
  -2 -11  -7  423.06   19.46
  -2 -11  -8   38.90    6.32
   3 -12  -6    4.08    3.24
   3 -11  -8   64.79    8.11
   3 -11  -7   -0.40    2.44
   3 -11  -6   17.27    4.47
   3 -11  -5    1.04    2.40
   3 -11  -4  142.00    9.97
   3 -10  -9    1.12    2.41
   3 -10  -8   13.74    4.21
   3 -10  -7    9.96    3.79
   3 -10  -6    1.73    2.15
   3 -10  -5  193.27   11.73
   3 -10  -4   10.40    2.96
  -3  10   3  316.18   17.71
   3 -10  -3  311.02   13.30
   3 -10  -2    9.24    2.44
  -3  10   2    8.03    3.97
  -3  10   1   16.54    5.26
   3  -9  -9   30.95    5.95
   3  -9  -8   20.75    4.83
   3  -9  -7  270.85   14.96
   3  -9  -6   10.42    3.66
   3  -9  -5  178.13   10.77
  -3   9   4   37.40    5.64
   3  -9  -4   30.75    4.41
  -3   9   3   17.39    4.38
   3  -9  -3   16.82    3.33
   3  -9  -2   32.32    4.05
  -3   9   2   27.34    5.72
  -3   9   1   41.80    7.07
   3  -9  -1   37.62    4.01
  -3   9   0  249.03   16.51
  -3   9  -1  363.70   20.45
  -3   9  -2   -2.26    3.96
   3  -8 -10    4.42    2.95
   3  -8  -9   16.96    4.54
   3  -8  -8    1.24    2.05
   3  -8  -7   34.34    5.52
   3  -8  -6   42.99    5.74
  -3   8   5  417.89   15.73
   3  -8  -5  389.50   15.60
   3  -8  -4   59.65    5.97
  -3   8   4   75.45    7.17
  -3   8   3   27.28    4.92
   3  -8  -3   17.99    3.21
  -3   8   2  269.51   14.58
   3  -8  -2  259.48   10.52
  -3   8   1   45.79    6.77
   3  -8  -1   40.22    3.95
  -3   8   0  133.45   11.40
   3  -8   0  122.06    6.27
  -3   8  -1    1.91    2.94
  -3   8  -2  174.76   13.77
   3  -8   2  157.78    8.91
  -3   8  -3   33.71    6.64
  -3   8  -4   10.17    3.93
   3  -7 -10   14.88    4.57
   3  -7  -9  168.28   12.92
   3  -7  -8    3.33    2.77
   3  -7  -7  215.96   12.94
   3  -7  -7  234.16   10.50
   3  -7  -6   46.01    5.56
   3  -7  -6   45.30    4.98
   3  -7  -5   22.50    3.91
  -3   7   5   18.94    3.44
  -3   7   4  354.32   13.82
   3  -7  -4  329.61   13.03
  -3   7   3  152.01    9.69
   3  -7  -3  141.69    8.06
   3  -7  -3  160.96    9.02
   3  -7  -2  376.00   11.86
   3  -7  -2  413.85   13.87
  -3   7   2  398.65   16.08
  -3   7   1  100.28    8.80
   3  -7  -1  101.62    5.78
   3  -7   0  450.36   11.10
  -3   7   0  482.16   19.70
  -3   7  -1    3.01    2.99
   3  -7   1    2.67    1.12
  -3   7  -2   44.16    6.66
  -3   7  -3   85.90    9.56
   3  -7   3   86.61    6.23
  -3   7  -4   62.77    8.39
  -3   7  -5  273.39   17.14
  -3   7  -6  127.51   12.07
   3  -6 -11   55.30    8.08
   3  -6 -10   58.01    7.88
   3  -6  -9   -1.03    2.88
   3  -6  -8  259.99   14.73
   3  -6  -7   34.18    5.59
   3  -6  -7   41.24    4.03
   3  -6  -6  305.68   14.43
   3  -6  -6  285.37   10.97
  -3   6   5  166.25    8.18
   3  -6  -5  162.04    9.84
   3  -6  -5  153.91    8.42
   3  -6  -4  270.18   11.46
   3  -6  -4  284.11   12.15
  -3   6   4  273.03   10.97
   3  -6  -4  286.62   11.94
  -3   6   3   52.14    5.42
   3  -6  -3   49.97    4.69
   3  -6  -3   46.11    4.76
   3  -6  -3   51.63    5.43
  -3   6   2   50.99    5.56
   3  -6  -2   45.43    4.18
   3  -6  -2   52.26    4.62
   3  -6  -1  272.85    8.76
  -3   6   1  293.54   13.52
  -3   6   0  104.77    8.87
   3  -6   0  100.15    4.81
  -3   6  -1  172.73   11.51
   3  -6   1  180.32    5.80
  -3   6  -2  142.85   10.97
  -3   6  -3  578.69   22.42
   3  -6   3  586.39   14.47
  -3   6  -4   13.72    4.04
   3  -6   4   18.63    2.83
  -3   6  -5  139.17   11.53
  -3   6  -6    3.01    3.06
  -3   6  -7   50.30    7.53
  -3   5  11    3.86    3.56
   3  -5 -11    3.06    3.06
   3  -5 -10  329.80   18.25
  -3   5  10  345.01   19.94
  -3   5   9    1.03    2.66
   3  -5  -9    3.47    3.03
  -3   5   8   87.13    9.14
   3  -5  -7   16.65    2.24
  -3   5   7   12.84    3.74
   3  -5  -6   12.76    2.26
   3  -5  -6    2.44    2.78
  -3   5   5   69.17    4.66
   3  -5  -5   55.16    5.94
   3  -5  -5   48.93    5.53
   3  -5  -5   61.81    4.95
  -3   5   4  317.10   10.48
   3  -5  -4  321.24   11.68
   3  -5  -4  313.64   12.35
   3  -5  -4  347.36   13.26
  -3   5   3  232.72    9.67
   3  -5  -3  238.28    9.98
   3  -5  -3  246.15   10.33
   3  -5  -3  231.74   10.32
  -3   5   2  423.08   14.02
   3  -5  -2  426.39   11.58
   3  -5  -2  441.36   14.80
  -3   5   1   82.40    6.83
   3  -5  -1   83.97    4.68
   3  -5  -1   85.41    5.13
   3  -5  -1   91.45    7.18
  -3   5   0  237.10   11.98
   3  -5   0  241.56    6.79
   3  -5   0  240.55   12.01
  -3   5  -1  368.43   15.49
   3  -5   1  409.69    7.52
  -3   5  -2  292.27   14.47
  -3   5  -3  590.15   20.99
   3  -5   3  584.16   12.60
   3  -5   4  211.08    8.07
  -3   5  -4  208.18   13.08
   3  -5   5   76.87    5.40
  -3   5  -5   78.14    8.37
  -3   5  -6   22.83    4.90
  -3   5  -7   60.69    7.78
  -3   5  -8  157.34   12.25
  -3   4  11    1.11    3.24
  -3   4  10    0.89    3.15
  -3   4   9  112.04   11.10
  -3   4   8  259.38   15.58
  -3   4   7   71.88    7.93
  -3   4   6  182.60   11.54
   3  -4  -6  199.41    6.72
  -3   4   5  149.61    5.75
   3  -4  -5  150.69    9.67
   3  -4  -5  155.65    6.84
  -3   4   5  149.97    9.70
   3  -4  -4    0.72    1.74
   3  -4  -4    0.66    1.45
  -3   4   4    4.18    1.43
  -3   4   4    0.97    1.98
  -3   4   3  176.34    7.66
   3  -4  -3  177.83    8.45
   3  -4  -2   97.99    5.90
   3  -4  -2   91.12    5.57
   3  -4  -2   87.21    6.30
  -3   4   2   96.19    6.27
  -3   4   1  190.51    9.40
   3  -4  -1  183.53    6.73
   3  -4  -1  189.14    7.18
   3  -4  -1  189.63    9.66
   3  -4   0 1306.56   26.05
   3  -4   0 1285.43   14.57
   3  -4   0 1280.60   16.35
  -3   4   0 1283.66   25.67
   3  -4   1  755.92    8.47
  -3   4  -1  735.83   20.73
  -3   4  -2  318.82   14.32
   3  -4   2  345.75   14.68
  -3   4  -3   21.21    4.28
   3  -4   3   17.23    1.96
  -3   4  -4   33.59    5.37
   3  -4   4   32.64    2.95
  -3   4  -5   72.90    7.62
   3  -4   5   69.35    4.64
  -3   4  -6  309.78   15.64
   3  -4   6  333.36   10.66
  -3   4  -7   26.72    5.29
  -3   4  -8  450.78   19.60
  -3   4  -9   41.87    6.35
  -3   3  11   63.35    9.11
  -3   3  10   68.43    9.13
  -3   3   9   60.73    8.31
  -3   3   8   12.11    4.07
  -3   3   7  635.36   23.25
  -3   3   6  222.70   12.99
  -3   3   5  644.66    9.26
   3  -3  -5  676.20   21.04
  -3   3   5  640.68   20.16
   3  -3  -4    6.01    1.74
   3  -3  -4    5.54    2.37
  -3   3   4    6.18    2.41
  -3   3   4    5.36    1.34
  -3   3   3  211.83    7.44
   3  -3  -3  221.05    8.57
  -3   3   3  213.26    9.56
   3  -3  -2  480.26   13.61
   3  -3  -2  481.26   13.25
  -3   3   2  490.60   12.79
  -3   3   2  462.71   12.22
   3  -3  -1  306.28   11.47
   3  -3  -1  334.96    9.58
  -3   3   1  318.46   11.52
  -3   3   0   70.48    6.03
   3  -3   0   71.32    3.47
   3  -3   0   76.49    3.89
   3  -3   1  573.09    6.61
   3  -3   1  567.70    8.38
  -3   3  -1  563.90   17.45
   3  -3   2  342.20    5.68
  -3   3  -2  331.81   14.04
   3  -3   3   15.94    3.53
  -3   3  -3   16.86    4.07
   3  -3   3   15.39    1.48
  -3   3  -4  185.60   11.27
   3  -3   4  185.97    5.82
  -3   3  -5  184.07   11.58
   3  -3   5  186.03    6.70
   3  -3   6  606.95   13.35
  -3   3  -6  600.00   20.87
  -3   3  -7   58.22    6.91
   3  -3   7   67.98    4.91
  -3   3  -8  191.62   12.24
  -3   3  -9   57.20    6.96
  -3   2  10    9.71    3.80
  -3   2   9  495.86   22.95
  -3   2   8   47.50    7.04
  -3   2   7  432.70   19.42
  -3   2   6   65.01    7.54
   3  -2  -5   33.16    4.90
  -3   2   5   27.01    5.02
  -3   2   4  267.76    5.86
  -3   2   4  255.56   12.43
  -3   2   3  164.83    9.04
  -3   2   3  156.55    5.84
  -3   2   2   44.52    3.96
   3  -2  -2   47.97    4.63
  -3   2   2   49.63    4.51
   3  -2  -1 1462.51   23.35
  -3   2   1 1494.91   19.42
   3  -2  -1 1448.71   20.94
  -3   2   1 1492.61   23.20
   3  -2   0  173.64    6.07
  -3   2   0  173.30    5.12
   3  -2   0  179.85    8.85
  -3   2   0  181.34    9.00
   3  -2   1  240.07    4.96
  -3   2  -1  232.35   10.79
  -3   2  -2  151.42    9.26
  -3   2  -3  402.96   15.23
  -3   2  -4   20.38    4.34
   3  -2   4   19.32    1.39
  -3   2  -5  977.76   25.28
   3  -2   5  941.44   12.75
  -3   2  -6  713.56    8.15
  -3   2  -6  750.16    7.56
   3  -2   6  763.51   13.65
  -3   2  -6  756.37   22.85
  -3   2  -7  345.41   15.74
  -3   2  -7  364.24    7.09
   3  -2   7  347.87   10.41
  -3   2  -8   27.84    4.84
   3  -2   8   24.74    3.13
  -3   2  -9   20.50    4.21
  -3   2 -10   42.16    5.77
  -3   1  10    8.00    3.53
  -3   1   9   47.85    7.38
  -3   1   8   45.78    7.12
  -3   1   7   59.14    7.47
  -3   1   6  521.90   20.56
   3  -1  -5  556.95   19.61
  -3   1   5  522.67   19.33
  -3   1   4   13.13    3.70
  -3   1   4   10.32    1.11
  -3   1   3  569.59   17.49
  -3   1   3  575.02   10.78
  -3   1   2  261.41    8.49
   3  -1  -2  258.84   10.29
  -3   1   2  256.65   10.68
   3  -1  -1 1118.38   18.34
  -3   1   1 1119.91   19.37
  -3   1   1 1098.30   19.22
  -3   1   0  399.46   12.65
   3  -1   0  411.31    8.78
  -3   1   0  407.69    9.57
  -3   1  -1   32.65    4.44
   3  -1   1   30.91    2.04
  -3   1  -1   32.37    1.90
   3  -1   2  157.33    3.23
  -3   1  -2  153.52    8.92
  -3   1  -3 1780.84   31.24
  -3   1  -4 1017.25   24.24
  -3   1  -5  282.31   13.13
  -3   1  -5  279.93    4.92
  -3   1  -6  335.28    6.68
   3  -1   6  333.40    8.44
  -3   1  -6  342.28   14.74
  -3   1  -7  224.25    6.55
   3  -1   7  214.11    7.94
  -3   1  -7  240.33   12.70
  -3   1  -8   17.47    3.74
  -3   1  -8   25.41    2.64
   3  -1   8   22.54    3.00
  -3   1  -9   36.88    5.27
   3  -1   9   38.28    4.10
  -3   1 -10   25.44    4.42
  -3   0  10   22.36    6.05
  -3   0   9   53.98    8.07
  -3   0   8  174.42   13.46
  -3   0   7   12.95    4.15
  -3   0   6   79.34    8.38
  -3   0   5   72.36    7.59
  -3   0   4  595.85    7.52
  -3   0   4  608.52   19.96
  -3   0   3  834.86   21.60
  -3   0   2  387.97   13.23
   3   0  -1   36.18    3.49
  -3   0   1   39.91    4.13
  -3   0   0  105.09    5.31
   3   0   0  100.98    4.87
   3   0   1  181.76    5.57
  -3   0  -1  193.27    5.76
   3   0   2  396.14    7.03
  -3   0  -2  401.76    6.09
  -3   0  -2  392.04    7.54
  -3   0  -3   13.86    1.44
   3   0   3   14.36    1.41
  -3   0  -3   12.10    1.03
  -3   0  -4 1165.13   25.03
  -3   0  -4 1218.68   11.75
  -3   0  -4 1154.14   12.92
  -3   0  -5  447.79   16.09
  -3   0  -5  437.81    9.78
  -3   0  -5  422.34    7.68
  -3   0  -6  185.98   10.94
  -3   0  -6  209.33    7.89
  -3   0  -6  183.15    5.70
  -3   0  -7    7.95    1.96
  -3   0  -7    8.44    3.10
  -3   0  -7    8.52    1.63
  -3   0  -8  283.53   11.19
  -3   0  -8  271.83    8.84
  -3   0  -8  263.44   13.43
  -3   0  -9   42.01    3.90
  -3   0  -9   40.91    5.56
  -3   0 -10  135.16    9.80
  -3  -1   9  376.61   20.99
  -3  -1   8  375.63   20.14
  -3  -1   7    3.06    3.36
  -3  -1   6  209.67   13.58
  -3  -1   6  208.69    4.57
  -3  -1   5   78.10    3.24
  -3  -1   5   66.71    7.44
  -3  -1   4   83.29    3.57
   3   1  -4   73.72    7.17
  -3  -1   4   82.80    7.56
  -3  -1   3    5.40    2.46
  -3  -1   2  442.25   14.12
  -3  -1   1  778.34   16.72
  -3  -1   0  142.23    6.41
   3   1   1  133.49    5.43
  -3  -1  -1  124.31    5.52
  -3  -1  -2 1394.24   16.28
   3   1   2 1360.11   15.95
  -3  -1  -3  363.15    8.00
   3   1   3  374.44    8.06
   3   1   4  986.59   13.64
  -3  -1  -4  954.66   12.88
  -3  -1  -4  946.21   12.48
  -3  -1  -5   40.43    3.17
  -3  -1  -5   40.47    2.88
  -3  -1  -6  296.20   13.25
  -3  -1  -6  298.11    9.83
  -3  -1  -6  272.64    7.72
  -3  -1  -7  270.07   10.69
  -3  -1  -7  252.29    8.24
  -3  -1  -7  268.63   13.27
  -3  -1  -8  422.97   14.41
  -3  -1  -8  430.96   11.88
  -3  -1  -8  444.63   17.27
  -3  -1  -9  443.85   15.71
  -3  -1  -9  423.68   12.87
  -3  -1  -9  422.93   17.06
  -3  -1 -10   33.59    5.05
  -3  -1 -10   32.60    3.98
  -3  -1 -11  388.55   16.55
  -3  -2   9    2.11    3.16
  -3  -2   8   -1.43    2.86
  -3  -2   7    8.12    3.48
  -3  -2   6    2.55    2.49
  -3  -2   6    2.17    0.86
  -3  -2   5   12.32    4.16
  -3  -2   5    5.46    1.27
  -3  -2   4  617.83   11.69
  -3  -2   4  606.49   20.24
  -3  -2   3  557.84   11.30
  -3  -2   3  533.60   17.66
   3   2  -3  573.44   17.55
  -3  -2   2   30.33    4.16
  -3  -2   1  153.67    7.96
  -3  -2   0  599.81   14.10
  -3  -2   0  602.05   14.14
  -3  -2  -1  120.72    5.99
  -3  -2  -2 1374.75   18.40
   3   2   2 1373.35   18.20
  -3  -2  -3  261.17    7.83
   3   2   3  253.01    7.73
  -3  -2  -4    4.88    1.50
   3   2   4    6.15    1.50
  -3  -2  -5  470.12   10.57
  -3  -2  -5  460.90   10.75
  -3  -2  -6  109.76    5.44
  -3  -2  -6  119.34    6.30
  -3  -2  -7  254.60    8.82
  -3  -2  -7  282.83   10.91
  -3  -2  -8    4.57    2.13
  -3  -2  -8    7.17    3.02
  -3  -2  -8    3.54    1.65
  -3  -2  -9  717.35   17.57
  -3  -2  -9  738.88   21.53
  -3  -2  -9  724.04   22.67
  -3  -2 -10  113.85    7.57
  -3  -2 -10  139.69   10.15
  -3  -2 -11   10.53    2.84
  -3  -2 -11   15.92    3.94
  -3  -3   8    1.35    2.70
  -3  -3   7    7.15    4.01
  -3  -3   6  150.99   12.39
  -3  -3   5    3.10    1.18
  -3  -3   5  206.70   13.35
  -3  -3   4   -0.64    0.81
  -3  -3   4  484.45   18.75
  -3  -3   3    0.90    0.78
  -3  -3   3   48.99    5.90
   3   3  -2   44.19    4.80
  -3  -3   2   44.01    5.26
  -3  -3   1    3.66    2.29
  -3  -3   0  731.67   16.68
  -3  -3  -1  142.53    6.99
  -3  -3  -2   20.87    2.76
  -3  -3  -3  246.01    8.40
   3   3   3  242.87    8.46
   3   3   4  201.74    7.82
  -3  -3  -4  598.21   12.81
  -3  -3  -5   10.25    2.08
  -3  -3  -6  447.77   11.76
  -3  -3  -6  464.82   12.52
  -3  -3  -7  589.25   14.21
  -3  -3  -7  610.22   16.04
  -3  -3  -8  325.86   11.28
  -3  -3  -8  240.60   11.24
  -3  -3  -9  109.44    7.23
  -3  -3  -9  116.16    8.67
  -3  -3 -10  109.43    7.82
  -3  -3 -10  107.93    9.18
  -3  -3 -11  214.94   11.52
  -3  -3 -11  236.32   13.42
  -3  -3 -12  114.85    8.93
  -3  -4   7  140.08   13.30
  -3  -4   6  487.01   22.77
  -3  -4   5  274.42   16.03
  -3  -4   4    2.59    1.34
  -3  -4   4    6.24    3.16
  -3  -4   3   53.48    4.55
  -3  -4   3   23.03    4.49
  -3  -4   2   28.06    3.46
  -3  -4   2   24.99    4.32
  -3  -4   1   51.41    4.55
   3   4  -1   52.68    5.18
  -3  -4   1   51.17    5.47
  -3  -4   0   12.91    2.90
  -3  -4  -1  459.23   13.46
  -3  -4  -2 1388.40   22.63
  -3  -4  -3   86.08    5.61
   3   4   4 1028.87   19.10
  -3  -4  -4  957.85   17.85
   3   4   5  545.72   14.34
  -3  -4  -5  464.37   12.68
   3   4   6  438.03   13.34
  -3  -4  -6  386.62   11.80
   3   4   7  139.97    8.06
  -3  -4  -7  133.81    7.32
  -3  -4  -7  143.80    7.79
  -3  -4  -8    1.90    1.82
  -3  -4  -8    3.68    1.93
  -3  -4  -9  208.97   10.27
  -3  -4 -10  497.87   16.81
  -3  -4 -11   20.28    4.56
  -3  -4 -11   25.54    4.21
  -3  -4 -12  220.36   12.52
  -3  -4 -13    0.02    2.00
  -3  -5   7   30.19    6.87
  -3  -5   6    0.19    2.70
  -3  -5   5   99.78   10.32
  -3  -5   4  102.80    9.79
  -3  -5   3    6.48    2.06
  -3  -5   3    2.71    2.48
  -3  -5   2   10.33    2.41
  -3  -5   2   10.72    3.42
  -3  -5   1  340.58   12.29
  -3  -5   1  346.77   14.58
   3   5   0  435.83   14.55
  -3  -5   0  447.33   14.22
  -3  -5   0  437.96   14.81
   3   5   1  231.90   10.19
  -3  -5  -1  229.70   10.38
  -3  -5  -2  110.37    7.10
  -3  -5  -3   76.84    5.78
  -3  -5  -4   18.09    2.96
   3   5   4   26.18    3.55
   3   5   5   68.60    5.56
  -3  -5  -5   58.31    5.08
   3   5   6   13.20    2.89
  -3  -5  -6    7.90    2.41
  -3  -5  -7   41.11    4.52
  -3  -5  -8  377.30   13.44
  -3  -5  -9  231.33   11.21
  -3  -5 -10    4.95    2.27
  -3  -5 -11  104.61    8.54
  -3  -5 -12  167.71   11.30
  -3  -5 -12  184.91   12.69
  -3  -5 -13   37.32    5.77
  -3  -6   6   84.29   10.57
  -3  -6   5    2.57    2.79
  -3  -6   4   34.63    6.32
  -3  -6   3   90.22    9.13
  -3  -6   2   57.14    6.85
  -3  -6   1  835.40   24.03
  -3  -6   0  243.62   11.95
  -3  -6  -1  114.70    7.90
  -3  -6  -2   28.58    4.20
  -3  -6  -3    4.89    2.18
  -3  -6  -4   10.81    2.80
  -3  -6  -5   42.26    4.61
  -3  -6  -6   66.88    5.84
  -3  -6  -7 1071.70   23.01
  -3  -6  -8  151.82    9.09
  -3  -6  -9  805.45   21.71
  -3  -6 -10   87.00    7.61
  -3  -6 -11  123.96    9.63
  -3  -6 -12   14.16    3.88
  -3  -6 -13    7.00    3.11
  -3  -7   4   -0.72    2.62
  -3  -7   3  270.01   16.33
  -3  -7   2  179.18   12.76
  -3  -7   1   64.01    7.57
  -3  -7   0   47.96    5.87
  -3  -7  -1  115.36    8.55
  -3  -7  -2   21.93    4.07
  -3  -7  -3   85.65    7.19
  -3  -7  -4    6.93    2.72
  -3  -7  -5 1005.07   23.15
  -3  -7  -6   10.13    2.87
  -3  -7  -7  750.73   20.64
  -3  -7  -8  133.00    9.01
  -3  -7  -9   43.79    5.56
  -3  -7 -10    2.46    2.11
  -3  -7 -11   21.70    4.50
  -3  -7 -12   61.85    7.45
  -3  -7 -13  128.62   11.00
  -3  -8   3   29.24    5.92
  -3  -8   2  131.79   11.66
  -3  -8   1  233.22   14.89
  -3  -8   0    7.77    3.02
  -3  -8  -1   71.70    7.36
  -3  -8  -2    3.43    2.75
  -3  -8  -3  285.54   13.73
  -3  -8  -4  191.14   11.11
  -3  -8  -5    1.01    2.05
  -3  -8  -6    0.71    1.86
  -3  -8  -7   26.68    4.43
  -3  -8  -8   10.28    3.18
  -3  -8  -9   50.53    6.17
  -3  -8 -10   25.69    4.81
  -3  -8 -11   58.31    7.27
  -3  -8 -12  318.74   17.11
  -3  -9   2   41.05    7.23
  -3  -9   1   31.68    5.99
  -3  -9   0    8.12    3.15
  -3  -9  -1    3.59    2.46
  -3  -9  -2  178.84   11.90
  -3  -9  -3  165.92   11.32
  -3  -9  -4  118.65    9.50
  -3  -9  -5   13.55    3.58
  -3  -9  -6   65.49    7.03
  -3  -9  -7   18.76    4.04
  -3  -9  -8   60.25    6.93
  -3  -9  -9    9.06    3.08
  -3  -9 -10  351.49   17.40
  -3  -9 -11   32.88    5.65
  -3 -10   0   18.67    4.54
  -3 -10  -1   27.07    5.41
  -3 -10  -2   -0.08    2.34
  -3 -10  -3    0.57    2.33
  -3 -10  -4  231.59   13.93
  -3 -10  -5    1.90    2.18
  -3 -10  -6  148.30   11.23
  -3 -10  -7   62.47    7.36
  -3 -10  -8  208.83   13.26
  -3 -10  -9   47.98    6.66
  -3 -10 -10   17.81    4.41
  -3 -11  -2  136.98   11.76
  -3 -11  -3   -1.53    2.49
  -3 -11  -4  142.93   11.68
  -3 -11  -5    1.96    2.76
  -3 -11  -6   17.08    4.39
  -3 -11  -7   92.79    9.40
   4 -11  -7  208.38   14.20
   4 -11  -6    2.21    2.73
   4 -11  -5   14.96    3.98
   4 -10  -8   34.29    6.32
   4 -10  -7   51.94    7.27
   4 -10  -6   72.76    8.01
   4 -10  -5    8.85    3.37
  -4  10   4   41.15    6.64
   4 -10  -4   37.48    5.14
  -4  10   3  211.16   14.98
  -4  10   2   95.28   10.61
   4  -9  -9  247.51   16.28
   4  -9  -8  166.18   12.77
   4  -9  -7   24.34    4.97
   4  -9  -6   26.35    4.94
   4  -9  -5  256.66   13.59
  -4   9   5  247.72   13.78
  -4   9   4   14.82    4.28
   4  -9  -4   12.81    3.38
  -4   9   3    6.15    3.52
   4  -9  -3    5.91    2.32
   4  -9  -2  405.71   13.45
  -4   9   2  419.89   20.60
  -4   9   1   41.60    7.32
  -4   9   0   61.76    8.81
  -4   9  -1   -3.47    3.91
   4  -8  -9   33.56    6.18
   4  -8  -8    2.84    2.29
   4  -8  -7  314.23   16.35
   4  -8  -6   16.56    4.24
  -4   8   6   18.35    3.77
   4  -8  -5   12.58    3.34
  -4   8   5   16.70    3.78
  -4   8   4  158.84   10.70
   4  -8  -4  140.66    9.14
  -4   8   3    0.57    2.18
   4  -8  -3    2.10    1.62
  -4   8   2    3.75    3.17
   4  -8  -2    0.65    1.10
  -4   8   1   66.28    8.18
   4  -8  -1   71.54    4.96
  -4   8   0   11.64    4.04
  -4   8  -1   51.37    7.86
  -4   8  -2  126.69   12.35
  -4   8  -3   21.23    5.99
   4  -7 -10   13.37    4.72
   4  -7  -9  256.93   16.50
   4  -7  -8    8.38    3.28
   4  -7  -7    2.15    2.27
  -4   7   6    2.88    1.92
   4  -7  -6    0.88    2.44
  -4   7   5  241.20   11.36
   4  -7  -5  233.68   12.33
  -4   7   4  658.73   19.69
   4  -7  -4  629.87   18.76
  -4   7   3  205.35   11.77
   4  -7  -3  208.50   10.02
   4  -7  -3  205.16   10.53
  -4   7   2   47.53    6.17
   4  -7  -2   49.54    4.49
   4  -7  -2   53.46    5.12
  -4   7   1   79.95    8.30
   4  -7  -1   71.77    4.85
   4  -7  -1   71.73    5.50
  -4   7   0  423.10   19.55
   4  -7   0  415.87    9.90
  -4   7  -1   16.32    4.87
  -4   7  -2    6.20    3.76
  -4   7  -3  188.78   14.53
  -4   7  -4   -1.70    3.45
  -4   7  -5  123.13   12.20
   4  -6 -10    1.23    3.08
   4  -6  -9    0.28    2.64
   4  -6  -8   45.47    6.74
   4  -6  -7  214.14   13.43
  -4   6   6 1225.78   21.61
   4  -6  -6 1214.94   24.07
  -4   6   5  137.76    7.84
   4  -6  -5  144.51    9.82
   4  -6  -5  131.40    8.53
  -4   6   4   98.86    7.16
   4  -6  -4   98.31    7.79
   4  -6  -4  111.70    8.14
  -4   6   3  104.17    7.82
   4  -6  -3   93.04    6.76
   4  -6  -3   83.45    6.62
  -4   6   2  616.46   19.64
   4  -6  -2  630.11   15.47
   4  -6  -2  642.71   16.68
  -4   6   1  106.46    8.90
   4  -6  -1  105.77    5.66
  -4   6   0   75.84    8.00
   4  -6   0   74.60    4.05
  -4   6  -1  166.70   12.11
   4  -6   1  186.69    4.88
   4  -6   1  176.56    6.80
  -4   6  -2  179.91   13.11
  -4   6  -3   42.82    6.90
  -4   6  -4    1.55    3.35
  -4   6  -5   74.24    9.27
  -4   6  -6   53.72    7.94
  -4   5  10  127.84   12.75
  -4   5   9   41.56    7.18
  -4   5   8  388.78   20.00
  -4   5   7   62.69    7.83
  -4   5   6  138.05    6.39
  -4   5   6  120.38    9.78
   4  -5  -6  131.93    7.13
  -4   5   5   88.01    5.68
   4  -5  -5   85.20    6.35
  -4   5   4  367.18   12.27
   4  -5  -4  393.81   14.05
  -4   5   3   98.26    7.00
   4  -5  -3   88.25    6.67
   4  -5  -3   94.48    7.02
   4  -5  -3   98.55    7.52
  -4   5   2   64.49    6.20
   4  -5  -2   66.52    5.34
   4  -5  -2   61.10    6.34
  -4   5   1   49.80    5.88
   4  -5  -1   43.70    3.66
   4  -5  -1   41.47    3.82
   4  -5   0    6.14    1.53
  -4   5   0    7.20    3.26
   4  -5   0   11.68    1.66
  -4   5  -1  184.54   11.98
   4  -5   1  199.05    6.54
   4  -5   1  191.60    4.51
  -4   5  -2   19.00    4.93
   4  -5   2   19.58    1.85
  -4   5  -3  278.19   15.68
   4  -5   3  277.98    6.51
   4  -5   3  270.99    6.01
  -4   5  -4    7.16    3.74
  -4   5  -5  288.77   16.80
  -4   5  -6   19.40    4.99
  -4   5  -7    7.13    4.14
  -4   5  -8   18.77    5.36
  -4   4  10   42.13    7.61
  -4   4   9  525.11   24.45
  -4   4   8  189.75   14.19
  -4   4   7   17.18    4.77
  -4   4   6  174.05    5.86
  -4   4   6  161.26   11.50
  -4   4   5   39.15    3.36
  -4   4   5   40.81    5.65
  -4   4   4   25.19    4.23
   4  -4  -4   18.13    3.72
  -4   4   4   18.39    2.89
   4  -4  -4   16.65    3.01
  -4   4   3  226.39    9.58
   4  -4  -3  231.87   11.12
  -4   4   3  212.73    9.90
   4  -4  -3  221.06   10.44
   4  -4  -2  160.71    9.52
  -4   4   2  148.77    8.61
  -4   4   1 1420.74   28.49
   4  -4  -1 1470.35   21.11
   4  -4  -1 1512.28   23.01
   4  -4  -1 1467.93   29.46
   4  -4   0    0.65    0.92
   4  -4   0    1.36    1.02
  -4   4   0    2.47    2.89
   4  -4   1  256.59    6.89
   4  -4   1  258.59    5.09
  -4   4  -1  232.54   12.93
   4  -4   2    1.46    0.56
  -4   4  -2    1.30    2.91
   4  -4   2    1.11    0.49
  -4   4  -3  690.53   23.69
  -4   4  -4  259.82   14.91
  -4   4  -5    0.20    2.84
  -4   4  -6  148.82   11.93
  -4   4  -7  119.34   10.95
  -4   4  -8   52.81    7.40
  -4   4  -9    9.99    3.96
  -4   3  10   79.55   10.05
  -4   3   9    7.97    4.08
  -4   3   8   91.63   10.18
  -4   3   7    7.89    3.95
  -4   3   6   56.15    7.26
  -4   3   5  211.13    6.32
  -4   3   5  210.45   12.64
   4  -3  -4   13.63    3.51
  -4   3   4   10.15    3.40
  -4   3   4   11.67    2.20
  -4   3   3 1351.49   21.93
   4  -3  -3 1401.89   27.92
  -4   3   3 1343.78   25.84
  -4   3   2  399.62   13.32
  -4   3   2  379.27   12.12
   4  -3  -1  236.50    9.34
  -4   3   1  220.48    7.88
  -4   3   1  231.31   11.15
  -4   3   0  214.75   11.37
   4  -3   0  201.50   11.03
   4  -3   0  216.26    7.60
   4  -3   1  359.47    6.93
   4  -3   1  361.58   15.21
   4  -3   1  355.93    7.19
  -4   3  -1  344.21   15.24
  -4   3  -2  296.26   14.70
  -4   3  -3  140.30   10.57
  -4   3  -4    2.41    2.68
  -4   3  -5  276.21   15.31
  -4   3  -6   61.46    7.63
  -4   3  -7    9.72    3.83
  -4   3  -8   33.12    5.90
  -4   3  -9   63.68    7.99
  -4   3 -10   70.19    8.40
  -4   2  10   24.70    6.08
  -4   2   9   86.64   10.20
  -4   2   8   56.36    7.98
  -4   2   7  135.21   11.57
  -4   2   6   55.72    7.41
  -4   2   5  212.02    5.08
  -4   2   5  210.66   13.05
   4  -2  -4 1625.79   32.54
  -4   2   4 1592.53   32.89
  -4   2   4 1591.93   19.20
   4  -2  -3  472.94   16.28
  -4   2   3  453.88   16.25
  -4   2   3  487.52   12.53
  -4   2   2  230.68   10.40
  -4   2   2  238.26    9.98
  -4   2   1   48.17    5.16
   4  -2  -1   53.05    4.41
  -4   2   1   50.61    4.40
   4  -2   0  246.21    7.66
  -4   2   0  229.40    7.14
  -4   2   0  234.81   11.47
   4  -2   1  292.82    5.77
   4  -2   1  301.95    6.88
  -4   2  -1  307.96   13.90
  -4   2  -2  641.21   20.71
   4  -2   2  617.74    6.27
  -4   2  -3    8.31    3.79
  -4   2  -4  989.08   27.07
  -4   2  -5    9.47    3.74
  -4   2  -6   88.11    8.76
  -4   2  -7    4.27    2.95
  -4   2  -8  128.05   10.75
  -4   2  -9  107.56    9.96
  -4   2 -10   43.20    6.67
  -4   1   9    3.40    3.32
  -4   1   8  110.72   11.27
  -4   1   7    1.57    2.60
  -4   1   6 1366.15   35.09
  -4   1   5  247.88    4.65
  -4   1   5  255.88   14.59
  -4   1   4    2.90    1.32
  -4   1   4    0.08    2.78
   4  -1  -4    2.42    2.35
   4  -1  -3  113.92    8.14
  -4   1   3   97.10    8.04
  -4   1   3   97.27    5.71
  -4   1   2  122.54    8.29
  -4   1   2  128.98    7.29
   4  -1  -1  571.24   14.13
  -4   1   1  564.88   15.55
  -4   1   1  576.99   16.40
  -4   1   0  672.57   18.79
   4  -1   0  697.56   12.88
  -4   1   0  682.63   14.69
   4  -1   0  688.78   13.43
   4  -1   1   48.31    3.14
  -4   1  -1   50.61    3.24
  -4   1  -1   54.01    6.13
   4  -1   2 1723.92   15.14
  -4   1  -2 1617.16   31.65
   4  -1   3  205.06    4.13
  -4   1  -3  200.44   11.75
  -4   1  -4   -4.31    3.54
  -4   1  -5    0.65    2.85
  -4   1  -6  193.15   12.42
  -4   1  -7  155.69    3.44
  -4   1  -7  158.92   11.47
  -4   1  -8   21.37    4.59
  -4   1  -9  116.97   10.32
  -4   1 -10  267.12   15.35
  -4   0   9   -1.11    2.67
  -4   0   8  175.64   14.25
  -4   0   7   -1.39    2.53
  -4   0   6   10.14    3.48
  -4   0   5    3.34    2.76
  -4   0   5    1.92    0.70
  -4   0   5    2.61    0.59
  -4   0   4   72.48    7.68
   4   0  -3  791.36   21.51
  -4   0   3  770.32   22.59
  -4   0   2  159.58    9.64
   4   0  -1   80.21    5.64
  -4   0   1   83.15    6.37
  -4   0   0  670.18   15.46
   4   0   0  664.33   14.15
   4   0   1 1932.85   21.43
  -4   0  -1 1901.18   22.23
   4   0   2  121.36    4.89
  -4   0  -2  123.38    4.75
  -4   0  -3  383.66    6.18
  -4   0  -3  381.23    8.54
   4   0   3  399.75    7.89
  -4   0  -4   61.73    6.79
   4   0   4   60.11    3.00
  -4   0  -4   64.77    3.30
  -4   0  -5   22.18    4.62
  -4   0  -5   22.86    1.98
  -4   0  -5   23.93    1.71
  -4   0  -6   33.35    2.37
  -4   0  -6   33.65    5.56
  -4   0  -6   34.35    2.54
  -4   0  -7    1.47    0.83
  -4   0  -7    2.96    2.83
  -4   0  -7    2.41    0.83
  -4   0  -8  289.19    7.93
  -4   0  -8  282.70   15.36
  -4   0  -9  233.75   14.26
  -4   0 -10   34.73    5.74
  -4   0 -11    4.83    2.74
  -4  -1   8   30.24    6.59
  -4  -1   7   24.94    5.62
  -4  -1   6  204.19   14.23
  -4  -1   5  487.86    8.73
  -4  -1   5  466.94   20.16
  -4  -1   4   23.96    4.82
   4   1  -3  644.62   20.01
  -4  -1   3  606.21   19.91
   4   1  -3  609.51   19.08
  -4  -1   2    2.68    2.48
  -4  -1   1 2467.51   33.52
  -4  -1   0  715.87   16.31
   4   1   1   90.21    5.23
  -4  -1  -1   90.29    5.28
   4   1   2  883.46   14.82
  -4  -1  -2  858.23   13.82
  -4  -1  -2  856.07   15.27
  -4  -1  -3    6.29    1.57
   4   1   3    0.42    0.86
  -4  -1  -4  259.11    7.54
   4   1   4  260.53    7.46
  -4  -1  -5  209.31    6.73
   4   1   5  222.15    7.24
  -4  -1  -5  213.09    6.52
  -4  -1  -6   30.65    2.98
  -4  -1  -6   34.30    5.26
  -4  -1  -6   35.38    2.91
  -4  -1  -7  765.23   24.34
  -4  -1  -7  780.13   16.32
  -4  -1  -7  814.80   14.26
  -4  -1  -8   -0.09    2.51
  -4  -1  -8    3.50    1.39
  -4  -1  -8    4.64    1.50
  -4  -1  -9   28.02    5.39
  -4  -1  -9   29.29    3.25
  -4  -1 -10   14.53    4.23
  -4  -1 -11    5.47    3.03
  -4  -2   8   38.34    7.32
  -4  -2   7  256.23   17.09
  -4  -2   6  108.74   10.90
  -4  -2   5  598.90   11.73
  -4  -2   5  565.57   22.67
  -4  -2   4  210.55    7.30
  -4  -2   4  198.10   12.63
  -4  -2   3  868.01   24.25
  -4  -2   2  152.44    9.55
   4   2  -2  149.64    9.04
  -4  -2   1    8.00    2.68
  -4  -2   0  228.38    9.73
  -4  -2  -1  114.96    6.48
  -4  -2  -1  106.79    6.37
   4   2   2    3.81    1.53
  -4  -2  -2  687.19   14.94
  -4  -2  -3  114.33    5.85
   4   2   3  110.86    5.70
   4   2   4   10.75    1.91
  -4  -2  -4    8.96    2.03
  -4  -2  -5  587.59   12.56
   4   2   5  548.06   12.46
  -4  -2  -6  318.32    9.30
  -4  -2  -6  329.82    9.89
  -4  -2  -7  230.19    9.31
  -4  -2  -7  211.92    8.09
  -4  -2  -8  108.82    7.15
  -4  -2  -8  100.64    5.97
  -4  -2  -8   97.80    9.03
  -4  -2  -9   37.30    3.90
  -4  -2  -9   45.08    6.49
  -4  -2 -10   20.68    4.71
  -4  -2 -10   21.07    3.21
  -4  -2 -11    6.84    3.34
  -4  -3   7  152.09   13.93
  -4  -3   6   79.42    9.62
  -4  -3   5   37.75    6.38
  -4  -3   4   23.29    4.76
  -4  -3   3   99.94    8.71
  -4  -3   2   13.28    3.65
   4   3  -1  530.25   16.34
  -4  -3   1  531.21   16.91
  -4  -3   0  919.21   20.70
  -4  -3  -1  102.88    6.74
  -4  -3  -2  179.98    8.27
   4   3   2  185.07    8.29
  -4  -3  -3  102.71    6.13
  -4  -3  -4 1097.98   18.97
  -4  -3  -5    2.82    1.70
   4   3   6  517.40   13.68
  -4  -3  -6  476.90   12.49
   4   3   7  711.51   17.15
  -4  -3  -7  687.13   16.45
  -4  -3  -7  679.08   15.53
  -4  -3  -8    6.27    2.03
  -4  -3  -8    5.81    2.01
  -4  -3  -9   73.76    6.72
  -4  -3  -9   71.05    5.74
  -4  -3 -10   20.75    4.83
  -4  -3 -10   11.62    2.73
  -4  -3 -11   29.17    5.87
  -4  -3 -11   25.26    3.86
  -4  -3 -12  281.39   16.28
  -4  -4   6    4.30    3.18
  -4  -4   5  171.87   13.58
  -4  -4   4   69.29    5.35
  -4  -4   4   69.80    8.19
  -4  -4   3  262.56   10.33
  -4  -4   3  235.03   13.80
  -4  -4   2  696.18   17.01
  -4  -4   2  713.22   22.26
  -4  -4   1  317.97   14.05
  -4  -4   0  912.57   22.14
  -4  -4   0  888.40   21.64
   4   4   1  130.48    7.81
  -4  -4  -1  135.29    8.14
  -4  -4  -2  376.71   12.87
   4   4   2  383.76   12.78
  -4  -4  -3  151.56    7.95
   4   4   3  161.15    8.19
  -4  -4  -4  136.89    7.37
   4   4   4  133.88    7.35
  -4  -4  -5  765.80   17.04
   4   4   5  843.88   18.48
   4   4   6  157.91    8.27
  -4  -4  -6  151.38    7.69
   4   4   7  203.37    9.88
  -4  -4  -7  170.86    8.42
  -4  -4  -8   23.71    3.62
  -4  -4  -8   15.52    2.95
  -4  -4  -9    4.35    1.95
  -4  -4 -10  186.03   10.09
  -4  -4 -11   16.48    4.82
  -4  -4 -11   10.76    2.96
  -4  -4 -12   53.75    7.52
  -4  -4 -12   47.51    5.85
  -4  -5   6   42.23    7.87
  -4  -5   5   12.17    4.48
  -4  -5   4  374.40   19.40
  -4  -5   3  130.20   10.86
  -4  -5   2  399.87   17.73
  -4  -5   1  313.90   14.85
  -4  -5   0    2.26    2.38
  -4  -5  -1    1.16    2.02
  -4  -5  -2   82.32    6.63
  -4  -5  -3   48.59    5.13
  -4  -5  -4  597.72   16.55
  -4  -5  -5  193.53    9.38
  -4  -5  -6   62.26    5.37
  -4  -5  -7    8.37    2.47
  -4  -5  -8   11.57    2.87
  -4  -5  -9  189.42   10.21
  -4  -5 -10   33.44    4.77
  -4  -5 -11   51.23    5.98
  -4  -5 -12   67.72    7.23
  -4  -5 -12   78.21    9.29
  -4  -6   5   29.30    6.33
  -4  -6   4    3.61    3.14
  -4  -6   3    4.23    3.61
  -4  -6   2   85.38    8.92
  -4  -6   1    1.48    2.55
  -4  -6   0  319.84   14.72
  -4  -6  -1    6.29    2.69
  -4  -6  -2  696.58   20.15
  -4  -6  -3  192.52   10.46
  -4  -6  -4  684.72   19.04
  -4  -6  -5  359.40   13.67
  -4  -6  -6   55.72    5.53
  -4  -6  -7  153.04    8.93
  -4  -6  -8   38.38    4.81
  -4  -6  -9  132.86    8.97
  -4  -6 -10  206.88   11.72
  -4  -6 -11   33.46    5.22
  -4  -6 -12   98.41    8.94
  -4  -6 -13   -1.28    2.08
  -4  -7   3   46.25    7.37
  -4  -7   2  189.75   13.88
  -4  -7   1    0.85    2.77
  -4  -7   0  215.90   12.85
  -4  -7  -1  179.49   11.44
  -4  -7  -2  376.55   15.86
  -4  -7  -3  886.17   23.76
  -4  -7  -4  383.39   15.24
  -4  -7  -5   22.03    3.85
  -4  -7  -6   35.05    4.75
  -4  -7  -7   93.78    7.59
  -4  -7  -8   80.84    7.18
  -4  -7  -9  166.70   10.57
  -4  -7 -10  135.69    9.94
  -4  -7 -11   13.89    3.85
  -4  -7 -12  142.43   11.04
  -4  -7 -13   48.48    6.89
  -4  -8   2   18.61    4.91
  -4  -8   1   28.06    5.57
  -4  -8   0   28.62    5.68
  -4  -8   0   36.29    6.02
  -4  -8  -1  138.06   10.69
  -4  -8  -2   97.25    8.81
  -4  -8  -3  208.15   12.31
  -4  -8  -4    4.24    2.77
  -4  -8  -5  193.98   11.52
  -4  -8  -6    1.16    2.15
  -4  -8  -7  226.38   12.45
  -4  -8  -8   36.01    5.12
  -4  -8  -9   46.63    5.96
  -4  -8 -10   30.76    5.40
  -4  -8 -11    6.92    3.22
  -4  -8 -12    3.19    2.34
  -4  -9   0  154.81   12.92
  -4  -9  -1  315.56   16.99
  -4  -9  -2    3.55    2.60
  -4  -9  -3  275.14   15.20
  -4  -9  -4   16.76    4.00
  -4  -9  -5  121.79    9.85
  -4  -9  -6   38.58    5.65
  -4  -9  -7  189.92   12.12
  -4  -9  -8  209.08   12.81
  -4  -9  -9  101.73    9.13
  -4  -9 -10    2.05    2.11
  -4  -9 -11   19.88    4.61
  -4 -10  -1  142.02   12.15
  -4 -10  -2   -0.91    2.08
  -4 -10  -3   33.81    5.90
  -4 -10  -4   13.48    4.02
  -4 -10  -5   22.42    4.88
  -4 -10  -6  329.10   16.96
  -4 -10  -7  164.27   11.96
  -4 -10  -8   48.66    6.78
  -4 -10  -9   34.69    5.92
   5 -10  -7    4.36    2.47
   5 -10  -6    4.76    3.17
   5 -10  -5  127.89   10.02
  -5  10   5  126.18   11.00
  -5  10   4   69.16    8.76
  -5  10   3    6.63    3.86
   5  -9  -8    1.71    2.67
   5  -9  -7   26.30    5.35
   5  -9  -6    8.22    3.45
  -5   9   6    7.92    3.10
   5  -9  -5   12.77    3.65
  -5   9   5    2.24    2.42
  -5   9   4   28.61    5.68
   5  -9  -4   24.31    4.14
  -5   9   3  231.28   15.32
  -5   9   2  108.33   11.03
  -5   9   1  154.05   13.61
  -5   9   0   14.18    5.21
   5  -8  -8   45.10    7.17
   5  -8  -7    1.49    2.53
   5  -8  -6   -0.46    2.43
  -5   8   6    3.00    2.12
  -5   8   5  153.51   10.49
   5  -8  -5  145.38   10.53
   5  -8  -4   26.11    4.50
  -5   8   4   23.23    4.63
  -5   8   3  168.14   12.16
   5  -8  -3  164.52    9.50
  -5   8   2  128.22   11.28
   5  -8  -2  130.32    7.45
  -5   8   1    2.80    3.48
  -5   8   0   28.49    6.39
  -5   8  -1  300.78   19.09
  -5   8  -2    1.30    3.33
   5  -7  -9   90.28   10.32
   5  -7  -8   25.67    5.58
   5  -7  -7   29.05    5.53
  -5   7   6   85.11    6.89
   5  -7  -6   99.91    9.56
  -5   7   5   83.75    7.24
   5  -7  -5   81.03    8.08
  -5   7   4  223.76   12.19
   5  -7  -4  221.32   11.95
   5  -7  -3    2.04    1.72
  -5   7   3   -0.41    2.43
  -5   7   2   77.90    8.27
   5  -7  -2   78.79    5.92
  -5   7   1   35.92    6.30
   5  -7  -1   38.06    3.53
  -5   7   0    5.82    3.85
  -5   7  -1   19.11    5.49
  -5   7  -2  272.92   17.79
  -5   7  -3   63.11    9.00
  -5   7  -4  342.55   20.70
   5  -6  -9    2.97    3.07
   5  -6  -8  172.74   13.31
   5  -6  -7   30.37    5.57
  -5   6   6   33.36    3.94
   5  -6  -6   28.15    5.45
  -5   6   5   -0.45    1.68
   5  -6  -5    2.76    2.55
  -5   6   4   64.90    6.18
   5  -6  -4   69.26    7.01
   5  -6  -3    4.16    2.05
   5  -6  -3    4.90    2.56
  -5   6   3    6.99    3.05
   5  -6  -2   10.49    2.42
   5  -6  -2    9.89    2.40
  -5   6   2   12.07    3.75
  -5   6   1  217.18   13.29
   5  -6  -1  226.90    8.65
  -5   6   0  722.77   25.17
   5  -6   0  687.01   11.91
  -5   6  -1  124.00   11.06
  -5   6  -2  348.17   19.14
  -5   6  -3  172.23   13.77
  -5   6  -4    3.11    3.27
  -5   6  -5    0.28    2.50
  -5   5   9   30.98    6.60
  -5   5   8    3.88    3.23
  -5   5   7   15.03    4.54
  -5   5   6  252.00    9.24
  -5   5   6  248.63   14.76
  -5   5   5   35.33    3.95
  -5   5   5   31.40    5.08
  -5   5   4    0.92    1.89
  -5   5   3  544.90   17.51
   5  -5  -3  578.57   19.35
   5  -5  -3  593.63   18.97
  -5   5   2  260.61   13.02
   5  -5  -2  274.87   11.38
   5  -5  -2  278.22   11.92
  -5   5   1   15.96    4.25
   5  -5  -1   15.37    2.60
  -5   5   0  171.84   12.15
   5  -5   0  164.77    6.20
   5  -5   0  177.90    7.55
  -5   5  -1  715.50   25.40
   5  -5   1  759.36   12.58
   5  -5   1  717.80    8.73
   5  -5   1  717.31    8.34
  -5   5  -2   33.68    6.22
  -5   5  -3   42.09    7.02
  -5   5  -4   73.83    9.07
  -5   5  -5   28.54    6.20
  -5   5  -6    0.35    2.95
  -5   5  -7   26.62    6.06
  -5   4   9    0.49    2.96
  -5   4   8   42.17    7.33
  -5   4   7    5.16    3.57
  -5   4   6  186.25    6.72
  -5   4   6  181.01   12.85
  -5   4   5  403.22   11.58
  -5   4   5  393.36   17.48
  -5   4   4    2.28    2.09
  -5   4   4    7.40    2.22
  -5   4   3  241.43   11.10
   5  -4  -3  262.52   12.71
  -5   4   3  229.28   11.14
  -5   4   2   43.00    5.38
   5  -4  -1  684.39   16.61
  -5   4   1  694.27   21.79
  -5   4   0   29.14    5.20
   5  -4   0   23.99    2.78
   5  -4   0   30.34    3.10
   5  -4   1    1.25    0.65
  -5   4  -1    2.21    2.98
   5  -4   1    0.11    0.53
   5  -4   1    1.36    0.58
  -5   4  -2   15.36    4.70
  -5   4  -3    8.67    3.66
  -5   4  -4  436.55   20.98
  -5   4  -5  261.63   16.45
  -5   4  -6   25.87    5.62
  -5   4  -7  238.73   16.28
  -5   4  -8  167.18   13.67
  -5   3   9   89.85   10.74
  -5   3   8  148.41   13.33
  -5   3   7  113.33   11.30
  -5   3   6   85.92    3.64
  -5   3   6   98.31    9.96
  -5   3   5  375.99    9.97
  -5   3   5  377.54   17.91
  -5   3   4   31.16    3.64
  -5   3   4   19.93    4.35
   5  -3  -3   80.15    7.10
  -5   3   3   75.08    6.92
  -5   3   3   79.89    6.34
  -5   3   2   68.46    5.85
  -5   3   2   88.40    7.41
   5  -3  -1  475.35   13.67
  -5   3   1  430.32   12.31
  -5   3   1  475.06   17.38
  -5   3   0   13.07    3.96
   5  -3   0   14.63    2.13
  -5   3  -1    0.16    2.98
   5  -3   1    0.93    0.82
   5  -3   1    1.06    0.60
  -5   3  -2 1270.08   32.64
  -5   3  -3  343.96   17.50
  -5   3  -4    6.07    3.83
  -5   3  -5   89.23    9.76
  -5   3  -6  402.58   20.25
  -5   3  -7   17.76    4.99
  -5   3  -8   11.43    4.31
  -5   3  -9    0.59    2.34
  -5   2   9   36.40    7.02
  -5   2   8   27.27    6.01
  -5   2   7    4.60    3.38
  -5   2   6   22.42    5.25
  -5   2   5    5.16    3.23
  -5   2   5    2.27    1.05
  -5   2   4   46.84    6.54
  -5   2   4   50.45    4.37
   5  -2  -3  315.31   13.95
  -5   2   3  321.73   14.84
  -5   2   3  311.75   11.65
  -5   2   2   16.59    3.66
  -5   2   2   13.72    3.37
  -5   2   1   52.54    4.93
  -5   2   1   57.50    6.30
   5  -2   0 1221.38   17.92
  -5   2   0 1193.87   18.75
   5  -2   0 1200.82   18.83
  -5   2   0 1133.12   27.77
  -5   2  -1   21.74    4.76
   5  -2   1   16.43    2.00
  -5   2  -1   19.34    1.95
   5  -2   2   34.86    2.24
  -5   2  -2   27.40    5.25
  -5   2  -3    4.41    3.51
  -5   2  -4  702.43   24.90
  -5   2  -5   38.14    6.47
  -5   2  -6  105.25   10.35
  -5   2  -7  107.89   10.77
  -5   2  -8   -2.17    3.25
  -5   2  -9  189.51   14.36
  -5   2 -10   21.39    5.22
  -5   1   8   39.15    7.39
  -5   1   7    8.96    3.80
  -5   1   6  278.67   17.06
  -5   1   5    0.96    2.40
  -5   1   5    0.96    0.82
  -5   1   4   52.38    6.84
  -5   1   4   53.08    4.32
   5  -1  -3  136.93    9.34
  -5   1   3  143.60   10.44
  -5   1   3  139.88    7.92
   5  -1  -2  722.12   19.33
  -5   1   2  703.36   21.05
  -5   1   2  718.68   19.37
  -5   1   1  584.16   17.51
  -5   1   1  609.55   19.00
  -5   1   0  563.33   15.18
  -5   1   0  516.85   18.42
  -5   1  -1   31.09    5.36
   5  -1   1   27.36    2.80
  -5   1  -1   27.41    3.06
   5  -1   2  165.89    5.84
  -5   1  -2  163.50    4.59
  -5   1  -2  161.36   11.32
  -5   1  -3    6.80    3.70
   5  -1   3    7.64    1.10
  -5   1  -4   38.37    6.37
   5  -1   4   34.42    1.78
  -5   1  -5  224.52   14.26
  -5   1  -6    6.63    3.57
  -5   1  -7 1260.98   34.70
  -5   1  -8   74.04    8.82
  -5   1  -9    3.12    3.04
  -5   1 -10   26.99    5.58
  -5   0   8  364.99   21.33
  -5   0   7   12.85    4.61
  -5   0   6  220.47   15.41
  -5   0   5   39.97    6.63
  -5   0   5   37.33    3.04
  -5   0   4  262.08   15.06
  -5   0   4  240.01    9.26
  -5   0   3  186.28   12.03
   5   0  -2  251.59   11.73
  -5   0   2  252.08   13.12
   5   0  -2  256.86   11.83
  -5   0   1  229.18   11.49
   5   0  -1  226.18   10.12
  -5   0   0   14.88    3.14
   5   0   1   -0.13    0.84
  -5   0  -1   73.20    5.29
   5   0   2    3.90    1.27
  -5   0  -2    3.44    1.53
  -5   0  -3   76.74    3.67
   5   0   3   75.70    4.11
  -5   0  -3   77.08    7.99
  -5   0  -4   13.76    4.22
   5   0   4   14.76    1.75
   5   0   5 1448.61   16.02
  -5   0  -5 1435.43   16.67
  -5   0  -5 1398.54   34.34
  -5   0  -6   10.47    1.46
  -5   0  -6    4.60    2.89
  -5   0  -7   46.96    6.99
  -5   0  -7   46.86    2.73
  -5   0  -8   25.01    5.69
  -5   0  -9  200.14   14.43
  -5   0 -10   -0.69    2.35
  -5   0 -11   18.61    4.82
  -5  -1   8   82.04   10.60
  -5  -1   7    3.62    2.87
  -5  -1   6   24.29    5.79
  -5  -1   5    4.02    3.27
  -5  -1   4   96.48    9.56
  -5  -1   3   13.23    3.88
  -5  -1   2   25.75    4.52
  -5  -1   1  289.09   12.92
   5   1  -1  297.76   12.18
   5   1   0   16.55    2.81
  -5  -1   0   19.03    3.53
  -5  -1  -1   14.24    2.75
  -5  -1  -2   83.96    5.21
  -5  -1  -3  471.03   10.76
  -5  -1  -3  451.21   12.06
  -5  -1  -4 1084.21   17.74
   5   1   4 1108.27   16.74
  -5  -1  -5  468.86   11.11
   5   1   5  485.10   10.99
  -5  -1  -5  463.23    9.00
   5   1   6  149.16    6.36
  -5  -1  -6  144.67    6.17
  -5  -1  -6  150.77    5.58
  -5  -1  -6  156.69   11.60
  -5  -1  -7   75.69    4.52
  -5  -1  -7   78.75    4.37
  -5  -1  -7   80.53    8.79
  -5  -1  -8    2.58    3.71
  -5  -1  -8    2.44    1.19
  -5  -1  -9   88.58    9.77
  -5  -1 -10  102.27   10.48
  -5  -1 -11    3.98    2.94
  -5  -2   7   35.86    7.28
  -5  -2   6  107.05   11.34
  -5  -2   5   77.25    9.36
  -5  -2   4   51.99    4.03
  -5  -2   4   79.83    8.82
  -5  -2   3  642.71   22.55
  -5  -2   2  112.69    9.07
  -5  -2   1   28.74    4.52
   5   2   0   83.66    6.42
  -5  -2   0   81.56    6.58
   5   2   1   74.99    5.73
  -5  -2  -1   77.35    5.99
   5   2   2 1594.50   24.46
  -5  -2  -2 1550.62   23.80
  -5  -2  -2 1547.65   25.09
  -5  -2  -3 1063.99   19.79
  -5  -2  -4  329.28   10.62
  -5  -2  -5    6.06    1.92
  -5  -2  -6   25.05    3.00
  -5  -2  -6   22.54    2.64
  -5  -2  -7  220.29    8.53
  -5  -2  -7  222.68    8.63
  -5  -2  -8   58.36    4.57
  -5  -2  -8   67.11    8.28
  -5  -2  -9    1.32    1.39
  -5  -2  -9   -2.96    3.57
  -5  -2 -10  885.99   30.90
  -5  -2 -11    2.60    2.31
  -5  -2 -12    2.53    2.70
  -5  -3   6   67.64    9.63
  -5  -3   5  396.54   20.90
  -5  -3   4   94.61    9.85
  -5  -3   3   50.03    6.62
  -5  -3   2   27.16    4.84
  -5  -3   1    7.47    3.11
  -5  -3   0  193.46   10.54
   5   3   1  150.93    8.55
  -5  -3  -1  153.27    8.83
   5   3   2  147.96    8.14
  -5  -3  -2  142.07    8.27
  -5  -3  -3   80.41    5.99
   5   3   3   84.07    6.06
  -5  -3  -4  211.35    9.17
   5   3   4  239.22    9.62
  -5  -3  -5  344.08   11.50
   5   3   5  335.58   11.51
  -5  -3  -6   37.62    4.04
   5   3   6   38.16    4.02
  -5  -3  -7   21.33    3.24
  -5  -3  -7   21.72    3.02
  -5  -3  -8  407.19   12.91
  -5  -3  -8  447.87   14.37
  -5  -3  -9  128.14    7.50
  -5  -3 -10   71.52    8.99
  -5  -3 -10   71.12    5.88
  -5  -3 -11   10.40    3.64
  -5  -3 -12   16.45    4.99
  -5  -4   6   57.79    9.13
  -5  -4   5   24.55    5.85
  -5  -4   4   -2.05    3.09
  -5  -4   3   24.03    5.07
  -5  -4   2   55.51    6.91
  -5  -4   1  128.35    9.75
  -5  -4   0   98.84    8.00
  -5  -4  -1  178.09   10.11
  -5  -4  -1  175.12   10.12
  -5  -4  -2  369.86   13.99
  -5  -4  -3  417.97   14.26
  -5  -4  -4   14.49    3.07
   5   4   4   11.65    2.55
   5   4   5    6.87    2.03
  -5  -4  -5    7.60    2.35
   5   4   6    8.30    2.22
  -5  -4  -6   12.04    2.83
  -5  -4  -7  830.77   19.26
  -5  -4  -8  411.93   13.93
  -5  -4  -8  432.75   14.62
  -5  -4  -9   74.94    6.12
  -5  -4 -10  108.82    7.78
  -5  -4 -11    4.60    2.35
  -5  -4 -11   -0.55    2.40
  -5  -4 -12   88.73   10.42
  -5  -5   5    2.76    2.95
  -5  -5   4  162.32   13.68
  -5  -5   3   11.24    4.14
  -5  -5   2  140.45   11.38
  -5  -5   1  215.32   13.17
  -5  -5   0  179.84   11.53
  -5  -5  -1  461.11   17.17
  -5  -5  -2    7.41    2.74
  -5  -5  -3    5.55    2.50
  -5  -5  -4   41.46    4.84
  -5  -5  -5  553.18   16.67
  -5  -5  -6  414.66   14.41
  -5  -5  -7   37.50    4.61
  -5  -5  -8   59.14    5.75
  -5  -5  -9   59.99    5.85
  -5  -5 -10  201.23   11.05
  -5  -5 -11   13.07    3.38
  -5  -5 -12   21.55    5.59
  -5  -5 -12   20.67    4.23
  -5  -6   4    4.95    4.03
  -5  -6   3   30.46    6.36
  -5  -6   2   48.14    7.28
  -5  -6   1  280.82   15.98
  -5  -6   0   37.36    5.79
  -5  -6  -1    2.38    2.46
  -5  -6  -2  127.69    9.40
  -5  -6  -3    5.55    2.74
  -5  -6  -4   20.20    3.81
  -5  -6  -5   64.25    6.25
  -5  -6  -6   47.30    5.39
  -5  -6  -7  401.97   15.18
  -5  -6  -8  160.14    9.76
  -5  -6  -9   21.02    3.97
  -5  -6 -10   64.79    6.67
  -5  -6 -11    0.94    1.94
  -5  -6 -12  142.16   10.64
  -5  -7   2    6.45    3.27
  -5  -7   1    3.35    2.86
  -5  -7   0   37.74    6.31
  -5  -7  -1  104.66    9.44
  -5  -7  -2    0.86    2.35
  -5  -7  -3  254.68   13.50
  -5  -7  -4   93.92    8.13
  -5  -7  -5  242.81   12.65
  -5  -7  -6  105.74    8.39
  -5  -7  -7   45.59    5.59
  -5  -7  -8   44.94    5.67
  -5  -7  -9  120.49    9.25
  -5  -7 -10  191.35   11.82
  -5  -7 -11  165.17   11.33
  -5  -7 -12    5.45    3.01
  -5  -8   1  205.08   15.31
  -5  -8   0   42.63    6.90
  -5  -8  -1   34.12    5.91
  -5  -8  -2   12.88    4.25
  -5  -8  -3   12.66    3.66
  -5  -8  -4  201.32   12.58
  -5  -8  -5    5.10    2.81
  -5  -8  -6   22.32    4.44
  -5  -8  -7  131.46    9.89
  -5  -8  -8   18.70    3.96
  -5  -8  -9   24.13    4.45
  -5  -8 -10   96.07    8.91
  -5  -8 -11   24.39    4.80
  -5  -9  -1   -0.58    2.29
  -5  -9  -1    4.06    3.07
  -5  -9  -2   87.70    9.36
  -5  -9  -3   26.07    5.33
  -5  -9  -4   -0.10    2.63
  -5  -9  -5    8.93    3.51
  -5  -9  -6   85.65    8.74
  -5  -9  -7    2.61    2.15
  -5  -9  -8  391.06   17.86
  -5  -9  -9   51.39    6.69
  -5  -9 -10  144.64   11.25
  -5 -10  -4  271.18   16.30
  -5 -10  -5    1.60    2.02
  -5 -10  -6  208.16   13.96
  -5 -10  -7   30.47    5.73
  -6  10   5   10.45    4.18
   6  -9  -7    1.63    3.28
  -6   9   6  146.64   10.92
   6  -9  -6  131.21   11.43
   6  -9  -5    2.96    2.18
  -6   9   5    0.43    2.41
  -6   9   4   63.13    8.14
  -6   9   3   28.14    5.94
  -6   9   2  137.78   12.83
   6  -8  -7    4.06    3.20
  -6   8   6  128.29    9.47
   6  -8  -6   99.08    9.91
   6  -8  -5   18.82    4.45
  -6   8   5   22.05    4.61
  -6   8   4  155.57   11.67
   6  -8  -4  170.83   11.15
  -6   8   3   21.72    5.09
  -6   8   2    4.20    2.95
  -6   8   1   56.17    8.42
  -6   8   0   25.01    6.33
   6  -7  -8    1.54    2.31
   6  -7  -7   18.81    4.79
  -6   7   6   34.49    4.66
   6  -7  -6   37.25    6.54
  -6   7   5    1.16    1.92
   6  -7  -5    6.08    3.46
  -6   7   4   82.07    8.04
   6  -7  -4   83.13    8.06
  -6   7   3   40.52    6.12
   6  -7  -3   46.32    5.51
   6  -7  -2   10.71    2.66
  -6   7   2    8.82    3.82
  -6   7   1  208.99   14.78
  -6   7   0   71.54    9.43
  -6   7  -1   15.92    5.13
  -6   7  -2    7.25    4.26
  -6   6   6  205.73    9.97
   6  -6  -5    2.75    2.74
  -6   6   5    0.08    1.69
  -6   6   4    3.17    2.60
   6  -6  -4   -1.07    2.26
  -6   6   3  467.32   18.57
   6  -6  -3  475.34   17.59
   6  -6  -2    0.99    1.70
  -6   6   2    0.95    2.58
  -6   6   1  151.65   12.14
   6  -6  -1  182.54    8.23
  -6   6   0    0.41    3.00
  -6   6  -1   93.37   10.45
  -6   6  -2   28.35    6.42
  -6   6  -3   -0.88    3.01
  -6   6  -4   21.97    5.93
  -6   5   8  198.86   15.90
  -6   5   7    6.85    3.46
  -6   5   6   10.85    3.66
  -6   5   6   12.33    2.42
  -6   5   5  424.74   14.26
  -6   5   5  388.23   17.82
  -6   5   4   39.67    5.06
  -6   5   3   20.35    4.23
  -6   5   2   39.02    5.71
   6  -5  -2   33.30    4.43
  -6   5   1   57.77    7.37
   6  -5  -1   58.48    5.17
  -6   5   0   47.20    7.31
   6  -5   0   34.42    3.16
  -6   5  -1  174.60   13.58
  -6   5  -2    0.34    2.90
  -6   5  -3   77.35    9.85
  -6   5  -4    9.35    4.22
  -6   5  -5  389.70   22.04
  -6   4   8   16.01    5.00
  -6   4   7  107.66   11.43
  -6   4   6  124.21   11.38
  -6   4   5  211.11    9.26
  -6   4   5  199.76   13.38
  -6   4   4  254.58   11.43
  -6   4   4  250.64   13.71
  -6   4   3   10.59    3.14
  -6   4   3   12.93    3.38
   6  -4  -3   14.21    3.21
  -6   4   2    9.19    3.39
   6  -4  -2    6.31    2.08
  -6   4   1  709.24   23.85
  -6   4   0    0.96    3.06
   6  -4   0    2.34    1.15
  -6   4  -1   40.96    6.79
   6  -4   1   49.47    3.27
   6  -4   1   50.75    3.04
  -6   4  -2  303.87   18.02
  -6   4  -3    9.55    4.23
  -6   4  -4  146.58   13.11
  -6   4  -5    3.81    3.75
  -6   4  -6    1.10    2.97
  -6   3   8  179.14   15.27
  -6   3   7  319.84   19.47
  -6   3   6  174.91   13.77
  -6   3   5   22.03    5.11
  -6   3   5   19.34    2.83
  -6   3   4    8.22    3.30
  -6   3   4    8.50    2.60
  -6   3   3  883.26   24.51
  -6   3   3  931.31   23.31
  -6   3   2    1.57    2.16
  -6   3   2    1.29    2.59
  -6   3   1   10.27    2.48
  -6   3   1   16.91    4.55
  -6   3   0  369.04   17.93
   6  -3   0  379.32   10.21
  -6   3  -1   10.88    4.10
   6  -3   1   13.74    1.88
   6  -3   2  228.90    5.84
  -6   3  -2  221.70   14.88
   6  -3   2  221.42    5.15
  -6   3  -3    1.69    3.24
  -6   3  -4   31.63    6.49
  -6   3  -5   15.38    4.97
  -6   3  -6   47.57    7.89
  -6   3  -7    5.15    3.62
  -6   3  -8   38.14    7.21
  -6   2   8    6.22    3.91
  -6   2   7    4.78    3.65
  -6   2   6   25.97    5.91
  -6   2   5  464.95   21.60
  -6   2   5  456.37   12.03
  -6   2   4   41.65    6.56
  -6   2   4   37.20    4.25
  -6   2   3  109.75    9.59
  -6   2   3  112.57    8.13
   6  -2  -2  253.78   11.83
  -6   2   2  260.95   13.19
  -6   2   2  267.04   13.33
  -6   2   1   45.38    6.33
  -6   2   1   37.40    4.70
   6  -2  -1   41.00    4.41
  -6   2   0   30.41    5.48
  -6   2   0   31.62    3.69
  -6   2  -1   14.23    2.03
  -6   2  -1   10.89    4.40
   6  -2   1    2.96    1.18
   6  -2   2   56.56    3.43
  -6   2  -2   49.53    7.38
  -6   2  -3   12.95    4.62
   6  -2   3   12.13    1.12
  -6   2  -4  591.48   24.90
  -6   2  -5  169.32   13.79
  -6   2  -6   55.12    8.10
  -6   2  -7    6.51    3.65
  -6   2  -8  139.62   13.27
  -6   2  -9   62.62    9.01
  -6   1   8    2.16    3.72
  -6   1   7  169.58   14.64
  -6   1   6   52.81    7.91
  -6   1   5   27.99    5.96
  -6   1   5   30.97    3.16
  -6   1   4   14.15    4.17
  -6   1   4   17.01    2.93
  -6   1   3  179.00   12.47
  -6   1   3  181.37   10.17
   6  -1  -2  715.54   20.18
  -6   1   2  697.51   22.56
  -6   1   2  694.75   21.19
  -6   1   1   31.97    4.80
  -6   1   1   22.98    4.74
   6  -1  -1   20.30    3.29
   6  -1   0    5.14    1.75
  -6   1   0    4.48    3.23
  -6   1  -1    1.40    1.63
  -6   1  -1    0.98    3.42
   6  -1   2 1382.14   19.32
  -6   1  -2 1350.70   16.29
   6  -1   3  118.91    4.93
  -6   1  -3  123.03   11.09
  -6   1  -4   50.86    7.60
   6  -1   4   51.68    2.69
  -6   1  -5   64.20    8.61
  -6   1  -6   19.36    5.26
  -6   1  -7   99.05   10.73
  -6   1  -8   -1.04    2.93
  -6   1  -9    4.75    3.50
  -6   0   7    5.81    3.62
  -6   0   6   60.81    8.73
  -6   0   5  212.01   15.17
  -6   0   5  223.48    8.54
  -6   0   4  711.96   26.30
  -6   0   4  704.77   17.92
  -6   0   3   36.38    6.03
  -6   0   3   39.35    4.92
  -6   0   2   11.07    3.77
  -6   0   1   86.22    7.87
   6   0   0  518.41   15.14
  -6   0   0  523.95   17.62
   6   0   1  113.53    6.66
  -6   0  -1  117.05    7.58
  -6   0  -2    7.08    2.12
  -6   0  -2    9.11    4.13
  -6   0  -3   14.85    4.89
  -6   0  -3   19.03    2.31
  -6   0  -4   50.97    7.45
   6   0   4   45.82    3.27
   6   0   5    3.26    1.00
  -6   0  -5    4.12    3.47
  -6   0  -6    1.14    2.87
  -6   0  -7   73.12    9.35
  -6   0  -8    5.23    3.46
  -6   0  -9   64.98    9.14
  -6   0 -10  139.63   13.32
  -6  -1   7   70.30    9.82
  -6  -1   6  305.74   19.31
  -6  -1   5  276.40   17.67
  -6  -1   4   24.23    5.58
  -6  -1   3   26.93    5.50
  -6  -1   2   68.20    7.69
  -6  -1   1  363.23   15.88
  -6  -1   0    0.95    2.18
   6   1   1    2.08    1.54
  -6  -1  -1    2.26    2.08
   6   1   2   30.85    3.67
  -6  -1  -2   31.53    3.86
  -6  -1  -3  303.55   10.13
  -6  -1  -4   15.97    2.34
  -6  -1  -5   23.09    2.15
  -6  -1  -5   24.39    3.08
  -6  -1  -5   25.49    2.19
  -6  -1  -6   63.70    2.70
  -6  -1  -6   72.07    4.84
  -6  -1  -6   69.78    2.97
  -6  -1  -6   71.33    8.72
  -6  -1  -7  653.77   13.62
  -6  -1  -7  664.25   26.58
  -6  -1  -8  231.82   16.27
  -6  -1  -9   -0.11    3.13
  -6  -1 -10   16.03    5.05
  -6  -1 -11    5.63    3.62
  -6  -2   6    0.70    2.32
  -6  -2   5    1.33    2.78
  -6  -2   4   67.16    8.53
  -6  -2   3  130.72   11.07
  -6  -2   2   67.71    7.70
  -6  -2   1   88.60    8.12
  -6  -2   0  183.46   10.80
  -6  -2  -1  879.29   21.57
   6   2   2  229.94   10.17
  -6  -2  -2  317.26   12.14
  -6  -2  -3   26.12    3.50
   6   2   3   22.39    3.32
  -6  -2  -4    1.99    2.02
   6   2   4    4.01    1.66
  -6  -2  -4    2.38    1.53
  -6  -2  -5  651.88   16.23
   6   2   5  674.17   15.47
   6   2   6   46.98    4.14
  -6  -2  -6   47.26    4.42
  -6  -2  -6   51.67    3.91
  -6  -2  -7   16.92    2.71
  -6  -2  -8   81.69    5.52
  -6  -2  -8   70.34    9.06
  -6  -2  -9  196.33   15.37
  -6  -2 -10   21.40    5.56
  -6  -2 -11   29.39    6.68
  -6  -3   5    2.35    2.87
  -6  -3   4   67.74    8.85
  -6  -3   3   49.99    7.34
  -6  -3   2   90.28    9.05
  -6  -3   1  609.95   21.66
  -6  -3   0  713.75   21.73
  -6  -3  -1  125.09    8.75
  -6  -3  -2   12.92    3.14
  -6  -3  -3   44.76    4.77
  -6  -3  -3   20.14    3.69
  -6  -3  -4   75.38    6.31
   6   3   4   82.12    6.23
   6   3   5   27.36    3.61
  -6  -3  -5   22.93    3.59
  -6  -3  -6   10.90    2.61
   6   3   6   10.67    2.40
  -6  -3  -7  169.43    8.70
  -6  -3  -8   33.67    4.06
  -6  -3  -9    2.10    1.57
  -6  -3 -10   -1.36    3.08
  -6  -3 -11    5.15    3.51
  -6  -3 -12   34.85    7.14
  -6  -4   4   10.02    4.44
  -6  -4   3   47.54    7.44
  -6  -4   2  641.78   24.43
  -6  -4   1   32.02    5.41
  -6  -4   0    8.83    3.34
  -6  -4  -1    4.55    2.76
  -6  -4  -2  178.93   10.40
  -6  -4  -2  189.88   10.98
  -6  -4  -3   56.08    5.92
  -6  -4  -4   44.88    5.17
  -6  -4  -5   30.30    4.27
  -6  -4  -6  306.57   12.51
  -6  -4  -7   87.23    6.73
  -6  -4  -8   46.54    5.16
  -6  -4  -9    4.61    2.29
  -6  -4 -10  110.61    7.88
  -6  -4 -11  113.62   12.47
  -6  -4 -12   17.80    5.38
  -6  -5   3    6.99    3.66
  -6  -5   2    2.39    2.82
  -6  -5   1    7.71    3.10
  -6  -5   0   20.75    4.53
  -6  -5  -1  337.96   15.86
  -6  -5  -2   83.66    7.73
  -6  -5  -2   80.14    7.64
  -6  -5  -3  258.25   12.97
  -6  -5  -4  785.95   21.90
  -6  -5  -5  412.63   15.56
  -6  -5  -6   -0.09    1.85
  -6  -5  -7   52.69    5.69
  -6  -5  -8    0.93    1.75
  -6  -5  -9   20.09    3.83
  -6  -5 -10   29.00    4.60
  -6  -5 -11   93.35    7.98
  -6  -5 -12  189.29   16.67
  -6  -6   2   19.12    5.03
  -6  -6   1  297.95   17.31
  -6  -6   0    2.02    2.38
  -6  -6  -1   28.03    5.27
  -6  -6  -2  314.76   15.68
  -6  -6  -3  353.67   16.10
  -6  -6  -4   18.42    4.02
  -6  -6  -5   13.45    3.46
  -6  -6  -6  125.51    9.07
  -6  -6  -7   13.47    3.28
  -6  -6  -8   -0.15    1.82
  -6  -6  -9   21.57    4.24
  -6  -6 -10   79.67    7.60
  -6  -6 -11   14.17    3.81
  -6  -7   1   40.41    6.99
  -6  -7   0   15.98    4.42
  -6  -7  -1  302.86   17.00
  -6  -7  -2    1.53    2.00
  -6  -7  -3    3.66    2.42
  -6  -7  -4   26.47    4.94
  -6  -7  -5    2.13    2.08
  -6  -7  -6   57.16    6.59
  -6  -7  -7    1.56    2.07
  -6  -7  -8   39.93    5.61
  -6  -7  -9   80.88    7.86
  -6  -7 -10  126.58   10.06
  -6  -7 -11   22.55    4.66
  -6  -8  -1   27.65    5.71
  -6  -8  -2    5.59    3.50
  -6  -8  -3   34.04    5.87
  -6  -8  -4  195.86   13.22
  -6  -8  -5   14.46    4.19
  -6  -8  -6   57.05    6.99
  -6  -8  -7  179.47   12.11
  -6  -8  -8  163.83   11.49
  -6  -8  -9   -0.84    2.20
  -6  -8 -10    9.32    3.38
  -6  -8 -11   42.01    6.42
  -6  -9  -4   30.67    5.85
  -6  -9  -5   -1.16    2.42
  -6  -9  -6   42.41    6.36
  -6  -9  -7   -1.60    2.30
  -6  -9  -8   37.25    5.93
   7  -8  -6   14.04    4.80
   7  -8  -5    2.00    2.63
  -7   8   5    1.81    2.71
  -7   8   4   91.75    9.46
  -7   8   3   92.29   10.06
  -7   8   2    6.52    3.69
   7  -7  -7    3.04    3.09
   7  -7  -6  126.31   11.69
  -7   7   5   24.01    4.48
   7  -7  -5   24.23    5.68
  -7   7   4   32.44    5.62
   7  -7  -4   28.49    5.35
  -7   7   3  374.38   18.70
  -7   7   2   45.27    7.40
  -7   7   1   28.74    6.39
  -7   7   0    9.74    4.60
  -7   6   5  148.47    9.81
  -7   6   4    0.11    2.16
   7  -6  -4   -0.88    2.29
  -7   6   3   95.65    9.12
   7  -6  -3  106.23    9.11
  -7   6   2   96.59    9.74
   7  -6  -2   93.58    7.80
  -7   6   1    1.98    2.65
  -7   6   0    3.19    3.79
  -7   6  -1    2.16    3.76
  -7   6  -2  352.86   21.54
  -7   5   7    1.08    2.75
  -7   5   6   45.06    7.13
  -7   5   5   22.26    4.88
  -7   5   5   21.99    3.75
  -7   5   4  172.07   10.65
  -7   5   3   37.15    5.72
  -7   5   2    4.11    2.99
  -7   5   1  111.24   10.66
   7  -5  -1  121.64    8.12
  -7   5   0  267.12   17.22
  -7   5  -1   26.39    6.11
  -7   5  -2  253.07   18.03
  -7   5  -3   30.52    6.70
  -7   5  -4   24.06    6.16
  -7   4   7    9.20    4.03
  -7   4   6  119.41   11.68
  -7   4   5    9.84    3.95
  -7   4   5   11.96    2.79
  -7   4   4   13.48    3.81
  -7   4   4   10.81    3.01
  -7   4   3   30.52    4.88
  -7   4   3   24.00    4.50
  -7   4   2   42.55    6.26
  -7   4   1   -0.04    2.89
  -7   4   0  202.91   14.86
  -7   4  -1   68.77    9.31
  -7   4  -2  171.93   14.72
  -7   4  -3  216.07   16.78
  -7   4  -4   11.01    4.74
  -7   4  -5    5.79    3.51
  -7   3   7    4.61    3.96
  -7   3   6  102.50   11.13
  -7   3   5    2.09    3.45
  -7   3   4  104.55    9.94
  -7   3   4   92.52    7.35
  -7   3   3   24.08    4.52
  -7   3   3   26.31    4.76
  -7   3   2   10.61    3.18
  -7   3   2    7.04    3.28
   7  -3  -1  257.48   10.52
  -7   3   1  251.61   10.97
  -7   3   1  262.11   15.56
   7  -3   0  292.71   10.54
  -7   3   0  292.27   17.23
  -7   3  -1  298.90   17.88
  -7   3  -2  250.85   17.05
  -7   3  -3    5.76    3.90
  -7   3  -4    0.74    3.82
  -7   3  -5  522.51   26.12
  -7   3  -6    0.96    2.92
  -7   2   7    1.97    3.29
  -7   2   6   80.60   10.13
  -7   2   5   17.80    4.93
  -7   2   4  196.28   14.15
  -7   2   4  174.54    9.83
  -7   2   3  171.17   12.30
  -7   2   3  172.93   10.85
  -7   2   2   56.00    6.66
  -7   2   2   50.97    6.65
  -7   2   1  344.11   14.26
  -7   2   1  344.60   17.36
   7  -2   0  409.11   13.14
  -7   2   0  424.56   13.61
  -7   2   0  440.97   20.55
  -7   2  -1    2.24    1.30
  -7   2  -1    5.33    3.57
  -7   2  -2    0.18    3.13
  -7   2  -3  282.63   18.22
  -7   2  -4   51.45    8.44
  -7   2  -5  133.55   13.03
  -7   2  -6    1.01    3.93
  -7   2  -7   10.89    4.17
  -7   1   6   92.81   11.00
  -7   1   5    2.36    2.82
  -7   1   4   84.93    9.62
  -7   1   4   83.18    6.84
  -7   1   3   69.84    8.42
  -7   1   3   67.06    6.88
  -7   1   2  119.82   10.12
  -7   1   2  105.45    9.28
  -7   1   1    3.34    2.58
  -7   1   1   15.56    4.31
   7  -1   0  111.49    7.30
  -7   1   0  115.34    8.30
  -7   1   0  112.78   10.51
   7  -1   1   74.63    5.56
  -7   1  -1   82.92    6.01
  -7   1  -1   71.08    8.85
  -7   1  -2    1.27    1.16
  -7   1  -2    1.22    3.54
  -7   1  -3   31.84    6.43
  -7   1  -4  237.49   16.90
  -7   1  -5  153.24   13.90
  -7   1  -6  176.70   15.02
  -7   1  -7  229.76   17.30
  -7   1  -8    2.57    3.55
  -7   0   6  121.66   12.72
  -7   0   5    4.07    2.95
  -7   0   4   60.59    8.36
  -7   0   4   51.46    5.42
  -7   0   3   94.37   10.01
  -7   0   3   81.29    7.57
  -7   0   2  107.50   10.10
  -7   0   2  114.22    9.55
  -7   0   1  100.85    9.18
  -7   0   1  105.34    9.49
  -7   0   0   13.45    3.57
  -7   0   0   16.36    4.98
   7   0   1  503.98   15.21
  -7   0  -1  531.96   17.55
  -7   0  -1  535.64   22.51
   7   0   2  378.61   12.37
  -7   0  -2  385.71   12.92
  -7   0  -2  397.19   19.71
  -7   0  -3  379.49   10.31
  -7   0  -3  360.84   19.37
  -7   0  -4  254.83   16.75
  -7   0  -5  623.36   26.72
  -7   0  -6   12.57    4.53
  -7   0  -7    1.72    2.77
  -7   0  -8   77.54   10.43
  -7   0  -9    7.27    4.48
  -7  -1   6   36.61    7.47
  -7  -1   5   -1.19    2.85
  -7  -1   4    4.84    3.31
  -7  -1   3   18.38    5.18
  -7  -1   2    7.12    3.59
  -7  -1   1  723.19   24.37
  -7  -1   0   31.92    5.20
  -7  -1  -1   38.69    5.43
   7   1   2  224.68   10.23
  -7  -1  -2  231.93   11.09
  -7  -1  -3  382.28   12.69
   7   1   3  345.21   12.01
   7   1   4   15.94    2.58
  -7  -1  -4   16.56    2.53
  -7  -1  -5    5.51    1.25
  -7  -1  -5   -0.03    3.44
  -7  -1  -6   13.98    4.89
  -7  -1  -7    3.13    2.91
  -7  -1  -8   50.59    8.29
  -7  -1  -9    4.32    3.90
  -7  -2   5    9.94    4.29
  -7  -2   4   29.44    6.57
  -7  -2   3  297.26   18.13
  -7  -2   2   24.88    5.12
  -7  -2   1   72.78    8.18
  -7  -2   0   -0.56    2.53
  -7  -2  -1   61.73    6.44
  -7  -2  -2   73.59    6.67
  -7  -2  -3   44.41    4.95
   7   2   4    2.17    1.51
  -7  -2  -4    2.36    1.71
  -7  -2  -5    3.19    1.48
  -7  -2  -6  506.82   11.84
  -7  -2  -6  505.78   15.20
  -7  -2  -7  115.21    7.06
  -7  -2  -7   92.55   10.58
  -7  -2  -8   37.60    7.14
  -7  -2  -9   12.72    4.89
  -7  -2 -10  413.58   23.99
  -7  -3   4   93.50   10.80
  -7  -3   3    7.57    3.58
  -7  -3   2   26.07    5.52
  -7  -3   1   68.76    7.98
  -7  -3   0    6.61    3.05
  -7  -3  -1   22.81    4.54
  -7  -3  -2    9.45    3.15
  -7  -3  -3    8.94    2.87
  -7  -3  -4  732.21   19.08
  -7  -3  -4  726.69   20.61
  -7  -3  -5    0.96    1.81
  -7  -3  -5    3.58    1.92
  -7  -3  -6   49.91    5.40
  -7  -3  -7    4.58    2.11
  -7  -3  -8  437.99   14.68
  -7  -3  -9    0.08    3.02
  -7  -3 -10    2.20    3.14
  -7  -4   3   17.49    4.89
  -7  -4   2  113.54   11.16
  -7  -4   1    0.87    2.49
  -7  -4   0    7.19    3.52
  -7  -4  -1    2.34    2.33
  -7  -4  -2  507.77   18.74
  -7  -4  -3  177.81   10.67
  -7  -4  -4   52.12    5.69
  -7  -4  -4   49.13    5.83
  -7  -4  -5   10.97    3.20
  -7  -4  -6  112.17    8.25
  -7  -4  -7   39.08    5.00
  -7  -4  -8    8.44    2.60
  -7  -4  -9    1.32    1.72
  -7  -5   2   -2.32    3.13
  -7  -5   1   27.27    5.73
  -7  -5   0   69.77    8.35
  -7  -5  -1  232.83   14.12
  -7  -5  -2   96.30    8.78
  -7  -5  -3  111.04    9.10
  -7  -5  -3  113.72    9.34
  -7  -5  -4   35.70    5.36
  -7  -5  -5   39.40    5.43
  -7  -5  -6   64.32    6.76
  -7  -5  -7   27.93    4.55
  -7  -5  -8   17.28    3.65
  -7  -5  -9  586.10   19.55
  -7  -6   1  144.76   12.85
  -7  -6   0    3.96    3.14
  -7  -6  -1   -0.65    2.09
  -7  -6  -2    3.05    2.20
  -7  -6  -3   18.79    4.27
  -7  -6  -3   16.97    4.23
  -7  -6  -4   54.82    6.85
  -7  -6  -5   15.73    3.76
  -7  -6  -6   62.83    6.94
  -7  -6  -7  446.92   17.96
  -7  -6  -8   46.18    5.96
  -7  -6  -9    5.33    2.69
  -7  -6 -10   14.49    3.66
  -7  -7  -1   90.04    9.87
  -7  -7  -2   23.34    5.13
  -7  -7  -3    3.41    2.36
  -7  -7  -3    2.57    2.30
  -7  -7  -4    9.19    3.46
  -7  -7  -5  130.08   10.64
  -7  -7  -6  254.53   14.40
  -7  -7  -7   76.21    7.91
  -7  -7  -8   64.72    7.31
  -7  -7  -9    6.36    3.07
  -7  -7 -10   16.70    4.10
  -7  -8  -3    8.32    3.26
  -7  -8  -4  248.91   15.58
  -7  -8  -5   64.62    7.83
  -7  -8  -6   40.50    6.15
  -7  -8  -7   10.28    3.54
  -7  -8  -8   13.12    3.76
  -7  -8  -9   83.29    8.64
  -8   7   4   33.44    5.86
  -8   7   3    1.97    2.90
  -8   7   2   33.05    6.73
  -8   6   4   73.72    8.04
   8  -6  -4   73.88    8.78
  -8   6   3  185.26   13.18
  -8   6   2    2.51    3.46
  -8   6   1   27.71    6.31
  -8   6   0   13.87    4.91
  -8   5   6   29.17    6.19
  -8   5   4    1.63    2.39
  -8   5   3   51.98    7.03
  -8   5   2    7.03    3.36
  -8   5   1    0.07    2.95
  -8   5   0    2.28    2.93
  -8   5  -1  131.02   13.39
  -8   5  -2   35.26    7.65
  -8   4   6   17.28    5.01
  -8   4   5    2.08    2.90
  -8   4   4    2.60    2.72
  -8   4   4    6.54    2.99
  -8   4   3    5.48    2.71
  -8   4   3    3.83    2.99
  -8   4   2   25.07    5.60
  -8   4   1   70.77    9.09
  -8   4   0   53.40    8.46
  -8   4  -1   -2.74    4.36
  -8   4  -2  198.72   16.64
  -8   4  -3    4.56    4.19
  -8   3   6    6.39    3.85
  -8   3   5    6.89    4.00
  -8   3   4  136.26   11.77
  -8   3   3   24.63    4.98
  -8   3   3   26.84    5.05
  -8   3   2  156.99   10.35
  -8   3   2  169.62   12.68
  -8   3   1    2.48    1.95
  -8   3   1    2.37    3.22
  -8   3   0  280.71   17.97
  -8   3  -1   25.47    6.39
  -8   3  -2   31.09    7.01
  -8   3  -3   17.01    5.74
  -8   3  -4    5.27    4.40
  -8   2   6  183.49   15.66
  -8   2   5    3.25    3.42
  -8   2   4   60.37    8.26
  -8   2   3   49.56    7.28
  -8   2   3   49.40    6.28
  -8   2   2  150.00   11.03
  -8   2   2  145.45   11.61
  -8   2   1    1.99    1.97
  -8   2   1    1.32    3.03
  -8   2   0    6.54    2.38
  -8   2   0    5.77    4.24
  -8   2  -1   -0.39    2.96
  -8   2  -2   35.07    7.04
  -8   2  -3   21.85    6.19
  -8   2  -4  220.43   17.43
  -8   2  -5   -1.21    3.05
  -8   1   5  140.78   13.55
  -8   1   4  119.71   11.99
  -8   1   3    3.71    3.06
  -8   1   3    4.07    2.82
  -8   1   2  157.67   12.18
  -8   1   2  173.69   12.53
  -8   1   1    3.17    2.35
  -8   1   1   -2.94    3.67
  -8   1   0    2.33    2.13
  -8   1   0    2.14    3.28
  -8   1  -1   70.41    5.83
  -8   1  -1   63.30    9.05
  -8   1  -2   59.34    9.06
  -8   1  -3  184.59   15.41
  -8   1  -4    5.64    3.70
  -8   1  -5   24.43    6.48
  -8   1  -6    3.08    3.73
  -8   0   5   -0.94    2.51
  -8   0   4  188.36   15.16
  -8   0   3    2.65    3.44
  -8   0   3   -0.30    2.21
  -8   0   2   88.55    9.63
  -8   0   2   82.96    8.72
  -8   0   1  280.42   15.82
  -8   0   1  281.30   16.64
  -8   0   0   13.23    3.55
  -8   0   0   20.20    5.29
  -8   0  -1  210.74   11.53
  -8   0  -1  199.03   14.83
  -8   0  -2   21.22    3.44
  -8   0  -2   21.27    5.67
  -8   0  -3   35.64    6.96
  -8   0  -4    5.49    3.84
  -8   0  -5    4.93    3.71
  -8   0  -6   22.44    6.10
  -8   0  -7   29.56    6.95
  -8  -1   4  134.01   13.19
  -8  -1   3  268.76   17.88
  -8  -1   3  265.67   14.33
  -8  -1   2    5.68    3.34
  -8  -1   2    2.85    2.98
  -8  -1   1   19.86    5.04
  -8  -1   0   90.76    8.95
  -8  -1  -1   71.70    7.50
  -8  -1  -2    0.77    2.02
  -8  -1  -3  269.65   11.73
  -8  -1  -3  237.42   16.44
  -8  -1  -4   51.02    8.07
  -8  -1  -5  122.51   12.50
  -8  -1  -6    6.08    3.73
  -8  -1  -7  201.52   16.45
  -8  -2   4   47.87    8.31
  -8  -2   3   15.17    5.00
  -8  -2   2   53.11    7.92
  -8  -2   1   49.12    7.14
  -8  -2   0    3.44    2.45
  -8  -2  -1  304.20   15.46
  -8  -2  -2   21.54    4.24
  -8  -2  -3   -1.47    1.96
  -8  -2  -4    0.78    1.40
  -8  -2  -6   90.19   10.64
  -8  -2  -7   16.49    5.18
  -8  -2  -8    8.07    3.86
  -8  -3   3    2.12    3.15
  -8  -3   2    1.66    2.81
  -8  -3   1  100.87   10.46
  -8  -3   0   80.56    8.86
  -8  -3  -1  119.82   10.15
  -8  -3  -2  121.89    9.73
  -8  -3  -3    1.76    1.91
  -8  -3  -4   57.32    5.97
  -8  -3  -5   23.49    3.64
  -8  -3  -7   23.78    4.17
  -8  -3  -8  120.68   12.85
  -8  -4   2  111.63   11.84
  -8  -4   1   72.28    9.09
  -8  -4   0   78.11    9.04
  -8  -4  -1    6.27    3.15
  -8  -4  -2    1.79    2.49
  -8  -4  -3    0.07    1.92
  -8  -4  -4    3.92    2.33
  -8  -4  -5    3.61    2.09
  -8  -4  -6  401.09   16.64
  -8  -4  -7   42.95    5.71
  -8  -5   1   60.61    8.71
  -8  -5   0  115.37   11.33
  -8  -5  -1   29.02    5.79
  -8  -5  -2    7.20    3.23
  -8  -5  -3    2.80    2.29
  -8  -5  -4  190.42   12.03
  -8  -5  -5   26.25    4.62
  -8  -5  -5   19.38    4.13
  -8  -5  -6   29.48    5.12
  -8  -5  -7    5.21    2.84
  -8  -5  -8   16.71    4.01
  -8  -6  -1   22.20    5.24
  -8  -6  -2   41.88    6.49
  -8  -6  -3   98.64    9.69
  -8  -6  -4   67.30    7.81
  -8  -6  -5   21.54    4.63
  -8  -6  -5   18.90    4.27
  -8  -6  -6    6.70    3.03
  -8  -6  -7    3.11    2.76
  -8  -6  -8   -0.67    2.32
  -8  -6  -9   26.93    4.99
  -8  -7  -3    0.65    2.33
  -8  -7  -4   54.99    7.70
  -8  -7  -4   47.92    6.96
  -8  -7  -5   90.16    9.47
  -8  -7  -6   50.00    7.03
  -8  -7  -7    3.82    2.80
  -8  -7  -8    2.14    2.88
  -8  -7  -9   67.55    7.88
  -9   5   3    0.92    2.53
  -9   5   2  145.73   12.83
  -9   5   1  153.81   13.92
  -9   4   2    3.87    3.54
  -9   4   1   10.14    4.43
  -9   4   0   67.37    9.71
  -9   4  -1   32.72    7.45
  -9   3   5   25.77    5.87
  -9   3   4   13.62    4.19
  -9   3   2    6.14    3.79
  -9   3   1   10.95    4.60
  -9   3   0   83.94   10.76
  -9   3  -1   34.94    7.43
  -9   3  -2    6.91    4.23
  -9   2   4    0.40    2.73
  -9   2   3   -0.69    2.27
  -9   2   2   51.39    6.81
  -9   2   2   66.25    8.44
  -9   2   1    4.10    3.22
  -9   2   0   -2.04    3.67
  -9   2  -1  444.33   24.18
  -9   2  -2   91.13   11.59
  -9   2  -3   17.02    5.55
  -9   1   4    4.53    3.54
  -9   1   3   39.93    6.91
  -9   1   2    5.87    3.04
  -9   1   2   12.25    4.49
  -9   1   1  290.12   15.43
  -9   1   1  280.66   17.75
  -9   1   0   23.42    6.29
  -9   1  -1   62.47    9.30
  -9   1  -2   18.12    6.09
  -9   1  -3   -0.72    3.80
  -9   1  -4   31.37    7.30
  -9   0   4   -0.88    2.79
  -9   0   3   12.87    4.76
  -9   0   2   12.39    4.18
  -9   0   2    9.11    3.79
  -9   0   1   68.37    8.33
  -9   0   1   64.38    8.75
  -9   0   0   75.23    8.08
  -9   0   0   86.44   10.44
  -9   0  -1   57.78    8.94
  -9   0  -2    4.72    3.71
  -9   0  -3    3.63    3.47
  -9   0  -4  122.75   13.21
  -9  -1   3    3.36    3.23
  -9  -1   2   48.41    7.91
  -9  -1   2   62.45    7.91
  -9  -1   1   25.93    5.64
  -9  -1   1   24.48    5.74
  -9  -1   0   -0.10    2.34
  -9  -1   0   -1.21    3.09
  -9  -1  -1   26.30    5.00
  -9  -1  -1   24.49    5.95
  -9  -1  -2  105.79   11.68
  -9  -1  -3    2.41    2.74
  -9  -1  -4  340.62   21.18
  -9  -1  -5    1.11    3.01
  -9  -2   2   75.59   10.03
  -9  -2   1   18.87    5.52
  -9  -2   0  129.11   11.69
  -9  -2  -1    0.54    2.28
  -9  -2  -2   53.56    6.74
  -9  -2  -5   87.13   10.84
  -9  -3   1    0.17    2.94
  -9  -3   0   34.09    6.30
  -9  -3  -1   67.90    8.35
  -9  -3  -2  147.54   11.35
  -9  -3  -3  176.71   11.67
  -9  -4   0    4.26    3.36
  -9  -4  -1   18.39    4.60
  -9  -4  -2   22.42    4.97
  -9  -4  -3   26.06    5.08
  -9  -5  -1   84.43    9.75
  -9  -5  -2   29.17    5.96
  -9  -5  -3   73.37    8.38
  -9  -5  -4    3.10    2.62
  -9  -6  -3  100.12   10.11
  -9  -6  -4   13.00    3.92
  -9  -6  -5   35.90    5.76
  -9  -6  -7   88.73    9.10
 -10   2   1   11.35    5.15
 -10   2   0   10.00    4.55
 -10   1   1   32.38    6.64
 -10   1   0   14.21    5.61
 -10   0   1   33.01    6.84
 -10   0   0   -0.78    3.72
 -10   0  -1   70.88   10.37
 -10  -1   0    2.80    3.22
 -10  -1  -1   -1.16    3.46
 -10  -2   0    0.97    3.19
 -10  -2  -1   24.55    6.42
   0   0   0    0.00    0.00
;
_shelx_hkl_checksum              73675
loop_
_space_group_symop_operation_xyz
'x, y, z'
'-x, -y, -z'
loop_
_atom_site_label
_atom_site_type_symbol
_atom_site_fract_x
_atom_site_fract_y
_atom_site_fract_z
_atom_site_U_iso_or_equiv
_atom_site_adp_type
_atom_site_occupancy
_atom_site_site_symmetry_order
_atom_site_calc_flag
_atom_site_refinement_flags_posn
_atom_site_refinement_flags_adp
_atom_site_refinement_flags_occupancy
_atom_site_disorder_assembly
_atom_site_disorder_group
Cs1 Cs 0.25011(5) 0.34857(4) 0.65850(4) 0.02825(10) Uani 1 1 d . . . . .
Cs2 Cs 0.73852(5) 0.05029(4) 0.56931(3) 0.02687(10) Uani 1 1 d . . . . .
Ag1 Ag 0.60309(6) 0.26293(6) 0.12029(5) 0.03472(13) Uani 1 1 d . . . . .
Ag2 Ag 0.20232(7) 0.92125(5) 0.05567(5) 0.03443(13) Uani 1 1 d . . . . .
As1 As 0.06005(7) 0.29134(6) 0.07250(5) 0.01893(13) Uani 1 1 d . . . . .
As2 As 0.30494(7) 0.51191(6) 0.18626(5) 0.01532(12) Uani 1 1 d . . . . .
S1 S 0.50711(18) 0.35361(16) 0.32025(14) 0.0240(3) Uani 1 1 d . . . . .
S2 S 0.32340(17) 0.18003(15) 0.04270(14) 0.0215(3) Uani 1 1 d . . . . .
S3 S 0.23031(19) 0.67027(15) 0.29510(14) 0.0231(3) Uani 1 1 d . . . . .
S4 S 0.87389(17) 0.07316(15) 0.18641(14) 0.0196(3) Uani 1 1 d . . . . .
S5 S 0.06069(17) 0.33329(15) 0.28320(14) 0.0217(3) Uani 1 1 d . . . . .
loop_
_atom_site_aniso_label
_atom_site_aniso_U_11
_atom_site_aniso_U_22
_atom_site_aniso_U_33
_atom_site_aniso_U_23
_atom_site_aniso_U_13
_atom_site_aniso_U_12
Cs1 0.0309(2) 0.02761(19) 0.02204(18) -0.00759(14) -0.00150(15) -0.00461(16)
Cs2 0.0332(2) 0.02338(18) 0.02105(17) -0.00687(14) -0.00623(15) 0.00348(15)
Ag1 0.0245(2) 0.0529(3) 0.0358(3) -0.0280(2) -0.0059(2) 0.0111(2)
Ag2 0.0552(3) 0.0227(2) 0.0278(2) -0.01183(18) -0.0116(2) 0.0010(2)
As1 0.0225(3) 0.0139(3) 0.0181(3) -0.0041(2) -0.0067(2) 0.0012(2)
As2 0.0169(3) 0.0140(2) 0.0139(2) -0.0052(2) -0.0023(2) 0.0003(2)
S1 0.0236(7) 0.0283(7) 0.0247(7) -0.0144(6) -0.0110(6) 0.0101(6)
S2 0.0188(7) 0.0247(7) 0.0229(6) -0.0125(5) -0.0011(6) -0.0036(6)
S3 0.0329(8) 0.0171(6) 0.0206(6) -0.0098(5) -0.0034(6) 0.0032(6)
S4 0.0177(6) 0.0191(6) 0.0234(6) -0.0100(5) -0.0052(5) 0.0006(5)
S5 0.0216(7) 0.0191(6) 0.0250(7) -0.0112(5) 0.0008(6) -0.0054(6)
loop_
_atom_type_symbol
_atom_type_description
_atom_type_scat_dispersion_real
_atom_type_scat_dispersion_imag
_atom_type_scat_source
S S 0.1246 0.1234 'International Tables Vol C Tables 4.2.6.8 and 6.1.1.4'
As As 0.0499 2.0058 'International Tables Vol C Tables 4.2.6.8 and 6.1.1.4'
Ag Ag -0.8971 1.1015 'International Tables Vol C Tables 4.2.6.8 and 6.1.1.4'
Cs Cs -0.3680 2.1192 'International Tables Vol C Tables 4.2.6.8 and 6.1.1.4'
loop_
_geom_angle_atom_site_label_1
_geom_angle_atom_site_label_2
_geom_angle_atom_site_label_3
_geom_angle
_geom_angle_site_symmetry_1
_geom_angle_site_symmetry_3
_geom_angle_publ_flag
S1 Cs1 S3 79.02(4) 2_666 . ?
S1 Cs1 S2 75.89(4) 2_666 1_556 ?
S3 Cs1 S2 153.76(3) . 1_556 ?
S1 Cs1 S3 123.12(4) 2_666 2_566 ?
S3 Cs1 S3 87.23(5) . 2_566 ?
S2 Cs1 S3 100.07(5) 1_556 2_566 ?
S1 Cs1 S4 148.48(3) 2_666 2_656 ?
S3 Cs1 S4 131.11(4) . 2_656 ?
S2 Cs1 S4 74.99(4) 1_556 2_656 ?
S3 Cs1 S4 74.07(4) 2_566 2_656 ?
S1 Cs1 S1 98.41(4) 2_666 . ?
S3 Cs1 S1 58.11(4) . . ?
S2 Cs1 S1 133.31(3) 1_556 . ?
S3 Cs1 S1 119.98(4) 2_566 . ?
S4 Cs1 S1 92.85(5) 2_656 . ?
S1 Cs1 S5 67.71(3) 2_666 2_566 ?
S3 Cs1 S5 73.33(4) . 2_566 ?
S2 Cs1 S5 90.01(4) 1_556 2_566 ?
S3 Cs1 S5 55.48(4) 2_566 2_566 ?
S4 Cs1 S5 123.85(4) 2_656 2_566 ?
S1 Cs1 S5 131.36(4) . 2_566 ?
S1 Cs1 As1 78.79(4) 2_666 1_556 ?
S3 Cs1 As1 132.20(3) . 1_556 ?
S2 Cs1 As1 34.11(3) 1_556 1_556 ?
S3 Cs1 As1 70.84(4) 2_566 1_556 ?
S4 Cs1 As1 83.85(4) 2_656 1_556 ?
S1 Cs1 As1 167.41(2) . 1_556 ?
S5 Cs1 As1 59.14(4) 2_566 1_556 ?
S1 Cs1 S3 55.11(3) 2_666 2_666 ?
S3 Cs1 S3 103.86(5) . 2_666 ?
S2 Cs1 S3 67.42(4) 1_556 2_666 ?
S3 Cs1 S3 167.49(4) 2_566 2_666 ?
S4 Cs1 S3 101.95(4) 2_656 2_666 ?
S1 Cs1 S3 71.64(4) . 2_666 ?
S5 Cs1 S3 121.70(3) 2_566 2_666 ?
As1 Cs1 S3 97.10(4) 1_556 2_666 ?
S1 Cs1 Ag2 113.08(3) 2_666 1_546 ?
S3 Cs1 Ag2 167.86(3) . 1_546 ?
S2 Cs1 Ag2 37.77(3) 1_556 1_546 ?
S3 Cs1 Ag2 85.12(5) 2_566 1_546 ?
S4 Cs1 Ag2 37.26(3) 2_656 1_546 ?
S1 Cs1 Ag2 118.50(3) . 1_546 ?
S5 Cs1 Ag2 109.57(4) 2_566 1_546 ?
As1 Cs1 Ag2 53.21(3) 1_556 1_546 ?
S3 Cs1 Ag2 84.83(4) 2_666 1_546 ?
S1 Cs1 Ag2 129.08(3) 2_666 2_566 ?
S3 Cs1 Ag2 123.50(4) . 2_566 ?
S2 Cs1 Ag2 69.35(4) 1_556 2_566 ?
S3 Cs1 Ag2 36.63(3) 2_566 2_566 ?
S4 Cs1 Ag2 47.81(3) 2_656 2_566 ?
S1 Cs1 Ag2 132.51(3) . 2_566 ?
S5 Cs1 Ag2 76.13(3) 2_566 2_566 ?
As1 Cs1 Ag2 51.71(3) 1_556 2_566 ?
S3 Cs1 Ag2 132.64(3) 2_666 2_566 ?
Ag2 Cs1 Ag2 48.52(3) 1_546 2_566 ?
S1 Cs1 As2 100.87(4) 2_666 . ?
S3 Cs1 As2 31.66(3) . . ?
S2 Cs1 As2 164.71(2) 1_556 . ?
S3 Cs1 As2 94.19(4) 2_566 . ?
S4 Cs1 As2 104.02(4) 2_656 . ?
S1 Cs1 As2 31.65(2) . . ?
S5 Cs1 As2 102.69(4) 2_566 . ?
As1 Cs1 As2 160.805(16) 1_556 . ?
S3 Cs1 As2 98.30(4) 2_666 . ?
Ag2 Cs1 As2 139.79(2) 1_546 . ?
Ag2 Cs1 As2 121.64(3) 2_566 . ?
S1 Cs2 S2 134.24(4) . 2_656 ?
S1 Cs2 S3 80.91(4) . 2_666 ?
S2 Cs2 S3 76.84(4) 2_656 2_666 ?
S1 Cs2 S5 154.48(3) . 2_656 ?
S2 Cs2 S5 62.51(4) 2_656 2_656 ?
S3 Cs2 S5 124.52(3) 2_666 2_656 ?
S1 Cs2 S5 72.32(4) . 1_655 ?
S2 Cs2 S5 138.67(4) 2_656 1_655 ?
S3 Cs2 S5 78.45(4) 2_666 1_655 ?
S5 Cs2 S5 108.00(4) 2_656 1_655 ?
S1 Cs2 S4 72.24(4) . . ?
S2 Cs2 S4 148.39(3) 2_656 . ?
S3 Cs2 S4 131.49(4) 2_666 . ?
S5 Cs2 S4 86.86(4) 2_656 . ?
S5 Cs2 S4 55.39(4) 1_655 . ?
S1 Cs2 S4 147.78(4) . 2_756 ?
S2 Cs2 S4 56.49(4) 2_656 2_756 ?
S3 Cs2 S4 72.45(4) 2_666 2_756 ?
S5 Cs2 S4 54.26(4) 2_656 2_756 ?
S5 Cs2 S4 84.65(4) 1_655 2_756 ?
S4 Cs2 S4 112.83(3) . 2_756 ?
S1 Cs2 Ag1 108.70(4) . 2_656 ?
S2 Cs2 Ag1 40.99(3) 2_656 2_656 ?
S3 Cs2 Ag1 102.27(3) 2_666 2_656 ?
S5 Cs2 Ag1 70.81(4) 2_656 2_656 ?
S5 Cs2 Ag1 178.81(2) 1_655 2_656 ?
S4 Cs2 Ag1 124.17(3) . 2_656 ?
S4 Cs2 Ag1 94.64(4) 2_756 2_656 ?
S1 Cs2 S1 108.28(4) . 2_656 ?
S2 Cs2 S1 69.15(4) 2_656 2_656 ?
S3 Cs2 S1 140.01(4) 2_666 2_656 ?
S5 Cs2 S1 54.94(3) 2_656 2_656 ?
S5 Cs2 S1 141.53(4) 1_655 2_656 ?
S4 Cs2 S1 87.44(4) . 2_656 ?
S4 Cs2 S1 103.78(4) 2_756 2_656 ?
Ag1 Cs2 S1 37.74(3) 2_656 2_656 ?
S1 Cs2 Ag2 115.72(3) . 2_666 ?
S2 Cs2 Ag2 39.67(3) 2_656 2_666 ?
S3 Cs2 Ag2 38.88(3) 2_666 2_666 ?
S5 Cs2 Ag2 89.20(4) 2_656 2_666 ?
S5 Cs2 Ag2 104.98(3) 1_655 2_666 ?
S4 Cs2 Ag2 157.15(3) . 2_666 ?
S4 Cs2 Ag2 48.51(3) 2_756 2_666 ?
Ag1 Cs2 Ag2 75.19(3) 2_656 2_666 ?
S1 Cs2 Ag2 108.52(4) 2_656 2_666 ?
S1 Cs2 As1 167.98(3) . 2_656 ?
S2 Cs2 As1 33.98(3) 2_656 2_656 ?
S3 Cs2 As1 91.47(3) 2_666 2_656 ?
S5 Cs2 As1 34.80(3) 2_656 2_656 ?
S5 Cs2 As1 115.44(4) 1_655 2_656 ?
S4 Cs2 As1 119.57(3) . 2_656 ?
S4 Cs2 As1 33.26(3) 2_756 2_656 ?
Ag1 Cs2 As1 63.66(3) 2_656 2_656 ?
S1 Cs2 As1 71.84(3) 2_656 2_656 ?
Ag2 Cs2 As1 54.47(2) 2_666 2_656 ?
S1 Cs2 Cs2 120.50(4) . 2_756 ?
S2 Cs2 Cs2 104.36(4) 2_656 2_756 ?
S3 Cs2 Cs2 108.09(4) 2_666 2_756 ?
S5 Cs2 Cs2 54.14(4) 2_656 2_756 ?
S5 Cs2 Cs2 53.86(3) 1_655 2_756 ?
S4 Cs2 Cs2 57.96(3) . 2_756 ?
S4 Cs2 Cs2 54.87(3) 2_756 2_756 ?
Ag1 Cs2 Cs2 124.95(3) 2_656 2_756 ?
S1 Cs2 Cs2 100.33(4) 2_656 2_756 ?
Ag2 Cs2 Cs2 102.03(3) 2_666 2_756 ?
As1 Cs2 Cs2 70.66(3) 2_656 2_756 ?
S1 Ag1 S2 109.92(5) . . ?
S1 Ag1 S4 111.43(5) . . ?
S2 Ag1 S4 119.85(5) . . ?
S1 Ag1 As2 120.90(4) . 2_665 ?
S2 Ag1 As2 88.15(5) . 2_665 ?
S4 Ag1 As2 105.36(5) . 2_665 ?
S1 Ag1 Ag2 162.27(3) . 2_665 ?
S2 Ag1 Ag2 81.09(4) . 2_665 ?
S4 Ag1 Ag2 51.10(3) . 2_665 ?
As2 Ag1 Ag2 71.99(3) 2_665 2_665 ?
S1 Ag1 Cs2 71.39(4) . 2_656 ?
S2 Ag1 Cs2 60.81(4) . 2_656 ?
S4 Ag1 Cs2 94.34(4) . 2_656 ?
As2 Ag1 Cs2 148.72(3) 2_665 2_656 ?
Ag2 Ag1 Cs2 104.22(3) 2_665 2_656 ?
S1 Ag1 Cs2 53.40(3) . . ?
S2 Ag1 Cs2 124.19(4) . . ?
S4 Ag1 Cs2 60.19(4) . . ?
As2 Ag1 Cs2 147.65(2) 2_665 . ?
Ag2 Ag1 Cs2 109.01(3) 2_665 . ?
Cs2 Ag1 Cs2 63.56(3) 2_656 . ?
S3 Ag2 S4 124.62(5) . 2_665 ?
S3 Ag2 S2 115.99(5) . 1_565 ?
S4 Ag2 S2 118.09(5) 2_665 1_565 ?
S3 Ag2 Ag1 86.92(4) . 2_665 ?
S4 Ag2 Ag1 52.92(4) 2_665 2_665 ?
S2 Ag2 Ag1 124.43(4) 1_565 2_665 ?
S3 Ag2 Cs2 59.97(4) . 2_666 ?
S4 Ag2 Cs2 171.98(3) 2_665 2_666 ?
S2 Ag2 Cs2 59.56(4) 1_565 2_666 ?
Ag1 Ag2 Cs2 135.07(2) 2_665 2_666 ?
S3 Ag2 Cs1 170.08(4) . 1_564 ?
S4 Ag2 Cs1 60.08(4) 2_665 1_564 ?
S2 Ag2 Cs1 58.10(4) 1_565 1_564 ?
Ag1 Ag2 Cs1 90.62(3) 2_665 1_564 ?
Cs2 Ag2 Cs1 116.61(2) 2_666 1_564 ?
S3 Ag2 Cs1 58.24(5) . 2_566 ?
S4 Ag2 Cs1 97.11(4) 2_665 2_566 ?
S2 Ag2 Cs1 125.95(4) 1_565 2_566 ?
Ag1 Ag2 Cs1 109.35(3) 2_665 2_566 ?
Cs2 Ag2 Cs1 79.78(3) 2_666 2_566 ?
Cs1 Ag2 Cs1 131.48(3) 1_564 2_566 ?
S2 As1 S4 101.20(6) . 1_455 ?
S2 As1 S5 106.33(6) . . ?
S4 As1 S5 96.23(6) 1_455 . ?
S2 As1 Cs1 62.25(4) . 1_554 ?
S4 As1 Cs1 108.50(5) 1_455 1_554 ?
S5 As1 Cs1 154.14(4) . 1_554 ?
S2 As1 Cs2 59.23(4) . 2_656 ?
S4 As1 Cs2 69.74(4) 1_455 2_656 ?
S5 As1 Cs2 61.97(4) . 2_656 ?
Cs1 As1 Cs2 119.33(3) 1_554 2_656 ?
S1 As2 S3 103.91(5) . . ?
S1 As2 S5 99.05(6) . . ?
S3 As2 S5 100.92(6) . . ?
S1 As2 Ag1 121.58(5) . 2_665 ?
S3 As2 Ag1 101.77(4) . 2_665 ?
S5 As2 Ag1 125.98(5) . 2_665 ?
S1 As2 Cs1 59.56(4) . . ?
S3 As2 Cs1 57.06(4) . . ?
S5 As2 Cs1 74.86(5) . . ?
Ag1 As2 Cs1 155.05(2) 2_665 . ?
S1 As2 Cs1 52.79(4) . 2_666 ?
S3 As2 Cs1 65.79(4) . 2_666 ?
S5 As2 Cs1 139.51(4) . 2_666 ?
Ag1 As2 Cs1 94.50(4) 2_665 2_666 ?
Cs1 As2 Cs1 65.84(3) . 2_666 ?
As2 S1 Ag1 91.26(5) . . ?
As2 S1 Cs2 167.03(7) . . ?
Ag1 S1 Cs2 90.52(4) . . ?
As2 S1 Cs1 96.85(5) . 2_666 ?
Ag1 S1 Cs1 120.95(6) . 2_666 ?
Cs2 S1 Cs1 93.23(4) . 2_666 ?
As2 S1 Cs1 88.80(5) . . ?
Ag1 S1 Cs1 157.24(6) . . ?
Cs2 S1 Cs1 84.62(4) . . ?
Cs1 S1 Cs1 81.59(4) 2_666 . ?
As2 S1 Cs2 96.78(5) . 2_656 ?
Ag1 S1 Cs2 70.87(5) . 2_656 ?
Cs2 S1 Cs2 71.72(4) . 2_656 ?
Cs1 S1 Cs2 161.68(4) 2_666 2_656 ?
Cs1 S1 Cs2 86.52(5) . 2_656 ?
As1 S2 Ag2 98.57(6) . 1_545 ?
As1 S2 Ag1 118.30(6) . . ?
Ag2 S2 Ag1 135.88(6) 1_545 . ?
As1 S2 Cs2 86.79(5) . 2_656 ?
Ag2 S2 Cs2 80.77(5) 1_545 2_656 ?
Ag1 S2 Cs2 78.20(5) . 2_656 ?
As1 S2 Cs1 83.64(5) . 1_554 ?
Ag2 S2 Cs1 84.14(5) 1_545 1_554 ?
Ag1 S2 Cs1 121.09(6) . 1_554 ?
Cs2 S2 Cs1 160.71(5) 2_656 1_554 ?
As2 S3 Ag2 96.55(5) . . ?
As2 S3 Cs2 161.25(6) . 2_666 ?
Ag2 S3 Cs2 81.15(4) . 2_666 ?
As2 S3 Cs1 91.28(4) . . ?
Ag2 S3 Cs1 172.16(5) . . ?
Cs2 S3 Cs1 91.57(4) 2_666 . ?
As2 S3 Cs1 102.51(6) . 2_566 ?
Ag2 S3 Cs1 85.13(5) . 2_566 ?
Cs2 S3 Cs1 95.86(4) 2_666 2_566 ?
Cs1 S3 Cs1 92.77(5) . 2_566 ?
As2 S3 Cs1 83.79(5) . 2_666 ?
Ag2 S3 Cs1 105.07(6) . 2_666 ?
Cs2 S3 Cs1 78.92(4) 2_666 2_666 ?
Cs1 S3 Cs1 76.14(5) . 2_666 ?
Cs1 S3 Cs1 167.49(4) 2_566 2_666 ?
As1 S4 Ag2 96.07(6) 1_655 2_665 ?
As1 S4 Ag1 88.78(5) 1_655 . ?
Ag2 S4 Ag1 75.98(4) 2_665 . ?
As1 S4 Cs1 156.14(5) 1_655 2_656 ?
Ag2 S4 Cs1 82.66(5) 2_665 2_656 ?
Ag1 S4 Cs1 113.74(5) . 2_656 ?
As1 S4 Cs2 102.30(5) 1_655 . ?
Ag2 S4 Cs2 151.36(5) 2_665 . ?
Ag1 S4 Cs2 82.58(5) . . ?
Cs1 S4 Cs2 88.95(4) 2_656 . ?
As1 S4 Cs2 77.00(5) 1_655 2_756 ?
Ag2 S4 Cs2 139.37(5) 2_665 2_756 ?
Ag1 S4 Cs2 142.37(5) . 2_756 ?
Cs1 S4 Cs2 88.45(4) 2_656 2_756 ?
Cs2 S4 Cs2 67.17(3) . 2_756 ?
As1 S5 As2 96.35(6) . . ?
As1 S5 Cs2 83.24(5) . 2_656 ?
As2 S5 Cs2 103.61(5) . 2_656 ?
As1 S5 Cs2 105.65(5) . 1_455 ?
As2 S5 Cs2 156.66(5) . 1_455 ?
Cs2 S5 Cs2 72.00(4) 2_656 1_455 ?
As1 S5 Cs1 120.53(5) . 2_566 ?
As2 S5 Cs1 91.51(4) . 2_566 ?
Cs2 S5 Cs1 150.54(4) 2_656 2_566 ?
Cs2 S5 Cs1 84.06(4) 1_455 2_566 ?
loop_
_geom_bond_atom_site_label_1
_geom_bond_atom_site_label_2
_geom_bond_distance
_geom_bond_site_symmetry_2
_geom_bond_publ_flag
Cs1 S1 3.4705(18) 2_666 ?
Cs1 S3 3.524(2) . ?
Cs1 S2 3.5311(17) 1_556 ?
Cs1 S3 3.5654(16) 2_566 ?
Cs1 S4 3.6157(18) 2_656 ?
Cs1 S1 3.6195(18) . ?
Cs1 S5 3.8919(17) 2_566 ?
Cs1 As1 3.9655(13) 1_556 ?
Cs1 S3 3.9694(16) 2_666 ?
Cs1 Ag2 4.138(2) 1_546 ?
Cs1 Ag2 4.178(2) 2_566 ?
Cs1 As2 4.1973(14) . ?
Cs2 S1 3.4073(19) . ?
Cs2 S2 3.4401(19) 2_656 ?
Cs2 S3 3.4507(15) 2_666 ?
Cs2 S5 3.5529(18) 2_656 ?
Cs2 S5 3.566(2) 1_655 ?
Cs2 S4 3.7133(16) . ?
Cs2 S4 3.8486(17) 2_756 ?
Cs2 Ag1 3.857(2) 2_656 ?
Cs2 S1 3.869(2) 2_656 ?
Cs2 Ag2 3.9385(9) 2_666 ?
Cs2 As1 3.9972(18) 2_656 ?
Cs2 Cs2 4.1845(13) 2_756 ?
Ag1 S1 2.4993(15) . ?
Ag1 S2 2.5849(15) . ?
Ag1 S4 2.5897(15) . ?
Ag1 As2 2.8181(14) 2_665 ?
Ag1 Ag2 3.1493(10) 2_665 ?
Ag1 Cs2 3.857(2) 2_656 ?
Ag2 S3 2.5020(17) . ?
Ag2 S4 2.5260(14) 2_665 ?
Ag2 S2 2.5474(16) 1_565 ?
Ag2 Ag1 3.1493(11) 2_665 ?
Ag2 Cs2 3.9385(9) 2_666 ?
Ag2 Cs1 4.138(2) 1_564 ?
Ag2 Cs1 4.178(2) 2_566 ?
As1 S2 2.2376(15) . ?
As1 S4 2.2502(17) 1_455 ?
As1 S5 2.2970(14) . ?
As1 Cs1 3.9655(13) 1_554 ?
As1 Cs2 3.9972(18) 2_656 ?
As2 S1 2.2027(15) . ?
As2 S3 2.2034(14) . ?
As2 S5 2.3123(17) . ?
As2 Ag1 2.8181(14) 2_665 ?
As2 Cs1 4.3266(12) 2_666 ?
S1 Cs1 3.4705(18) 2_666 ?
S1 Cs2 3.869(2) 2_656 ?
S2 Ag2 2.5473(15) 1_545 ?
S2 Cs2 3.4400(18) 2_656 ?
S2 Cs1 3.5310(17) 1_554 ?
S3 Cs2 3.4507(15) 2_666 ?
S3 Cs1 3.5653(16) 2_566 ?
S3 Cs1 3.9694(16) 2_666 ?
S4 As1 2.2501(17) 1_655 ?
S4 Ag2 2.5261(14) 2_665 ?
S4 Cs1 3.6158(18) 2_656 ?
S4 Cs2 3.8485(17) 2_756 ?
S5 Cs2 3.5530(18) 2_656 ?
S5 Cs2 3.566(2) 1_455 ?
S5 Cs1 3.8919(17) 2_566 ?
