#------------------------------------------------------------------------------
#$Date: 2020-11-06 14:17:11 +0200 (Fri, 06 Nov 2020) $
#$Revision: 258845 $
#$URL: file:///home/coder/svn-repositories/cod/cif/7/70/54/7705466.cif $
#------------------------------------------------------------------------------
#
# This file is available in the Crystallography Open Database (COD),
# http://www.crystallography.net/
#
# All data on this site have been placed in the public domain by the
# contributors.
#
data_7705466
loop_
_publ_author_name
'Zhang, Jia-Rong'
'Lee, Jey-Jau'
'Su, Chun-Hao'
'Tsai, Meng-Jung'
'Li, Chih-Yu'
'Wu, Jing-Yun'
_publ_section_title
;
 From lamellar net to bilayered-lamella and to porous pillared-bilayer:
 reversible crystal-to-crystal transformation, CO<sub>2</sub> adsorption,
 and fluorescence detection of Fe<sup>3+</sup>, Al<sup>3+</sup>,
 Cr<sup>3+</sup>, MnO<sub>4</sub><sup>-</sup>, and
 Cr<sub>2</sub>O<sub>7</sub><sup>2-</sup> in water.
;
_journal_issue                   40
_journal_name_full
'Dalton transactions (Cambridge, England : 2003)'
_journal_page_first              14201
_journal_page_last               14215
_journal_paper_doi               10.1039/d0dt02606a
_journal_volume                  49
_journal_year                    2020
_chemical_formula_sum            'C8 H5 N O4 Zn'
_chemical_formula_weight         244.5
_space_group_IT_number           14
_space_group_name_Hall           '-P 2yn'
_space_group_name_H-M_alt        'P 1 21/n 1'
_symmetry_cell_setting           monoclinic
_symmetry_Int_Tables_number      14
_symmetry_space_group_name_Hall  '-P 2yn'
_symmetry_space_group_name_H-M   'P 1 21/n 1'
_audit_update_record
;
2020-03-19 deposited with the CCDC.	2020-09-21 downloaded from the CCDC.
;
_cell_angle_alpha                90
_cell_angle_beta                 96.8777(17)
_cell_angle_gamma                90
_cell_formula_units_Z            4
_cell_length_a                   7.39374(17)
_cell_length_b                   8.1713(2)
_cell_length_c                   13.3835(3)
_cell_measurement_temperature    540
_cell_volume                     802.77(3)
_diffrn_ambient_temperature      540
_diffrn_radiation_probe          x-ray
_diffrn_radiation_wavelength     0.6889
_exptl_absorpt_coefficient_mu    2.87
_exptl_crystal_density_diffrn    2.0231
_exptl_crystal_F_000             488
_pd_instr_location               ' ?'
_pd_meas_2theta_range_inc        0.01
_pd_meas_2theta_range_max        41.890
_pd_meas_2theta_range_min        2.000
_pd_meas_number_of_points        4000
_pd_proc_2theta_range_inc        0.01
_pd_proc_2theta_range_max        41.89
_pd_proc_2theta_range_min        2
_pd_proc_ls_background_function  '36 Chebyshev polynoms'
_pd_proc_ls_pref_orient_corr     'Sasa & Uda'
_pd_proc_ls_profile_function     Pseudo-Voigt
_pd_proc_ls_prof_R_factor        0.0178
_pd_proc_ls_prof_wR_expected     0.0258
_pd_proc_ls_prof_wR_factor       0.0284
_refine_ls_goodness_of_fit_all   1.10
_refine_ls_hydrogen_treatment    constr
_refine_ls_number_constraints    0
_refine_ls_number_parameters     106
_refine_ls_number_restraints     0
_refine_ls_R_factor_all          0.0267
_refine_ls_R_factor_gt           0.0267
_refine_ls_shift/su_max          3.0572
_refine_ls_shift/su_mean         0.3437
_refine_ls_weighting_scheme      sigma
_refine_ls_wR_factor_all         0.0305
_refine_ls_wR_factor_gt          0.0305
_cod_data_source_file            d0dt02606a2.cif
_cod_data_source_block           I
_cod_depositor_comments
;
The following automatic conversions were performed:

data item '_diffrn_radiation_probe' value 'X-ray' was changed to
'x-ray' in accordance with the
/home/data/users/saulius/crontab/automatic-downloads/rss-feeds/RSC/lib/dictionaries/cif_core.dic
dictionary named 'cif_core.dic' version 2.4.2 last updated on
2011-04-26.

Automatic conversion script
Id: cif_fix_values 7556 2019-12-06 15:28:31Z antanas 

 Adding full bibliography for 7705466--7705467.cif.
;
_cod_original_cell_volume        802.76(4)
_cod_original_sg_symbol_Hall     '-P 2yabc'
_cod_original_formula_sum        'C8 H5 N1 O4 Zn1'
_cod_database_code               7705466
loop_
_space_group_symop_id
_space_group_symop_operation_xyz
1 x,y,z
2 -x+1/2,y+1/2,-z+1/2
3 -x,-y,-z
4 x+1/2,-y+1/2,z+1/2
loop_
_atom_site_label
_atom_site_type_symbol
_atom_site_fract_x
_atom_site_fract_y
_atom_site_fract_z
_atom_site_adp_type
_atom_site_U_iso_or_equiv
_atom_site_site_symmetry_multiplicity
_atom_site_occupancy
_atom_site_calc_flag
_atom_site_refinement_flags
_atom_site_disorder_assembly
_atom_site_disorder_group
C1 C 0.037(2) 0.088(2) 0.2068(12) Uiso 0.008(6) 4 1 d . . .
C2 C 0.0385(18) -0.069(2) 0.1731(10) Uiso 0.034(7) 4 1 d . . .
H3 H -0.03615 -0.157712 0.204594 Uiso 0.0411 4 1 d . . .
C4 C 0.129(2) -0.106(2) 0.1045(14) Uiso 0.041(8) 4 1 d . . .
C5 C 0.2389(18) 0.0036(16) 0.0521(12) Uiso 0.031(7) 4 1 d . . .
H6 H 0.309012 -0.031396 -0.006422 Uiso 0.0373 4 1 d . . .
C7 C 0.238(3) 0.163(2) 0.0905(13) Uiso 0.017(7) 4 1 d . . .
C8 C 0.138(2) 0.2045(19) 0.1683(14) Uiso 0.027(7) 4 1 d . . .
H9 H 0.139814 0.32226 0.195801 Uiso 0.0329 4 1 d . . .
C10 C -0.086(4) 0.129(3) 0.2916(17) Uiso 0.100(13) 4 1 d . . .
C11 C 0.141(3) -0.289(3) 0.069(2) Uiso 0.079(9) 4 1 d . . .
N12 N 0.355(2) 0.2885(15) 0.0473(10) Uiso 0.035(5) 4 1 d . . .
H13 H 0.418543 0.344515 0.097642 Uiso 0.0424 4 1 d . . .
H14 H 0.445341 0.238211 0.019879 Uiso 0.0424 4 1 d . . .
O15 O -0.0969(18) 0.2788(15) 0.3159(10) Uiso 0.062(6) 4 1 d . . .
O16 O -0.1261(18) 0.0150(12) 0.3415(11) Uiso 0.042(5) 4 1 d . . .
O17 O 0.0368(18) -0.3935(16) 0.1091(9) Uiso 0.060(6) 4 1 d . . .
O18 O 0.2293(19) -0.3261(16) -0.0012(9) Uiso 0.034(5) 4 1 d . . .
Zn19 Zn 0.2264(4) 0.4480(3) -0.05373(19) Uani 0.0396(11) 4 1 d . . .
loop_
_atom_site_aniso_label
_atom_site_aniso_type_symbol
_atom_site_aniso_U_11
_atom_site_aniso_U_22
_atom_site_aniso_U_33
_atom_site_aniso_U_12
_atom_site_aniso_U_13
_atom_site_aniso_U_23
Zn19 Zn 0.044(2) 0.032(2) 0.04997 -0.002(3) 0.0366(13) -0.008(3)
loop_
_atom_type_symbol
_atom_type_scat_dispersion_real
_atom_type_scat_dispersion_imag
_atom_type_scat_source
C 0.0031 0.0016 'International Tables Vol C tables 4.2.6.8 and 6.1.1.1'
H 0.0000 0.0000 'International Tables Vol C tables 4.2.6.8 and 6.1.1.1'
N 0.0061 0.0032 'International Tables Vol C tables 4.2.6.8 and 6.1.1.1'
O 0.0106 0.0058 'International Tables Vol C tables 4.2.6.8 and 6.1.1.1'
Zn 0.3033 1.3626 'International Tables Vol C tables 4.2.6.8 and 6.1.1.1'
loop_
_exptl_crystal_face_index_h
_exptl_crystal_face_index_k
_exptl_crystal_face_index_l
_exptl_crystal_face_perp_dist
? ? ? ?
loop_
_geom_angle_atom_site_label_1
_geom_angle_atom_site_label_2
_geom_angle_atom_site_label_3
_geom_angle_site_symmetry_1
_geom_angle_site_symmetry_2
_geom_angle_site_symmetry_3
_geom_angle
_geom_angle_publ_flag
? ? ? ? ? ? ? ?
loop_
_geom_bond_atom_site_label_1
_geom_bond_atom_site_label_2
_geom_bond_site_symmetry_1
_geom_bond_site_symmetry_2
_geom_bond_distance
_geom_bond_publ_flag
? ? ? ? ? ?
loop_
_geom_hbond_atom_site_label_D
_geom_hbond_atom_site_label_H
_geom_hbond_atom_site_label_A
_geom_hbond_site_symmetry_D
_geom_hbond_site_symmetry_H
_geom_hbond_site_symmetry_A
_geom_hbond_distance_DH
_geom_hbond_distance_HA
_geom_hbond_distance_DA
_geom_hbond_angle_DHA
_geom_hbond_publ_flag
? ? ? ? ? ? ? ? ? ? ?
loop_
_geom_torsion_atom_site_label_1
_geom_torsion_atom_site_label_2
_geom_torsion_atom_site_label_3
_geom_torsion_atom_site_label_4
_geom_torsion_site_symmetry_1
_geom_torsion_site_symmetry_2
_geom_torsion_site_symmetry_3
_geom_torsion_site_symmetry_4
_geom_torsion
_geom_torsion_publ_flag
? ? ? ? ? ? ? ? ? ?
loop_
_pd_proc_point_id
_pd_proc_2theta_corrected
_pd_proc_intensity_net
_pd_calc_intensity_net
_pd_proc_ls_weight
1 2.0000 1625.78 1609.89 40.32
2 2.0100 1612.08 1608.64 40.15
3 2.0199 1608.55 1607.27 40.11
4 2.0299 1601.89 1605.78 40.02
5 2.0399 1601.92 1604.21 40.02
6 2.0499 1612.91 1602.55 40.16
7 2.0598 1598.54 1600.84 39.98
8 2.0698 1611.35 1599.08 40.14
9 2.0798 1596.05 1597.28 39.95
10 2.0898 1587.88 1595.45 39.85
11 2.0998 1582.81 1593.61 39.78
12 2.1097 1582.83 1591.77 39.78
13 2.1197 1581.05 1589.93 39.76
14 2.1297 1575.12 1588.10 39.69
15 2.1397 1576.51 1586.28 39.71
16 2.1496 1570.00 1584.49 39.62
17 2.1596 1579.23 1582.73 39.74
18 2.1696 1576.09 1581.01 39.70
19 2.1795 1580.10 1579.32 39.75
20 2.1895 1579.90 1577.68 39.75
21 2.1995 1592.53 1576.08 39.91
22 2.2095 1565.92 1574.54 39.57
23 2.2194 1581.68 1573.04 39.77
24 2.2294 1572.76 1571.60 39.66
25 2.2394 1563.90 1570.21 39.55
26 2.2494 1574.76 1568.89 39.68
27 2.2594 1550.02 1567.62 39.37
28 2.2693 1569.52 1566.40 39.62
29 2.2793 1553.98 1565.25 39.42
30 2.2893 1569.91 1564.16 39.62
31 2.2992 1558.84 1563.12 39.48
32 2.3092 1571.52 1562.15 39.64
33 2.3192 1575.44 1561.23 39.69
34 2.3292 1570.63 1560.37 39.63
35 2.3391 1571.52 1559.57 39.64
36 2.3491 1566.64 1558.82 39.58
37 2.3591 1554.27 1558.13 39.42
38 2.3691 1562.15 1557.49 39.52
39 2.3791 1558.65 1556.90 39.48
40 2.3890 1565.10 1556.36 39.56
41 2.3990 1558.00 1555.87 39.47
42 2.4090 1562.09 1555.43 39.52
43 2.4190 1568.99 1555.04 39.61
44 2.4289 1555.49 1554.68 39.44
45 2.4389 1570.64 1554.37 39.63
46 2.4489 1564.50 1554.10 39.55
47 2.4588 1573.71 1553.87 39.67
48 2.4688 1564.78 1553.67 39.56
49 2.4788 1552.63 1553.51 39.40
50 2.4888 1555.98 1553.38 39.45
51 2.4987 1551.22 1553.29 39.39
52 2.5087 1536.22 1553.22 39.19
53 2.5187 1534.32 1553.18 39.17
54 2.5287 1548.01 1553.17 39.34
55 2.5387 1537.92 1553.18 39.22
56 2.5486 1537.39 1553.21 39.21
57 2.5586 1552.41 1553.26 39.40
58 2.5686 1532.91 1553.34 39.15
59 2.5786 1558.76 1553.43 39.48
60 2.5885 1545.40 1553.54 39.31
61 2.5985 1554.38 1553.66 39.43
62 2.6085 1557.19 1553.79 39.46
63 2.6184 1559.47 1553.94 39.49
64 2.6284 1559.73 1554.10 39.49
65 2.6384 1569.39 1554.26 39.62
66 2.6484 1562.18 1554.44 39.52
67 2.6583 1567.96 1554.62 39.60
68 2.6683 1539.86 1554.81 39.24
69 2.6783 1552.73 1555.01 39.40
70 2.6883 1550.91 1555.20 39.38
71 2.6983 1550.81 1555.40 39.38
72 2.7082 1546.17 1555.61 39.32
73 2.7182 1563.83 1555.81 39.55
74 2.7282 1548.09 1556.01 39.35
75 2.7381 1556.33 1556.22 39.45
76 2.7481 1556.89 1556.42 39.46
77 2.7581 1554.43 1556.62 39.43
78 2.7681 1532.72 1556.82 39.15
79 2.7780 1557.57 1557.02 39.47
80 2.7880 1552.69 1557.22 39.40
81 2.7980 1569.27 1557.41 39.61
82 2.8080 1577.96 1557.59 39.72
83 2.8180 1568.44 1557.78 39.60
84 2.8279 1557.61 1557.96 39.47
85 2.8379 1562.04 1558.13 39.52
86 2.8479 1553.97 1558.30 39.42
87 2.8579 1539.58 1558.46 39.24
88 2.8678 1562.17 1558.62 39.52
89 2.8778 1563.73 1558.78 39.54
90 2.8878 1571.25 1558.93 39.64
91 2.8977 1554.38 1559.07 39.43
92 2.9077 1559.18 1559.21 39.49
93 2.9177 1538.65 1559.34 39.23
94 2.9277 1557.53 1559.47 39.47
95 2.9376 1558.05 1559.59 39.47
96 2.9476 1543.55 1559.71 39.29
97 2.9576 1556.13 1559.82 39.45
98 2.9676 1547.64 1559.93 39.34
99 2.9776 1544.79 1560.03 39.30
100 2.9875 1565.26 1560.13 39.56
101 2.9975 1550.65 1560.22 39.38
102 3.0075 1567.83 1560.31 39.60
103 3.0175 1564.33 1560.39 39.55
104 3.0274 1567.13 1560.48 39.59
105 3.0374 1568.42 1560.56 39.60
106 3.0474 1563.54 1560.63 39.54
107 3.0573 1572.06 1560.70 39.65
108 3.0673 1565.91 1560.77 39.57
109 3.0773 1562.31 1560.84 39.53
110 3.0873 1534.12 1560.91 39.17
111 3.0972 1553.22 1560.97 39.41
112 3.1072 1558.31 1561.03 39.48
113 3.1172 1550.93 1561.09 39.38
114 3.1272 1557.47 1561.15 39.46
115 3.1372 1557.48 1561.21 39.46
116 3.1471 1548.35 1561.27 39.35
117 3.1571 1560.79 1561.33 39.51
118 3.1671 1553.19 1561.39 39.41
119 3.1771 1553.08 1561.44 39.41
120 3.1870 1540.25 1561.50 39.25
121 3.1970 1563.19 1561.56 39.54
122 3.2070 1560.84 1561.63 39.51
123 3.2169 1562.58 1561.69 39.53
124 3.2269 1566.23 1561.75 39.58
125 3.2369 1570.40 1561.82 39.63
126 3.2469 1571.33 1561.89 39.64
127 3.2569 1571.99 1561.96 39.65
128 3.2668 1565.58 1562.03 39.57
129 3.2768 1557.99 1562.11 39.47
130 3.2868 1569.45 1562.19 39.62
131 3.2968 1562.24 1562.27 39.53
132 3.3067 1576.53 1562.36 39.71
133 3.3167 1570.21 1562.44 39.63
134 3.3267 1557.61 1562.54 39.47
135 3.3366 1577.20 1562.63 39.71
136 3.3466 1568.69 1562.73 39.61
137 3.3566 1582.54 1562.83 39.78
138 3.3666 1561.66 1562.94 39.52
139 3.3765 1558.73 1563.05 39.48
140 3.3865 1571.65 1563.17 39.64
141 3.3965 1576.75 1563.28 39.71
142 3.4065 1548.07 1563.41 39.35
143 3.4165 1560.79 1563.53 39.51
144 3.4264 1564.15 1563.67 39.55
145 3.4364 1562.08 1563.80 39.52
146 3.4464 1580.03 1563.94 39.75
147 3.4564 1560.58 1564.08 39.50
148 3.4663 1577.87 1564.23 39.72
149 3.4763 1576.17 1564.38 39.70
150 3.4863 1579.11 1564.54 39.74
151 3.4962 1568.36 1564.70 39.60
152 3.5062 1567.66 1564.86 39.59
153 3.5162 1569.21 1565.03 39.61
154 3.5262 1576.42 1565.20 39.70
155 3.5361 1559.85 1565.38 39.49
156 3.5461 1563.80 1565.55 39.54
157 3.5561 1576.47 1565.74 39.70
158 3.5661 1564.73 1565.92 39.56
159 3.5761 1570.79 1566.11 39.63
160 3.5860 1563.94 1566.30 39.55
161 3.5960 1567.37 1566.49 39.59
162 3.6060 1579.01 1566.69 39.74
163 3.6160 1576.04 1566.89 39.70
164 3.6259 1583.02 1567.09 39.79
165 3.6359 1574.98 1567.30 39.69
166 3.6459 1563.49 1567.50 39.54
167 3.6558 1588.83 1567.71 39.86
168 3.6658 1580.66 1567.92 39.76
169 3.6758 1588.69 1568.13 39.86
170 3.6858 1574.96 1568.34 39.69
171 3.6957 1585.64 1568.55 39.82
172 3.7057 1568.79 1568.77 39.61
173 3.7157 1584.59 1568.98 39.81
174 3.7257 1568.85 1569.20 39.61
175 3.7357 1567.28 1569.41 39.59
176 3.7456 1559.68 1569.63 39.49
177 3.7556 1573.69 1569.84 39.67
178 3.7656 1572.19 1570.06 39.65
179 3.7755 1584.27 1570.27 39.80
180 3.7855 1572.27 1570.48 39.65
181 3.7955 1558.24 1570.70 39.47
182 3.8055 1579.79 1570.91 39.75
183 3.8154 1556.23 1571.12 39.45
184 3.8254 1557.39 1571.33 39.46
185 3.8354 1565.73 1571.53 39.57
186 3.8454 1563.67 1571.74 39.54
187 3.8554 1570.95 1571.94 39.64
188 3.8653 1561.57 1572.14 39.52
189 3.8753 1570.03 1572.33 39.62
190 3.8853 1555.98 1572.53 39.45
191 3.8953 1563.24 1572.72 39.54
192 3.9052 1572.80 1572.91 39.66
193 3.9152 1562.34 1573.09 39.53
194 3.9252 1562.22 1573.27 39.53
195 3.9351 1557.00 1573.45 39.46
196 3.9451 1562.71 1573.62 39.53
197 3.9551 1552.81 1573.79 39.41
198 3.9651 1563.31 1573.95 39.54
199 3.9750 1569.03 1574.11 39.61
200 3.9850 1564.52 1574.27 39.55
201 3.9950 1582.52 1574.42 39.78
202 4.0050 1568.59 1574.57 39.61
203 4.0149 1581.37 1574.71 39.77
204 4.0249 1575.41 1574.84 39.69
205 4.0349 1571.42 1574.98 39.64
206 4.0449 1568.09 1575.10 39.60
207 4.0549 1569.21 1575.22 39.61
208 4.0648 1562.45 1575.34 39.53
209 4.0748 1575.11 1575.45 39.69
210 4.0848 1561.84 1575.55 39.52
211 4.0947 1609.14 1575.65 40.11
212 4.1047 1569.50 1575.74 39.62
213 4.1147 1578.68 1575.83 39.73
214 4.1247 1590.10 1575.91 39.88
215 4.1347 1567.39 1575.98 39.59
216 4.1446 1565.79 1576.05 39.57
217 4.1546 1567.85 1576.12 39.60
218 4.1646 1569.54 1576.17 39.62
219 4.1746 1583.72 1576.22 39.80
220 4.1845 1558.54 1576.27 39.48
221 4.1945 1560.29 1576.31 39.50
222 4.2045 1562.72 1576.34 39.53
223 4.2144 1574.60 1576.37 39.68
224 4.2244 1565.64 1576.39 39.57
225 4.2344 1564.21 1576.40 39.55
226 4.2444 1559.11 1576.41 39.49
227 4.2544 1560.92 1576.41 39.51
228 4.2643 1564.04 1576.41 39.55
229 4.2743 1568.97 1576.40 39.61
230 4.2843 1566.58 1576.39 39.58
231 4.2943 1594.90 1576.37 39.94
232 4.3042 1572.93 1576.34 39.66
233 4.3142 1577.57 1576.31 39.72
234 4.3242 1567.95 1576.28 39.60
235 4.3341 1566.05 1576.24 39.57
236 4.3441 1563.16 1576.19 39.54
237 4.3541 1557.45 1576.14 39.46
238 4.3641 1563.93 1576.08 39.55
239 4.3741 1551.21 1576.02 39.39
240 4.3840 1573.19 1575.95 39.66
241 4.3940 1562.93 1575.88 39.53
242 4.4040 1575.18 1575.81 39.69
243 4.4139 1578.70 1575.73 39.73
244 4.4239 1573.99 1575.64 39.67
245 4.4339 1580.38 1575.55 39.75
246 4.4439 1575.85 1575.46 39.70
247 4.4538 1579.04 1575.37 39.74
248 4.4638 1567.86 1575.27 39.60
249 4.4738 1563.38 1575.16 39.54
250 4.4838 1564.19 1575.06 39.55
251 4.4938 1577.31 1574.95 39.72
252 4.5037 1572.84 1574.84 39.66
253 4.5137 1581.87 1574.72 39.77
254 4.5237 1570.30 1574.60 39.63
255 4.5336 1572.24 1574.48 39.65
256 4.5436 1581.63 1574.36 39.77
257 4.5536 1583.80 1574.24 39.80
258 4.5636 1577.75 1574.11 39.72
259 4.5736 1583.62 1573.99 39.79
260 4.5835 1573.32 1573.86 39.67
261 4.5935 1566.85 1573.73 39.58
262 4.6035 1558.95 1573.60 39.48
263 4.6135 1570.14 1573.46 39.62
264 4.6234 1573.13 1573.33 39.66
265 4.6334 1576.32 1573.20 39.70
266 4.6434 1589.67 1573.06 39.87
267 4.6533 1583.33 1572.93 39.79
268 4.6633 1581.56 1572.80 39.77
269 4.6733 1590.86 1572.66 39.89
270 4.6833 1586.23 1572.53 39.83
271 4.6933 1592.62 1572.40 39.91
272 4.7032 1574.43 1572.27 39.68
273 4.7132 1576.82 1572.14 39.71
274 4.7232 1587.07 1572.01 39.84
275 4.7332 1570.99 1571.88 39.64
276 4.7431 1586.05 1571.76 39.83
277 4.7531 1562.00 1571.63 39.52
278 4.7631 1571.66 1571.51 39.64
279 4.7730 1563.23 1571.39 39.54
280 4.7830 1581.01 1571.27 39.76
281 4.7930 1566.43 1571.16 39.58
282 4.8030 1561.34 1571.05 39.51
283 4.8130 1574.92 1570.94 39.69
284 4.8229 1569.58 1570.83 39.62
285 4.8329 1583.43 1570.73 39.79
286 4.8429 1563.69 1570.63 39.54
287 4.8528 1577.33 1570.53 39.72
288 4.8628 1580.57 1570.44 39.76
289 4.8728 1584.66 1570.35 39.81
290 4.8828 1585.84 1570.27 39.82
291 4.8927 1568.82 1570.19 39.61
292 4.9027 1585.89 1570.11 39.82
293 4.9127 1582.30 1570.04 39.78
294 4.9227 1582.67 1569.97 39.78
295 4.9327 1584.34 1569.91 39.80
296 4.9426 1584.31 1569.85 39.80
297 4.9526 1599.35 1569.80 39.99
298 4.9626 1593.28 1569.75 39.92
299 4.9725 1587.03 1569.71 39.84
300 4.9825 1591.01 1569.67 39.89
301 4.9925 1583.03 1569.64 39.79
302 5.0025 1590.45 1569.61 39.88
303 5.0125 1580.38 1569.59 39.75
304 5.0224 1574.06 1569.57 39.67
305 5.0324 1586.87 1569.56 39.84
306 5.0424 1583.60 1569.56 39.79
307 5.0524 1587.35 1569.56 39.84
308 5.0623 1597.01 1569.56 39.96
309 5.0723 1608.14 1569.58 40.10
310 5.0823 1596.50 1569.60 39.96
311 5.0922 1599.32 1569.62 39.99
312 5.1022 1595.24 1569.65 39.94
313 5.1122 1589.18 1569.69 39.86
314 5.1222 1594.78 1569.73 39.93
315 5.1322 1583.94 1569.78 39.80
316 5.1421 1590.58 1569.84 39.88
317 5.1521 1587.90 1569.90 39.85
318 5.1621 1598.68 1569.97 39.98
319 5.1720 1603.93 1570.04 40.05
320 5.1820 1592.78 1570.12 39.91
321 5.1920 1605.40 1570.21 40.07
322 5.2020 1601.13 1570.30 40.01
323 5.2119 1603.87 1570.40 40.05
324 5.2219 1609.30 1570.50 40.12
325 5.2319 1598.50 1570.61 39.98
326 5.2419 1600.21 1570.73 40.00
327 5.2519 1594.48 1570.85 39.93
328 5.2618 1587.38 1570.98 39.84
329 5.2718 1591.08 1571.12 39.89
330 5.2818 1606.47 1571.26 40.08
331 5.2917 1602.74 1571.41 40.03
332 5.3017 1611.97 1600.63 40.15
333 5.3117 1597.71 1602.40 39.97
334 5.3217 1607.66 1604.32 40.10
335 5.3316 1605.81 1606.39 40.07
336 5.3416 1589.33 1608.65 39.87
337 5.3516 1608.39 1611.10 40.10
338 5.3616 1603.09 1613.78 40.04
339 5.3716 1618.16 1616.71 40.23
340 5.3815 1620.17 1619.93 40.25
341 5.3915 1612.34 1623.48 40.15
342 5.4015 1619.09 1627.40 40.24
343 5.4114 1613.23 1631.75 40.17
344 5.4214 1623.35 1636.60 40.29
345 5.4314 1619.35 1642.02 40.24
346 5.4414 1625.91 1648.12 40.32
347 5.4514 1636.44 1656.50 40.45
348 5.4613 1628.80 1664.44 40.36
349 5.4713 1653.11 1673.53 40.66
350 5.4813 1633.35 1684.06 40.41
351 5.4913 1653.57 1696.40 40.66
352 5.5012 1650.37 1711.13 40.62
353 5.5112 1665.80 1729.08 40.81
354 5.5212 1680.42 1751.51 40.99
355 5.5311 1684.51 1780.24 41.04
356 5.5411 1708.62 1817.83 41.34
357 5.5511 1761.60 1867.72 41.97
358 5.5611 1803.72 1934.84 42.47
359 5.5711 1894.55 2040.96 43.53
360 5.5810 2037.42 2181.85 45.14
361 5.5910 2286.36 2422.91 47.82
362 5.6010 2781.56 2879.48 52.74
363 5.6109 3477.94 3742.76 58.97
364 5.6209 4938.36 5230.43 70.27
365 5.6309 6876.78 7475.32 82.93
366 5.6409 9904.43 10449.20 99.52
367 5.6508 14403.50 13954.60 120.01
368 5.6608 18082.00 17481.90 134.47
369 5.6708 21043.90 19880.90 145.07
370 5.6808 20582.10 19739.40 143.46
371 5.6908 17823.90 16840.70 133.51
372 5.7007 12019.10 12478.80 109.63
373 5.7107 7624.57 8286.95 87.32
374 5.7207 4776.30 5248.20 69.11
375 5.7306 3066.85 3477.72 55.38
376 5.7406 2496.45 2607.90 49.96
377 5.7506 2155.73 2235.33 46.43
378 5.7606 2028.18 2105.61 45.04
379 5.7705 2013.35 2098.96 44.87
380 5.7805 2061.24 2167.01 45.40
381 5.7905 2192.61 2288.25 46.83
382 5.8005 2334.46 2447.70 48.32
383 5.8105 2580.04 2624.52 50.79
384 5.8204 2753.16 2773.06 52.47
385 5.8304 2840.49 2822.85 53.30
386 5.8404 2838.41 2741.47 53.28
387 5.8503 2783.12 2582.20 52.76
388 5.8603 2752.82 2447.57 52.47
389 5.8703 2900.89 2444.39 53.86
390 5.8803 3166.24 2667.76 56.27
391 5.8903 3800.19 3196.32 61.65
392 5.9002 4500.45 4072.24 67.09
393 5.9102 5541.53 5278.78 74.44
394 5.9202 6775.46 6734.00 82.31
395 5.9302 7812.65 8239.95 88.39
396 5.9401 8597.21 9348.09 92.72
397 5.9501 8753.84 9453.23 93.56
398 5.9601 7968.90 8373.44 89.27
399 5.9700 6536.85 6582.96 80.85
400 5.9800 5286.61 4766.45 72.71
401 5.9900 3950.05 3384.55 62.85
402 6.0000 3052.81 2539.47 55.25
403 6.0100 2535.36 2101.73 50.35
404 6.0199 2165.25 1898.16 46.53
405 6.0299 1978.23 1807.29 44.48
406 6.0399 1855.85 1765.18 43.08
407 6.0498 1770.05 1714.56 42.07
408 6.0598 1724.27 1701.22 41.52
409 6.0698 1694.21 1693.56 41.16
410 6.0798 1663.40 1684.28 40.78
411 6.0897 1647.25 1675.76 40.59
412 6.0997 1627.83 1668.01 40.35
413 6.1097 1626.07 1661.07 40.32
414 6.1197 1606.88 1654.97 40.09
415 6.1297 1616.81 1649.67 40.21
416 6.1396 1614.16 1645.12 40.18
417 6.1496 1607.82 1641.23 40.10
418 6.1596 1612.11 1637.91 40.15
419 6.1695 1603.87 1635.09 40.05
420 6.1795 1605.15 1632.71 40.06
421 6.1895 1621.48 1630.70 40.27
422 6.1995 1598.13 1629.03 39.98
423 6.2094 1608.66 1626.25 40.11
424 6.2194 1605.12 1625.23 40.06
425 6.2294 1616.73 1624.48 40.21
426 6.2394 1609.08 1623.98 40.11
427 6.2494 1612.12 1623.74 40.15
428 6.2593 1617.76 1623.77 40.22
429 6.2693 1616.46 1624.09 40.21
430 6.2793 1619.95 1624.76 40.25
431 6.2892 1607.87 1625.86 40.10
432 6.2992 1612.98 1627.51 40.16
433 6.3092 1623.39 1629.88 40.29
434 6.3192 1624.02 1633.23 40.30
435 6.3292 1623.10 1625.74 40.29
436 6.3391 1627.26 1632.82 40.34
437 6.3491 1647.88 1642.63 40.59
438 6.3591 1674.31 1657.49 40.92
439 6.3691 1717.96 1682.94 41.45
440 6.3790 1748.07 1730.08 41.81
441 6.3890 1853.37 1816.04 43.05
442 6.3990 2021.64 1959.08 44.96
443 6.4089 2198.95 2169.67 46.89
444 6.4189 2496.26 2444.43 49.96
445 6.4289 2810.04 2762.97 53.01
446 6.4389 3069.59 3072.61 55.40
447 6.4489 3247.25 3265.88 56.98
448 6.4588 3165.44 3228.28 56.26
449 6.4688 2941.09 2959.00 54.23
450 6.4788 2510.96 2574.96 50.11
451 6.4887 2181.56 2209.47 46.71
452 6.4987 1933.33 1940.63 43.97
453 6.5087 1771.68 1778.53 42.09
454 6.5187 1706.06 1694.43 41.30
455 6.5286 1656.82 1654.79 40.70
456 6.5386 1643.65 1636.72 40.54
457 6.5486 1629.63 1628.15 40.37
458 6.5586 1605.33 1623.51 40.07
459 6.5686 1616.75 1620.41 40.21
460 6.5785 1597.02 1617.93 39.96
461 6.5885 1613.60 1615.72 40.17
462 6.5985 1606.74 1613.71 40.08
463 6.6084 1595.13 1611.88 39.94
464 6.6184 1609.61 1610.24 40.12
465 6.6284 1599.34 1608.78 39.99
466 6.6384 1595.19 1607.50 39.94
467 6.6483 1596.60 1606.38 39.96
468 6.6583 1590.73 1605.40 39.88
469 6.6683 1600.55 1604.53 40.01
470 6.6783 1597.30 1603.77 39.97
471 6.6883 1595.95 1603.10 39.95
472 6.6982 1592.19 1602.50 39.90
473 6.7082 1591.82 1601.96 39.90
474 6.7182 1593.77 1601.48 39.92
475 6.7281 1583.52 1601.05 39.79
476 6.7381 1593.13 1600.66 39.91
477 6.7481 1575.40 1600.31 39.69
478 6.7581 1581.00 1599.98 39.76
479 6.7681 1593.40 1599.69 39.92
480 6.7780 1587.45 1599.42 39.84
481 6.7880 1597.32 1599.17 39.97
482 6.7980 1586.29 1598.94 39.83
483 6.8080 1587.80 1598.74 39.85
484 6.8179 1604.50 1598.55 40.06
485 6.8279 1582.46 1598.37 39.78
486 6.8379 1597.39 1595.38 39.97
487 6.8478 1592.65 1598.90 39.91
488 6.8578 1598.15 1599.08 39.98
489 6.8678 1586.79 1599.28 39.83
490 6.8778 1591.34 1599.50 39.89
491 6.8878 1600.59 1599.75 40.01
492 6.8977 1604.42 1600.01 40.06
493 6.9077 1613.14 1600.31 40.16
494 6.9177 1602.19 1600.64 40.03
495 6.9276 1607.85 1601.00 40.10
496 6.9376 1600.19 1601.40 40.00
497 6.9476 1593.56 1601.85 39.92
498 6.9576 1591.96 1602.35 39.90
499 6.9675 1580.35 1602.90 39.75
500 6.9775 1601.82 1603.52 40.02
501 6.9875 1596.15 1604.21 39.95
502 6.9975 1606.40 1605.00 40.08
503 7.0075 1600.91 1605.88 40.01
504 7.0174 1596.31 1606.89 39.95
505 7.0274 1618.02 1608.04 40.22
506 7.0374 1605.89 1609.37 40.07
507 7.0473 1608.48 1610.93 40.11
508 7.0573 1607.66 1612.77 40.10
509 7.0673 1610.32 1614.99 40.13
510 7.0773 1602.10 1617.74 40.03
511 7.0873 1605.83 1621.18 40.07
512 7.0972 1621.81 1625.59 40.27
513 7.1072 1618.37 1631.29 40.23
514 7.1172 1624.53 1638.77 40.31
515 7.1272 1628.05 1648.88 40.35
516 7.1371 1658.33 1663.49 40.72
517 7.1471 1684.08 1687.03 41.04
518 7.1571 1733.45 1728.72 41.63
519 7.1670 1799.16 1803.89 42.42
520 7.1770 1929.99 1931.98 43.93
521 7.1870 2101.13 2126.85 45.84
522 7.1970 2390.81 2392.19 48.90
523 7.2070 2758.34 2714.84 52.52
524 7.2169 3081.01 3055.78 55.51
525 7.2269 3392.48 3327.21 58.24
526 7.2369 3523.88 3402.09 59.36
527 7.2469 3249.58 3220.76 57.01
528 7.2568 2848.20 2860.77 53.37
529 7.2668 2462.95 2462.90 49.63
530 7.2768 2110.79 2126.93 45.94
531 7.2867 1900.71 1898.90 43.60
532 7.2967 1786.12 1767.56 42.26
533 7.3067 1714.97 1700.46 41.41
534 7.3167 1694.36 1668.55 41.16
535 7.3267 1673.87 1653.63 40.91
536 7.3366 1661.30 1646.33 40.76
537 7.3466 1658.65 1642.31 40.73
538 7.3566 1641.41 1639.70 40.51
539 7.3665 1645.61 1637.79 40.57
540 7.3765 1635.01 1636.29 40.44
541 7.3865 1639.92 1635.16 40.50
542 7.3965 1646.63 1634.38 40.58
543 7.4064 1628.03 1633.97 40.35
544 7.4164 1638.85 1633.97 40.48
545 7.4264 1634.64 1634.39 40.43
546 7.4364 1635.14 1635.27 40.44
547 7.4464 1638.10 1636.67 40.47
548 7.4563 1636.91 1638.68 40.46
549 7.4663 1643.28 1641.45 40.54
550 7.4763 1644.55 1645.35 40.55
551 7.4862 1646.42 1651.21 40.58
552 7.4962 1659.05 1660.66 40.73
553 7.5062 1676.02 1676.28 40.94
554 7.5162 1688.61 1701.22 41.09
555 7.5262 1726.45 1737.96 41.55
556 7.5361 1739.52 1787.18 41.71
557 7.5461 1803.31 1847.11 42.47
558 7.5561 1841.40 1911.98 42.91
559 7.5661 1896.00 1969.30 43.54
560 7.5760 1953.09 2003.85 44.19
561 7.5860 1979.26 2017.08 44.49
562 7.5960 2048.76 2037.60 45.26
563 7.6059 2139.60 2105.76 46.26
564 7.6159 2296.73 2253.37 47.92
565 7.6259 2519.64 2487.60 50.20
566 7.6359 2831.39 2801.37 53.21
567 7.6459 3125.02 3147.66 55.90
568 7.6558 3409.27 3435.08 58.39
569 7.6658 3454.88 3535.85 58.78
570 7.6758 3362.15 3369.23 57.98
571 7.6858 2995.99 3008.82 54.74
572 7.6957 2623.33 2592.13 51.22
573 7.7057 2273.25 2232.26 47.68
574 7.7157 2013.44 1979.66 44.87
575 7.7256 1870.71 1829.07 43.25
576 7.7356 1776.89 1749.67 42.15
577 7.7456 1724.94 1710.95 41.53
578 7.7556 1709.72 1692.62 41.35
579 7.7656 1695.82 1683.75 41.18
580 7.7755 1678.01 1679.08 40.96
581 7.7855 1673.19 1676.30 40.90
582 7.7955 1670.96 1674.43 40.88
583 7.8054 1659.43 1673.13 40.74
584 7.8154 1666.44 1672.26 40.82
585 7.8254 1661.17 1671.82 40.76
586 7.8354 1665.92 1671.79 40.82
587 7.8453 1664.57 1672.19 40.80
588 7.8553 1659.39 1673.04 40.74
589 7.8653 1673.12 1674.36 40.90
590 7.8753 1670.13 1676.17 40.87
591 7.8853 1683.41 1678.54 41.03
592 7.8952 1681.25 1681.57 41.00
593 7.9052 1684.63 1685.43 41.04
594 7.9152 1690.80 1690.33 41.12
595 7.9251 1701.60 1696.58 41.25
596 7.9351 1698.28 1704.60 41.21
597 7.9451 1713.39 1714.99 41.39
598 7.9551 1723.25 1728.84 41.51
599 7.9651 1737.36 1748.46 41.68
600 7.9750 1778.39 1778.64 42.17
601 7.9850 1847.75 1831.20 42.99
602 7.9950 1938.12 1923.19 44.02
603 8.0049 2093.12 2076.53 45.75
604 8.0149 2304.86 2309.62 48.01
605 8.0249 2610.57 2628.25 51.09
606 8.0349 3055.56 3019.12 55.28
607 8.0449 3429.19 3438.97 58.56
608 8.0548 3826.50 3789.72 61.86
609 8.0648 3957.13 3918.67 62.91
610 8.0748 3784.47 3745.45 61.52
611 8.0848 3322.53 3338.23 57.64
612 8.0947 2769.65 2853.52 52.63
613 8.1047 2369.48 2424.21 48.68
614 8.1147 2069.85 2114.65 45.50
615 8.1247 1903.29 1924.75 43.63
616 8.1346 1831.07 1821.76 42.79
617 8.1446 1778.41 1770.21 42.17
618 8.1546 1749.99 1745.24 41.83
619 8.1645 1739.30 1732.86 41.71
620 8.1745 1727.38 1726.16 41.56
621 8.1845 1723.45 1721.98 41.51
622 8.1945 1730.71 1718.97 41.60
623 8.2044 1716.71 1716.59 41.43
624 8.2144 1725.10 1714.65 41.53
625 8.2244 1711.70 1713.07 41.37
626 8.2344 1716.55 1711.82 41.43
627 8.2444 1715.04 1710.90 41.41
628 8.2543 1729.80 1710.26 41.59
629 8.2643 1725.40 1709.89 41.54
630 8.2743 1718.34 1709.75 41.45
631 8.2843 1723.83 1709.80 41.52
632 8.2942 1717.72 1710.03 41.45
633 8.3042 1718.95 1710.41 41.46
634 8.3142 1697.80 1710.91 41.20
635 8.3242 1710.05 1711.53 41.35
636 8.3341 1721.97 1712.23 41.50
637 8.3441 1719.14 1713.02 41.46
638 8.3541 1724.51 1713.88 41.53
639 8.3640 1726.71 1714.80 41.55
640 8.3740 1733.04 1715.77 41.63
641 8.3840 1723.67 1716.79 41.52
642 8.3940 1730.60 1717.85 41.60
643 8.4039 1727.85 1718.95 41.57
644 8.4139 1731.14 1720.09 41.61
645 8.4239 1734.18 1721.25 41.64
646 8.4339 1734.99 1722.44 41.65
647 8.4438 1735.46 1723.65 41.66
648 8.4538 1734.37 1724.88 41.65
649 8.4638 1739.73 1721.50 41.71
650 8.4738 1741.97 1722.99 41.74
651 8.4838 1737.50 1724.47 41.68
652 8.4937 1744.00 1725.96 41.76
653 8.5037 1737.16 1727.44 41.68
654 8.5137 1753.76 1728.92 41.88
655 8.5237 1750.52 1730.39 41.84
656 8.5336 1741.24 1731.87 41.73
657 8.5436 1740.03 1738.03 41.71
658 8.5536 1743.72 1739.74 41.76
659 8.5635 1757.26 1741.46 41.92
660 8.5735 1755.36 1743.20 41.90
661 8.5835 1756.22 1744.96 41.91
662 8.5935 1753.93 1746.74 41.88
663 8.6034 1761.57 1748.54 41.97
664 8.6134 1771.91 1750.37 42.09
665 8.6234 1758.98 1752.23 41.94
666 8.6334 1764.64 1754.12 42.01
667 8.6433 1760.20 1756.06 41.95
668 8.6533 1758.37 1758.04 41.93
669 8.6633 1759.66 1760.07 41.95
670 8.6733 1753.92 1762.16 41.88
671 8.6833 1767.99 1764.33 42.05
672 8.6932 1774.68 1766.57 42.13
673 8.7032 1772.68 1768.91 42.10
674 8.7132 1778.75 1771.37 42.18
675 8.7232 1778.58 1773.96 42.17
676 8.7331 1780.27 1776.72 42.19
677 8.7431 1779.13 1779.68 42.18
678 8.7531 1773.41 1782.90 42.11
679 8.7631 1786.25 1786.44 42.26
680 8.7730 1779.17 1790.41 42.18
681 8.7830 1792.82 1794.95 42.34
682 8.7930 1793.17 1800.24 42.35
683 8.8029 1797.24 1806.54 42.39
684 8.8129 1801.75 1814.18 42.45
685 8.8229 1799.11 1823.63 42.42
686 8.8329 1815.42 1835.60 42.61
687 8.8428 1815.35 1851.46 42.61
688 8.8528 1839.63 1874.28 42.89
689 8.8628 1869.27 1910.44 43.24
690 8.8728 1912.90 1971.53 43.74
691 8.8827 2002.21 2074.29 44.75
692 8.8927 2126.93 2236.91 46.12
693 8.9027 2361.97 2471.83 48.60
694 8.9127 2666.66 2779.06 51.64
695 8.9227 3115.90 3139.78 55.82
696 8.9326 3640.62 3502.56 60.34
697 8.9426 3954.06 3764.59 62.88
698 8.9526 4083.06 3801.61 63.90
699 8.9626 3774.05 3580.11 61.43
700 8.9725 3249.51 3194.32 57.00
701 8.9825 2673.93 2776.00 51.71
702 8.9925 2270.31 2421.47 47.65
703 9.0024 2080.16 2170.35 45.61
704 9.0124 1953.91 2016.02 44.20
705 9.0224 1896.32 1930.74 43.55
706 9.0324 1871.03 1886.58 43.26
707 9.0423 1851.74 1864.10 43.03
708 9.0523 1856.53 1852.19 43.09
709 9.0623 1839.97 1845.23 42.89
710 9.0723 1835.74 1840.57 42.85
711 9.0822 1834.17 1837.04 42.83
712 9.0922 1838.80 1834.15 42.88
713 9.1022 1847.25 1831.68 42.98
714 9.1122 1829.17 1829.57 42.77
715 9.1222 1826.91 1827.77 42.74
716 9.1321 1831.42 1826.26 42.79
717 9.1421 1837.89 1825.01 42.87
718 9.1521 1832.24 1823.99 42.80
719 9.1621 1835.98 1823.17 42.85
720 9.1720 1834.04 1822.52 42.83
721 9.1820 1842.55 1822.01 42.92
722 9.1920 1841.11 1821.63 42.91
723 9.2020 1831.00 1821.34 42.79
724 9.2119 1843.56 1821.14 42.94
725 9.2219 1828.83 1821.01 42.76
726 9.2319 1850.69 1820.93 43.02
727 9.2418 1845.56 1820.90 42.96
728 9.2518 1845.91 1820.91 42.96
729 9.2618 1841.99 1823.09 42.92
730 9.2718 1851.34 1823.26 43.03
731 9.2817 1843.11 1823.46 42.93
732 9.2917 1848.94 1823.69 43.00
733 9.3017 1844.92 1823.93 42.95
734 9.3117 1853.39 1824.20 43.05
735 9.3216 1854.82 1824.48 43.07
736 9.3316 1860.60 1824.77 43.13
737 9.3416 1859.02 1825.08 43.12
738 9.3516 1853.33 1854.50 43.05
739 9.3616 1862.98 1851.80 43.16
740 9.3715 1852.97 1853.91 43.05
741 9.3815 1859.71 1856.13 43.12
742 9.3915 1855.67 1858.50 43.08
743 9.4015 1859.39 1861.02 43.12
744 9.4114 1862.28 1863.72 43.15
745 9.4214 1865.75 1866.63 43.19
746 9.4314 1864.68 1869.76 43.18
747 9.4413 1868.11 1873.40 43.22
748 9.4513 1875.85 1877.12 43.31
749 9.4613 1889.13 1881.20 43.46
750 9.4713 1872.85 1885.69 43.28
751 9.4812 1898.01 1890.66 43.57
752 9.4912 1896.06 1896.21 43.54
753 9.5012 1906.97 1902.45 43.67
754 9.5112 1919.66 1909.53 43.81
755 9.5211 1911.81 1917.64 43.72
756 9.5311 1915.41 1927.01 43.77
757 9.5411 1927.41 1937.94 43.90
758 9.5511 1936.75 1950.86 44.01
759 9.5611 1946.43 1966.40 44.12
760 9.5710 1962.21 1985.73 44.30
761 9.5810 1988.07 2011.08 44.59
762 9.5910 2024.18 2046.53 44.99
763 9.6010 2062.30 2098.53 45.41
764 9.6109 2118.54 2175.41 46.03
765 9.6209 2217.90 2285.37 47.09
766 9.6309 2346.37 2433.71 48.44
767 9.6409 2553.61 2620.51 50.53
768 9.6508 2772.83 2837.90 52.66
769 9.6608 3030.91 3065.06 55.05
770 9.6708 3323.85 3269.03 57.65
771 9.6807 3572.67 3438.96 59.77
772 9.6907 3880.80 3639.38 62.30
773 9.7007 4340.03 4008.91 65.88
774 9.7107 4951.94 4692.12 70.37
775 9.7206 6078.16 5804.73 77.96
776 9.7306 7487.24 7382.87 86.53
777 9.7406 9111.49 9341.78 95.45
778 9.7506 11182.90 11445.30 105.75
779 9.7605 12451.90 13189.90 111.59
780 9.7705 13212.60 13856.80 114.95
781 9.7805 12600.70 13035.90 112.25
782 9.7905 10967.00 11062.90 104.72
783 9.8005 8957.27 8659.87 94.64
784 9.8104 6743.45 6446.55 82.12
785 9.8204 5232.76 4754.60 72.34
786 9.8304 4037.85 3638.49 63.54
787 9.8404 3267.23 2981.81 57.16
788 9.8503 2826.83 2621.51 53.17
789 9.8603 2487.67 2422.93 49.88
790 9.8703 2295.19 2303.02 47.91
791 9.8802 2190.37 2220.96 46.80
792 9.8902 2097.55 2159.57 45.80
793 9.9002 2032.36 2111.96 45.08
794 9.9102 2001.11 2074.85 44.73
795 9.9201 1969.47 2045.87 44.38
796 9.9301 1951.23 2023.03 44.17
797 9.9401 1932.40 2004.83 43.96
798 9.9501 1922.63 1990.31 43.85
799 9.9600 1929.01 1978.92 43.92
800 9.9700 1909.26 1970.45 43.70
801 9.9800 1918.37 1964.88 43.80
802 9.9900 1915.40 1962.37 43.77
803 10.0000 1911.53 1963.29 43.72
804 10.0099 1920.69 1968.45 43.83
805 10.0199 1930.07 1979.55 43.93
806 10.0299 1964.06 2000.10 44.32
807 10.0399 1997.01 2036.77 44.69
808 10.0498 2062.19 2100.32 45.41
809 10.0598 2178.62 2205.38 46.68
810 10.0698 2319.66 2368.03 48.16
811 10.0798 2612.90 2602.04 51.12
812 10.0897 2948.92 2913.47 54.30
813 10.0997 3369.32 3289.49 58.05
814 10.1097 3880.63 3690.28 62.29
815 10.1196 4220.42 4029.88 64.96
816 10.1296 4368.33 4224.25 66.09
817 10.1396 4245.31 4241.43 65.16
818 10.1496 3943.86 4079.61 62.80
819 10.1595 3552.57 3754.52 59.60
820 10.1695 3146.23 3333.16 56.09
821 10.1795 2850.70 2908.03 53.39
822 10.1895 2545.34 2546.36 50.45
823 10.1994 2322.87 2249.58 48.20
824 10.2094 2165.80 2071.10 46.54
825 10.2194 2023.55 1962.47 44.98
826 10.2294 1954.00 1899.99 44.20
827 10.2394 1888.02 1864.41 43.45
828 10.2493 1857.21 1843.20 43.10
829 10.2593 1836.78 1829.29 42.86
830 10.2693 1827.61 1819.06 42.75
831 10.2793 1805.78 1810.53 42.49
832 10.2892 1802.49 1803.36 42.46
833 10.2992 1791.48 1796.93 42.33
834 10.3092 1792.77 1791.08 42.34
835 10.3191 1790.83 1785.72 42.32
836 10.3291 1781.99 1780.78 42.21
837 10.3391 1780.79 1780.47 42.20
838 10.3491 1778.32 1776.46 42.17
839 10.3590 1773.51 1772.75 42.11
840 10.3690 1763.06 1769.30 41.99
841 10.3790 1771.36 1766.10 42.09
842 10.3890 1766.23 1763.10 42.03
843 10.3989 1762.40 1760.29 41.98
844 10.4089 1760.60 1757.63 41.96
845 10.4189 1746.20 1755.12 41.79
846 10.4289 1756.16 1752.74 41.91
847 10.4389 1750.11 1750.48 41.83
848 10.4488 1756.51 1748.33 41.91
849 10.4588 1749.53 1746.29 41.83
850 10.4688 1747.51 1744.36 41.80
851 10.4788 1756.66 1742.53 41.91
852 10.4887 1752.03 1740.80 41.86
853 10.4987 1744.32 1739.18 41.77
854 10.5087 1754.63 1737.67 41.89
855 10.5187 1739.81 1736.29 41.71
856 10.5286 1728.17 1735.08 41.57
857 10.5386 1737.60 1733.99 41.68
858 10.5486 1726.22 1730.93 41.55
859 10.5585 1728.90 1730.43 41.58
860 10.5685 1729.36 1730.18 41.59
861 10.5785 1721.92 1726.85 41.50
862 10.5885 1717.83 1727.43 41.45
863 10.5984 1718.43 1728.51 41.45
864 10.6084 1717.20 1730.22 41.44
865 10.6184 1714.51 1732.75 41.41
866 10.6284 1735.48 1736.38 41.66
867 10.6383 1735.85 1742.67 41.66
868 10.6483 1744.83 1749.69 41.77
869 10.6583 1762.69 1759.54 41.98
870 10.6683 1774.99 1774.03 42.13
871 10.6783 1797.00 1796.86 42.39
872 10.6882 1845.09 1834.76 42.95
873 10.6982 1908.31 1898.03 43.68
874 10.7082 1996.87 1999.28 44.69
875 10.7182 2158.30 2150.01 46.46
876 10.7281 2352.21 2355.73 48.50
877 10.7381 2619.25 2611.63 51.18
878 10.7481 2928.79 2895.89 54.12
879 10.7580 3177.77 3157.49 56.37
880 10.7680 3309.64 3310.11 57.53
881 10.7780 3282.17 3276.87 57.29
882 10.7880 3074.41 3065.63 55.45
883 10.7979 2736.53 2758.90 52.31
884 10.8079 2432.20 2444.99 49.32
885 10.8179 2180.93 2182.00 46.70
886 10.8279 1999.38 1992.12 44.71
887 10.8378 1888.89 1870.43 43.46
888 10.8478 1820.43 1799.24 42.67
889 10.8578 1777.58 1760.22 42.16
890 10.8678 1750.79 1740.27 41.84
891 10.8778 1732.57 1730.77 41.62
892 10.8877 1729.86 1728.59 41.59
893 10.8977 1726.08 1733.36 41.55
894 10.9077 1734.88 1746.93 41.65
895 10.9177 1752.62 1772.36 41.86
896 10.9276 1777.11 1814.07 42.16
897 10.9376 1857.65 1870.65 43.10
898 10.9476 1932.98 1941.98 43.97
899 10.9576 2041.83 2021.79 45.19
900 10.9675 2159.06 2095.93 46.47
901 10.9775 2231.69 2141.40 47.24
902 10.9875 2228.59 2138.57 47.21
903 10.9974 2162.84 2091.88 46.51
904 11.0074 2047.27 2027.56 45.25
905 11.0174 1948.38 1973.92 44.14
906 11.0274 1887.04 1949.73 43.44
907 11.0373 1907.93 1961.43 43.68
908 11.0473 1968.38 2003.97 44.37
909 11.0573 2050.79 2061.88 45.29
910 11.0673 2105.12 2109.11 45.88
911 11.0772 2122.16 2115.78 46.07
912 11.0872 2074.71 2069.57 45.55
913 11.0972 1974.67 1985.69 44.44
914 11.1072 1860.05 1889.96 43.13
915 11.1172 1773.70 1802.92 42.12
916 11.1271 1705.62 1735.22 41.30
917 11.1371 1673.64 1688.52 40.91
918 11.1471 1654.20 1659.06 40.67
919 11.1571 1641.21 1641.43 40.51
920 11.1670 1638.62 1631.02 40.48
921 11.1770 1624.29 1624.77 40.30
922 11.1870 1620.10 1620.98 40.25
923 11.1969 1621.44 1622.51 40.27
924 11.2069 1614.92 1618.07 40.19
925 11.2169 1616.31 1620.01 40.20
926 11.2269 1616.73 1627.29 40.21
927 11.2368 1625.85 1636.29 40.32
928 11.2468 1653.13 1650.49 40.66
929 11.2568 1671.55 1670.87 40.88
930 11.2668 1712.75 1698.07 41.39
931 11.2767 1773.90 1732.25 42.12
932 11.2867 1822.15 1772.17 42.69
933 11.2967 1860.86 1814.52 43.14
934 11.3067 1897.51 1856.76 43.56
935 11.3167 1936.84 1901.70 44.01
936 11.3266 1972.59 1955.02 44.41
937 11.3366 2025.99 2017.84 45.01
938 11.3466 2083.65 2080.20 45.65
939 11.3566 2124.70 2118.15 46.09
940 11.3665 2128.09 2108.60 46.13
941 11.3765 2053.60 2042.35 45.32
942 11.3865 1929.97 1944.30 43.93
943 11.3965 1814.70 1841.40 42.60
944 11.4064 1718.56 1752.58 41.46
945 11.4164 1657.99 1689.51 40.72
946 11.4264 1624.49 1645.85 40.31
947 11.4363 1603.67 1619.68 40.05
948 11.4463 1591.15 1605.26 39.89
949 11.4563 1589.40 1598.03 39.87
950 11.4663 1573.94 1595.11 39.67
951 11.4762 1571.27 1594.92 39.64
952 11.4862 1570.90 1596.80 39.63
953 11.4962 1578.29 1600.59 39.73
954 11.5062 1583.81 1606.50 39.80
955 11.5162 1582.09 1613.86 39.78
956 11.5261 1592.92 1626.28 39.91
957 11.5361 1612.67 1644.73 40.16
958 11.5461 1637.36 1679.73 40.46
959 11.5561 1681.18 1725.76 41.00
960 11.5660 1734.04 1798.71 41.64
961 11.5760 1842.91 1910.13 42.93
962 11.5860 2004.54 2070.78 44.77
963 11.5960 2192.66 2287.50 46.83
964 11.6059 2515.58 2558.55 50.16
965 11.6159 2824.90 2865.35 53.15
966 11.6259 3197.21 3160.61 56.54
967 11.6358 3502.72 3372.17 59.18
968 11.6458 3554.32 3448.59 59.62
969 11.6558 3531.87 3392.36 59.43
970 11.6658 3297.61 3226.55 57.42
971 11.6757 3009.89 2974.81 54.86
972 11.6857 2710.90 2680.57 52.07
973 11.6957 2390.37 2397.80 48.89
974 11.7057 2163.38 2164.68 46.51
975 11.7156 1989.56 1998.37 44.60
976 11.7256 1900.14 1901.10 43.59
977 11.7356 1875.42 1868.08 43.31
978 11.7456 1913.59 1893.31 43.74
979 11.7556 1988.75 1974.16 44.60
980 11.7655 2123.21 2109.07 46.08
981 11.7755 2345.12 2297.00 48.43
982 11.7855 2569.35 2532.74 50.69
983 11.7955 2872.56 2798.36 53.60
984 11.8054 3157.42 3052.26 56.19
985 11.8154 3325.69 3251.34 57.67
986 11.8254 3458.09 3377.38 58.81
987 11.8354 3492.59 3459.73 59.10
988 11.8453 3506.96 3515.96 59.22
989 11.8553 3485.46 3516.51 59.04
990 11.8653 3377.12 3404.99 58.11
991 11.8752 3194.76 3169.90 56.52
992 11.8852 2904.69 2867.69 53.90
993 11.8952 2650.69 2574.58 51.48
994 11.9052 2480.42 2350.59 49.80
995 11.9151 2404.11 2232.34 49.03
996 11.9251 2405.03 2235.02 49.04
997 11.9351 2506.60 2357.61 50.07
998 11.9451 2703.27 2587.45 51.99
999 11.9551 2900.81 2900.68 53.86
1000 11.9650 3138.58 3254.83 56.02
1001 11.9750 3347.08 3572.22 57.85
1002 11.9850 3438.70 3737.56 58.64
1003 11.9950 3428.70 3662.16 58.56
1004 12.0049 3241.83 3368.42 56.94
1005 12.0149 3000.75 2962.68 54.78
1006 12.0249 2724.43 2551.69 52.20
1007 12.0349 2409.68 2203.76 49.09
1008 12.0448 2199.63 1948.84 46.90
1009 12.0548 1987.88 1776.94 44.59
1010 12.0648 1845.86 1670.75 42.96
1011 12.0747 1748.08 1607.97 41.81
1012 12.0847 1666.87 1567.62 40.83
1013 12.0947 1618.25 1545.32 40.23
1014 12.1047 1573.00 1530.97 39.66
1015 12.1146 1550.01 1518.77 39.37
1016 12.1246 1530.79 1511.89 39.13
1017 12.1346 1512.70 1507.14 38.89
1018 12.1446 1503.66 1504.35 38.78
1019 12.1545 1500.79 1503.80 38.74
1020 12.1645 1486.86 1506.34 38.56
1021 12.1745 1492.19 1513.71 38.63
1022 12.1845 1500.51 1528.91 38.74
1023 12.1945 1526.40 1556.23 39.07
1024 12.2044 1561.00 1600.60 39.51
1025 12.2144 1603.31 1666.22 40.04
1026 12.2244 1696.82 1754.81 41.19
1027 12.2344 1813.42 1863.83 42.58
1028 12.2443 1946.33 1983.55 44.12
1029 12.2543 2104.76 2092.12 45.88
1030 12.2643 2192.06 2151.26 46.82
1031 12.2743 2187.77 2136.54 46.77
1032 12.2842 2063.73 2048.49 45.43
1033 12.2942 1898.67 1920.01 43.57
1034 12.3042 1739.76 1786.36 41.71
1035 12.3141 1617.30 1666.97 40.22
1036 12.3241 1550.69 1580.70 39.38
1037 12.3341 1504.18 1523.00 38.78
1038 12.3441 1478.81 1488.08 38.46
1039 12.3540 1472.47 1468.92 38.37
1040 12.3640 1461.53 1459.88 38.23
1041 12.3740 1463.84 1457.43 38.26
1042 12.3840 1458.99 1460.04 38.20
1043 12.3940 1466.39 1468.04 38.29
1044 12.4039 1485.19 1483.65 38.54
1045 12.4139 1501.87 1511.16 38.75
1046 12.4239 1546.87 1556.54 39.33
1047 12.4339 1593.17 1626.19 39.91
1048 12.4438 1680.23 1718.99 40.99
1049 12.4538 1811.86 1847.96 42.57
1050 12.4638 1962.81 2017.37 44.30
1051 12.4738 2131.85 2179.08 46.17
1052 12.4837 2274.86 2313.84 47.70
1053 12.4937 2340.74 2372.67 48.38
1054 12.5037 2294.31 2324.91 47.90
1055 12.5136 2138.90 2188.88 46.25
1056 12.5236 1965.79 2012.19 44.34
1057 12.5336 1777.00 1838.23 42.15
1058 12.5436 1643.22 1693.28 40.54
1059 12.5535 1555.51 1586.88 39.44
1060 12.5635 1507.66 1516.28 38.83
1061 12.5735 1475.86 1472.90 38.42
1062 12.5835 1457.25 1447.52 38.17
1063 12.5934 1444.73 1432.93 38.01
1064 12.6034 1443.59 1424.44 37.99
1065 12.6134 1441.14 1419.35 37.96
1066 12.6234 1432.49 1416.18 37.85
1067 12.6334 1429.56 1414.21 37.81
1068 12.6433 1428.22 1413.08 37.79
1069 12.6533 1432.75 1412.65 37.85
1070 12.6633 1428.65 1412.89 37.80
1071 12.6733 1426.50 1413.81 37.77
1072 12.6832 1430.10 1415.46 37.82
1073 12.6932 1427.22 1417.91 37.78
1074 12.7032 1429.40 1421.28 37.81
1075 12.7132 1434.00 1427.83 37.87
1076 12.7231 1447.67 1431.59 38.05
1077 12.7331 1456.01 1438.97 38.16
1078 12.7431 1470.67 1448.24 38.35
1079 12.7530 1479.54 1459.88 38.46
1080 12.7630 1498.82 1474.54 38.71
1081 12.7730 1529.19 1493.02 39.10
1082 12.7830 1549.47 1516.45 39.36
1083 12.7929 1588.82 1546.42 39.86
1084 12.8029 1633.86 1585.67 40.42
1085 12.8129 1702.65 1639.31 41.26
1086 12.8229 1814.78 1717.09 42.60
1087 12.8329 1941.17 1836.06 44.06
1088 12.8428 2140.45 2022.28 46.26
1089 12.8528 2435.47 2309.20 49.35
1090 12.8628 2788.31 2730.80 52.80
1091 12.8728 3335.80 3311.29 57.76
1092 12.8827 4067.75 4052.41 63.78
1093 12.8927 4806.30 4918.94 69.33
1094 12.9027 5643.93 5811.41 75.13
1095 12.9127 6329.41 6536.07 79.56
1096 12.9226 6598.58 6817.31 81.23
1097 12.9326 6391.78 6513.74 79.95
1098 12.9426 5641.05 5745.20 75.11
1099 12.9525 4768.54 4770.34 69.05
1100 12.9625 3773.29 3822.86 61.43
1101 12.9725 3007.86 3035.97 54.84
1102 12.9825 2466.46 2457.07 49.66
1103 12.9924 2067.38 2070.70 45.47
1104 13.0024 1832.28 1831.02 42.81
1105 13.0124 1686.81 1689.01 41.07
1106 13.0224 1590.98 1606.00 39.89
1107 13.0323 1528.90 1556.64 39.10
1108 13.0423 1499.24 1526.06 38.72
1109 13.0523 1470.90 1506.39 38.35
1110 13.0623 1461.46 1493.99 38.23
1111 13.0723 1469.37 1487.84 38.33
1112 13.0822 1463.70 1488.92 38.26
1113 13.0922 1478.12 1499.86 38.45
1114 13.1022 1504.30 1524.53 38.79
1115 13.1122 1547.28 1567.19 39.34
1116 13.1221 1610.84 1631.06 40.14
1117 13.1321 1695.37 1716.85 41.17
1118 13.1421 1799.08 1820.86 42.42
1119 13.1521 1929.89 1932.06 43.93
1120 13.1620 2009.88 2027.32 44.83
1121 13.1720 2066.56 2072.94 45.46
1122 13.1820 2046.24 2045.37 45.24
1123 13.1919 1951.38 1954.02 44.17
1124 13.2019 1839.54 1830.95 42.89
1125 13.2119 1706.41 1707.15 41.31
1126 13.2219 1581.96 1602.39 39.77
1127 13.2318 1515.46 1525.05 38.93
1128 13.2418 1473.50 1474.86 38.39
1129 13.2518 1437.79 1447.08 37.92
1130 13.2618 1433.75 1436.37 37.86
1131 13.2718 1436.15 1439.33 37.90
1132 13.2817 1453.02 1455.79 38.12
1133 13.2917 1491.02 1489.32 38.61
1134 13.3017 1547.04 1546.90 39.33
1135 13.3117 1641.33 1637.59 40.51
1136 13.3216 1767.50 1769.88 42.04
1137 13.3316 1939.38 1949.22 44.04
1138 13.3416 2181.38 2171.59 46.71
1139 13.3516 2440.90 2422.66 49.41
1140 13.3615 2713.01 2670.64 52.09
1141 13.3715 2919.18 2841.85 54.03
1142 13.3815 2995.54 2869.49 54.73
1143 13.3914 2839.98 2719.73 53.29
1144 13.4014 2561.76 2475.53 50.61
1145 13.4114 2232.74 2194.89 47.25
1146 13.4214 1905.76 1934.28 43.65
1147 13.4313 1709.05 1724.16 41.34
1148 13.4413 1550.17 1572.27 39.37
1149 13.4513 1446.90 1471.59 38.04
1150 13.4613 1394.33 1408.80 37.34
1151 13.4712 1350.97 1370.84 36.76
1152 13.4812 1331.55 1347.76 36.49
1153 13.4912 1319.42 1333.13 36.32
1154 13.5012 1314.09 1323.18 36.25
1155 13.5112 1302.80 1315.86 36.09
1156 13.5211 1303.18 1310.09 36.10
1157 13.5311 1296.84 1305.34 36.01
1158 13.5411 1294.49 1303.95 35.98
1159 13.5511 1297.84 1300.65 36.03
1160 13.5610 1300.70 1297.87 36.07
1161 13.5710 1288.34 1295.60 35.89
1162 13.5810 1296.60 1293.80 36.01
1163 13.5910 1290.87 1292.48 35.93
1164 13.6009 1289.09 1291.65 35.90
1165 13.6109 1291.68 1291.33 35.94
1166 13.6209 1290.06 1291.57 35.92
1167 13.6308 1292.21 1292.43 35.95
1168 13.6408 1295.92 1291.95 36.00
1169 13.6508 1289.74 1294.47 35.91
1170 13.6608 1294.88 1298.01 35.98
1171 13.6707 1282.00 1302.82 35.81
1172 13.6807 1286.29 1309.25 35.86
1173 13.6907 1300.94 1317.82 36.07
1174 13.7007 1300.77 1329.46 36.07
1175 13.7107 1314.67 1345.83 36.26
1176 13.7206 1338.00 1369.86 36.58
1177 13.7306 1363.38 1406.29 36.92
1178 13.7406 1424.67 1462.06 37.74
1179 13.7506 1486.00 1545.84 38.55
1180 13.7605 1611.59 1666.45 40.14
1181 13.7705 1787.53 1830.32 42.28
1182 13.7805 1996.82 2037.64 44.69
1183 13.7905 2289.06 2278.12 47.84
1184 13.8004 2643.07 2525.89 51.41
1185 13.8104 2932.10 2736.56 54.15
1186 13.8204 3138.41 2850.48 56.02
1187 13.8303 3093.66 2817.91 55.62
1188 13.8403 2871.47 2643.08 53.59
1189 13.8503 2459.84 2380.19 49.60
1190 13.8603 2047.65 2105.80 45.25
1191 13.8702 1753.07 1862.11 41.87
1192 13.8802 1551.44 1671.77 39.39
1193 13.8902 1444.12 1538.37 38.00
1194 13.9002 1379.28 1453.92 37.14
1195 13.9101 1344.57 1406.68 36.67
1196 13.9201 1330.89 1386.66 36.48
1197 13.9301 1335.18 1388.13 36.54
1198 13.9401 1356.14 1409.74 36.83
1199 13.9501 1399.81 1453.16 37.41
1200 13.9600 1459.11 1520.96 38.20
1201 13.9700 1565.75 1614.46 39.57
1202 13.9800 1698.54 1731.44 41.21
1203 13.9900 1871.91 1863.30 43.27
1204 13.9999 2065.22 1990.12 45.44
1205 14.0099 2186.20 2080.83 46.76
1206 14.0199 2222.51 2093.25 47.14
1207 14.0299 2114.02 2018.93 45.98
1208 14.0398 1928.37 1886.76 43.91
1209 14.0498 1720.53 1735.25 41.48
1210 14.0598 1535.40 1593.93 39.18
1211 14.0697 1430.83 1478.49 37.83
1212 14.0797 1364.54 1393.55 36.94
1213 14.0897 1319.28 1335.95 36.32
1214 14.0997 1287.67 1299.02 35.88
1215 14.1096 1278.02 1275.98 35.75
1216 14.1196 1261.81 1261.50 35.52
1217 14.1296 1260.18 1252.00 35.50
1218 14.1396 1253.37 1245.34 35.40
1219 14.1496 1247.82 1240.32 35.32
1220 14.1595 1249.90 1239.93 35.35
1221 14.1695 1246.21 1236.73 35.30
1222 14.1795 1240.89 1234.03 35.23
1223 14.1895 1239.94 1231.73 35.21
1224 14.1994 1240.40 1229.80 35.22
1225 14.2094 1243.62 1228.20 35.26
1226 14.2194 1235.79 1226.92 35.15
1227 14.2294 1241.40 1225.96 35.23
1228 14.2393 1242.88 1225.31 35.25
1229 14.2493 1244.62 1225.00 35.28
1230 14.2593 1241.02 1225.04 35.23
1231 14.2692 1246.50 1225.45 35.31
1232 14.2792 1245.85 1225.64 35.30
1233 14.2892 1254.32 1226.99 35.42
1234 14.2992 1259.33 1224.58 35.49
1235 14.3091 1269.36 1227.36 35.63
1236 14.3191 1280.66 1230.95 35.79
1237 14.3291 1294.19 1235.56 35.97
1238 14.3391 1294.75 1241.43 35.98
1239 14.3490 1307.32 1249.13 36.16
1240 14.3590 1310.36 1258.74 36.20
1241 14.3690 1340.57 1271.39 36.61
1242 14.3790 1369.96 1288.73 37.01
1243 14.3890 1394.58 1313.74 37.34
1244 14.3989 1445.96 1351.27 38.03
1245 14.4089 1510.59 1408.33 38.87
1246 14.4189 1591.31 1493.45 39.89
1247 14.4289 1684.14 1615.14 41.04
1248 14.4388 1819.40 1779.34 42.65
1249 14.4488 1975.77 1986.51 44.45
1250 14.4588 2148.11 2227.64 46.35
1251 14.4688 2340.17 2477.62 48.38
1252 14.4787 2498.05 2687.04 49.98
1253 14.4887 2584.71 2790.16 50.84
1254 14.4987 2590.47 2743.50 50.90
1255 14.5086 2489.55 2572.02 49.90
1256 14.5186 2306.37 2333.96 48.02
1257 14.5286 2129.89 2089.35 46.15
1258 14.5386 1969.27 1877.98 44.38
1259 14.5485 1841.61 1720.55 42.91
1260 14.5585 1765.09 1624.59 42.01
1261 14.5685 1717.68 1589.94 41.44
1262 14.5785 1728.84 1612.75 41.58
1263 14.5885 1781.61 1687.64 42.21
1264 14.5984 1860.41 1812.25 43.13
1265 14.6084 1983.62 1966.06 44.54
1266 14.6184 2104.32 2133.08 45.87
1267 14.6284 2206.11 2276.50 46.97
1268 14.6383 2254.40 2345.73 47.48
1269 14.6483 2224.66 2305.58 47.17
1270 14.6583 2127.36 2168.17 46.12
1271 14.6683 1955.81 1979.21 44.22
1272 14.6782 1789.13 1784.01 42.30
1273 14.6882 1636.76 1614.28 40.46
1274 14.6982 1504.55 1479.56 38.79
1275 14.7081 1417.94 1383.15 37.66
1276 14.7181 1353.90 1318.93 36.80
1277 14.7281 1307.26 1278.36 36.16
1278 14.7381 1278.83 1255.22 35.76
1279 14.7480 1254.26 1240.65 35.42
1280 14.7580 1241.63 1232.68 35.24
1281 14.7680 1232.54 1229.37 35.11
1282 14.7780 1237.13 1229.79 35.17
1283 14.7879 1235.70 1233.41 35.15
1284 14.7979 1240.95 1239.71 35.23
1285 14.8079 1245.97 1247.84 35.30
1286 14.8179 1258.58 1256.14 35.48
1287 14.8279 1256.22 1261.83 35.44
1288 14.8378 1263.03 1261.88 35.54
1289 14.8478 1253.19 1255.42 35.40
1290 14.8578 1240.36 1244.50 35.22
1291 14.8678 1223.44 1232.24 34.98
1292 14.8777 1208.12 1221.06 34.76
1293 14.8877 1203.10 1212.42 34.69
1294 14.8977 1198.26 1206.87 34.62
1295 14.9076 1197.49 1204.36 34.60
1296 14.9176 1194.65 1204.57 34.56
1297 14.9276 1195.11 1207.14 34.57
1298 14.9376 1197.65 1211.89 34.61
1299 14.9475 1195.01 1218.87 34.57
1300 14.9575 1203.87 1228.48 34.70
1301 14.9675 1201.19 1241.66 34.66
1302 14.9775 1214.01 1255.46 34.84
1303 14.9874 1226.64 1282.91 35.02
1304 14.9974 1254.88 1324.10 35.42
1305 15.0074 1291.95 1385.97 35.94
1306 15.0174 1356.83 1476.49 36.84
1307 15.0274 1475.34 1602.68 38.41
1308 15.0373 1643.05 1768.98 40.53
1309 15.0473 1921.24 1973.73 43.83
1310 15.0573 2294.15 2205.70 47.90
1311 15.0673 2687.51 2437.22 51.84
1312 15.0772 3067.57 2617.94 55.39
1313 15.0872 3232.62 2688.79 56.86
1314 15.0972 3105.81 2626.94 55.73
1315 15.1072 2733.99 2470.11 52.29
1316 15.1171 2309.93 2283.54 48.06
1317 15.1271 2031.38 2118.21 45.07
1318 15.1371 1937.39 2013.46 44.02
1319 15.1470 1946.83 1975.84 44.12
1320 15.1570 2025.57 1995.65 45.01
1321 15.1670 2158.28 2045.65 46.46
1322 15.1770 2201.22 2092.59 46.92
1323 15.1869 2189.55 2103.80 46.79
1324 15.1969 2137.61 2082.05 46.23
1325 15.2069 2005.19 2038.86 44.78
1326 15.2169 1901.78 1981.31 43.61
1327 15.2268 1804.22 1895.82 42.48
1328 15.2368 1691.62 1784.88 41.13
1329 15.2468 1606.41 1661.10 40.08
1330 15.2568 1506.88 1541.33 38.82
1331 15.2668 1419.23 1437.28 37.67
1332 15.2767 1355.65 1354.33 36.82
1333 15.2867 1293.78 1292.85 35.97
1334 15.2967 1257.90 1250.04 35.47
1335 15.3067 1233.62 1222.02 35.12
1336 15.3166 1219.38 1203.82 34.92
1337 15.3266 1206.11 1192.06 34.73
1338 15.3366 1198.33 1184.65 34.62
1339 15.3465 1192.06 1179.57 34.53
1340 15.3565 1178.32 1175.79 34.33
1341 15.3665 1177.82 1171.82 34.32
1342 15.3765 1175.53 1167.66 34.29
1343 15.3864 1172.11 1163.52 34.24
1344 15.3964 1169.08 1159.74 34.19
1345 15.4064 1165.30 1156.59 34.14
1346 15.4164 1158.68 1154.84 34.04
1347 15.4263 1151.45 1153.35 33.93
1348 15.4363 1156.23 1152.69 34.00
1349 15.4463 1149.04 1152.84 33.90
1350 15.4563 1155.27 1153.77 33.99
1351 15.4663 1149.54 1155.46 33.90
1352 15.4762 1151.48 1157.93 33.93
1353 15.4862 1155.59 1161.58 33.99
1354 15.4962 1155.22 1165.62 33.99
1355 15.5062 1157.08 1170.43 34.02
1356 15.5161 1154.35 1176.21 33.98
1357 15.5261 1165.21 1183.37 34.14
1358 15.5361 1166.88 1192.57 34.16
1359 15.5461 1176.38 1204.72 34.30
1360 15.5560 1181.67 1221.16 34.38
1361 15.5660 1195.89 1244.04 34.58
1362 15.5760 1218.44 1271.92 34.91
1363 15.5859 1244.81 1318.97 35.28
1364 15.5959 1301.76 1386.29 36.08
1365 15.6059 1389.39 1480.64 37.27
1366 15.6159 1522.83 1608.31 39.02
1367 15.6258 1681.69 1773.51 41.01
1368 15.6358 1906.44 1975.87 43.66
1369 15.6458 2188.25 2205.40 46.78
1370 15.6558 2428.06 2436.05 49.28
1371 15.6657 2673.93 2628.61 51.71
1372 15.6757 2841.64 2748.79 53.31
1373 15.6857 2884.17 2802.22 53.70
1374 15.6957 2949.76 2801.40 54.31
1375 15.7057 2920.24 2743.88 54.04
1376 15.7156 2743.94 2612.10 52.38
1377 15.7256 2597.30 2412.89 50.96
1378 15.7356 2236.58 2178.73 47.29
1379 15.7456 1919.88 1949.95 43.82
1380 15.7555 1713.86 1754.26 41.40
1381 15.7655 1530.73 1604.37 39.12
1382 15.7755 1447.51 1501.33 38.05
1383 15.7854 1418.21 1437.92 37.66
1384 15.7954 1394.40 1402.12 37.34
1385 15.8054 1386.72 1381.22 37.24
1386 15.8154 1380.69 1366.60 37.16
1387 15.8253 1377.28 1355.33 37.11
1388 15.8353 1375.34 1346.99 37.09
1389 15.8453 1375.98 1341.36 37.09
1390 15.8553 1365.51 1335.48 36.95
1391 15.8652 1356.54 1331.08 36.83
1392 15.8752 1342.49 1331.31 36.64
1393 15.8852 1345.09 1336.28 36.68
1394 15.8952 1369.81 1345.06 37.01
1395 15.9052 1383.15 1352.41 37.19
1396 15.9151 1391.61 1351.76 37.30
1397 15.9251 1380.03 1340.70 37.15
1398 15.9351 1362.75 1323.14 36.92
1399 15.9451 1340.40 1305.23 36.61
1400 15.9550 1335.77 1290.96 36.55
1401 15.9650 1326.61 1280.82 36.42
1402 15.9750 1328.61 1271.61 36.45
1403 15.9850 1326.37 1258.65 36.42
1404 15.9949 1305.10 1239.84 36.13
1405 16.0049 1277.57 1217.18 35.74
1406 16.0149 1243.83 1194.27 35.27
1407 16.0249 1213.80 1173.98 34.84
1408 16.0348 1184.98 1157.97 34.42
1409 16.0448 1169.31 1146.85 34.20
1410 16.0548 1163.35 1140.60 34.11
1411 16.0648 1155.28 1138.94 33.99
1412 16.0747 1147.94 1141.77 33.88
1413 16.0847 1155.67 1149.28 34.00
1414 16.0947 1159.11 1162.02 34.05
1415 16.1047 1172.30 1180.52 34.24
1416 16.1146 1195.71 1205.24 34.58
1417 16.1246 1224.96 1236.17 35.00
1418 16.1346 1249.32 1272.05 35.35
1419 16.1446 1281.33 1309.21 35.80
1420 16.1545 1312.52 1340.25 36.23
1421 16.1645 1321.46 1351.78 36.35
1422 16.1745 1317.24 1343.64 36.29
1423 16.1845 1283.53 1315.39 35.83
1424 16.1944 1247.67 1276.38 35.32
1425 16.2044 1210.44 1235.93 34.79
1426 16.2144 1179.68 1196.72 34.35
1427 16.2243 1156.13 1169.16 34.00
1428 16.2343 1143.30 1150.40 33.81
1429 16.2443 1136.98 1140.06 33.72
1430 16.2543 1130.31 1137.10 33.62
1431 16.2642 1137.08 1141.09 33.72
1432 16.2742 1140.59 1152.20 33.77
1433 16.2842 1147.23 1171.17 33.87
1434 16.2942 1175.06 1199.01 34.28
1435 16.3041 1215.41 1236.51 34.86
1436 16.3141 1266.80 1283.65 35.59
1437 16.3241 1329.19 1338.26 36.46
1438 16.3341 1396.66 1394.70 37.37
1439 16.3440 1465.36 1444.42 38.28
1440 16.3540 1511.74 1474.73 38.88
1441 16.3640 1530.25 1483.13 39.12
1442 16.3740 1523.79 1470.36 39.04
1443 16.3839 1500.28 1438.06 38.73
1444 16.3939 1428.75 1389.68 37.80
1445 16.4039 1354.90 1332.77 36.81
1446 16.4139 1282.89 1275.99 35.82
1447 16.4238 1216.56 1226.90 34.88
1448 16.4338 1179.19 1187.49 34.34
1449 16.4438 1146.06 1157.75 33.85
1450 16.4538 1123.92 1136.12 33.52
1451 16.4638 1115.86 1120.68 33.40
1452 16.4737 1106.14 1109.73 33.26
1453 16.4837 1099.20 1101.56 33.15
1454 16.4937 1092.41 1095.97 33.05
1455 16.5037 1090.50 1092.14 33.02
1456 16.5136 1094.65 1089.14 33.09
1457 16.5236 1090.90 1086.89 33.03
1458 16.5336 1090.76 1085.19 33.03
1459 16.5436 1084.89 1083.88 32.94
1460 16.5535 1085.17 1082.88 32.94
1461 16.5635 1086.45 1082.83 32.96
1462 16.5735 1082.89 1082.30 32.91
1463 16.5835 1085.18 1081.96 32.94
1464 16.5934 1090.73 1081.79 33.03
1465 16.6034 1087.40 1081.80 32.98
1466 16.6134 1092.05 1081.98 33.05
1467 16.6234 1093.18 1082.39 33.06
1468 16.6333 1095.90 1083.05 33.10
1469 16.6433 1097.34 1084.17 33.13
1470 16.6533 1096.17 1085.52 33.11
1471 16.6632 1104.80 1087.38 33.24
1472 16.6732 1105.13 1089.07 33.24
1473 16.6832 1111.62 1092.56 33.34
1474 16.6932 1116.65 1097.23 33.42
1475 16.7031 1126.62 1103.39 33.57
1476 16.7131 1134.00 1111.38 33.67
1477 16.7231 1148.09 1121.60 33.88
1478 16.7331 1159.53 1134.39 34.05
1479 16.7430 1178.50 1149.95 34.33
1480 16.7530 1187.21 1168.61 34.46
1481 16.7630 1200.20 1190.45 34.64
1482 16.7730 1216.02 1217.11 34.87
1483 16.7829 1241.87 1250.24 35.24
1484 16.7929 1261.90 1290.21 35.52
1485 16.8029 1295.39 1335.05 35.99
1486 16.8129 1344.91 1381.04 36.67
1487 16.8228 1384.34 1424.42 37.21
1488 16.8328 1429.33 1460.84 37.81
1489 16.8428 1456.08 1482.37 38.16
1490 16.8528 1456.33 1479.60 38.16
1491 16.8627 1430.15 1449.43 37.82
1492 16.8727 1377.78 1401.86 37.12
1493 16.8827 1306.94 1347.86 36.15
1494 16.8927 1259.43 1295.26 35.49
1495 16.9027 1223.10 1249.58 34.97
1496 16.9126 1185.43 1211.64 34.43
1497 16.9226 1165.20 1182.03 34.14
1498 16.9326 1149.98 1160.78 33.91
1499 16.9426 1138.30 1147.33 33.74
1500 16.9525 1128.20 1140.90 33.59
1501 16.9625 1128.34 1140.72 33.59
1502 16.9725 1132.60 1146.26 33.65
1503 16.9825 1143.56 1157.07 33.82
1504 16.9924 1148.59 1172.34 33.89
1505 17.0024 1166.38 1190.92 34.15
1506 17.0124 1184.25 1210.80 34.41
1507 17.0224 1201.83 1230.21 34.67
1508 17.0323 1227.79 1248.52 35.04
1509 17.0423 1260.24 1267.09 35.50
1510 17.0523 1294.13 1286.16 35.97
1511 17.0623 1318.42 1302.77 36.31
1512 17.0722 1342.07 1313.20 36.63
1513 17.0822 1330.28 1307.05 36.47
1514 17.0922 1310.39 1287.07 36.20
1515 17.1021 1271.14 1259.37 35.65
1516 17.1121 1235.01 1230.84 35.14
1517 17.1221 1200.16 1206.11 34.64
1518 17.1321 1179.45 1187.00 34.34
1519 17.1420 1166.16 1172.83 34.15
1520 17.1520 1154.46 1161.33 33.98
1521 17.1620 1152.77 1150.48 33.95
1522 17.1720 1143.91 1139.86 33.82
1523 17.1819 1142.44 1130.48 33.80
1524 17.1919 1136.35 1124.06 33.71
1525 17.2019 1133.86 1119.70 33.67
1526 17.2119 1136.14 1118.67 33.71
1527 17.2218 1144.49 1120.94 33.83
1528 17.2318 1152.74 1126.03 33.95
1529 17.2418 1162.98 1132.94 34.10
1530 17.2518 1176.62 1139.95 34.30
1531 17.2617 1178.21 1144.60 34.33
1532 17.2717 1178.78 1145.61 34.33
1533 17.2817 1167.19 1140.50 34.16
1534 17.2917 1153.75 1131.86 33.97
1535 17.3016 1139.29 1121.96 33.75
1536 17.3116 1121.54 1112.58 33.49
1537 17.3216 1106.68 1104.74 33.27
1538 17.3316 1097.49 1098.55 33.13
1539 17.3416 1094.10 1094.62 33.08
1540 17.3515 1084.77 1092.37 32.94
1541 17.3615 1079.25 1091.44 32.85
1542 17.3715 1082.83 1090.42 32.91
1543 17.3815 1081.20 1091.37 32.88
1544 17.3914 1084.79 1093.05 32.94
1545 17.4014 1081.28 1095.47 32.88
1546 17.4114 1086.40 1098.72 32.96
1547 17.4214 1083.90 1103.06 32.92
1548 17.4313 1087.09 1108.68 32.97
1549 17.4413 1092.23 1115.97 33.05
1550 17.4513 1107.56 1125.41 33.28
1551 17.4613 1114.62 1137.59 33.39
1552 17.4712 1128.16 1155.02 33.59
1553 17.4812 1144.55 1175.23 33.83
1554 17.4912 1169.30 1201.02 34.20
1555 17.5012 1202.47 1233.88 34.68
1556 17.5111 1246.35 1275.84 35.30
1557 17.5211 1300.11 1329.20 36.06
1558 17.5311 1380.58 1395.21 37.16
1559 17.5410 1483.82 1474.00 38.52
1560 17.5510 1604.16 1561.66 40.05
1561 17.5610 1746.10 1653.34 41.79
1562 17.5710 1890.28 1736.54 43.48
1563 17.5809 1965.13 1790.08 44.33
1564 17.5909 1975.83 1793.26 44.45
1565 17.6009 1896.02 1741.86 43.54
1566 17.6109 1727.64 1655.31 41.56
1567 17.6208 1557.62 1557.47 39.47
1568 17.6308 1431.80 1467.94 37.84
1569 17.6408 1342.00 1398.56 36.63
1570 17.6508 1297.01 1354.78 36.01
1571 17.6607 1288.24 1337.12 35.89
1572 17.6707 1296.33 1343.12 36.00
1573 17.6807 1323.89 1366.96 36.39
1574 17.6907 1359.52 1402.05 36.87
1575 17.7006 1396.15 1439.24 37.37
1576 17.7106 1429.00 1468.24 37.80
1577 17.7206 1451.64 1480.78 38.10
1578 17.7306 1461.48 1477.36 38.23
1579 17.7405 1459.03 1466.21 38.20
1580 17.7505 1464.18 1456.93 38.26
1581 17.7605 1464.73 1455.04 38.27
1582 17.7705 1464.82 1459.83 38.27
1583 17.7805 1473.67 1463.99 38.39
1584 17.7904 1466.05 1456.10 38.29
1585 17.8004 1443.08 1429.44 37.99
1586 17.8104 1403.28 1386.42 37.46
1587 17.8204 1363.11 1335.93 36.92
1588 17.8303 1313.19 1286.59 36.24
1589 17.8403 1263.76 1243.99 35.55
1590 17.8503 1233.99 1210.94 35.13
1591 17.8603 1205.36 1188.14 34.72
1592 17.8702 1179.71 1174.97 34.35
1593 17.8802 1169.64 1170.37 34.20
1594 17.8902 1165.63 1173.43 34.14
1595 17.9002 1166.72 1183.85 34.16
1596 17.9101 1179.08 1202.05 34.34
1597 17.9201 1198.99 1228.99 34.63
1598 17.9301 1231.04 1265.59 35.09
1599 17.9401 1289.58 1312.09 35.91
1600 17.9500 1363.69 1367.72 36.93
1601 17.9600 1467.58 1431.21 38.31
1602 17.9700 1605.54 1500.68 40.07
1603 17.9799 1746.82 1571.15 41.79
1604 17.9899 1883.43 1631.63 43.40
1605 17.9999 1952.12 1667.10 44.18
1606 18.0099 1929.70 1668.99 43.93
1607 18.0198 1808.31 1643.70 42.52
1608 18.0298 1650.54 1606.53 40.63
1609 18.0398 1534.33 1571.76 39.17
1610 18.0498 1443.97 1543.49 38.00
1611 18.0597 1399.80 1517.91 37.41
1612 18.0697 1370.96 1487.50 37.03
1613 18.0797 1345.58 1447.89 36.68
1614 18.0897 1313.84 1401.73 36.25
1615 18.0996 1289.49 1355.58 35.91
1616 18.1096 1268.29 1314.68 35.61
1617 18.1196 1241.46 1279.30 35.23
1618 18.1296 1235.41 1254.96 35.15
1619 18.1395 1223.30 1239.72 34.98
1620 18.1495 1219.96 1233.73 34.93
1621 18.1595 1233.80 1236.52 35.13
1622 18.1695 1244.99 1246.81 35.28
1623 18.1794 1269.44 1265.87 35.63
1624 18.1894 1290.89 1282.18 35.93
1625 18.1994 1303.17 1293.26 36.10
1626 18.2094 1297.31 1294.00 36.02
1627 18.2194 1277.92 1283.45 35.75
1628 18.2293 1254.48 1264.11 35.42
1629 18.2393 1221.99 1239.43 34.96
1630 18.2493 1187.04 1211.14 34.45
1631 18.2593 1166.73 1184.02 34.16
1632 18.2692 1150.36 1159.64 33.92
1633 18.2792 1125.97 1139.45 33.56
1634 18.2892 1116.02 1125.86 33.41
1635 18.2992 1105.54 1114.25 33.25
1636 18.3091 1100.53 1106.03 33.17
1637 18.3191 1092.77 1099.36 33.06
1638 18.3291 1089.13 1095.72 33.00
1639 18.3391 1090.03 1093.44 33.02
1640 18.3490 1087.97 1092.28 32.98
1641 18.3590 1084.83 1091.66 32.94
1642 18.3690 1090.21 1091.59 33.02
1643 18.3790 1088.20 1091.97 32.99
1644 18.3889 1089.80 1092.79 33.01
1645 18.3989 1090.87 1094.05 33.03
1646 18.4089 1090.30 1095.79 33.02
1647 18.4188 1096.82 1098.09 33.12
1648 18.4288 1097.21 1101.06 33.12
1649 18.4388 1104.02 1104.91 33.23
1650 18.4488 1106.06 1109.96 33.26
1651 18.4587 1111.16 1116.76 33.33
1652 18.4687 1123.60 1126.13 33.52
1653 18.4787 1131.49 1139.24 33.64
1654 18.4887 1148.67 1157.40 33.89
1655 18.4986 1178.00 1182.62 34.32
1656 18.5086 1213.85 1216.23 34.84
1657 18.5186 1261.80 1259.20 35.52
1658 18.5286 1325.83 1311.42 36.41
1659 18.5385 1394.33 1369.27 37.34
1660 18.5485 1475.16 1431.33 38.41
1661 18.5585 1554.15 1486.93 39.42
1662 18.5685 1599.24 1523.86 39.99
1663 18.5784 1619.64 1533.54 40.24
1664 18.5884 1589.98 1513.76 39.87
1665 18.5984 1543.09 1475.68 39.28
1666 18.6084 1500.39 1436.25 38.73
1667 18.6183 1453.05 1407.57 38.12
1668 18.6283 1443.94 1399.29 38.00
1669 18.6383 1456.43 1417.86 38.16
1670 18.6483 1499.72 1467.29 38.73
1671 18.6583 1574.59 1547.13 39.68
1672 18.6682 1667.13 1655.50 40.83
1673 18.6782 1756.80 1785.51 41.91
1674 18.6882 1869.26 1922.37 43.23
1675 18.6982 1955.20 2041.14 44.22
1676 18.7081 2012.93 2108.69 44.87
1677 18.7181 2015.63 2101.68 44.90
1678 18.7281 1975.15 2026.08 44.44
1679 18.7381 1897.19 1911.72 43.56
1680 18.7480 1802.43 1793.47 42.46
1681 18.7580 1723.79 1695.42 41.52
1682 18.7680 1682.10 1631.50 41.01
1683 18.7780 1660.11 1606.41 40.74
1684 18.7879 1683.03 1617.85 41.02
1685 18.7979 1716.30 1656.16 41.43
1686 18.8079 1762.67 1704.85 41.98
1687 18.8179 1793.11 1740.90 42.35
1688 18.8278 1772.79 1742.04 42.10
1689 18.8378 1734.51 1700.17 41.65
1690 18.8478 1631.22 1625.77 40.39
1691 18.8577 1533.79 1537.29 39.16
1692 18.8677 1441.46 1450.07 37.97
1693 18.8777 1354.36 1372.58 36.80
1694 18.8877 1288.76 1309.90 35.90
1695 18.8976 1239.24 1258.05 35.20
1696 18.9076 1207.64 1217.42 34.75
1697 18.9176 1174.39 1186.35 34.27
1698 18.9276 1159.60 1163.11 34.05
1699 18.9375 1141.34 1146.05 33.78
1700 18.9475 1137.02 1134.61 33.72
1701 18.9575 1131.53 1126.07 33.64
1702 18.9675 1125.10 1120.42 33.54
1703 18.9774 1127.88 1117.13 33.58
1704 18.9874 1130.35 1115.90 33.62
1705 18.9974 1137.67 1116.71 33.73
1706 19.0074 1143.65 1121.75 33.82
1707 19.0173 1148.40 1127.97 33.89
1708 19.0273 1157.97 1138.16 34.03
1709 19.0373 1172.32 1153.49 34.24
1710 19.0473 1191.78 1175.17 34.52
1711 19.0572 1205.46 1204.15 34.72
1712 19.0672 1232.47 1240.77 35.11
1713 19.0772 1264.63 1284.34 35.56
1714 19.0872 1284.56 1332.32 35.84
1715 19.0972 1318.06 1379.59 36.31
1716 19.1071 1340.80 1415.48 36.62
1717 19.1171 1348.52 1431.79 36.72
1718 19.1271 1357.67 1425.91 36.85
1719 19.1371 1352.32 1403.55 36.77
1720 19.1470 1340.74 1375.26 36.62
1721 19.1570 1343.66 1349.48 36.66
1722 19.1670 1344.05 1330.27 36.66
1723 19.1770 1338.17 1317.16 36.58
1724 19.1869 1338.83 1306.19 36.59
1725 19.1969 1320.14 1292.73 36.33
1726 19.2069 1287.97 1274.58 35.89
1727 19.2169 1258.43 1252.10 35.47
1728 19.2268 1222.32 1226.94 34.96
1729 19.2368 1190.37 1201.29 34.50
1730 19.2468 1167.50 1177.63 34.17
1731 19.2568 1150.35 1154.28 33.92
1732 19.2667 1129.92 1139.18 33.61
1733 19.2767 1124.26 1128.77 33.53
1734 19.2867 1124.65 1122.73 33.54
1735 19.2966 1119.04 1120.59 33.45
1736 19.3066 1124.76 1122.07 33.54
1737 19.3166 1130.04 1127.23 33.62
1738 19.3266 1140.36 1137.61 33.77
1739 19.3365 1152.82 1152.32 33.95
1740 19.3465 1167.18 1173.94 34.16
1741 19.3565 1198.48 1204.37 34.62
1742 19.3665 1235.19 1243.72 35.15
1743 19.3764 1267.74 1297.13 35.61
1744 19.3864 1341.10 1363.14 36.62
1745 19.3964 1410.42 1440.31 37.56
1746 19.4064 1485.47 1524.01 38.54
1747 19.4163 1558.96 1604.73 39.48
1748 19.4263 1608.64 1668.34 40.11
1749 19.4363 1633.30 1702.54 40.41
1750 19.4463 1634.34 1702.94 40.43
1751 19.4562 1626.80 1681.04 40.33
1752 19.4662 1617.42 1652.00 40.22
1753 19.4762 1613.50 1626.36 40.17
1754 19.4862 1616.70 1607.39 40.21
1755 19.4961 1628.77 1594.42 40.36
1756 19.5061 1636.28 1588.24 40.45
1757 19.5161 1662.06 1592.31 40.77
1758 19.5261 1698.27 1608.79 41.21
1759 19.5361 1748.93 1634.48 41.82
1760 19.5460 1804.83 1658.83 42.48
1761 19.5560 1833.14 1665.89 42.82
1762 19.5660 1798.44 1643.08 42.41
1763 19.5760 1708.42 1591.04 41.33
1764 19.5859 1584.59 1522.07 39.81
1765 19.5959 1464.84 1450.36 38.27
1766 19.6059 1381.39 1390.28 37.17
1767 19.6159 1323.06 1338.08 36.37
1768 19.6258 1283.09 1298.53 35.82
1769 19.6358 1258.79 1268.77 35.48
1770 19.6458 1239.34 1244.13 35.20
1771 19.6558 1210.17 1220.88 34.79
1772 19.6657 1192.96 1196.78 34.54
1773 19.6757 1173.06 1175.12 34.25
1774 19.6857 1150.83 1155.91 33.92
1775 19.6957 1136.21 1139.97 33.71
1776 19.7056 1121.15 1127.61 33.48
1777 19.7156 1113.53 1118.78 33.37
1778 19.7256 1120.59 1113.82 33.48
1779 19.7355 1116.50 1111.05 33.41
1780 19.7455 1120.49 1110.21 33.47
1781 19.7555 1126.64 1111.90 33.57
1782 19.7655 1125.28 1115.39 33.55
1783 19.7754 1137.04 1120.81 33.72
1784 19.7854 1135.19 1128.40 33.69
1785 19.7954 1141.13 1138.97 33.78
1786 19.8054 1148.24 1153.77 33.89
1787 19.8153 1164.29 1174.38 34.12
1788 19.8253 1195.02 1201.93 34.57
1789 19.8353 1217.21 1236.75 34.89
1790 19.8453 1270.60 1278.79 35.65
1791 19.8552 1338.58 1326.09 36.59
1792 19.8652 1388.79 1374.12 37.27
1793 19.8752 1440.91 1415.36 37.96
1794 19.8852 1458.58 1442.13 38.19
1795 19.8951 1441.76 1451.77 37.97
1796 19.9051 1406.53 1448.22 37.50
1797 19.9151 1366.29 1437.61 36.96
1798 19.9251 1341.33 1424.72 36.62
1799 19.9350 1336.22 1413.61 36.55
1800 19.9450 1349.51 1408.19 36.74
1801 19.9550 1374.19 1410.66 37.07
1802 19.9650 1389.34 1419.41 37.27
1803 19.9750 1414.58 1428.27 37.61
1804 19.9849 1425.88 1426.51 37.76
1805 19.9949 1408.43 1411.71 37.53
1806 20.0049 1384.06 1383.21 37.20
1807 20.0149 1346.52 1347.94 36.69
1808 20.0248 1307.93 1313.56 36.17
1809 20.0348 1271.18 1285.78 35.65
1810 20.0448 1256.59 1267.75 35.45
1811 20.0548 1240.50 1264.03 35.22
1812 20.0647 1250.18 1276.38 35.36
1813 20.0747 1273.78 1307.45 35.69
1814 20.0847 1325.47 1360.04 36.41
1815 20.0947 1394.84 1436.65 37.35
1816 20.1046 1504.11 1538.74 38.78
1817 20.1146 1669.00 1663.66 40.85
1818 20.1246 1859.59 1811.67 43.12
1819 20.1346 2044.06 1966.51 45.21
1820 20.1445 2228.65 2106.38 47.21
1821 20.1545 2321.77 2197.52 48.18
1822 20.1645 2283.84 2209.54 47.79
1823 20.1744 2155.87 2137.46 46.43
1824 20.1844 1938.08 2005.70 44.02
1825 20.1944 1725.09 1849.06 41.53
1826 20.2044 1564.83 1695.52 39.56
1827 20.2143 1432.82 1563.18 37.85
1828 20.2243 1349.83 1460.11 36.74
1829 20.2343 1310.68 1388.07 36.20
1830 20.2443 1303.41 1344.22 36.10
1831 20.2542 1311.34 1323.14 36.21
1832 20.2642 1325.64 1317.80 36.41
1833 20.2742 1345.71 1320.08 36.68
1834 20.2842 1352.64 1322.61 36.78
1835 20.2941 1344.82 1317.87 36.67
1836 20.3041 1321.07 1305.92 36.35
1837 20.3141 1290.10 1289.27 35.92
1838 20.3241 1265.31 1271.49 35.57
1839 20.3340 1238.43 1255.35 35.19
1840 20.3440 1219.53 1242.66 34.92
1841 20.3540 1197.47 1233.96 34.60
1842 20.3640 1188.40 1227.75 34.47
1843 20.3739 1181.73 1220.94 34.38
1844 20.3839 1177.95 1210.47 34.32
1845 20.3939 1172.65 1196.19 34.24
1846 20.4039 1160.77 1178.00 34.07
1847 20.4139 1149.56 1159.09 33.91
1848 20.4238 1142.77 1141.53 33.80
1849 20.4338 1133.82 1126.80 33.67
1850 20.4438 1124.51 1114.15 33.53
1851 20.4538 1114.24 1105.91 33.38
1852 20.4637 1120.36 1100.82 33.47
1853 20.4737 1112.43 1098.42 33.35
1854 20.4837 1109.64 1097.84 33.31
1855 20.4937 1110.49 1099.36 33.32
1856 20.5036 1113.95 1102.00 33.38
1857 20.5136 1111.26 1105.03 33.34
1858 20.5236 1115.40 1107.51 33.40
1859 20.5336 1118.06 1108.80 33.44
1860 20.5435 1113.48 1108.45 33.37
1861 20.5535 1109.35 1106.25 33.31
1862 20.5635 1112.90 1105.32 33.36
1863 20.5735 1113.84 1105.71 33.37
1864 20.5834 1116.43 1108.40 33.41
1865 20.5934 1122.09 1114.42 33.50
1866 20.6034 1134.04 1124.77 33.68
1867 20.6133 1146.79 1140.51 33.86
1868 20.6233 1178.05 1162.52 34.32
1869 20.6333 1208.10 1191.36 34.76
1870 20.6433 1268.12 1226.99 35.61
1871 20.6532 1349.49 1270.14 36.74
1872 20.6632 1425.22 1314.37 37.75
1873 20.6732 1522.12 1355.61 39.01
1874 20.6832 1588.05 1385.05 39.85
1875 20.6931 1584.45 1393.79 39.81
1876 20.7031 1536.51 1379.21 39.20
1877 20.7131 1436.39 1346.96 37.90
1878 20.7231 1332.79 1302.31 36.51
1879 20.7330 1257.92 1262.53 35.47
1880 20.7430 1214.69 1228.47 34.85
1881 20.7530 1184.79 1203.51 34.42
1882 20.7630 1173.49 1189.12 34.26
1883 20.7729 1177.83 1185.55 34.32
1884 20.7829 1197.33 1192.27 34.60
1885 20.7929 1222.63 1208.17 34.97
1886 20.8029 1251.74 1231.74 35.38
1887 20.8129 1295.33 1261.06 35.99
1888 20.8228 1343.06 1293.33 36.65
1889 20.8328 1380.46 1324.77 37.15
1890 20.8428 1404.36 1347.29 37.47
1891 20.8528 1400.50 1354.73 37.42
1892 20.8627 1386.56 1346.69 37.24
1893 20.8727 1343.51 1326.83 36.65
1894 20.8827 1306.17 1302.46 36.14
1895 20.8927 1272.34 1280.32 35.67
1896 20.9026 1253.15 1265.58 35.40
1897 20.9126 1251.94 1260.46 35.38
1898 20.9226 1251.78 1265.56 35.38
1899 20.9326 1266.56 1279.31 35.59
1900 20.9425 1274.08 1297.79 35.69
1901 20.9525 1290.08 1315.75 35.92
1902 20.9625 1299.47 1325.07 36.05
1903 20.9725 1297.33 1322.05 36.02
1904 20.9824 1298.84 1307.62 36.04
1905 20.9924 1285.48 1285.74 35.85
1906 21.0024 1259.39 1260.19 35.49
1907 21.0124 1246.70 1233.74 35.31
1908 21.0223 1217.85 1208.78 34.90
1909 21.0323 1197.32 1187.43 34.60
1910 21.0423 1180.99 1171.07 34.37
1911 21.0522 1173.74 1160.15 34.26
1912 21.0622 1166.36 1154.91 34.15
1913 21.0722 1160.10 1153.72 34.06
1914 21.0822 1164.48 1156.04 34.12
1915 21.0921 1164.23 1160.67 34.12
1916 21.1021 1168.26 1166.26 34.18
1917 21.1121 1174.33 1172.54 34.27
1918 21.1221 1178.25 1180.26 34.33
1919 21.1320 1190.04 1191.53 34.50
1920 21.1420 1202.51 1208.81 34.68
1921 21.1520 1241.73 1234.27 35.24
1922 21.1620 1292.89 1269.39 35.96
1923 21.1719 1346.58 1318.90 36.70
1924 21.1819 1439.40 1373.48 37.94
1925 21.1919 1540.13 1433.54 39.24
1926 21.2019 1626.17 1491.98 40.33
1927 21.2118 1686.32 1537.17 41.06
1928 21.2218 1698.13 1556.50 41.21
1929 21.2318 1651.91 1544.18 40.64
1930 21.2418 1574.05 1508.61 39.67
1931 21.2518 1477.19 1455.69 38.43
1932 21.2617 1383.42 1398.46 37.19
1933 21.2717 1316.75 1347.02 36.29
1934 21.2817 1258.64 1304.35 35.48
1935 21.2917 1224.10 1271.89 34.99
1936 21.3016 1196.67 1248.93 34.59
1937 21.3116 1188.63 1233.74 34.48
1938 21.3216 1183.13 1224.93 34.40
1939 21.3316 1186.84 1222.11 34.45
1940 21.3415 1199.78 1225.47 34.64
1941 21.3515 1221.40 1235.10 34.95
1942 21.3615 1253.03 1250.57 35.40
1943 21.3715 1284.99 1270.54 35.85
1944 21.3814 1318.39 1292.21 36.31
1945 21.3914 1355.86 1311.09 36.82
1946 21.4014 1365.18 1321.80 36.95
1947 21.4114 1357.01 1321.25 36.84
1948 21.4213 1338.62 1310.26 36.59
1949 21.4313 1301.32 1295.83 36.07
1950 21.4413 1276.95 1282.44 35.73
1951 21.4513 1264.94 1274.32 35.57
1952 21.4612 1253.31 1272.22 35.40
1953 21.4712 1252.77 1277.07 35.39
1954 21.4812 1255.34 1288.21 35.43
1955 21.4911 1268.47 1304.17 35.62
1956 21.5011 1277.18 1322.64 35.74
1957 21.5111 1285.10 1339.49 35.85
1958 21.5211 1293.30 1349.30 35.96
1959 21.5310 1291.74 1347.99 35.94
1960 21.5410 1289.05 1335.29 35.90
1961 21.5510 1279.60 1317.40 35.77
1962 21.5610 1273.12 1299.18 35.68
1963 21.5709 1276.77 1285.02 35.73
1964 21.5809 1285.71 1277.43 35.86
1965 21.5909 1293.23 1278.05 35.96
1966 21.6009 1314.90 1286.88 36.26
1967 21.6108 1339.59 1302.84 36.60
1968 21.6208 1358.99 1324.20 36.86
1969 21.6308 1385.53 1348.47 37.22
1970 21.6408 1414.44 1373.62 37.61
1971 21.6507 1432.75 1400.35 37.85
1972 21.6607 1471.24 1432.54 38.36
1973 21.6707 1530.74 1477.11 39.12
1974 21.6807 1597.52 1539.55 39.97
1975 21.6907 1671.20 1625.55 40.88
1976 21.7006 1805.74 1737.83 42.49
1977 21.7106 1948.88 1873.96 44.15
1978 21.7206 2088.61 2028.59 45.70
1979 21.7306 2238.66 2187.34 47.31
1980 21.7405 2349.02 2326.04 48.47
1981 21.7505 2407.12 2417.21 49.06
1982 21.7605 2405.39 2446.77 49.04
1983 21.7705 2358.20 2424.13 48.56
1984 21.7804 2280.14 2376.05 47.75
1985 21.7904 2218.95 2327.26 47.11
1986 21.8004 2160.94 2288.01 46.49
1987 21.8104 2112.53 2257.93 45.96
1988 21.8203 2066.80 2218.10 45.46
1989 21.8303 2005.29 2149.07 44.78
1990 21.8403 1911.10 2044.11 43.72
1991 21.8503 1810.11 1913.92 42.55
1992 21.8602 1715.35 1777.40 41.42
1993 21.8702 1621.26 1647.38 40.26
1994 21.8802 1529.27 1533.81 39.11
1995 21.8902 1461.94 1440.52 38.24
1996 21.9001 1399.07 1368.29 37.40
1997 21.9101 1344.35 1315.26 36.67
1998 21.9201 1313.62 1278.67 36.24
1999 21.9300 1286.96 1255.59 35.87
2000 21.9400 1271.33 1243.55 35.66
2001 21.9500 1269.08 1240.75 35.62
2002 21.9600 1269.72 1246.00 35.63
2003 21.9699 1269.98 1258.65 35.64
2004 21.9799 1292.38 1277.68 35.95
2005 21.9899 1316.04 1301.38 36.28
2006 21.9999 1340.73 1329.12 36.62
2007 22.0098 1371.04 1356.45 37.03
2008 22.0198 1385.70 1377.77 37.22
2009 22.0298 1379.53 1386.91 37.14
2010 22.0398 1374.91 1380.94 37.08
2011 22.0497 1365.51 1360.44 36.95
2012 22.0597 1334.40 1331.14 36.53
2013 22.0697 1310.80 1298.96 36.21
2014 22.0797 1288.32 1268.12 35.89
2015 22.0896 1257.65 1241.30 35.46
2016 22.0996 1238.24 1219.76 35.19
2017 22.1096 1222.85 1203.02 34.97
2018 22.1196 1211.91 1192.42 34.81
2019 22.1296 1201.58 1186.73 34.66
2020 22.1395 1196.32 1185.78 34.59
2021 22.1495 1192.12 1188.86 34.53
2022 22.1595 1202.42 1195.90 34.68
2023 22.1695 1208.52 1206.68 34.76
2024 22.1794 1212.15 1220.89 34.82
2025 22.1894 1227.94 1238.68 35.04
2026 22.1994 1251.23 1260.56 35.37
2027 22.2094 1280.33 1287.21 35.78
2028 22.2193 1301.57 1318.40 36.08
2029 22.2293 1356.45 1353.36 36.83
2030 22.2393 1401.15 1390.08 37.43
2031 22.2493 1423.46 1425.46 37.73
2032 22.2592 1476.92 1456.70 38.43
2033 22.2692 1502.76 1480.35 38.77
2034 22.2792 1506.58 1492.90 38.81
2035 22.2892 1487.67 1491.77 38.57
2036 22.2991 1475.70 1475.19 38.41
2037 22.3091 1426.29 1448.71 37.77
2038 22.3191 1392.28 1418.56 37.31
2039 22.3291 1371.63 1389.88 37.04
2040 22.3390 1338.31 1360.50 36.58
2041 22.3490 1312.21 1340.65 36.22
2042 22.3590 1299.93 1322.35 36.05
2043 22.3689 1286.32 1308.60 35.87
2044 22.3789 1273.12 1301.44 35.68
2045 22.3889 1275.91 1302.46 35.72
2046 22.3989 1285.63 1312.13 35.86
2047 22.4088 1303.34 1329.55 36.10
2048 22.4188 1319.73 1349.34 36.33
2049 22.4288 1335.51 1372.85 36.54
2050 22.4388 1352.74 1389.83 36.78
2051 22.4487 1351.50 1393.12 36.76
2052 22.4587 1343.32 1379.72 36.65
2053 22.4687 1321.55 1352.81 36.35
2054 22.4787 1295.13 1319.02 35.99
2055 22.4886 1266.77 1284.68 35.59
2056 22.4986 1239.34 1253.97 35.20
2057 22.5086 1229.79 1229.33 35.07
2058 22.5186 1204.24 1211.73 34.70
2059 22.5285 1191.54 1202.28 34.52
2060 22.5385 1188.12 1198.28 34.47
2061 22.5485 1188.18 1199.35 34.47
2062 22.5585 1191.78 1203.95 34.52
2063 22.5685 1196.36 1210.89 34.59
2064 22.5784 1217.92 1219.50 34.90
2065 22.5884 1231.92 1229.69 35.10
2066 22.5984 1255.24 1241.22 35.43
2067 22.6084 1268.73 1252.84 35.62
2068 22.6183 1293.30 1261.86 35.96
2069 22.6283 1299.72 1265.95 36.05
2070 22.6383 1287.90 1262.19 35.89
2071 22.6483 1268.39 1251.94 35.61
2072 22.6582 1240.31 1239.22 35.22
2073 22.6682 1218.99 1225.62 34.91
2074 22.6782 1189.00 1214.33 34.48
2075 22.6882 1186.45 1206.55 34.44
2076 22.6981 1190.90 1202.51 34.51
2077 22.7081 1184.03 1201.75 34.41
2078 22.7181 1169.83 1203.13 34.20
2079 22.7281 1185.25 1205.18 34.43
2080 22.7380 1185.79 1206.64 34.44
2081 22.7480 1178.64 1207.06 34.33
2082 22.7580 1178.35 1207.10 34.33
2083 22.7680 1185.25 1207.64 34.43
2084 22.7779 1183.98 1210.04 34.41
2085 22.7879 1178.47 1216.00 34.33
2086 22.7979 1204.83 1226.81 34.71
2087 22.8078 1218.59 1243.71 34.91
2088 22.8178 1239.69 1267.49 35.21
2089 22.8278 1257.70 1298.38 35.46
2090 22.8378 1319.22 1336.44 36.32
2091 22.8477 1378.02 1380.31 37.12
2092 22.8577 1416.52 1429.66 37.64
2093 22.8677 1511.95 1481.35 38.88
2094 22.8777 1577.04 1532.19 39.71
2095 22.8876 1630.91 1578.00 40.38
2096 22.8976 1648.25 1618.46 40.60
2097 22.9076 1683.47 1653.40 41.03
2098 22.9176 1699.31 1683.61 41.22
2099 22.9275 1701.75 1705.65 41.25
2100 22.9375 1705.86 1711.96 41.30
2101 22.9475 1696.59 1693.48 41.19
2102 22.9575 1657.48 1648.56 40.71
2103 22.9674 1577.79 1583.84 39.72
2104 22.9774 1535.98 1510.89 39.19
2105 22.9874 1463.63 1439.85 38.26
2106 22.9974 1399.67 1377.29 37.41
2107 23.0074 1343.46 1326.59 36.65
2108 23.0173 1327.93 1289.02 36.44
2109 23.0273 1302.66 1264.52 36.09
2110 23.0373 1280.02 1252.38 35.78
2111 23.0473 1272.41 1250.62 35.67
2112 23.0572 1286.77 1260.42 35.87
2113 23.0672 1296.83 1279.80 36.01
2114 23.0772 1308.93 1307.77 36.18
2115 23.0872 1351.34 1343.07 36.76
2116 23.0971 1390.91 1383.81 37.29
2117 23.1071 1430.51 1426.82 37.82
2118 23.1171 1470.30 1466.66 38.34
2119 23.1271 1508.16 1495.96 38.83
2120 23.1370 1528.94 1509.35 39.10
2121 23.1470 1525.04 1504.89 39.05
2122 23.1570 1512.53 1489.39 38.89
2123 23.1670 1498.10 1471.75 38.71
2124 23.1769 1474.96 1460.23 38.41
2125 23.1869 1456.92 1459.80 38.17
2126 23.1969 1484.84 1472.37 38.53
2127 23.2069 1526.73 1496.45 39.07
2128 23.2168 1574.11 1526.90 39.67
2129 23.2268 1621.90 1554.89 40.27
2130 23.2368 1655.20 1573.14 40.68
2131 23.2467 1648.52 1573.38 40.60
2132 23.2567 1595.76 1555.19 39.95
2133 23.2667 1531.84 1517.59 39.14
2134 23.2767 1475.71 1466.87 38.42
2135 23.2866 1403.45 1410.50 37.46
2136 23.2966 1337.35 1355.64 36.57
2137 23.3066 1312.41 1307.12 36.23
2138 23.3166 1266.47 1267.33 35.59
2139 23.3265 1229.72 1237.57 35.07
2140 23.3365 1203.18 1215.48 34.69
2141 23.3465 1199.38 1200.99 34.63
2142 23.3565 1182.20 1191.44 34.38
2143 23.3664 1167.89 1185.00 34.17
2144 23.3764 1163.04 1180.95 34.10
2145 23.3864 1165.16 1178.89 34.13
2146 23.3964 1164.77 1178.83 34.13
2147 23.4063 1157.90 1180.79 34.03
2148 23.4163 1162.82 1184.65 34.10
2149 23.4263 1169.43 1190.04 34.20
2150 23.4363 1176.27 1196.17 34.30
2151 23.4463 1179.94 1201.64 34.35
2152 23.4562 1190.67 1204.51 34.51
2153 23.4662 1198.56 1204.05 34.62
2154 23.4762 1195.37 1200.44 34.57
2155 23.4862 1192.26 1194.23 34.53
2156 23.4961 1193.95 1188.66 34.55
2157 23.5061 1193.23 1182.53 34.54
2158 23.5161 1191.35 1175.46 34.52
2159 23.5261 1190.42 1167.15 34.50
2160 23.5360 1179.04 1157.47 34.34
2161 23.5460 1167.74 1147.26 34.17
2162 23.5560 1153.10 1135.65 33.96
2163 23.5660 1146.01 1127.19 33.85
2164 23.5759 1130.65 1120.32 33.63
2165 23.5859 1124.71 1115.20 33.54
2166 23.5959 1121.31 1111.81 33.49
2167 23.6059 1116.98 1110.05 33.42
2168 23.6158 1114.35 1109.87 33.38
2169 23.6258 1112.89 1111.26 33.36
2170 23.6358 1114.78 1114.53 33.39
2171 23.6458 1115.44 1119.78 33.40
2172 23.6557 1122.72 1127.10 33.51
2173 23.6657 1135.07 1137.15 33.69
2174 23.6757 1153.10 1150.44 33.96
2175 23.6856 1170.03 1167.27 34.21
2176 23.6956 1196.32 1187.81 34.59
2177 23.7056 1220.50 1212.01 34.94
2178 23.7156 1260.63 1239.00 35.51
2179 23.7255 1295.32 1266.89 35.99
2180 23.7355 1329.14 1292.31 36.46
2181 23.7455 1353.56 1311.44 36.79
2182 23.7555 1377.99 1322.49 37.12
2183 23.7654 1383.67 1326.84 37.20
2184 23.7754 1371.14 1329.21 37.03
2185 23.7854 1369.47 1335.28 37.01
2186 23.7954 1378.30 1349.26 37.13
2187 23.8053 1390.13 1373.85 37.28
2188 23.8153 1413.90 1410.07 37.60
2189 23.8253 1437.35 1455.60 37.91
2190 23.8353 1477.08 1506.40 38.43
2191 23.8452 1506.19 1554.62 38.81
2192 23.8552 1521.99 1592.69 39.01
2193 23.8652 1531.88 1612.79 39.14
2194 23.8752 1538.60 1611.66 39.22
2195 23.8852 1520.87 1596.03 39.00
2196 23.8951 1505.59 1571.82 38.80
2197 23.9051 1495.33 1548.05 38.67
2198 23.9151 1491.83 1529.27 38.62
2199 23.9251 1485.86 1515.20 38.55
2200 23.9350 1482.45 1502.60 38.50
2201 23.9450 1478.96 1483.48 38.46
2202 23.9550 1470.73 1454.82 38.35
2203 23.9650 1444.12 1416.33 38.00
2204 23.9749 1415.80 1371.06 37.63
2205 23.9849 1374.01 1324.00 37.07
2206 23.9949 1338.27 1279.46 36.58
2207 24.0049 1303.32 1240.45 36.10
2208 24.0148 1273.47 1209.78 35.69
2209 24.0248 1251.67 1185.49 35.38
2210 24.0348 1227.57 1168.50 35.04
2211 24.0448 1213.38 1158.04 34.83
2212 24.0547 1204.16 1153.22 34.70
2213 24.0647 1199.19 1152.69 34.63
2214 24.0747 1190.07 1154.94 34.50
2215 24.0847 1186.00 1159.00 34.44
2216 24.0946 1189.85 1162.55 34.49
2217 24.1046 1184.37 1163.54 34.41
2218 24.1146 1186.13 1160.74 34.44
2219 24.1245 1177.49 1154.42 34.31
2220 24.1345 1174.29 1145.90 34.27
2221 24.1445 1169.12 1137.38 34.19
2222 24.1545 1167.26 1130.07 34.17
2223 24.1644 1158.65 1124.97 34.04
2224 24.1744 1159.68 1122.69 34.05
2225 24.1844 1159.03 1123.59 34.04
2226 24.1944 1162.47 1127.82 34.10
2227 24.2043 1171.18 1135.34 34.22
2228 24.2143 1182.67 1145.92 34.39
2229 24.2243 1193.90 1159.06 34.55
2230 24.2343 1216.46 1173.80 34.88
2231 24.2442 1237.02 1188.61 35.17
2232 24.2542 1254.42 1201.51 35.42
2233 24.2642 1274.81 1210.93 35.70
2234 24.2742 1277.72 1216.71 35.75
2235 24.2841 1276.29 1220.33 35.73
2236 24.2941 1267.54 1224.12 35.60
2237 24.3041 1262.73 1230.23 35.53
2238 24.3141 1262.05 1240.51 35.53
2239 24.3241 1264.94 1254.87 35.57
2240 24.3340 1270.83 1272.85 35.65
2241 24.3440 1277.88 1292.11 35.75
2242 24.3540 1282.90 1309.13 35.82
2243 24.3640 1293.01 1320.12 35.96
2244 24.3739 1295.92 1326.10 36.00
2245 24.3839 1299.78 1328.61 36.05
2246 24.3939 1302.18 1330.98 36.09
2247 24.4039 1315.70 1335.71 36.27
2248 24.4138 1333.48 1344.95 36.52
2249 24.4238 1351.51 1356.68 36.76
2250 24.4338 1369.23 1371.14 37.00
2251 24.4438 1391.46 1388.27 37.30
2252 24.4537 1404.41 1406.41 37.48
2253 24.4637 1426.70 1425.13 37.77
2254 24.4737 1443.05 1443.15 37.99
2255 24.4837 1466.02 1461.31 38.29
2256 24.4936 1475.96 1476.57 38.42
2257 24.5036 1490.20 1489.50 38.60
2258 24.5136 1489.43 1497.85 38.59
2259 24.5236 1488.11 1502.80 38.58
2260 24.5335 1484.41 1506.51 38.53
2261 24.5435 1477.53 1509.34 38.44
2262 24.5535 1475.71 1508.96 38.42
2263 24.5634 1464.63 1501.93 38.27
2264 24.5734 1449.76 1490.75 38.08
2265 24.5834 1432.95 1476.61 37.85
2266 24.5934 1431.97 1465.07 37.84
2267 24.6033 1431.23 1457.90 37.83
2268 24.6133 1445.65 1453.36 38.02
2269 24.6233 1455.18 1446.30 38.15
2270 24.6333 1450.01 1430.67 38.08
2271 24.6432 1434.07 1403.42 37.87
2272 24.6532 1397.91 1366.41 37.39
2273 24.6632 1357.35 1324.39 36.84
2274 24.6732 1316.10 1281.96 36.28
2275 24.6831 1272.63 1241.84 35.67
2276 24.6931 1228.80 1205.96 35.05
2277 24.7031 1191.00 1175.29 34.51
2278 24.7131 1163.25 1150.07 34.11
2279 24.7230 1140.82 1130.05 33.78
2280 24.7330 1117.76 1114.18 33.43
2281 24.7430 1102.49 1102.96 33.20
2282 24.7530 1095.69 1093.78 33.10
2283 24.7630 1086.96 1086.74 32.97
2284 24.7729 1079.76 1081.35 32.86
2285 24.7829 1075.41 1077.35 32.79
2286 24.7929 1075.52 1074.70 32.80
2287 24.8029 1071.92 1072.74 32.74
2288 24.8128 1073.77 1071.70 32.77
2289 24.8228 1069.81 1071.59 32.71
2290 24.8328 1072.72 1072.49 32.75
2291 24.8428 1067.49 1074.50 32.67
2292 24.8527 1068.61 1077.80 32.69
2293 24.8627 1066.53 1082.55 32.66
2294 24.8727 1069.90 1088.98 32.71
2295 24.8827 1077.05 1096.94 32.82
2296 24.8926 1087.37 1106.68 32.98
2297 24.9026 1099.72 1118.36 33.16
2298 24.9126 1115.33 1131.42 33.40
2299 24.9226 1136.76 1145.15 33.72
2300 24.9325 1162.23 1158.33 34.09
2301 24.9425 1178.06 1170.12 34.32
2302 24.9525 1184.26 1180.68 34.41
2303 24.9625 1186.63 1191.97 34.45
2304 24.9724 1186.92 1205.87 34.45
2305 24.9824 1189.17 1224.93 34.48
2306 24.9924 1213.85 1250.85 34.84
2307 25.0023 1255.50 1283.90 35.43
2308 25.0123 1304.71 1323.10 36.12
2309 25.0223 1362.39 1365.64 36.91
2310 25.0323 1420.83 1405.76 37.69
2311 25.0422 1466.11 1437.24 38.29
2312 25.0522 1496.35 1454.52 38.68
2313 25.0622 1494.35 1454.99 38.66
2314 25.0722 1464.46 1440.10 38.27
2315 25.0821 1423.00 1412.52 37.72
2316 25.0921 1369.47 1376.86 37.01
2317 25.1021 1323.47 1340.15 36.38
2318 25.1121 1276.46 1307.62 35.73
2319 25.1220 1243.73 1283.28 35.27
2320 25.1320 1228.01 1268.54 35.04
2321 25.1420 1228.23 1265.73 35.05
2322 25.1520 1238.40 1273.50 35.19
2323 25.1619 1263.07 1290.17 35.54
2324 25.1719 1300.00 1312.67 36.06
2325 25.1819 1333.26 1335.97 36.51
2326 25.1919 1359.06 1352.27 36.87
2327 25.2019 1370.31 1357.45 37.02
2328 25.2118 1354.09 1346.91 36.80
2329 25.2218 1331.41 1323.25 36.49
2330 25.2318 1293.24 1292.67 35.96
2331 25.2418 1252.47 1260.73 35.39
2332 25.2517 1220.25 1232.02 34.93
2333 25.2617 1196.98 1208.02 34.60
2334 25.2717 1182.84 1192.35 34.39
2335 25.2817 1173.49 1184.15 34.26
2336 25.2916 1177.53 1182.64 34.32
2337 25.3016 1187.94 1186.79 34.47
2338 25.3116 1200.61 1195.24 34.65
2339 25.3216 1216.26 1207.29 34.88
2340 25.3315 1230.47 1222.27 35.08
2341 25.3415 1250.94 1239.66 35.37
2342 25.3515 1275.14 1258.28 35.71
2343 25.3615 1304.03 1275.78 36.11
2344 25.3714 1321.29 1288.66 36.35
2345 25.3814 1332.48 1293.71 36.50
2346 25.3914 1332.64 1289.98 36.51
2347 25.4014 1319.38 1278.99 36.32
2348 25.4113 1305.83 1263.13 36.14
2349 25.4213 1286.37 1243.97 35.87
2350 25.4313 1254.72 1222.46 35.42
2351 25.4412 1226.91 1199.88 35.03
2352 25.4512 1199.15 1178.06 34.63
2353 25.4612 1182.32 1158.83 34.38
2354 25.4712 1161.46 1143.58 34.08
2355 25.4811 1146.20 1132.50 33.86
2356 25.4911 1139.96 1126.65 33.76
2357 25.5011 1131.04 1124.13 33.63
2358 25.5111 1132.01 1125.50 33.65
2359 25.5210 1127.33 1130.81 33.58
2360 25.5310 1132.64 1139.69 33.65
2361 25.5410 1136.09 1152.24 33.71
2362 25.5510 1146.29 1168.20 33.86
2363 25.5609 1164.47 1187.14 34.12
2364 25.5709 1183.48 1208.62 34.40
2365 25.5809 1209.90 1231.58 34.78
2366 25.5909 1235.85 1255.17 35.15
2367 25.6008 1274.09 1276.68 35.69
2368 25.6108 1298.84 1293.10 36.04
2369 25.6208 1315.93 1301.34 36.28
2370 25.6308 1316.01 1299.27 36.28
2371 25.6408 1300.99 1286.78 36.07
2372 25.6507 1270.53 1265.96 35.64
2373 25.6607 1244.38 1240.34 35.28
2374 25.6707 1209.49 1211.93 34.78
2375 25.6807 1180.68 1182.87 34.36
2376 25.6906 1156.47 1156.79 34.01
2377 25.7006 1138.93 1134.30 33.75
2378 25.7106 1129.43 1115.52 33.61
2379 25.7206 1118.91 1101.74 33.45
2380 25.7305 1113.44 1092.47 33.37
2381 25.7405 1110.49 1087.28 33.32
2382 25.7505 1113.62 1085.88 33.37
2383 25.7605 1107.38 1088.03 33.28
2384 25.7704 1118.30 1093.52 33.44
2385 25.7804 1120.61 1102.15 33.48
2386 25.7904 1128.53 1113.68 33.59
2387 25.8004 1131.10 1127.70 33.63
2388 25.8103 1146.53 1143.42 33.86
2389 25.8203 1152.80 1159.53 33.95
2390 25.8303 1168.50 1174.09 34.18
2391 25.8403 1171.80 1184.03 34.23
2392 25.8502 1169.76 1189.50 34.20
2393 25.8602 1173.55 1189.00 34.26
2394 25.8702 1169.17 1182.95 34.19
2395 25.8801 1164.65 1172.47 34.13
2396 25.8901 1152.29 1159.96 33.95
2397 25.9001 1149.04 1145.92 33.90
2398 25.9101 1141.44 1132.39 33.79
2399 25.9200 1135.22 1120.00 33.69
2400 25.9300 1126.11 1108.89 33.56
2401 25.9400 1112.43 1099.09 33.35
2402 25.9500 1111.96 1090.77 33.35
2403 25.9599 1105.21 1084.25 33.24
2404 25.9699 1101.47 1079.61 33.19
2405 25.9799 1095.44 1076.92 33.10
2406 25.9899 1092.57 1076.16 33.05
2407 25.9998 1089.66 1077.19 33.01
2408 26.0098 1086.86 1080.09 32.97
2409 26.0198 1089.07 1083.83 33.00
2410 26.0298 1088.81 1090.33 33.00
2411 26.0397 1091.59 1099.19 33.04
2412 26.0497 1099.97 1111.47 33.17
2413 26.0597 1108.04 1126.83 33.29
2414 26.0697 1123.39 1145.98 33.52
2415 26.0797 1145.06 1169.51 33.84
2416 26.0896 1173.23 1196.57 34.25
2417 26.0996 1210.18 1225.66 34.79
2418 26.1096 1249.55 1254.32 35.35
2419 26.1196 1299.44 1278.59 36.05
2420 26.1295 1333.06 1294.75 36.51
2421 26.1395 1347.01 1298.76 36.70
2422 26.1495 1340.83 1290.49 36.62
2423 26.1595 1319.26 1271.46 36.32
2424 26.1694 1278.98 1245.50 35.76
2425 26.1794 1240.77 1217.01 35.22
2426 26.1894 1198.11 1189.50 34.61
2427 26.1994 1173.28 1165.41 34.25
2428 26.2093 1149.26 1146.39 33.90
2429 26.2193 1132.82 1133.09 33.66
2430 26.2293 1119.88 1125.59 33.46
2431 26.2393 1110.62 1123.61 33.33
2432 26.2492 1116.02 1126.37 33.41
2433 26.2592 1120.66 1133.76 33.48
2434 26.2692 1133.28 1144.76 33.66
2435 26.2792 1156.36 1158.26 34.01
2436 26.2891 1182.25 1172.64 34.38
2437 26.2991 1199.80 1185.59 34.64
2438 26.3091 1215.60 1194.14 34.87
2439 26.3190 1221.13 1196.47 34.94
2440 26.3290 1220.45 1191.66 34.94
2441 26.3390 1208.33 1180.74 34.76
2442 26.3490 1190.78 1165.88 34.51
2443 26.3589 1174.72 1149.59 34.27
2444 26.3689 1151.83 1134.07 33.94
2445 26.3789 1137.99 1120.96 33.73
2446 26.3889 1120.42 1110.99 33.47
2447 26.3988 1115.29 1104.76 33.40
2448 26.4088 1109.92 1103.11 33.32
2449 26.4188 1107.63 1104.86 33.28
2450 26.4288 1105.78 1110.61 33.25
2451 26.4387 1109.74 1120.24 33.31
2452 26.4487 1113.02 1133.58 33.36
2453 26.4587 1122.52 1150.16 33.50
2454 26.4687 1136.09 1169.06 33.71
2455 26.4786 1149.52 1188.94 33.90
2456 26.4886 1168.73 1207.86 34.19
2457 26.4986 1181.94 1225.27 34.38
2458 26.5086 1207.71 1240.58 34.75
2459 26.5186 1230.38 1252.28 35.08
2460 26.5285 1244.36 1258.96 35.28
2461 26.5385 1256.22 1259.11 35.44
2462 26.5485 1256.91 1251.71 35.45
2463 26.5585 1237.03 1238.26 35.17
2464 26.5684 1217.15 1221.84 34.89
2465 26.5784 1198.78 1205.41 34.62
2466 26.5884 1178.62 1191.65 34.33
2467 26.5984 1164.24 1180.74 34.12
2468 26.6083 1157.55 1173.55 34.02
2469 26.6183 1159.48 1170.34 34.05
2470 26.6283 1158.76 1171.24 34.04
2471 26.6383 1160.98 1176.02 34.07
2472 26.6482 1172.71 1184.00 34.24
2473 26.6582 1188.22 1194.29 34.47
2474 26.6682 1206.82 1205.45 34.74
2475 26.6782 1225.39 1216.51 35.01
2476 26.6881 1247.42 1226.28 35.32
2477 26.6981 1257.71 1233.76 35.46
2478 26.7081 1262.12 1238.72 35.53
2479 26.7181 1259.23 1242.33 35.49
2480 26.7280 1263.84 1246.61 35.55
2481 26.7380 1270.45 1253.45 35.64
2482 26.7480 1279.82 1263.71 35.77
2483 26.7579 1295.08 1277.02 35.99
2484 26.7679 1321.06 1292.41 36.35
2485 26.7779 1352.74 1306.70 36.78
2486 26.7879 1379.85 1316.70 37.15
2487 26.7978 1403.19 1321.44 37.46
2488 26.8078 1398.33 1317.76 37.39
2489 26.8178 1379.35 1305.28 37.14
2490 26.8278 1344.35 1286.40 36.67
2491 26.8377 1302.17 1264.33 36.09
2492 26.8477 1258.87 1243.09 35.48
2493 26.8577 1226.16 1225.85 35.02
2494 26.8677 1203.40 1214.52 34.69
2495 26.8776 1188.11 1210.07 34.47
2496 26.8876 1184.79 1212.62 34.42
2497 26.8976 1189.72 1221.34 34.49
2498 26.9076 1203.86 1234.64 34.70
2499 26.9175 1219.44 1250.14 34.92
2500 26.9275 1233.49 1263.50 35.12
2501 26.9375 1242.59 1270.93 35.25
2502 26.9475 1243.66 1270.15 35.27
2503 26.9575 1238.25 1261.03 35.19
2504 26.9674 1232.83 1246.47 35.11
2505 26.9774 1213.04 1231.75 34.83
2506 26.9874 1199.55 1218.57 34.63
2507 26.9974 1184.37 1210.10 34.41
2508 27.0073 1188.83 1206.76 34.48
2509 27.0173 1197.07 1208.71 34.60
2510 27.0273 1219.84 1215.02 34.93
2511 27.0373 1249.14 1224.16 35.34
2512 27.0472 1277.77 1233.02 35.75
2513 27.0572 1299.16 1238.96 36.04
2514 27.0672 1312.72 1239.57 36.23
2515 27.0772 1303.94 1234.18 36.11
2516 27.0871 1280.86 1224.31 35.79
2517 27.0971 1253.54 1212.82 35.41
2518 27.1071 1224.58 1202.87 34.99
2519 27.1171 1205.76 1195.59 34.72
2520 27.1270 1196.53 1192.32 34.59
2521 27.1370 1197.55 1193.04 34.61
2522 27.1470 1201.54 1196.50 34.66
2523 27.1569 1214.50 1201.42 34.85
2524 27.1669 1213.65 1205.08 34.84
2525 27.1769 1220.25 1205.67 34.93
2526 27.1869 1214.83 1202.98 34.85
2527 27.1968 1209.47 1197.67 34.78
2528 27.2068 1200.07 1192.96 34.64
2529 27.2168 1190.62 1189.50 34.51
2530 27.2268 1189.81 1187.64 34.49
2531 27.2367 1184.82 1186.66 34.42
2532 27.2467 1188.67 1185.08 34.48
2533 27.2567 1185.57 1181.45 34.43
2534 27.2667 1178.44 1175.16 34.33
2535 27.2766 1169.65 1167.21 34.20
2536 27.2866 1152.95 1158.94 33.96
2537 27.2966 1147.61 1151.58 33.88
2538 27.3066 1137.13 1145.83 33.72
2539 27.3165 1134.77 1141.82 33.69
2540 27.3265 1129.88 1139.33 33.61
2541 27.3365 1132.76 1138.73 33.66
2542 27.3465 1137.95 1140.28 33.73
2543 27.3564 1145.48 1144.59 33.84
2544 27.3664 1151.08 1151.68 33.93
2545 27.3764 1160.98 1162.56 34.07
2546 27.3864 1174.29 1176.54 34.27
2547 27.3964 1189.25 1192.95 34.49
2548 27.4063 1207.02 1210.72 34.74
2549 27.4163 1227.37 1227.44 35.03
2550 27.4263 1245.65 1240.44 35.29
2551 27.4363 1257.33 1247.62 35.46
2552 27.4462 1260.64 1247.32 35.51
2553 27.4562 1250.46 1241.33 35.36
2554 27.4662 1239.24 1231.35 35.20
2555 27.4762 1228.98 1219.09 35.06
2556 27.4861 1217.93 1206.98 34.90
2557 27.4961 1203.72 1196.38 34.69
2558 27.5061 1194.96 1188.14 34.57
2559 27.5161 1195.61 1183.01 34.58
2560 27.5260 1195.63 1181.68 34.58
2561 27.5360 1202.68 1184.51 34.68
2562 27.5460 1205.77 1191.47 34.72
2563 27.5560 1215.57 1202.06 34.87
2564 27.5659 1228.34 1215.32 35.05
2565 27.5759 1238.26 1229.98 35.19
2566 27.5859 1253.99 1244.81 35.41
2567 27.5958 1268.06 1259.03 35.61
2568 27.6058 1285.40 1271.01 35.85
2569 27.6158 1298.67 1281.89 36.04
2570 27.6258 1310.38 1290.66 36.20
2571 27.6357 1319.39 1295.43 36.32
2572 27.6457 1326.38 1295.85 36.42
2573 27.6557 1321.91 1291.55 36.36
2574 27.6657 1307.89 1283.06 36.16
2575 27.6756 1293.98 1271.66 35.97
2576 27.6856 1272.51 1258.67 35.67
2577 27.6956 1251.53 1245.02 35.38
2578 27.7056 1231.73 1231.15 35.10
2579 27.7155 1211.34 1217.90 34.80
2580 27.7255 1198.18 1206.06 34.61
2581 27.7355 1188.54 1195.88 34.48
2582 27.7455 1178.49 1188.81 34.33
2583 27.7554 1181.18 1183.50 34.37
2584 27.7654 1183.06 1178.39 34.40
2585 27.7754 1181.61 1171.61 34.37
2586 27.7854 1169.46 1162.01 34.20
2587 27.7953 1159.98 1149.73 34.06
2588 27.8053 1138.58 1135.96 33.74
2589 27.8153 1125.80 1122.07 33.55
2590 27.8253 1107.45 1109.13 33.28
2591 27.8353 1095.81 1097.74 33.10
2592 27.8452 1084.94 1087.48 32.94
2593 27.8552 1080.21 1079.38 32.87
2594 27.8652 1073.82 1072.78 32.77
2595 27.8752 1071.33 1067.53 32.73
2596 27.8851 1065.83 1063.48 32.65
2597 27.8951 1063.92 1060.45 32.62
2598 27.9051 1059.84 1058.28 32.56
2599 27.9151 1059.94 1056.77 32.56
2600 27.9250 1056.79 1055.59 32.51
2601 27.9350 1058.91 1054.88 32.54
2602 27.9450 1058.57 1054.41 32.54
2603 27.9550 1058.19 1054.18 32.53
2604 27.9649 1058.16 1054.31 32.53
2605 27.9749 1058.11 1054.90 32.53
2606 27.9849 1062.27 1056.09 32.59
2607 27.9949 1063.62 1058.13 32.61
2608 28.0048 1068.14 1061.04 32.68
2609 28.0148 1068.80 1064.68 32.69
2610 28.0248 1072.78 1069.37 32.75
2611 28.0347 1076.70 1075.16 32.81
2612 28.0447 1077.93 1082.02 32.83
2613 28.0547 1078.68 1089.68 32.84
2614 28.0647 1083.03 1098.04 32.91
2615 28.0746 1091.56 1105.46 33.04
2616 28.0846 1094.11 1111.39 33.08
2617 28.0946 1093.70 1115.32 33.07
2618 28.1046 1095.53 1116.09 33.10
2619 28.1145 1096.18 1114.34 33.11
2620 28.1245 1092.56 1110.85 33.05
2621 28.1345 1090.33 1106.23 33.02
2622 28.1445 1087.64 1101.12 32.98
2623 28.1544 1088.48 1096.63 32.99
2624 28.1644 1086.79 1093.27 32.97
2625 28.1744 1084.80 1091.26 32.94
2626 28.1844 1086.86 1091.03 32.97
2627 28.1943 1092.83 1092.68 33.06
2628 28.2043 1098.22 1096.56 33.14
2629 28.2143 1099.50 1102.90 33.16
2630 28.2243 1107.67 1111.84 33.28
2631 28.2342 1112.30 1123.20 33.35
2632 28.2442 1126.25 1136.90 33.56
2633 28.2542 1135.45 1151.27 33.70
2634 28.2642 1148.51 1165.77 33.89
2635 28.2742 1160.25 1178.51 34.06
2636 28.2841 1170.82 1187.83 34.22
2637 28.2941 1175.14 1191.84 34.28
2638 28.3041 1176.63 1189.76 34.30
2639 28.3141 1174.97 1181.18 34.28
2640 28.3240 1165.78 1166.98 34.14
2641 28.3340 1155.00 1150.34 33.99
2642 28.3440 1140.25 1132.85 33.77
2643 28.3540 1127.58 1116.50 33.58
2644 28.3639 1112.12 1102.09 33.35
2645 28.3739 1102.45 1090.01 33.20
2646 28.3839 1095.16 1080.09 33.09
2647 28.3939 1086.58 1072.81 32.96
2648 28.4038 1077.05 1067.64 32.82
2649 28.4138 1071.68 1064.62 32.74
2650 28.4238 1066.90 1063.03 32.66
2651 28.4338 1066.95 1062.74 32.66
2652 28.4437 1068.06 1063.68 32.68
2653 28.4537 1067.44 1065.33 32.67
2654 28.4637 1077.26 1068.41 32.82
2655 28.4736 1079.91 1072.40 32.86
2656 28.4836 1083.29 1077.15 32.91
2657 28.4936 1091.09 1082.40 33.03
2658 28.5036 1094.94 1087.83 33.09
2659 28.5135 1102.67 1092.98 33.21
2660 28.5235 1104.37 1097.42 33.23
2661 28.5335 1101.69 1101.32 33.19
2662 28.5435 1103.12 1105.16 33.21
2663 28.5534 1098.80 1109.54 33.15
2664 28.5634 1097.12 1114.98 33.12
2665 28.5734 1093.75 1121.74 33.07
2666 28.5834 1096.39 1129.64 33.11
2667 28.5933 1099.75 1138.17 33.16
2668 28.6033 1101.91 1146.63 33.19
2669 28.6133 1107.51 1154.50 33.28
2670 28.6233 1117.73 1162.38 33.43
2671 28.6332 1125.24 1170.23 33.54
2672 28.6432 1139.14 1179.24 33.75
2673 28.6532 1153.70 1189.75 33.97
2674 28.6632 1171.46 1201.36 34.23
2675 28.6731 1182.28 1212.89 34.38
2676 28.6831 1200.28 1222.86 34.65
2677 28.6931 1210.19 1230.34 34.79
2678 28.7031 1222.07 1235.72 34.96
2679 28.7131 1235.01 1240.28 35.14
2680 28.7230 1250.89 1245.22 35.37
2681 28.7330 1268.22 1250.75 35.61
2682 28.7430 1283.94 1255.96 35.83
2683 28.7530 1301.45 1258.80 36.08
2684 28.7629 1301.20 1257.72 36.07
2685 28.7729 1292.83 1251.73 35.96
2686 28.7829 1269.18 1241.53 35.63
2687 28.7929 1247.28 1228.01 35.32
2688 28.8028 1226.95 1212.39 35.03
2689 28.8128 1204.55 1196.10 34.71
2690 28.8228 1187.45 1179.77 34.46
2691 28.8328 1165.89 1163.98 34.15
2692 28.8427 1148.89 1149.31 33.90
2693 28.8527 1132.60 1136.56 33.65
2694 28.8627 1123.65 1126.28 33.52
2695 28.8727 1122.10 1118.86 33.50
2696 28.8826 1120.31 1114.29 33.47
2697 28.8926 1118.49 1112.34 33.44
2698 28.9026 1121.54 1112.53 33.49
2699 28.9125 1125.94 1114.05 33.56
2700 28.9225 1130.32 1115.86 33.62
2701 28.9325 1138.13 1116.72 33.74
2702 28.9425 1142.38 1115.71 33.80
2703 28.9524 1138.18 1112.93 33.74
2704 28.9624 1136.64 1108.00 33.71
2705 28.9724 1129.97 1102.54 33.62
2706 28.9824 1118.51 1097.25 33.44
2707 28.9923 1114.05 1092.23 33.38
2708 29.0023 1104.30 1089.07 33.23
2709 29.0123 1098.71 1087.58 33.15
2710 29.0223 1093.23 1088.19 33.06
2711 29.0322 1093.70 1090.62 33.07
2712 29.0422 1098.92 1095.02 33.15
2713 29.0522 1102.50 1101.20 33.20
2714 29.0622 1110.05 1108.84 33.32
2715 29.0721 1117.24 1117.46 33.43
2716 29.0821 1126.23 1126.32 33.56
2717 29.0921 1136.35 1134.81 33.71
2718 29.1021 1142.81 1140.47 33.81
2719 29.1120 1149.55 1142.91 33.90
2720 29.1220 1147.48 1141.29 33.87
2721 29.1320 1142.77 1136.70 33.80
2722 29.1420 1134.08 1131.13 33.68
2723 29.1520 1126.88 1125.13 33.57
2724 29.1619 1117.92 1120.36 33.44
2725 29.1719 1109.64 1116.91 33.31
2726 29.1819 1107.93 1115.02 33.29
2727 29.1919 1104.60 1114.33 33.24
2728 29.2018 1101.04 1114.22 33.18
2729 29.2118 1101.96 1114.25 33.20
2730 29.2218 1102.87 1114.27 33.21
2731 29.2318 1099.59 1114.53 33.16
2732 29.2417 1105.96 1115.56 33.26
2733 29.2517 1108.10 1117.85 33.29
2734 29.2617 1111.97 1121.70 33.35
2735 29.2717 1120.19 1127.09 33.47
2736 29.2816 1127.41 1133.61 33.58
2737 29.2916 1141.08 1140.45 33.78
2738 29.3016 1150.00 1146.02 33.91
2739 29.3116 1156.10 1149.37 34.00
2740 29.3215 1159.30 1148.93 34.05
2741 29.3315 1152.71 1144.46 33.95
2742 29.3415 1140.80 1137.10 33.78
2743 29.3514 1136.54 1128.22 33.71
2744 29.3614 1124.63 1119.20 33.54
2745 29.3714 1115.89 1110.97 33.40
2746 29.3814 1107.72 1103.58 33.28
2747 29.3913 1102.12 1098.29 33.20
2748 29.4013 1099.86 1094.69 33.16
2749 29.4113 1090.70 1092.62 33.03
2750 29.4213 1094.72 1091.68 33.09
2751 29.4312 1095.62 1091.27 33.10
2752 29.4412 1092.99 1090.78 33.06
2753 29.4512 1097.75 1089.90 33.13
2754 29.4612 1100.21 1088.52 33.17
2755 29.4711 1098.87 1086.76 33.15
2756 29.4811 1092.29 1085.43 33.05
2757 29.4911 1092.38 1084.63 33.05
2758 29.5011 1089.74 1084.53 33.01
2759 29.5110 1092.62 1085.05 33.05
2760 29.5210 1096.37 1085.85 33.11
2761 29.5310 1099.81 1086.88 33.16
2762 29.5410 1104.70 1088.08 33.24
2763 29.5509 1104.70 1089.52 33.24
2764 29.5609 1105.15 1091.55 33.24
2765 29.5709 1107.62 1094.44 33.28
2766 29.5809 1108.01 1098.91 33.29
2767 29.5909 1108.99 1104.41 33.30
2768 29.6008 1110.95 1111.44 33.33
2769 29.6108 1122.69 1119.97 33.51
2770 29.6208 1129.99 1130.10 33.62
2771 29.6308 1142.37 1140.62 33.80
2772 29.6407 1152.68 1150.62 33.95
2773 29.6507 1162.14 1159.40 34.09
2774 29.6607 1169.96 1166.02 34.20
2775 29.6707 1174.53 1170.14 34.27
2776 29.6806 1169.36 1172.74 34.20
2777 29.6906 1177.08 1175.29 34.31
2778 29.7006 1177.97 1178.94 34.32
2779 29.7106 1181.70 1184.40 34.38
2780 29.7205 1187.78 1191.96 34.46
2781 29.7305 1198.82 1201.82 34.62
2782 29.7405 1206.08 1214.32 34.73
2783 29.7505 1214.74 1229.88 34.85
2784 29.7604 1236.93 1248.58 35.17
2785 29.7704 1256.34 1269.67 35.44
2786 29.7804 1283.77 1291.40 35.83
2787 29.7903 1311.31 1311.25 36.21
2788 29.8003 1333.77 1326.77 36.52
2789 29.8103 1349.18 1335.99 36.73
2790 29.8203 1347.99 1339.24 36.72
2791 29.8302 1343.12 1336.31 36.65
2792 29.8402 1332.18 1327.61 36.50
2793 29.8502 1315.57 1313.02 36.27
2794 29.8602 1294.66 1293.39 35.98
2795 29.8701 1266.91 1270.11 35.59
2796 29.8801 1241.29 1245.15 35.23
2797 29.8901 1220.21 1220.50 34.93
2798 29.9001 1204.84 1197.64 34.71
2799 29.9100 1184.02 1177.54 34.41
2800 29.9200 1165.01 1160.67 34.13
2801 29.9300 1152.26 1147.04 33.94
2802 29.9400 1144.63 1136.75 33.83
2803 29.9499 1138.24 1129.80 33.74
2804 29.9599 1131.15 1126.16 33.63
2805 29.9699 1126.09 1126.07 33.56
2806 29.9799 1125.83 1128.33 33.55
2807 29.9898 1130.15 1132.79 33.62
2808 29.9998 1134.50 1138.58 33.68
2809 30.0098 1145.80 1144.60 33.85
2810 30.0198 1155.15 1149.11 33.99
2811 30.0298 1163.33 1151.43 34.11
2812 30.0397 1163.19 1150.97 34.11
2813 30.0497 1156.24 1148.23 34.00
2814 30.0597 1149.61 1144.48 33.91
2815 30.0697 1139.15 1140.74 33.75
2816 30.0796 1136.00 1138.32 33.70
2817 30.0896 1134.51 1138.08 33.68
2818 30.0996 1142.48 1140.41 33.80
2819 30.1096 1153.68 1145.34 33.97
2820 30.1195 1161.63 1152.56 34.08
2821 30.1295 1176.80 1160.68 34.30
2822 30.1395 1192.79 1168.26 34.54
2823 30.1495 1209.64 1173.22 34.78
2824 30.1594 1209.36 1174.26 34.78
2825 30.1694 1208.24 1170.91 34.76
2826 30.1794 1193.98 1164.29 34.55
2827 30.1894 1178.79 1156.23 34.33
2828 30.1993 1161.45 1148.62 34.08
2829 30.2093 1149.32 1142.89 33.90
2830 30.2193 1145.57 1140.04 33.85
2831 30.2292 1142.96 1140.60 33.81
2832 30.2392 1145.30 1144.83 33.84
2833 30.2492 1150.76 1152.65 33.92
2834 30.2592 1165.70 1164.00 34.14
2835 30.2691 1185.49 1176.85 34.43
2836 30.2791 1203.43 1190.35 34.69
2837 30.2891 1222.23 1202.51 34.96
2838 30.2991 1236.69 1211.83 35.17
2839 30.3090 1247.30 1217.28 35.32
2840 30.3190 1254.38 1218.59 35.42
2841 30.3290 1246.64 1216.09 35.31
2842 30.3390 1243.55 1209.93 35.26
2843 30.3489 1229.67 1201.14 35.07
2844 30.3589 1209.32 1190.46 34.78
2845 30.3689 1197.29 1178.24 34.60
2846 30.3789 1177.01 1165.15 34.31
2847 30.3888 1164.21 1151.39 34.12
2848 30.3988 1150.96 1137.68 33.93
2849 30.4088 1138.60 1124.73 33.74
2850 30.4188 1126.94 1113.16 33.57
2851 30.4287 1111.90 1103.27 33.35
2852 30.4387 1103.70 1094.91 33.22
2853 30.4487 1099.58 1088.36 33.16
2854 30.4587 1092.58 1083.35 33.05
2855 30.4687 1088.09 1080.41 32.99
2856 30.4786 1080.70 1078.23 32.87
2857 30.4886 1080.18 1077.38 32.87
2858 30.4986 1083.24 1077.78 32.91
2859 30.5086 1080.32 1078.86 32.87
2860 30.5185 1088.72 1081.47 33.00
2861 30.5285 1094.98 1084.57 33.09
2862 30.5385 1096.98 1088.20 33.12
2863 30.5485 1101.92 1091.67 33.20
2864 30.5584 1107.78 1094.32 33.28
2865 30.5684 1110.90 1096.44 33.33
2866 30.5784 1111.40 1098.06 33.34
2867 30.5884 1112.31 1100.15 33.35
2868 30.5983 1114.48 1103.32 33.38
2869 30.6083 1117.02 1107.96 33.42
2870 30.6183 1125.86 1114.41 33.55
2871 30.6283 1136.48 1122.86 33.71
2872 30.6382 1154.14 1133.23 33.97
2873 30.6482 1166.41 1145.46 34.15
2874 30.6582 1182.13 1159.02 34.38
2875 30.6681 1199.20 1172.89 34.63
2876 30.6781 1216.30 1185.41 34.88
2877 30.6881 1228.08 1195.28 35.04
2878 30.6981 1239.74 1201.73 35.21
2879 30.7080 1231.97 1204.89 35.10
2880 30.7180 1233.84 1205.09 35.13
2881 30.7280 1222.06 1202.80 34.96
2882 30.7380 1214.94 1198.10 34.86
2883 30.7479 1200.03 1191.42 34.64
2884 30.7579 1188.34 1183.28 34.47
2885 30.7679 1174.60 1174.26 34.27
2886 30.7779 1165.06 1165.14 34.13
2887 30.7878 1158.80 1156.33 34.04
2888 30.7978 1151.32 1148.27 33.93
2889 30.8078 1153.31 1141.40 33.96
2890 30.8178 1153.83 1135.59 33.97
2891 30.8277 1153.47 1131.09 33.96
2892 30.8377 1155.64 1126.76 33.99
2893 30.8477 1155.55 1122.59 33.99
2894 30.8577 1152.48 1118.73 33.95
2895 30.8676 1141.31 1115.70 33.78
2896 30.8776 1130.47 1113.66 33.62
2897 30.8876 1120.51 1114.20 33.47
2898 30.8976 1117.71 1116.99 33.43
2899 30.9076 1119.32 1122.50 33.46
2900 30.9175 1121.86 1130.34 33.49
2901 30.9275 1132.13 1140.58 33.65
2902 30.9375 1137.91 1152.94 33.73
2903 30.9475 1149.84 1166.78 33.91
2904 30.9574 1162.62 1180.95 34.10
2905 30.9674 1173.37 1193.77 34.25
2906 30.9774 1191.07 1203.61 34.51
2907 30.9874 1197.33 1208.73 34.60
2908 30.9973 1194.96 1209.19 34.57
2909 31.0073 1196.22 1205.85 34.59
2910 31.0173 1180.83 1199.72 34.36
2911 31.0273 1169.64 1192.97 34.20
2912 31.0372 1163.98 1186.05 34.12
2913 31.0472 1156.08 1179.06 34.00
2914 31.0572 1152.23 1172.63 33.94
2915 31.0672 1148.29 1166.45 33.89
2916 31.0771 1144.49 1160.67 33.83
2917 31.0871 1142.03 1155.72 33.79
2918 31.0971 1136.28 1151.86 33.71
2919 31.1070 1136.87 1150.02 33.72
2920 31.1170 1133.10 1150.44 33.66
2921 31.1270 1133.79 1153.51 33.67
2922 31.1370 1135.57 1159.38 33.70
2923 31.1469 1149.15 1167.89 33.90
2924 31.1569 1158.66 1178.40 34.04
2925 31.1669 1174.32 1189.65 34.27
2926 31.1769 1195.91 1199.97 34.58
2927 31.1868 1206.76 1206.95 34.74
2928 31.1968 1212.66 1209.29 34.82
2929 31.2068 1215.45 1206.98 34.86
2930 31.2168 1208.47 1201.44 34.76
2931 31.2267 1198.47 1194.54 34.62
2932 31.2367 1187.66 1188.00 34.46
2933 31.2467 1185.08 1182.84 34.42
2934 31.2567 1176.66 1179.46 34.30
2935 31.2666 1172.93 1177.50 34.25
2936 31.2766 1171.51 1176.44 34.23
2937 31.2866 1170.96 1174.71 34.22
2938 31.2966 1175.45 1172.15 34.28
2939 31.3065 1173.99 1168.40 34.26
2940 31.3165 1173.58 1163.79 34.26
2941 31.3265 1166.99 1158.91 34.16
2942 31.3365 1165.45 1154.42 34.14
2943 31.3465 1155.52 1150.90 33.99
2944 31.3564 1151.11 1148.68 33.93
2945 31.3664 1151.75 1147.90 33.94
2946 31.3764 1158.30 1148.24 34.03
2947 31.3864 1158.38 1149.13 34.03
2948 31.3963 1162.70 1150.06 34.10
2949 31.4063 1163.08 1151.00 34.10
2950 31.4163 1161.96 1151.41 34.09
2951 31.4263 1156.54 1152.73 34.01
2952 31.4362 1153.48 1154.87 33.96
2953 31.4462 1151.69 1157.96 33.94
2954 31.4562 1150.68 1161.89 33.92
2955 31.4662 1148.74 1166.68 33.89
2956 31.4761 1151.66 1172.21 33.94
2957 31.4861 1155.71 1178.38 34.00
2958 31.4961 1163.62 1185.52 34.11
2959 31.5061 1172.08 1193.49 34.24
2960 31.5160 1190.99 1202.77 34.51
2961 31.5260 1208.96 1212.75 34.77
2962 31.5360 1225.10 1222.68 35.00
2963 31.5459 1246.63 1230.13 35.31
2964 31.5559 1261.29 1234.01 35.51
2965 31.5659 1261.31 1233.40 35.51
2966 31.5759 1251.28 1228.98 35.37
2967 31.5858 1234.16 1221.76 35.13
2968 31.5958 1216.40 1213.11 34.88
2969 31.6058 1198.56 1204.22 34.62
2970 31.6158 1182.70 1195.56 34.39
2971 31.6257 1168.36 1187.26 34.18
2972 31.6357 1152.51 1178.90 33.95
2973 31.6457 1151.38 1170.66 33.93
2974 31.6557 1144.59 1162.42 33.83
2975 31.6656 1148.16 1154.86 33.88
2976 31.6756 1145.99 1148.37 33.85
2977 31.6856 1157.14 1142.93 34.02
2978 31.6956 1159.53 1138.10 34.05
2979 31.7055 1161.54 1132.91 34.08
2980 31.7155 1161.38 1127.27 34.08
2981 31.7255 1155.75 1121.13 34.00
2982 31.7355 1147.49 1114.47 33.87
2983 31.7454 1134.53 1108.02 33.68
2984 31.7554 1131.39 1102.07 33.64
2985 31.7654 1118.07 1096.85 33.44
2986 31.7754 1111.87 1092.55 33.34
2987 31.7854 1106.32 1089.19 33.26
2988 31.7953 1103.06 1086.95 33.21
2989 31.8053 1095.56 1085.71 33.10
2990 31.8153 1092.44 1085.37 33.05
2991 31.8253 1090.57 1085.69 33.02
2992 31.8352 1094.23 1086.69 33.08
2993 31.8452 1093.81 1088.16 33.07
2994 31.8552 1092.15 1090.02 33.05
2995 31.8652 1094.24 1092.44 33.08
2996 31.8751 1097.53 1095.55 33.13
2997 31.8851 1102.08 1099.44 33.20
2998 31.8951 1108.26 1104.02 33.29
2999 31.9051 1117.99 1109.04 33.44
3000 31.9150 1122.99 1114.19 33.51
3001 31.9250 1125.29 1118.75 33.55
3002 31.9350 1131.20 1123.96 33.63
3003 31.9450 1136.33 1129.47 33.71
3004 31.9549 1141.22 1135.59 33.78
3005 31.9649 1147.03 1142.21 33.87
3006 31.9749 1160.63 1149.07 34.07
3007 31.9848 1170.08 1155.51 34.21
3008 31.9948 1192.68 1159.99 34.54
3009 32.0048 1208.65 1161.45 34.77
3010 32.0148 1214.51 1159.04 34.85
3011 32.0247 1207.54 1152.68 34.75
3012 32.0347 1190.21 1144.08 34.50
3013 32.0447 1163.33 1134.35 34.11
3014 32.0547 1144.10 1124.81 33.82
3015 32.0647 1129.33 1116.56 33.61
3016 32.0746 1118.38 1110.17 33.44
3017 32.0846 1107.68 1105.95 33.28
3018 32.0946 1108.80 1104.01 33.30
3019 32.1045 1117.64 1104.46 33.43
3020 32.1145 1118.22 1106.76 33.44
3021 32.1245 1130.78 1110.60 33.63
3022 32.1345 1137.38 1115.45 33.72
3023 32.1445 1143.70 1120.94 33.82
3024 32.1544 1151.96 1126.51 33.94
3025 32.1644 1153.64 1132.00 33.97
3026 32.1744 1154.74 1137.57 33.98
3027 32.1843 1157.20 1143.45 34.02
3028 32.1943 1155.48 1149.64 33.99
3029 32.2043 1150.65 1155.88 33.92
3030 32.2143 1155.38 1162.04 33.99
3031 32.2243 1161.11 1168.00 34.08
3032 32.2342 1167.38 1173.41 34.17
3033 32.2442 1171.63 1178.29 34.23
3034 32.2542 1172.49 1182.48 34.24
3035 32.2641 1176.09 1185.76 34.29
3036 32.2741 1175.59 1187.10 34.29
3037 32.2841 1174.67 1186.23 34.27
3038 32.2941 1170.99 1182.49 34.22
3039 32.3041 1164.62 1177.22 34.13
3040 32.3140 1161.17 1170.85 34.08
3041 32.3240 1155.01 1164.85 33.99
3042 32.3340 1151.00 1159.60 33.93
3043 32.3439 1150.73 1155.35 33.92
3044 32.3539 1149.48 1151.81 33.90
3045 32.3639 1154.00 1148.30 33.97
3046 32.3739 1152.95 1144.30 33.96
3047 32.3839 1153.33 1138.89 33.96
3048 32.3938 1149.27 1132.15 33.90
3049 32.4038 1145.92 1124.08 33.85
3050 32.4138 1138.94 1115.35 33.75
3051 32.4238 1124.75 1106.71 33.54
3052 32.4337 1112.55 1098.74 33.35
3053 32.4437 1100.52 1091.82 33.17
3054 32.4537 1094.20 1086.00 33.08
3055 32.4636 1087.40 1081.79 32.98
3056 32.4736 1083.68 1078.93 32.92
3057 32.4836 1082.42 1077.44 32.90
3058 32.4936 1079.56 1077.04 32.86
3059 32.5036 1081.17 1077.26 32.88
3060 32.5135 1081.71 1077.87 32.89
3061 32.5235 1084.06 1078.35 32.93
3062 32.5335 1083.29 1078.28 32.91
3063 32.5434 1083.00 1077.36 32.91
3064 32.5534 1081.08 1075.73 32.88
3065 32.5634 1077.98 1073.71 32.83
3066 32.5734 1072.01 1071.67 32.74
3067 32.5834 1066.61 1069.94 32.66
3068 32.5933 1070.21 1068.92 32.71
3069 32.6033 1067.43 1068.46 32.67
3070 32.6133 1070.27 1068.83 32.72
3071 32.6232 1070.67 1070.13 32.72
3072 32.6332 1068.77 1072.37 32.69
3073 32.6432 1071.96 1075.50 32.74
3074 32.6532 1075.10 1079.35 32.79
3075 32.6632 1076.35 1083.48 32.81
3076 32.6731 1079.17 1087.83 32.85
3077 32.6831 1083.08 1091.92 32.91
3078 32.6931 1085.67 1095.51 32.95
3079 32.7030 1084.54 1098.40 32.93
3080 32.7130 1082.38 1100.63 32.90
3081 32.7230 1085.25 1102.11 32.94
3082 32.7330 1087.40 1102.88 32.98
3083 32.7430 1083.93 1102.78 32.92
3084 32.7529 1087.58 1101.93 32.98
3085 32.7629 1090.56 1100.53 33.02
3086 32.7729 1092.80 1099.65 33.06
3087 32.7828 1092.05 1098.41 33.05
3088 32.7928 1094.98 1097.34 33.09
3089 32.8028 1093.06 1096.60 33.06
3090 32.8128 1087.75 1096.34 32.98
3091 32.8228 1090.60 1096.65 33.02
3092 32.8327 1089.89 1097.21 33.01
3093 32.8427 1089.91 1097.83 33.01
3094 32.8527 1083.90 1098.06 32.92
3095 32.8627 1087.89 1097.77 32.98
3096 32.8726 1085.20 1097.12 32.94
3097 32.8826 1085.19 1096.71 32.94
3098 32.8926 1086.65 1096.73 32.96
3099 32.9025 1088.84 1097.61 33.00
3100 32.9125 1092.88 1099.88 33.06
3101 32.9225 1089.82 1103.44 33.01
3102 32.9325 1096.05 1108.21 33.11
3103 32.9425 1098.41 1113.99 33.14
3104 32.9524 1114.58 1120.22 33.39
3105 32.9624 1126.00 1126.58 33.56
3106 32.9724 1134.11 1132.08 33.68
3107 32.9823 1143.98 1136.03 33.82
3108 32.9923 1150.94 1137.85 33.93
3109 33.0023 1154.60 1137.95 33.98
3110 33.0123 1149.66 1136.54 33.91
3111 33.0223 1145.30 1133.74 33.84
3112 33.0322 1144.14 1129.36 33.83
3113 33.0422 1138.58 1124.43 33.74
3114 33.0522 1135.67 1118.73 33.70
3115 33.0621 1124.72 1112.70 33.54
3116 33.0721 1122.37 1106.65 33.50
3117 33.0821 1106.00 1100.63 33.26
3118 33.0921 1102.75 1095.40 33.21
3119 33.1021 1096.46 1091.24 33.11
3120 33.1120 1092.17 1088.68 33.05
3121 33.1220 1090.65 1087.33 33.02
3122 33.1320 1089.75 1087.58 33.01
3123 33.1419 1098.29 1089.00 33.14
3124 33.1519 1098.80 1091.84 33.15
3125 33.1619 1100.53 1095.49 33.17
3126 33.1719 1106.08 1099.47 33.26
3127 33.1819 1108.60 1103.33 33.30
3128 33.1918 1111.79 1106.84 33.34
3129 33.2018 1110.23 1109.98 33.32
3130 33.2118 1114.86 1113.04 33.39
3131 33.2217 1112.14 1115.57 33.35
3132 33.2317 1112.03 1117.73 33.35
3133 33.2417 1111.02 1119.10 33.33
3134 33.2517 1108.13 1119.25 33.29
3135 33.2617 1104.50 1118.27 33.23
3136 33.2716 1100.69 1116.55 33.18
3137 33.2816 1106.91 1114.76 33.27
3138 33.2916 1103.09 1112.88 33.21
3139 33.3016 1107.58 1111.58 33.28
3140 33.3115 1110.33 1110.82 33.32
3141 33.3215 1115.21 1110.58 33.39
3142 33.3315 1120.67 1110.68 33.48
3143 33.3414 1130.56 1110.72 33.62
3144 33.3514 1136.30 1110.15 33.71
3145 33.3614 1144.35 1108.50 33.83
3146 33.3714 1134.37 1105.69 33.68
3147 33.3814 1128.95 1102.08 33.60
3148 33.3913 1119.31 1098.42 33.46
3149 33.4013 1112.58 1095.34 33.36
3150 33.4113 1106.70 1093.58 33.27
3151 33.4212 1106.13 1093.66 33.26
3152 33.4312 1103.38 1095.69 33.22
3153 33.4412 1107.22 1099.93 33.28
3154 33.4512 1104.17 1106.47 33.23
3155 33.4612 1107.30 1115.24 33.28
3156 33.4711 1116.07 1125.83 33.41
3157 33.4811 1130.87 1137.81 33.63
3158 33.4911 1144.74 1150.43 33.83
3159 33.5010 1158.68 1162.66 34.04
3160 33.5110 1177.88 1173.76 34.32
3161 33.5210 1185.06 1182.54 34.42
3162 33.5310 1195.74 1188.00 34.58
3163 33.5410 1200.49 1189.46 34.65
3164 33.5509 1196.00 1186.78 34.58
3165 33.5609 1187.57 1180.80 34.46
3166 33.5709 1181.60 1172.57 34.37
3167 33.5808 1175.63 1163.08 34.29
3168 33.5908 1169.25 1153.16 34.19
3169 33.6008 1157.93 1143.36 34.03
3170 33.6108 1147.37 1134.11 33.87
3171 33.6208 1141.75 1125.57 33.79
3172 33.6307 1138.92 1117.95 33.75
3173 33.6407 1137.79 1111.01 33.73
3174 33.6507 1131.54 1104.45 33.64
3175 33.6606 1127.19 1098.13 33.57
3176 33.6706 1115.57 1092.13 33.40
3177 33.6806 1104.55 1086.81 33.23
3178 33.6906 1097.27 1082.34 33.13
3179 33.7006 1094.81 1079.21 33.09
3180 33.7105 1085.96 1077.60 32.95
3181 33.7205 1080.40 1077.65 32.87
3182 33.7305 1084.59 1079.36 32.93
3183 33.7405 1087.41 1082.40 32.98
3184 33.7504 1091.03 1087.24 33.03
3185 33.7604 1095.87 1093.44 33.10
3186 33.7704 1103.02 1100.95 33.21
3187 33.7803 1110.00 1109.29 33.32
3188 33.7903 1122.46 1118.26 33.50
3189 33.8003 1132.32 1127.86 33.65
3190 33.8103 1148.15 1137.70 33.88
3191 33.8203 1161.06 1147.05 34.07
3192 33.8302 1179.84 1154.69 34.35
3193 33.8402 1188.61 1159.92 34.48
3194 33.8502 1190.10 1162.08 34.50
3195 33.8601 1191.95 1161.19 34.52
3196 33.8701 1189.94 1157.72 34.50
3197 33.8801 1185.87 1152.42 34.44
3198 33.8901 1176.21 1146.16 34.30
3199 33.9001 1162.10 1139.86 34.09
3200 33.9100 1146.61 1134.48 33.86
3201 33.9200 1137.22 1130.84 33.72
3202 33.9300 1129.88 1129.35 33.61
3203 33.9399 1124.61 1130.14 33.54
3204 33.9499 1125.43 1133.06 33.55
3205 33.9599 1128.03 1137.19 33.59
3206 33.9699 1133.70 1141.71 33.67
3207 33.9799 1143.12 1145.49 33.81
3208 33.9898 1145.02 1147.55 33.84
3209 33.9998 1149.84 1147.41 33.91
3210 34.0098 1147.23 1144.98 33.87
3211 34.0197 1145.43 1140.23 33.84
3212 34.0297 1145.98 1134.00 33.85
3213 34.0397 1140.58 1126.46 33.77
3214 34.0497 1134.49 1118.01 33.68
3215 34.0597 1122.79 1109.17 33.51
3216 34.0696 1109.02 1100.15 33.30
3217 34.0796 1104.02 1091.89 33.23
3218 34.0896 1092.51 1084.71 33.05
3219 34.0995 1086.44 1079.20 32.96
3220 34.1095 1081.44 1075.59 32.89
3221 34.1195 1072.89 1073.96 32.76
3222 34.1295 1072.09 1073.98 32.74
3223 34.1395 1074.73 1075.83 32.78
3224 34.1494 1077.65 1078.87 32.83
3225 34.1594 1079.14 1082.72 32.85
3226 34.1694 1081.50 1086.46 32.89
3227 34.1794 1085.63 1089.69 32.95
3228 34.1893 1090.77 1091.63 33.03
3229 34.1993 1091.81 1091.97 33.04
3230 34.2093 1089.06 1090.58 33.00
3231 34.2192 1090.27 1087.55 33.02
3232 34.2292 1088.94 1083.12 33.00
3233 34.2392 1085.23 1077.60 32.94
3234 34.2492 1075.56 1071.34 32.80
3235 34.2592 1072.85 1064.67 32.75
3236 34.2691 1067.01 1058.01 32.67
3237 34.2791 1059.46 1051.98 32.55
3238 34.2891 1052.86 1047.00 32.45
3239 34.2990 1048.59 1043.07 32.38
3240 34.3090 1046.43 1040.47 32.35
3241 34.3190 1048.48 1038.68 32.38
3242 34.3290 1047.85 1038.50 32.37
3243 34.3390 1054.16 1039.13 32.47
3244 34.3489 1050.82 1040.34 32.42
3245 34.3589 1050.45 1041.80 32.41
3246 34.3689 1055.30 1043.46 32.49
3247 34.3788 1056.36 1045.02 32.50
3248 34.3888 1057.15 1046.28 32.51
3249 34.3988 1054.11 1047.26 32.47
3250 34.4088 1054.05 1047.95 32.47
3251 34.4188 1051.56 1048.51 32.43
3252 34.4287 1057.15 1048.91 32.51
3253 34.4387 1060.90 1049.60 32.57
3254 34.4487 1062.25 1050.37 32.59
3255 34.4586 1062.44 1051.20 32.60
3256 34.4686 1062.25 1052.17 32.59
3257 34.4786 1059.27 1053.50 32.55
3258 34.4886 1056.18 1055.53 32.50
3259 34.4986 1060.65 1058.61 32.57
3260 34.5085 1062.17 1062.96 32.59
3261 34.5185 1065.41 1068.59 32.64
3262 34.5285 1082.33 1075.26 32.90
3263 34.5384 1086.88 1082.70 32.97
3264 34.5484 1096.90 1090.17 33.12
3265 34.5584 1102.98 1097.11 33.21
3266 34.5684 1115.65 1103.13 33.40
3267 34.5784 1123.47 1107.66 33.52
3268 34.5883 1126.91 1109.79 33.57
3269 34.5983 1124.58 1108.98 33.53
3270 34.6083 1120.46 1104.96 33.47
3271 34.6183 1113.56 1098.54 33.37
3272 34.6282 1101.91 1090.19 33.19
3273 34.6382 1086.54 1081.63 32.96
3274 34.6482 1075.16 1073.56 32.79
3275 34.6581 1065.32 1066.40 32.64
3276 34.6681 1059.60 1060.88 32.55
3277 34.6781 1047.39 1056.88 32.36
3278 34.6881 1043.35 1054.28 32.30
3279 34.6981 1042.73 1052.82 32.29
3280 34.7080 1040.35 1052.12 32.25
3281 34.7180 1044.99 1051.75 32.33
3282 34.7280 1044.34 1051.26 32.32
3283 34.7379 1039.81 1050.50 32.25
3284 34.7479 1042.87 1048.94 32.29
3285 34.7579 1037.75 1046.75 32.21
3286 34.7679 1036.99 1044.63 32.20
3287 34.7779 1036.47 1042.75 32.19
3288 34.7878 1037.16 1041.33 32.21
3289 34.7978 1034.81 1040.65 32.17
3290 34.8078 1035.81 1040.95 32.18
3291 34.8177 1035.45 1042.14 32.18
3292 34.8277 1034.75 1043.84 32.17
3293 34.8377 1041.76 1045.57 32.28
3294 34.8477 1048.46 1047.24 32.38
3295 34.8577 1050.05 1048.37 32.40
3296 34.8676 1048.06 1048.91 32.37
3297 34.8776 1043.44 1049.05 32.30
3298 34.8876 1043.89 1049.02 32.31
3299 34.8975 1043.93 1049.21 32.31
3300 34.9075 1038.33 1049.79 32.22
3301 34.9175 1041.77 1050.72 32.28
3302 34.9275 1046.52 1051.68 32.35
3303 34.9375 1047.32 1052.18 32.36
3304 34.9474 1049.15 1051.73 32.39
3305 34.9574 1049.41 1050.05 32.39
3306 34.9674 1046.81 1047.14 32.35
3307 34.9773 1051.42 1043.28 32.43
3308 34.9873 1046.33 1039.18 32.35
3309 34.9973 1040.49 1035.32 32.26
3310 35.0073 1040.36 1032.02 32.25
3311 35.0173 1045.52 1029.46 32.33
3312 35.0272 1042.72 1027.53 32.29
3313 35.0372 1043.95 1026.45 32.31
3314 35.0472 1044.43 1025.70 32.32
3315 35.0572 1046.35 1025.25 32.35
3316 35.0671 1050.57 1024.66 32.41
3317 35.0771 1050.93 1023.83 32.42
3318 35.0871 1055.78 1022.68 32.49
3319 35.0970 1051.98 1021.14 32.43
3320 35.1070 1054.57 1019.20 32.47
3321 35.1170 1055.87 1016.96 32.49
3322 35.1270 1049.65 1014.15 32.40
3323 35.1370 1044.70 1010.93 32.32
3324 35.1469 1037.56 1007.54 32.21
3325 35.1569 1031.88 1004.10 32.12
3326 35.1669 1024.95 1000.93 32.01
3327 35.1768 1020.18 998.16 31.94
3328 35.1868 1012.67 995.81 31.82
3329 35.1968 1006.95 994.09 31.73
3330 35.2068 1003.11 992.90 31.67
3331 35.2168 996.47 992.22 31.57
3332 35.2267 996.54 992.12 31.57
3333 35.2367 997.89 992.35 31.59
3334 35.2467 999.01 992.97 31.61
3335 35.2566 1001.69 994.20 31.65
3336 35.2666 995.93 996.03 31.56
3337 35.2766 998.07 998.47 31.59
3338 35.2866 1000.22 1001.84 31.63
3339 35.2966 1005.99 1005.55 31.72
3340 35.3065 1005.78 1009.82 31.71
3341 35.3165 1014.00 1014.39 31.84
3342 35.3265 1018.97 1019.05 31.92
3343 35.3364 1019.30 1023.42 31.93
3344 35.3464 1027.29 1027.57 32.05
3345 35.3564 1033.72 1031.06 32.15
3346 35.3664 1033.14 1033.96 32.14
3347 35.3764 1034.40 1035.97 32.16
3348 35.3863 1041.57 1036.88 32.27
3349 35.3963 1042.25 1036.66 32.28
3350 35.4063 1041.07 1035.59 32.27
3351 35.4162 1043.00 1033.53 32.30
3352 35.4262 1042.99 1030.74 32.30
3353 35.4362 1036.83 1027.68 32.20
3354 35.4462 1035.87 1024.81 32.19
3355 35.4562 1029.34 1022.68 32.08
3356 35.4661 1025.32 1021.34 32.02
3357 35.4761 1022.95 1020.98 31.98
3358 35.4861 1026.05 1021.60 32.03
3359 35.4961 1027.51 1022.99 32.05
3360 35.5060 1031.54 1024.88 32.12
3361 35.5160 1038.98 1026.74 32.23
3362 35.5260 1041.74 1027.94 32.28
3363 35.5359 1044.49 1028.43 32.32
3364 35.5459 1046.89 1027.79 32.36
3365 35.5559 1042.51 1026.18 32.29
3366 35.5659 1037.88 1023.98 32.22
3367 35.5759 1034.89 1021.52 32.17
3368 35.5858 1030.37 1019.07 32.10
3369 35.5958 1030.91 1016.77 32.11
3370 35.6058 1028.84 1014.67 32.08
3371 35.6157 1030.63 1012.69 32.10
3372 35.6257 1030.08 1010.87 32.09
3373 35.6357 1022.55 1009.31 31.98
3374 35.6457 1016.92 1007.88 31.89
3375 35.6557 1014.04 1007.07 31.84
3376 35.6656 1009.84 1006.24 31.78
3377 35.6756 1005.39 1005.74 31.71
3378 35.6856 1010.35 1005.43 31.79
3379 35.6955 1009.13 1005.42 31.77
3380 35.7055 1006.75 1005.73 31.73
3381 35.7155 1007.07 1006.47 31.73
3382 35.7255 1002.67 1007.61 31.67
3383 35.7355 1000.54 1008.97 31.63
3384 35.7454 1005.80 1010.74 31.71
3385 35.7554 1012.44 1012.76 31.82
3386 35.7654 1012.82 1015.02 31.82
3387 35.7753 1010.78 1017.61 31.79
3388 35.7853 1012.77 1020.58 31.82
3389 35.7953 1013.24 1023.89 31.83
3390 35.8053 1015.81 1027.61 31.87
3391 35.8153 1020.63 1031.44 31.95
3392 35.8252 1020.40 1035.29 31.94
3393 35.8352 1023.60 1038.85 31.99
3394 35.8452 1023.73 1041.89 32.00
3395 35.8551 1023.99 1044.10 32.00
3396 35.8651 1023.62 1045.48 31.99
3397 35.8751 1028.79 1046.06 32.07
3398 35.8851 1030.43 1046.24 32.10
3399 35.8951 1031.47 1046.10 32.12
3400 35.9050 1029.97 1045.66 32.09
3401 35.9150 1033.51 1044.85 32.15
3402 35.9250 1036.28 1043.50 32.19
3403 35.9350 1032.88 1041.81 32.14
3404 35.9449 1028.52 1039.87 32.07
3405 35.9549 1025.18 1037.94 32.02
3406 35.9649 1025.91 1036.37 32.03
3407 35.9748 1021.55 1035.46 31.96
3408 35.9848 1015.16 1035.50 31.86
3409 35.9948 1022.36 1036.70 31.97
3410 36.0048 1025.70 1038.96 32.03
3411 36.0148 1029.78 1042.20 32.09
3412 36.0247 1033.02 1046.21 32.14
3413 36.0347 1039.08 1050.79 32.23
3414 36.0447 1050.31 1055.92 32.41
3415 36.0546 1055.64 1061.37 32.49
3416 36.0646 1069.45 1067.00 32.70
3417 36.0746 1078.41 1072.37 32.84
3418 36.0846 1085.79 1076.91 32.95
3419 36.0946 1092.81 1080.07 33.06
3420 36.1045 1093.49 1081.46 33.07
3421 36.1145 1095.56 1081.24 33.10
3422 36.1245 1093.40 1079.67 33.07
3423 36.1344 1086.76 1077.08 32.97
3424 36.1444 1084.22 1073.50 32.93
3425 36.1544 1082.28 1069.16 32.90
3426 36.1644 1075.29 1063.98 32.79
3427 36.1744 1070.99 1058.11 32.73
3428 36.1843 1063.67 1051.84 32.61
3429 36.1943 1053.97 1045.91 32.46
3430 36.2043 1043.70 1040.57 32.31
3431 36.2142 1039.94 1036.09 32.25
3432 36.2242 1032.50 1032.91 32.13
3433 36.2342 1032.74 1030.82 32.14
3434 36.2442 1030.52 1029.58 32.10
3435 36.2542 1033.10 1028.75 32.14
3436 36.2641 1032.89 1028.13 32.14
3437 36.2741 1036.81 1026.97 32.20
3438 36.2841 1035.02 1025.37 32.17
3439 36.2940 1031.72 1023.39 32.12
3440 36.3040 1031.23 1021.20 32.11
3441 36.3140 1024.39 1018.94 32.01
3442 36.3240 1019.83 1016.78 31.93
3443 36.3340 1015.24 1014.77 31.86
3444 36.3439 1013.28 1012.85 31.83
3445 36.3539 1010.78 1011.61 31.79
3446 36.3639 1007.89 1010.80 31.75
3447 36.3739 1008.74 1010.72 31.76
3448 36.3838 1009.19 1011.46 31.77
3449 36.3938 1010.79 1013.09 31.79
3450 36.4038 1013.88 1015.59 31.84
3451 36.4137 1018.72 1018.83 31.92
3452 36.4237 1027.17 1022.50 32.05
3453 36.4337 1039.84 1026.41 32.25
3454 36.4437 1050.59 1030.06 32.41
3455 36.4537 1062.79 1033.00 32.60
3456 36.4636 1073.25 1034.83 32.76
3457 36.4736 1070.62 1035.45 32.72
3458 36.4836 1067.45 1034.94 32.67
3459 36.4935 1063.17 1033.89 32.61
3460 36.5035 1049.25 1032.53 32.39
3461 36.5135 1037.68 1031.31 32.21
3462 36.5235 1034.12 1030.45 32.16
3463 36.5335 1029.48 1030.11 32.09
3464 36.5434 1027.56 1030.11 32.06
3465 36.5534 1026.81 1030.31 32.04
3466 36.5634 1024.49 1030.55 32.01
3467 36.5733 1025.13 1030.52 32.02
3468 36.5833 1027.93 1030.03 32.06
3469 36.5933 1024.96 1028.92 32.02
3470 36.6033 1026.84 1027.03 32.04
3471 36.6133 1027.18 1024.37 32.05
3472 36.6232 1021.41 1020.88 31.96
3473 36.6332 1020.05 1016.68 31.94
3474 36.6432 1014.98 1011.95 31.86
3475 36.6531 1011.77 1006.84 31.81
3476 36.6631 1003.93 1001.73 31.68
3477 36.6731 996.81 996.57 31.57
3478 36.6831 992.28 991.71 31.50
3479 36.6931 993.03 987.32 31.51
3480 36.7030 982.73 983.30 31.35
3481 36.7130 981.12 979.87 31.32
3482 36.7230 979.13 977.08 31.29
3483 36.7329 976.91 974.89 31.26
3484 36.7429 976.64 973.38 31.25
3485 36.7529 975.78 972.48 31.24
3486 36.7629 973.47 972.21 31.20
3487 36.7729 974.23 972.48 31.21
3488 36.7828 976.83 973.20 31.25
3489 36.7928 976.90 974.26 31.26
3490 36.8028 976.87 975.54 31.25
3491 36.8128 977.64 976.94 31.27
3492 36.8227 980.77 978.30 31.32
3493 36.8327 980.89 979.60 31.32
3494 36.8427 978.28 980.65 31.28
3495 36.8526 980.24 981.70 31.31
3496 36.8626 980.59 982.52 31.31
3497 36.8726 977.56 983.11 31.27
3498 36.8826 973.19 983.55 31.20
3499 36.8926 971.80 983.84 31.17
3500 36.9025 973.77 984.03 31.21
3501 36.9125 977.08 983.77 31.26
3502 36.9225 970.60 983.59 31.15
3503 36.9324 970.38 983.20 31.15
3504 36.9424 976.05 982.78 31.24
3505 36.9524 976.97 982.45 31.26
3506 36.9624 974.99 982.33 31.22
3507 36.9724 976.76 982.59 31.25
3508 36.9823 976.40 983.44 31.25
3509 36.9923 979.97 984.69 31.30
3510 37.0023 983.60 986.47 31.36
3511 37.0122 984.04 988.59 31.37
3512 37.0222 987.45 991.01 31.42
3513 37.0322 989.16 993.72 31.45
3514 37.0422 996.02 996.69 31.56
3515 37.0522 997.69 999.88 31.59
3516 37.0621 1002.33 1003.07 31.66
3517 37.0721 1009.41 1006.02 31.77
3518 37.0821 1011.17 1007.95 31.80
3519 37.0920 1015.68 1008.87 31.87
3520 37.1020 1013.97 1008.71 31.84
3521 37.1120 1013.38 1007.59 31.83
3522 37.1220 1012.16 1005.95 31.81
3523 37.1320 1011.40 1004.23 31.80
3524 37.1419 1008.69 1002.63 31.76
3525 37.1519 1012.79 1001.27 31.82
3526 37.1619 1012.15 999.94 31.81
3527 37.1718 1013.62 998.52 31.84
3528 37.1818 1013.95 996.69 31.84
3529 37.1918 1009.14 994.33 31.77
3530 37.2018 1006.22 991.49 31.72
3531 37.2118 1001.65 988.34 31.65
3532 37.2217 995.74 985.19 31.56
3533 37.2317 991.16 982.32 31.48
3534 37.2417 986.10 979.93 31.40
3535 37.2517 981.43 978.25 31.33
3536 37.2616 983.78 977.33 31.37
3537 37.2716 976.21 977.12 31.24
3538 37.2816 976.88 977.61 31.25
3539 37.2915 977.90 978.44 31.27
3540 37.3015 981.19 979.66 31.32
3541 37.3115 983.74 980.89 31.36
3542 37.3215 981.66 981.74 31.33
3543 37.3315 986.40 982.01 31.41
3544 37.3414 985.51 981.67 31.39
3545 37.3514 984.05 980.70 31.37
3546 37.3614 982.02 979.12 31.34
3547 37.3713 975.75 977.11 31.24
3548 37.3813 974.16 974.85 31.21
3549 37.3913 971.54 972.39 31.17
3550 37.4013 966.66 970.18 31.09
3551 37.4113 967.71 968.29 31.11
3552 37.4212 968.42 966.83 31.12
3553 37.4312 966.88 966.00 31.09
3554 37.4412 971.47 965.86 31.17
3555 37.4511 967.02 966.50 31.10
3556 37.4611 969.98 967.85 31.14
3557 37.4711 972.50 969.90 31.18
3558 37.4811 976.47 972.56 31.25
3559 37.4911 980.90 975.76 31.32
3560 37.5010 987.51 979.34 31.42
3561 37.5110 993.85 983.03 31.53
3562 37.5210 999.95 986.62 31.62
3563 37.5309 1001.57 989.88 31.65
3564 37.5409 1000.26 992.62 31.63
3565 37.5509 1001.53 994.74 31.65
3566 37.5609 1000.97 996.22 31.64
3567 37.5709 994.83 997.09 31.54
3568 37.5808 995.83 997.46 31.56
3569 37.5908 995.17 997.48 31.55
3570 37.6008 996.18 997.36 31.56
3571 37.6107 996.83 997.19 31.57
3572 37.6207 996.11 997.16 31.56
3573 37.6307 997.54 997.33 31.58
3574 37.6407 996.20 997.68 31.56
3575 37.6507 1001.27 998.02 31.64
3576 37.6606 1002.00 998.19 31.65
3577 37.6706 1006.85 997.67 31.73
3578 37.6806 1005.35 996.22 31.71
3579 37.6906 1006.20 993.63 31.72
3580 37.7005 1006.03 990.24 31.72
3581 37.7105 1000.74 985.89 31.63
3582 37.7205 997.55 981.10 31.58
3583 37.7304 997.36 976.20 31.58
3584 37.7404 987.36 971.50 31.42
3585 37.7504 981.93 967.16 31.34
3586 37.7604 976.91 963.42 31.26
3587 37.7704 975.10 960.32 31.23
3588 37.7803 971.34 957.92 31.17
3589 37.7903 967.23 956.27 31.10
3590 37.8003 960.88 955.28 31.00
3591 37.8102 959.41 955.01 30.97
3592 37.8202 960.04 955.35 30.98
3593 37.8302 958.30 956.34 30.96
3594 37.8402 958.09 957.81 30.95
3595 37.8502 960.18 959.65 30.99
3596 37.8601 960.44 961.87 30.99
3597 37.8701 962.64 964.23 31.03
3598 37.8801 966.53 966.54 31.09
3599 37.8900 966.50 968.57 31.09
3600 37.9000 970.02 970.11 31.15
3601 37.9100 974.69 970.87 31.22
3602 37.9200 973.59 970.67 31.20
3603 37.9300 970.93 969.65 31.16
3604 37.9399 971.27 967.93 31.17
3605 37.9499 966.72 965.64 31.09
3606 37.9599 962.95 963.08 31.03
3607 37.9698 959.81 960.47 30.98
3608 37.9798 955.32 958.04 30.91
3609 37.9898 958.86 956.00 30.97
3610 37.9998 957.22 954.53 30.94
3611 38.0098 952.69 953.58 30.87
3612 38.0197 949.58 953.17 30.82
3613 38.0297 950.82 953.67 30.84
3614 38.0397 954.48 954.76 30.89
3615 38.0496 958.72 956.57 30.96
3616 38.0596 961.98 959.02 31.02
3617 38.0696 960.84 962.09 31.00
3618 38.0796 961.88 965.70 31.01
3619 38.0896 961.64 969.71 31.01
3620 38.0995 966.97 973.90 31.10
3621 38.1095 971.30 978.06 31.17
3622 38.1195 976.31 981.77 31.25
3623 38.1295 981.00 984.78 31.32
3624 38.1394 982.33 986.82 31.34
3625 38.1494 987.23 987.83 31.42
3626 38.1594 990.01 987.70 31.46
3627 38.1693 990.94 986.60 31.48
3628 38.1793 990.05 984.77 31.47
3629 38.1893 984.56 982.45 31.38
3630 38.1993 980.15 979.83 31.31
3631 38.2093 978.55 977.35 31.28
3632 38.2192 976.58 975.18 31.25
3633 38.2292 972.02 973.49 31.18
3634 38.2392 972.48 972.42 31.18
3635 38.2491 970.67 971.89 31.16
3636 38.2591 971.69 971.79 31.17
3637 38.2691 971.25 971.88 31.16
3638 38.2791 977.20 971.84 31.26
3639 38.2891 980.80 971.45 31.32
3640 38.2990 979.36 970.48 31.29
3641 38.3090 979.66 969.01 31.30
3642 38.3190 977.83 967.07 31.27
3643 38.3289 972.52 964.86 31.19
3644 38.3389 968.85 962.51 31.13
3645 38.3489 967.54 960.16 31.11
3646 38.3589 962.32 957.91 31.02
3647 38.3689 957.28 955.79 30.94
3648 38.3788 960.15 954.14 30.99
3649 38.3888 957.56 952.93 30.94
3650 38.3988 956.50 952.22 30.93
3651 38.4087 960.53 951.99 30.99
3652 38.4187 958.52 952.37 30.96
3653 38.4287 957.07 953.25 30.94
3654 38.4387 956.91 954.55 30.93
3655 38.4487 961.76 956.16 31.01
3656 38.4586 966.79 958.31 31.09
3657 38.4686 966.69 960.63 31.09
3658 38.4786 966.24 963.30 31.08
3659 38.4885 971.69 966.10 31.17
3660 38.4985 976.75 968.97 31.25
3661 38.5085 980.72 971.77 31.32
3662 38.5185 982.71 974.31 31.35
3663 38.5285 986.90 976.33 31.41
3664 38.5384 987.82 977.77 31.43
3665 38.5484 986.04 978.36 31.40
3666 38.5584 989.24 978.09 31.45
3667 38.5684 986.66 977.07 31.41
3668 38.5783 982.78 975.63 31.35
3669 38.5883 980.60 974.11 31.31
3670 38.5983 978.42 972.86 31.28
3671 38.6082 976.19 972.11 31.24
3672 38.6182 977.48 971.99 31.26
3673 38.6282 978.67 972.57 31.28
3674 38.6382 979.88 973.69 31.30
3675 38.6482 980.17 975.31 31.31
3676 38.6581 982.69 977.33 31.35
3677 38.6681 982.22 979.66 31.34
3678 38.6781 981.00 982.26 31.32
3679 38.6880 981.12 985.17 31.32
3680 38.6980 984.42 988.46 31.38
3681 38.7080 990.73 992.21 31.48
3682 38.7180 991.48 996.44 31.49
3683 38.7280 996.89 1001.07 31.57
3684 38.7379 1001.23 1005.89 31.64
3685 38.7479 1008.08 1010.30 31.75
3686 38.7579 1016.51 1013.73 31.88
3687 38.7678 1022.43 1016.01 31.98
3688 38.7778 1023.56 1016.80 31.99
3689 38.7878 1019.92 1016.22 31.94
3690 38.7978 1018.95 1014.58 31.92
3691 38.8078 1019.41 1012.46 31.93
3692 38.8177 1014.34 1010.28 31.85
3693 38.8277 1011.38 1008.32 31.80
3694 38.8377 1003.30 1006.75 31.67
3695 38.8476 1000.80 1005.53 31.64
3696 38.8576 999.40 1004.52 31.61
3697 38.8676 997.46 1003.52 31.58
3698 38.8776 993.14 1002.32 31.51
3699 38.8876 995.97 1000.72 31.56
3700 38.8975 994.24 998.64 31.53
3701 38.9075 996.86 996.15 31.57
3702 38.9175 994.08 993.41 31.53
3703 38.9274 994.92 990.71 31.54
3704 38.9374 992.59 988.30 31.51
3705 38.9474 989.52 986.29 31.46
3706 38.9574 989.80 984.76 31.46
3707 38.9674 992.32 983.54 31.50
3708 38.9773 994.27 982.57 31.53
3709 38.9873 992.49 981.68 31.50
3710 38.9973 991.57 980.85 31.49
3711 39.0073 993.81 979.90 31.52
3712 39.0172 988.00 978.79 31.43
3713 39.0272 988.66 977.63 31.44
3714 39.0372 985.98 976.11 31.40
3715 39.0471 982.59 974.46 31.35
3716 39.0571 984.64 972.79 31.38
3717 39.0671 980.81 971.17 31.32
3718 39.0771 979.01 969.71 31.29
3719 39.0871 980.82 968.48 31.32
3720 39.0970 980.41 967.50 31.31
3721 39.1070 977.55 966.75 31.27
3722 39.1170 977.66 966.17 31.27
3723 39.1269 976.03 965.71 31.24
3724 39.1369 975.31 965.19 31.23
3725 39.1469 974.13 964.71 31.21
3726 39.1569 971.78 964.09 31.17
3727 39.1669 973.15 963.41 31.20
3728 39.1768 975.79 962.68 31.24
3729 39.1868 975.75 962.01 31.24
3730 39.1968 968.75 961.52 31.12
3731 39.2067 969.25 961.34 31.13
3732 39.2167 971.02 961.61 31.16
3733 39.2267 968.82 962.37 31.13
3734 39.2367 968.18 963.71 31.12
3735 39.2467 968.85 965.58 31.13
3736 39.2566 970.11 968.04 31.15
3737 39.2666 969.37 970.97 31.13
3738 39.2766 971.54 974.31 31.17
3739 39.2865 971.20 977.91 31.16
3740 39.2965 976.53 981.55 31.25
3741 39.3065 985.58 984.95 31.39
3742 39.3165 987.01 987.73 31.42
3743 39.3265 990.67 989.60 31.48
3744 39.3364 995.00 990.36 31.54
3745 39.3464 997.27 990.02 31.58
3746 39.3564 993.01 988.75 31.51
3747 39.3663 992.99 986.78 31.51
3748 39.3763 990.66 984.54 31.47
3749 39.3863 987.56 982.24 31.43
3750 39.3963 983.41 979.93 31.36
3751 39.4062 981.81 977.62 31.33
3752 39.4162 981.13 975.46 31.32
3753 39.4262 980.48 973.48 31.31
3754 39.4362 977.54 971.65 31.27
3755 39.4462 975.70 970.07 31.24
3756 39.4561 974.77 968.73 31.22
3757 39.4661 966.96 967.68 31.10
3758 39.4761 964.94 966.95 31.06
3759 39.4860 968.23 966.36 31.12
3760 39.4960 970.16 965.91 31.15
3761 39.5060 972.98 965.54 31.19
3762 39.5160 967.13 965.36 31.10
3763 39.5260 965.84 965.31 31.08
3764 39.5359 965.99 965.47 31.08
3765 39.5459 964.96 965.96 31.06
3766 39.5559 966.80 966.71 31.09
3767 39.5658 968.41 967.67 31.12
3768 39.5758 968.72 968.80 31.12
3769 39.5858 972.87 969.89 31.19
3770 39.5958 978.83 970.79 31.29
3771 39.6058 985.54 971.37 31.39
3772 39.6157 989.28 971.37 31.45
3773 39.6257 990.31 970.75 31.47
3774 39.6357 982.41 969.52 31.34
3775 39.6456 975.11 968.16 31.23
3776 39.6556 968.91 966.64 31.13
3777 39.6656 967.55 965.20 31.11
3778 39.6756 967.18 963.93 31.10
3779 39.6856 962.31 962.88 31.02
3780 39.6955 959.78 962.12 30.98
3781 39.7055 958.41 961.68 30.96
3782 39.7155 959.52 961.50 30.98
3783 39.7254 957.48 961.73 30.94
3784 39.7354 961.79 962.29 31.01
3785 39.7454 963.25 963.18 31.04
3786 39.7554 962.47 964.23 31.02
3787 39.7654 961.29 965.73 31.00
3788 39.7753 963.66 967.44 31.04
3789 39.7853 968.32 969.34 31.12
3790 39.7953 969.78 971.37 31.14
3791 39.8052 973.48 973.49 31.20
3792 39.8152 975.73 975.67 31.24
3793 39.8252 979.41 977.86 31.30
3794 39.8352 983.97 979.99 31.37
3795 39.8451 984.82 982.25 31.38
3796 39.8551 978.93 984.41 31.29
3797 39.8651 982.83 986.50 31.35
3798 39.8751 985.74 988.40 31.40
3799 39.8851 986.34 989.92 31.41
3800 39.8950 988.27 990.88 31.44
3801 39.9050 988.82 990.98 31.45
3802 39.9150 994.51 990.16 31.54
3803 39.9249 996.08 988.39 31.56
3804 39.9349 993.24 985.92 31.52
3805 39.9449 993.33 982.89 31.52
3806 39.9549 991.07 979.59 31.48
3807 39.9649 982.53 976.31 31.35
3808 39.9748 971.62 973.12 31.17
3809 39.9848 970.91 970.25 31.16
3810 39.9948 968.93 967.75 31.13
3811 40.0047 964.59 965.71 31.06
3812 40.0147 964.96 964.15 31.06
3813 40.0247 964.04 963.01 31.05
3814 40.0347 963.31 962.41 31.04
3815 40.0447 960.66 962.27 30.99
3816 40.0546 964.74 962.60 31.06
3817 40.0646 963.62 963.33 31.04
3818 40.0746 957.80 964.39 30.95
3819 40.0845 959.63 965.79 30.98
3820 40.0945 962.98 967.25 31.03
3821 40.1045 962.20 968.73 31.02
3822 40.1145 964.90 970.07 31.06
3823 40.1245 965.77 971.17 31.08
3824 40.1344 968.72 971.99 31.12
3825 40.1444 965.79 972.54 31.08
3826 40.1544 967.06 972.80 31.10
3827 40.1643 966.57 972.86 31.09
3828 40.1743 968.91 972.73 31.13
3829 40.1843 972.52 972.41 31.19
3830 40.1943 969.39 971.82 31.14
3831 40.2043 969.99 971.30 31.14
3832 40.2142 969.83 970.82 31.14
3833 40.2242 966.93 970.38 31.10
3834 40.2342 967.42 970.20 31.10
3835 40.2441 967.70 970.22 31.11
3836 40.2541 963.56 970.41 31.04
3837 40.2641 963.67 970.75 31.04
3838 40.2741 962.60 971.18 31.03
3839 40.2840 966.95 971.80 31.10
3840 40.2940 970.04 972.47 31.15
3841 40.3040 976.67 973.46 31.25
3842 40.3140 973.98 974.48 31.21
3843 40.3240 974.27 975.64 31.21
3844 40.3339 978.24 976.90 31.28
3845 40.3439 977.10 978.13 31.26
3846 40.3539 978.92 979.20 31.29
3847 40.3638 983.68 980.16 31.36
3848 40.3738 985.07 980.98 31.39
3849 40.3838 982.76 981.91 31.35
3850 40.3938 982.85 982.79 31.35
3851 40.4038 984.72 983.85 31.38
3852 40.4137 983.95 985.21 31.37
3853 40.4237 985.47 986.96 31.39
3854 40.4337 985.81 989.09 31.40
3855 40.4436 990.26 991.59 31.47
3856 40.4536 992.13 994.30 31.50
3857 40.4636 999.80 997.06 31.62
3858 40.4736 1006.35 999.42 31.72
3859 40.4836 1005.24 1001.04 31.71
3860 40.4935 1012.81 1001.76 31.82
3861 40.5035 1017.69 1001.43 31.90
3862 40.5135 1017.20 1000.03 31.89
3863 40.5234 1014.23 997.90 31.85
3864 40.5334 1011.68 995.20 31.81
3865 40.5434 1007.83 992.09 31.75
3866 40.5534 999.83 988.89 31.62
3867 40.5634 993.56 985.78 31.52
3868 40.5733 989.12 982.92 31.45
3869 40.5833 982.66 980.44 31.35
3870 40.5933 984.40 978.41 31.38
3871 40.6032 984.40 976.87 31.38
3872 40.6132 985.65 975.85 31.40
3873 40.6232 980.99 975.30 31.32
3874 40.6332 979.81 975.16 31.30
3875 40.6432 976.43 975.32 31.25
3876 40.6531 976.41 975.73 31.25
3877 40.6631 980.58 976.21 31.31
3878 40.6731 980.72 976.80 31.32
3879 40.6830 985.33 977.45 31.39
3880 40.6930 985.29 978.14 31.39
3881 40.7030 990.35 978.82 31.47
3882 40.7130 988.84 979.38 31.45
3883 40.7229 991.77 979.75 31.49
3884 40.7329 990.86 979.81 31.48
3885 40.7429 991.67 979.55 31.49
3886 40.7529 990.27 979.02 31.47
3887 40.7629 986.37 978.38 31.41
3888 40.7728 983.05 977.88 31.35
3889 40.7828 982.23 977.34 31.34
3890 40.7928 982.61 977.23 31.35
3891 40.8027 981.44 977.38 31.33
3892 40.8127 981.09 977.72 31.32
3893 40.8227 980.08 978.32 31.31
3894 40.8327 977.54 979.01 31.27
3895 40.8427 974.08 979.71 31.21
3896 40.8526 975.47 980.35 31.23
3897 40.8626 974.12 980.90 31.21
3898 40.8726 979.64 981.29 31.30
3899 40.8825 979.59 981.55 31.30
3900 40.8925 978.04 981.66 31.27
3901 40.9025 980.94 981.65 31.32
3902 40.9125 980.93 981.53 31.32
3903 40.9225 984.58 981.41 31.38
3904 40.9324 981.32 981.31 31.33
3905 40.9424 984.01 981.28 31.37
3906 40.9524 986.46 981.32 31.41
3907 40.9623 987.13 981.34 31.42
3908 40.9723 986.77 981.26 31.41
3909 40.9823 987.68 980.96 31.43
3910 40.9923 987.50 980.34 31.42
3911 41.0023 989.94 979.46 31.46
3912 41.0122 989.61 978.35 31.46
3913 41.0222 986.04 977.04 31.40
3914 41.0322 984.73 975.71 31.38
3915 41.0421 983.25 974.41 31.36
3916 41.0521 986.43 973.30 31.41
3917 41.0621 984.26 972.50 31.37
3918 41.0721 979.25 972.08 31.29
3919 41.0821 977.70 972.35 31.27
3920 41.0920 976.70 973.19 31.25
3921 41.1020 977.01 974.76 31.26
3922 41.1120 982.20 977.16 31.34
3923 41.1219 980.51 980.33 31.31
3924 41.1319 985.92 984.32 31.40
3925 41.1419 990.43 989.11 31.47
3926 41.1519 995.92 994.57 31.56
3927 41.1618 1003.39 1000.65 31.68
3928 41.1718 1011.48 1007.05 31.80
3929 41.1818 1019.10 1013.51 31.92
3930 41.1918 1023.33 1019.63 31.99
3931 41.2018 1032.55 1025.11 32.13
3932 41.2117 1035.45 1029.61 32.18
3933 41.2217 1039.36 1032.96 32.24
3934 41.2317 1040.97 1034.97 32.26
3935 41.2416 1042.88 1035.60 32.29
3936 41.2516 1039.60 1034.84 32.24
3937 41.2616 1041.38 1033.00 32.27
3938 41.2716 1039.41 1030.18 32.24
3939 41.2816 1032.44 1026.67 32.13
3940 41.2915 1031.21 1022.74 32.11
3941 41.3015 1021.05 1018.75 31.95
3942 41.3115 1014.34 1014.98 31.85
3943 41.3214 1014.21 1011.68 31.85
3944 41.3314 1011.34 1009.07 31.80
3945 41.3414 1006.86 1007.12 31.73
3946 41.3514 1003.04 1005.79 31.67
3947 41.3614 1002.03 1005.03 31.65
3948 41.3713 1005.82 1004.59 31.71
3949 41.3813 1008.17 1004.25 31.75
3950 41.3913 1010.16 1003.88 31.78
3951 41.4012 1011.52 1003.38 31.80
3952 41.4112 1011.16 1002.41 31.80
3953 41.4212 1014.32 1000.69 31.85
3954 41.4312 1015.20 998.18 31.86
3955 41.4412 1014.23 994.78 31.85
3956 41.4511 1008.98 990.72 31.76
3957 41.4611 1005.32 986.31 31.71
3958 41.4711 996.72 981.90 31.57
3959 41.4810 991.21 977.75 31.48
3960 41.4910 989.61 974.00 31.46
3961 41.5010 983.32 970.78 31.36
3962 41.5110 976.87 968.15 31.25
3963 41.5210 974.28 966.08 31.21
3964 41.5309 978.63 964.57 31.28
3965 41.5409 978.37 963.58 31.28
3966 41.5509 978.14 962.99 31.28
3967 41.5608 977.45 962.89 31.26
3968 41.5708 976.66 963.11 31.25
3969 41.5808 973.64 963.71 31.20
3970 41.5908 977.37 964.65 31.26
3971 41.6007 973.48 965.91 31.20
3972 41.6107 970.83 967.43 31.16
3973 41.6207 973.53 969.15 31.20
3974 41.6307 975.97 970.86 31.24
3975 41.6407 973.42 972.62 31.20
3976 41.6506 971.05 974.21 31.16
3977 41.6606 972.39 975.48 31.18
3978 41.6706 972.67 976.26 31.19
3979 41.6805 974.44 976.46 31.22
3980 41.6905 972.57 976.04 31.19
3981 41.7005 971.53 975.05 31.17
3982 41.7105 967.73 973.61 31.11
3983 41.7205 968.68 971.81 31.12
3984 41.7304 965.89 969.87 31.08
3985 41.7404 959.30 967.85 30.97
3986 41.7504 957.88 965.81 30.95
3987 41.7603 960.30 963.81 30.99
3988 41.7703 957.58 961.90 30.94
3989 41.7803 954.82 960.04 30.90
3990 41.7903 955.24 958.16 30.91
3991 41.8003 955.38 956.26 30.91
3992 41.8102 953.58 954.22 30.88
3993 41.8202 952.37 951.97 30.86
3994 41.8302 952.98 949.52 30.87
3995 41.8401 949.65 946.63 30.82
3996 41.8501 948.24 943.38 30.79
3997 41.8601 944.62 939.74 30.73
3998 41.8701 940.48 935.73 30.67
3999 41.8801 938.09 931.24 30.63
4000 41.8900 938.50 926.37 30.64
loop_
_restr_angle_atom_site_label_1
_restr_angle_site_symmetry_1
_restr_angle_atom_site_label_2
_restr_angle_site_symmetry_2
_restr_angle_atom_site_label_3
_restr_angle_site_symmetry_3
_restr_angle_target
_restr_angle_target_weight_param
? ? ? ? ? ? ? ?
loop_
_restr_distance_atom_site_label_1
_restr_distance_site_symmetry_1
_restr_distance_atom_site_label_2
_restr_distance_site_symmetry_2
_restr_distance_target
_restr_distance_target_weight_param
? ? ? ? ? ?
loop_
_restr_equal_angle_atom_site_label_1
_restr_equal_angle_site_symmetry_1
_restr_equal_angle_atom_site_label_2
_restr_equal_angle_site_symmetry_2
_restr_equal_angle_atom_site_label_3
_restr_equal_angle_site_symmetry_3
_restr_equal_angle_class_class_id
_restr_equal_angle_class_target_weight_param
? ? ? ? ? ? ? ?
loop_
_restr_equal_distance_atom_site_label_1
_restr_equal_distance_site_symmetry_1
_restr_equal_distance_atom_site_label_2
_restr_equal_distance_site_symmetry_2
_restr_equal_distance_class_class_id
_restr_equal_distance_class_target_weight_param
? ? ? ? ? ?
loop_
_restr_equal_torsion_atom_site_label_1
_restr_equal_torsion_site_symmetry_1
_restr_equal_torsion_atom_site_label_2
_restr_equal_torsion_site_symmetry_2
_restr_equal_torsion_atom_site_label_3
_restr_equal_torsion_site_symmetry_3
_restr_equal_torsion_atom_site_label_4
_restr_equal_torsion_site_symmetry_4
_restr_equal_torsion_class_class_id
_restr_equal_torsion_class_target_weight_param
? ? ? ? ? ? ? ? ? ?
loop_
_restr_torsion_atom_site_label_1
_restr_torsion_site_symmetry_1
_restr_torsion_atom_site_label_2
_restr_torsion_site_symmetry_2
_restr_torsion_atom_site_label_3
_restr_torsion_site_symmetry_3
_restr_torsion_atom_site_label_4
_restr_torsion_site_symmetry_4
_restr_torsion_angle_target
_restr_torsion_weight_param
? ? ? ? ? ? ? ? ? ?
loop_
_jana_atom_site_adp_c_label
_jana_atom_site_adp_c_type_symbol
_jana_atom_site_adp_c_111
_jana_atom_site_adp_c_112
_jana_atom_site_adp_c_113
_jana_atom_site_adp_c_122
_jana_atom_site_adp_c_123
_jana_atom_site_adp_c_133
_jana_atom_site_adp_c_222
_jana_atom_site_adp_c_223
_jana_atom_site_adp_c_233
_jana_atom_site_adp_c_333
? ? ? ? ? ? ? ? ? ? ? ?
loop_
_jana_atom_site_adp_d_label
_jana_atom_site_adp_d_type_symbol
_jana_atom_site_adp_d_1111
_jana_atom_site_adp_d_1112
_jana_atom_site_adp_d_1113
_jana_atom_site_adp_d_1122
_jana_atom_site_adp_d_1123
_jana_atom_site_adp_d_1133
_jana_atom_site_adp_d_1222
_jana_atom_site_adp_d_1223
_jana_atom_site_adp_d_1233
_jana_atom_site_adp_d_1333
_jana_atom_site_adp_d_2222
_jana_atom_site_adp_d_2223
_jana_atom_site_adp_d_2233
_jana_atom_site_adp_d_2333
_jana_atom_site_adp_d_3333
? ? ? ? ? ? ? ? ? ? ? ? ? ? ? ? ?
loop_
_jana_atom_site_adp_e_label
_jana_atom_site_adp_e_type_symbol
_jana_atom_site_adp_e_11111
_jana_atom_site_adp_e_11112
_jana_atom_site_adp_e_11113
_jana_atom_site_adp_e_11122
_jana_atom_site_adp_e_11123
_jana_atom_site_adp_e_11133
_jana_atom_site_adp_e_11222
_jana_atom_site_adp_e_11223
_jana_atom_site_adp_e_11233
_jana_atom_site_adp_e_11333
_jana_atom_site_adp_e_12222
_jana_atom_site_adp_e_12223
_jana_atom_site_adp_e_12233
_jana_atom_site_adp_e_12333
_jana_atom_site_adp_e_13333
_jana_atom_site_adp_e_22222
_jana_atom_site_adp_e_22223
_jana_atom_site_adp_e_22233
_jana_atom_site_adp_e_22333
_jana_atom_site_adp_e_23333
_jana_atom_site_adp_e_33333
? ? ? ? ? ? ? ? ? ? ? ? ? ? ? ? ? ? ? ? ? ? ?
loop_
_jana_atom_site_adp_f_label
_jana_atom_site_adp_f_type_symbol
_jana_atom_site_adp_f_111111
_jana_atom_site_adp_f_111112
_jana_atom_site_adp_f_111113
_jana_atom_site_adp_f_111122
_jana_atom_site_adp_f_111123
_jana_atom_site_adp_f_111133
_jana_atom_site_adp_f_111222
_jana_atom_site_adp_f_111223
_jana_atom_site_adp_f_111233
_jana_atom_site_adp_f_111333
_jana_atom_site_adp_f_112222
_jana_atom_site_adp_f_112223
_jana_atom_site_adp_f_112233
_jana_atom_site_adp_f_112333
_jana_atom_site_adp_f_113333
_jana_atom_site_adp_f_122222
_jana_atom_site_adp_f_122223
_jana_atom_site_adp_f_122233
_jana_atom_site_adp_f_122333
_jana_atom_site_adp_f_123333
_jana_atom_site_adp_f_133333
_jana_atom_site_adp_f_222222
_jana_atom_site_adp_f_222223
_jana_atom_site_adp_f_222233
_jana_atom_site_adp_f_222333
_jana_atom_site_adp_f_223333
_jana_atom_site_adp_f_233333
_jana_atom_site_adp_f_333333
? ? ? ? ? ? ? ? ? ? ? ? ? ? ? ? ? ? ? ? ? ? ? ? ? ? ? ? ? ?
