#------------------------------------------------------------------------------
#$Date: 2021-01-07 08:10:53 +0200 (Thu, 07 Jan 2021) $
#$Revision: 260730 $
#$URL: file:///home/coder/svn-repositories/cod/cif/7/70/53/7705347.cif $
#------------------------------------------------------------------------------
#
# This file is available in the Crystallography Open Database (COD),
# http://www.crystallography.net/
#
# All data on this site have been placed in the public domain by the
# contributors.
#
data_7705347
loop_
_publ_author_name
'Ishijima, Kosuke'
'Tanaka, Susumu'
'Imoto, Hiroaki'
'Naka, Kensuke'
_publ_section_title
;
 2-Arylbenzo[<i>b</i>]arsoles: an experimental and computational study on
 the relationship between structural and photophysical properties.
;
_journal_issue                   44
_journal_name_full
'Dalton transactions (Cambridge, England : 2003)'
_journal_page_first              15612
_journal_page_last               15621
_journal_paper_doi               10.1039/d0dt02669g
_journal_volume                  49
_journal_year                    2020
_chemical_absolute_configuration 'CHOOSE rm ad rmad syn or unk'
_chemical_formula_moiety         'C21 H17 As O'
_chemical_formula_sum            'C21 H17 As O'
_chemical_formula_weight         360.29
_space_group_crystal_system      monoclinic
_space_group_IT_number           4
_space_group_name_Hall           'P 2yb'
_space_group_name_H-M_alt        'P 1 21 1'
_atom_sites_solution_hydrogens   geom
_atom_sites_solution_primary     direct
_atom_sites_solution_secondary   difmap
_audit_update_record
;
2020-05-24 deposited with the CCDC.	2020-09-03 downloaded from the CCDC.
;
_cell_angle_alpha                90.0000
_cell_angle_beta                 114.742(12)
_cell_angle_gamma                90.0000
_cell_formula_units_Z            2
_cell_length_a                   12.064(15)
_cell_length_b                   6.135(7)
_cell_length_c                   12.744(16)
_cell_measurement_reflns_used    2508
_cell_measurement_temperature    273
_cell_measurement_theta_max      27.49
_cell_measurement_theta_min      3.22
_cell_volume                     856.6(18)
_computing_cell_refinement       DTREK
_computing_data_collection       DTREK
_computing_data_reduction        DTREK
_computing_molecular_graphics    'CrystalStructure 4.1'
_computing_publication_material  'CrystalStructure 4.1 (Rigaku, 2014)'
_computing_structure_refinement  'SHELXL2013 (Sheldrick, 2008)'
_computing_structure_solution    'SIR2011 (Burla, et al., 2012)'
_diffrn_ambient_temperature      273
_diffrn_detector_area_resol_mean 13.653
_diffrn_measured_fraction_theta_full 0.967
_diffrn_measured_fraction_theta_max 0.971
_diffrn_measurement_device_type  'Rigaku XtaLAB mini'
_diffrn_measurement_method       \w
_diffrn_radiation_type           'Mo K\a'
_diffrn_radiation_wavelength     0.71075
_diffrn_reflns_av_R_equivalents  0.0288
_diffrn_reflns_Laue_measured_fraction_full 0.967
_diffrn_reflns_Laue_measured_fraction_max 0.971
_diffrn_reflns_limit_h_max       15
_diffrn_reflns_limit_h_min       -15
_diffrn_reflns_limit_k_max       7
_diffrn_reflns_limit_k_min       -7
_diffrn_reflns_limit_l_max       16
_diffrn_reflns_limit_l_min       -16
_diffrn_reflns_number            8757
_diffrn_reflns_point_group_measured_fraction_full 0.967
_diffrn_reflns_point_group_measured_fraction_max 0.969
_diffrn_reflns_theta_full        25.242
_diffrn_reflns_theta_max         27.493
_diffrn_reflns_theta_min         3.049
_diffrn_standards_number         0
_exptl_absorpt_coefficient_mu    1.986
_exptl_absorpt_correction_T_max  0.713
_exptl_absorpt_correction_T_min  0.621
_exptl_absorpt_correction_type   multi-scan
_exptl_absorpt_process_details   'REQAB (Rigaku, 1998)'
_exptl_crystal_colour            colorless
_exptl_crystal_density_diffrn    1.397
_exptl_crystal_density_method    'not measured'
_exptl_crystal_description       block
_exptl_crystal_F_000             368.00
_exptl_crystal_size_max          0.280
_exptl_crystal_size_mid          0.210
_exptl_crystal_size_min          0.170
_refine_diff_density_max         0.56
_refine_diff_density_min         -0.23
_refine_ls_abs_structure_details
;
 Flack x determined using 1325 quotients [(I+)-(I-)]/[(I+)+(I-)]
 (Parsons and Flack (2004), Acta Cryst. A60, s61).
;
_refine_ls_abs_structure_Flack   -0.001(8)
_refine_ls_extinction_method     none
_refine_ls_goodness_of_fit_ref   1.015
_refine_ls_hydrogen_treatment    constr
_refine_ls_number_parameters     208
_refine_ls_number_reflns         3799
_refine_ls_number_restraints     1
_refine_ls_R_factor_all          0.0385
_refine_ls_R_factor_gt           0.0314
_refine_ls_shift/su_max          0.000
_refine_ls_structure_factor_coef Fsqd
_refine_ls_weighting_details
'w = 1/[\s^2^(Fo^2^)+(0.0262P)^2^+0.0000P] where P=(Fo^2^+2Fc^2^)/3'
_refine_ls_weighting_scheme      calc
_refine_ls_wR_factor_gt          0.0647
_refine_ls_wR_factor_ref         0.0680
_reflns_number_gt                3326
_reflns_number_total             3799
_reflns_threshold_expression     F^2^>2.0\s(F^2^)
_cod_data_source_file            d0dt02669g2.cif
_cod_data_source_block           5a
_cod_depositor_comments
'Adding full bibliography for 7705347--7705349.cif.'
_cod_database_code               7705347
_shelxl_res_file
;

    shelxl.res created by SHELXL-2014/7

TITL Ars_Ph-OMe_H(KI-118)_2
CELL  0.71075 12.06360 6.13540 12.74370 90.00000 114.74160 90.00000
ZERR  2 0.01505 0.00718 0.01582 0.00000 0.01240 0.00000
LATT -1
SYMM    -X, .50+Y,    -Z
SFAC C H AS O
UNIT 42 34 2 2
L.S. 5
FMAP 2
PLAN -25
WPDB -2
HTAB
BOND $H
CONF
LIST 4
TEMP 0.0
ACTA
SIZE 0.170 0.280 0.210
WGHT    0.026200
FVAR       2.57284
AS1   3    0.215501    0.640340    0.800514    11.00000    0.05804    0.03780 =
         0.05738    0.00032    0.02918   -0.00026
O19   4    0.484642    0.320760    1.368782    11.00000    0.09818    0.07027 =
         0.05277    0.00435    0.03469    0.01074
C1    1    0.062498    0.576172    0.814931    11.00000    0.05371    0.05502 =
         0.04210    0.01094    0.02116    0.01676
C2    1    0.461238    0.155761    1.186782    11.00000    0.05736    0.04754 =
         0.06113    0.00775    0.03167    0.01045
AFIX  43
H2    2    0.501100    0.028969    1.223188    11.00000   -1.20000
AFIX   0
C3    1    0.307321    0.383784    0.882415    11.00000    0.04074    0.03972 =
         0.05401   -0.00273    0.02346   -0.00563
C4    1    0.129573    0.420325    0.457178    11.00000    0.06873    0.08440 =
         0.05555   -0.00078    0.02278    0.00267
AFIX  43
H4    2    0.087476    0.463550    0.380644    11.00000   -1.20000
AFIX   0
C5    1    0.190865    0.484195    0.659432    11.00000    0.05254    0.04691 =
         0.05889    0.00062    0.03033   -0.00299
C6    1    0.357863    0.364372    1.010133    11.00000    0.03595    0.04257 =
         0.05408   -0.00121    0.02288   -0.00329
C7    1    0.256109    0.287607    0.685333    11.00000    0.05119    0.04599 =
         0.05662   -0.00567    0.02724   -0.00556
C8    1    0.416657    0.174475    1.067480    11.00000    0.05396    0.04991 =
         0.05796   -0.00110    0.02967    0.00605
AFIX  43
H8    2    0.426042    0.058595    1.024852    11.00000   -1.20000
AFIX   0
C9    1    0.127379    0.551035    0.544353    11.00000    0.06627    0.06196 =
         0.05540    0.00504    0.02732    0.00419
AFIX  43
H9    2    0.084373    0.681718    0.527023    11.00000   -1.20000
AFIX   0
C10   1    0.257208    0.160411    0.595104    11.00000    0.06584    0.05637 =
         0.06188   -0.00913    0.02791    0.00072
AFIX  43
H10   2    0.301051    0.030651    0.611037    11.00000   -1.20000
AFIX   0
C11   1    0.446700    0.323926    1.251343    11.00000    0.04715    0.05626 =
         0.05105   -0.00119    0.02258   -0.00219
C12   1    0.347012    0.534131    1.077976    11.00000    0.05910    0.04056 =
         0.05678   -0.00339    0.02002    0.00448
AFIX  43
H12   2    0.309767    0.663393    1.042547    11.00000   -1.20000
AFIX   0
C13   1    0.318135    0.237911    0.808057    11.00000    0.04389    0.04444 =
         0.05685   -0.00110    0.02312    0.00022
AFIX  43
H13   2    0.363371    0.110772    0.834127    11.00000   -1.20000
AFIX   0
C14   1    0.390217    0.515060    1.196514    11.00000    0.06783    0.05189 =
         0.05504   -0.00816    0.02756    0.00395
AFIX  43
H14   2    0.381460    0.630518    1.239726    11.00000   -1.20000
AFIX   0
C15   1    0.002580    0.378079    0.782446    11.00000    0.06244    0.06018 =
         0.08678   -0.00143    0.04253   -0.00008
AFIX  43
H15   2    0.033881    0.270810    0.750865    11.00000   -1.20000
AFIX   0
C16   1    0.530801    0.122682    1.427266    11.00000    0.15232    0.08816 =
         0.06380    0.02347    0.04971    0.02768
AFIX  33
H16A  2    0.554005    0.142360    1.508480    11.00000   -1.20000
H16B  2    0.469005    0.012158    1.398234    11.00000   -1.20000
H16C  2    0.600767    0.078903    1.414832    11.00000   -1.20000
AFIX   0
C17   1    0.016504    0.732543    0.863316    11.00000    0.07472    0.06751 =
         0.06945    0.00235    0.03439    0.01981
AFIX  43
H17   2    0.056566    0.865220    0.886884    11.00000   -1.20000
AFIX   0
C18   1   -0.091441    0.690703    0.876955    11.00000    0.08791    0.10807 =
         0.08960    0.01278    0.05702    0.04555
AFIX  43
H18   2   -0.123529    0.796748    0.908491    11.00000   -1.20000
AFIX   0
C20   1   -0.103694    0.337960    0.796527    11.00000    0.06132    0.08768 =
         0.11014    0.01342    0.04533    0.00025
AFIX  43
H20   2   -0.143458    0.204860    0.773658    11.00000   -1.20000
AFIX   0
C21   1   -0.149736    0.492253    0.843533    11.00000    0.06651    0.11214 =
         0.10369    0.03114    0.05552    0.02078
AFIX  43
H21   2   -0.220633    0.464320    0.853253    11.00000   -1.20000
AFIX   0
C22   1    0.193020    0.227276    0.481760    11.00000    0.07370    0.08550 =
         0.06050   -0.02292    0.02787   -0.00768
AFIX  43
H22   2    0.192881    0.140728    0.421793    11.00000   -1.20000
AFIX   0
HKLF 4
 
REM  Ars_Ph-OMe_H(KI-118)_2
REM R1 =  0.0314 for    3326 Fo > 4sig(Fo)  and  0.0385 for all    3799 data
REM    208 parameters refined using      1 restraints
 
END  
     
WGHT      0.0262      0.0000 

REM No hydrogen bonds found for HTAB generation

REM Highest difference peak  0.560,  deepest hole -0.231,  1-sigma level  0.039
Q1    1   0.6480  0.1402  1.3958  11.00000  0.05    0.56
Q2    1   0.1152  0.5886  0.8272  11.00000  0.05    0.16
Q3    1   0.7816  0.0486  0.6674  11.00000  0.05    0.15
Q4    1   0.2598  0.4053  0.5165  11.00000  0.05    0.15
Q5    1   0.4354 -0.0414  1.2666  11.00000  0.05    0.14
Q6    1   0.3248  0.3733  0.9408  11.00000  0.05    0.14
Q7    1   0.1140  0.6882  0.8256  11.00000  0.05    0.14
Q8    1   0.2200  0.6404  0.8611  11.00000  0.05    0.14
Q9    1   0.1647  0.2854  0.9234  11.00000  0.05    0.14
Q10   1  -0.0147  0.6576  0.4605  11.00000  0.05    0.13
Q11   1   0.2807  0.4738  0.8584  11.00000  0.05    0.13
Q12   1   0.0372  0.7799  0.7816  11.00000  0.05    0.13
Q13   1   0.2351  0.4619  0.8221  11.00000  0.05    0.13
Q14   1  -0.0242  0.3264  0.3328  11.00000  0.05    0.12
Q15   1  -0.1207  0.8456  0.8605  11.00000  0.05    0.12
Q16   1   0.1669  0.8397  0.7394  11.00000  0.05    0.12
Q17   1   0.0548  0.6698  0.8460  11.00000  0.05    0.12
Q18   1   0.1830  0.5439  0.7035  11.00000  0.05    0.12
Q19   1   0.0767  0.3562  0.5979  11.00000  0.05    0.12
Q20   1   0.4600  0.1595  1.1373  11.00000  0.05    0.12
Q21   1   0.1204  0.3767  0.7124  11.00000  0.05    0.12
Q22   1   0.1549  0.5152  0.5066  11.00000  0.05    0.12
Q23   1   0.0602  0.0744  0.7619  11.00000  0.05    0.12
Q24   1   0.5125  0.6447  1.2096  11.00000  0.05    0.12
Q25   1   0.2756  0.2880  0.8288  11.00000  0.05    0.12
;
_shelxl_hkl_file
;
   0   0  -223235.94  385.34
   0   0   224207.26  400.01
   0   0  -223235.21  388.81
   0   0  -222771.27  378.91
   0   0   528484.42  616.38
   0   0  -526860.19  470.57
   0   0  -527464.43  597.43
   0   0   6 2527.03  110.25
   0   0  -6 2602.72  109.37
   0   0  -6 2583.78  104.81
   0   0   7 7001.72  236.35
   0   0  -7 7262.02  199.49
   0   0  -7 7006.17  184.93
   0   0   8 4493.66  168.75
   0   0  -8 4755.25  163.47
   0   0  -8 4641.03  151.33
   0   0   9  725.93  117.89
   0   0  -9  666.50   54.88
   0   0  -9  703.95   56.28
   0   0  10 2360.67  263.64
   0   0 -10 2268.84  124.77
   0   0 -10 2311.25  119.14
   0   0  11  493.97  115.41
   0   0 -11  489.98   65.33
   0   0 -11  470.06   50.16
   0   0  12  422.59   82.91
   0   0 -12  501.31   63.55
   0   0 -12  518.05   54.58
   0   0 -13  345.99   53.28
   0   0  14    2.97   18.60
   0   0 -14   11.18   20.51
   0   0  15  241.46   57.63
   0   1   0    8.30    6.67
   0  -1   0   18.71    3.47
   0  -1   0   18.01   10.64
   0   1   142636.16  894.73
   0   1  -143022.43  905.58
   0   1   143957.44  920.14
   0   1  -145481.58  953.44
   0  -1   147590.93 1002.65
   0  -1  -145185.98  950.68
   0   1   420405.13  346.75
   0   1  -419829.32  345.45
   0   1  -420272.75  357.93
   0   1  -420098.08  348.59
   0  -1  -420589.64  378.81
   0  -1  -421598.71  376.77
   0   1  -5 1021.70   53.06
   0   1   5 1073.23   53.85
   0   1  -5 1040.34   51.75
   0  -1   5 1028.10   57.94
   0  -1  -5 1018.02   53.84
   0  -1  -5 1047.61   58.26
   0   1  -6 3216.22  103.78
   0   1   6 3223.80   91.44
   0   1  -6 3081.40   92.39
   0  -1   6 3170.77  122.39
   0  -1  -6 3014.47   98.84
   0  -1  -6 3113.97   98.55
   0   1  -7 3391.94  114.52
   0   1   7 3351.27  117.04
   0   1  -7 3404.08  107.64
   0  -1   7 3796.62  127.59
   0  -1  -7 3973.80  128.92
   0  -1  -7 3927.09  127.70
   0   1  -8 1411.67   75.02
   0   1   8 1293.83   66.19
   0   1  -8 1294.88   61.16
   0  -1   8 1489.13   81.45
   0  -1  -8 1434.56   78.61
   0  -1  -8 1381.32   77.46
   0   1  -9 1007.41   69.12
   0   1   9 1039.42  118.89
   0  -1   9 1685.63  160.26
   0   1 -10  255.04   32.38
   0   1  10  264.10   60.56
   0   1 -10  245.45   42.88
   0  -1 -10  233.65   42.04
   0  -1  10  291.44   51.99
   0   1 -11  606.19   55.92
   0   1  11  472.33   97.68
   0   1 -11  589.91   66.34
   0  -1 -11  610.61   62.18
   0  -1  11  590.95   93.72
   0   1 -12  345.43   89.70
   0   1  12  345.86   82.19
   0   1 -12  372.37   91.20
   0  -1 -12  388.84   52.95
   0  -1  12  342.61   64.88
   0   1  13  143.61   32.76
   0   1 -13  205.60   52.67
   0   1 -13  103.32   32.52
   0  -1 -13  169.43   50.77
   0   1  14  277.11   53.71
   0   1 -14  184.44   64.35
   0  -1 -14  283.27   51.98
   0   2   320080.79  352.28
   0   2   320453.67  364.63
   0   2  -320225.87  361.37
   0  -2   320610.96  368.64
   0  -2  -319491.19  352.10
   0   2   4  298.20   27.55
   0   2  -4  323.90   86.12
   0   2   4  312.63   69.61
   0   2  -4  261.57   29.08
   0   2  -4  252.90   22.39
   0  -2  -4  234.34   62.85
   0   2   5 9384.10  225.34
   0   2  -5 9277.72  231.70
   0   2   5 8996.86  229.21
   0   2  -5 9191.76  228.74
   0   2  -5 9069.05  216.38
   0  -2  -5 9572.78  241.80
   0   2   6  238.18   51.49
   0   2  -6  214.51   27.69
   0   2   6  239.93   54.66
   0   2  -6  169.18   27.27
   0   2  -6  197.00   27.63
   0  -2  -6  227.09   62.41
   0   2   7 2321.63   97.10
   0   2   7 2393.20   82.69
   0   2  -7 2320.96   95.77
   0   2  -7 2043.39   84.48
   0  -2   7 2481.24  101.38
   0  -2  -7 2432.16  107.91
   0   2   8 6194.26  248.70
   0   2   8 6120.14  227.35
   0   2  -8 6067.37  233.75
   0   2  -8 5902.80  218.73
   0  -2   8 6868.20  267.20
   0  -2  -8 6748.09  260.11
   0   2   9   82.34   21.82
   0   2   9   56.01   13.68
   0   2  -9   42.24   25.47
   0   2  -9   50.09   24.28
   0  -2   9   90.45   21.05
   0  -2  -9  105.75   45.39
   0   2  10 1913.41  115.01
   0   2  10 1913.46   80.04
   0   2 -10 1983.62  102.42
   0   2 -10 1832.56   85.00
   0  -2  10 1783.66  249.29
   0  -2 -10 1800.24  133.71
   0   2 -11  114.08   32.35
   0   2  11   51.33   18.19
   0   2 -11  149.72   46.17
   0  -2 -11  110.10   39.21
   0  -2  11  107.29   37.08
   0   2 -12  139.85   29.76
   0   2  12  211.40   40.81
   0   2 -12  198.24   47.68
   0  -2 -12  172.32   44.80
   0  -2  12  165.33   43.62
   0   2 -13  323.23   94.79
   0   2  13  313.11   54.93
   0  -2  13  335.21   97.85
   0  -2 -13  407.02   69.08
   0   2  14  -14.23   32.66
   0  -2 -14   40.78   31.91
   0   3   0   -4.10   11.47
   0   3   0   10.44    8.99
   0  -3   0  -15.51   23.63
   0   3   112762.42  243.76
   0   3  -111602.56  235.16
   0   3   112838.76  232.69
   0   3  -112028.15  218.00
   0  -3   112089.04  238.75
   0  -3  -112232.35  247.14
   0   3   215430.83  293.16
   0   3  -215280.78  290.83
   0   3   215537.14  289.78
   0   3  -215122.43  276.62
   0  -3  -213830.18  278.33
   0   3   3 3273.57   96.07
   0   3  -3 3439.49  109.48
   0   3   3 3362.29   96.67
   0   3  -3 3160.67  102.31
   0  -3   3 3575.19  104.29
   0  -3  -3 3578.71  124.03
   0   3   410348.37  272.04
   0   3  -410266.72  266.44
   0   3   410402.45  251.98
   0   3  -410122.86  249.55
   0  -3   410908.94  272.82
   0  -3  -411050.13  280.69
   0   3   5  277.91   71.59
   0   3  -5  343.27   83.19
   0   3   5  305.55   59.91
   0   3  -5  298.41   60.53
   0  -3   5  292.86   65.87
   0  -3  -5  370.35   84.74
   0   3   6 3498.93  112.25
   0   3  -6 3568.71  136.57
   0   3   6 3362.80  156.74
   0   3  -6 3393.35  122.86
   0  -3   6 3568.39  123.83
   0  -3  -6 3679.24  140.90
   0   3   7 3507.28  139.81
   0   3  -7 3240.55  187.56
   0   3   7 3177.95  154.17
   0   3  -7 3350.55  258.36
   0  -3   7 3582.94  150.36
   0  -3  -7 3614.81  179.15
   0   3   8 1364.93   73.22
   0   3   8 1400.69  121.97
   0   3  -8 1343.28   90.21
   0   3  -8 1264.70   75.33
   0  -3  -8 1119.84  157.21
   0   3   9 4077.03  184.13
   0   3   9 4406.76  160.93
   0   3  -9 4284.76  173.84
   0   3  -9 4499.06  159.20
   0  -3   9 4792.88  179.91
   0  -3  -9 4532.44  177.94
   0   3 -10    2.20   21.19
   0   3  10    2.16   16.52
   0   3 -10  -19.03   27.97
   0  -3 -10   -3.24   37.45
   0  -3  10   23.84   16.13
   0   3 -11  734.74   52.90
   0   3  11  701.91  141.17
   0   3 -11  739.60  139.68
   0  -3 -11  831.80   75.91
   0  -3  11  750.36  142.61
   0   3 -12  146.03   43.98
   0   3  12  137.78   37.48
   0  -3  12  202.49   46.32
   0  -3 -12  263.60   72.09
   0   3 -13  208.73   64.16
   0   3  13  150.71   40.15
   0  -3  13  126.10   44.03
   0  -3 -13  157.32   52.13
   0   4   0 7173.83  203.14
   0   4   0 6606.77  169.65
   0  -4   0 7031.10  228.37
   0   4   1 1027.43   60.62
   0   4  -1 1060.92   71.78
   0   4   1 1036.85   49.01
   0   4  -1 1061.56   43.11
   0  -4   1 1130.42   68.27
   0  -4  -1  968.77  108.95
   0   4   2 1884.91   76.21
   0   4  -2 1934.96   86.78
   0   4   2 1878.31   64.16
   0   4  -2 1899.57   68.18
   0  -4   2 2231.58   84.60
   0  -4  -2 2198.82   93.45
   0   4   3 4432.02  158.91
   0   4  -3 4529.71  161.34
   0   4   3 4518.74  152.42
   0   4  -3 4421.26  137.38
   0  -4   3 3925.23  185.37
   0  -4  -3 3984.51  183.28
   0   4   4  572.11   58.80
   0   4  -4  666.05  153.70
   0   4   4  535.52   45.35
   0   4  -4  594.79   49.93
   0  -4   4  616.85   96.11
   0  -4  -4  728.44  155.14
   0   4   5 5832.39  223.84
   0   4  -5 5975.85  243.38
   0   4   5 5554.48  235.38
   0   4  -5 5819.97  216.78
   0  -4   5 5842.79  273.35
   0  -4  -5 6137.88  244.08
   0   4   6   71.87   19.09
   0   4  -6  112.73   27.74
   0   4   6   65.66   15.57
   0   4  -6   79.90   19.59
   0  -4   6   48.06   14.31
   0  -4  -6  113.40   67.05
   0   4   7  567.49  131.04
   0   4  -7  756.01   68.50
   0   4   7  611.04  122.01
   0   4  -7  587.55  109.94
   0  -4   7  699.70  127.65
   0  -4  -7  652.89   93.00
   0   4   8  605.35   99.10
   0   4  -8  750.38  145.86
   0   4   8  601.14   78.93
   0   4  -8  655.67   57.15
   0  -4   8  519.26  107.57
   0  -4  -8  648.06  131.31
   0   4   9  130.86   28.17
   0   4   9  118.55   23.29
   0   4  -9  110.45   29.43
   0  -4   9  114.73   23.73
   0  -4  -9  156.71   51.31
   0   4 -10  889.72   67.42
   0   4  10  790.15  203.67
   0  -4  10  863.39  160.99
   0  -4  10  617.86  167.06
   0  -4 -10  855.73   81.36
   0   4 -11   47.35   37.64
   0   4  11   31.42   19.18
   0  -4  11  106.52   34.81
   0  -4 -11   84.38   42.65
   0   4 -12  174.06   44.45
   0   4  12  155.09   51.68
   0  -4  12  153.30   43.82
   0  -4 -12  169.66   63.60
   0   5   0   -9.86   28.93
   0   5   0    0.73    5.74
   0  -5   0   31.25   19.86
   0   5   1 5223.54  270.28
   0   5  -1 5029.14  265.04
   0   5   1 4886.73  231.28
   0   5  -1 4950.89  232.61
   0  -5   1 5276.34  265.12
   0  -5  -1 4983.88  279.19
   0   5   2 1703.43  105.91
   0   5  -2 1699.58  129.81
   0   5   2 1685.36   88.42
   0   5  -2 1706.11   89.26
   0  -5   2 1822.56  109.21
   0  -5  -2 1810.82  124.93
   0   5   3 1401.62   91.04
   0   5  -3 1429.73  251.05
   0   5   3 1345.98   82.20
   0   5  -3 1370.31   70.48
   0  -5   3 1380.35   87.35
   0  -5  -3 1350.78   94.71
   0   5   4 1727.08  110.33
   0   5  -4 1824.03  101.75
   0   5   4 1701.56  157.44
   0   5  -4 1723.97   78.26
   0  -5   4 2172.12  109.60
   0  -5  -4 2065.31  106.05
   0   5   5   24.16   15.35
   0   5  -5   13.89   25.14
   0   5   5   12.86    6.53
   0   5  -5    3.95   21.29
   0  -5   5   25.01   11.93
   0  -5  -5   22.00   45.57
   0   5   6 2904.10  177.13
   0   5  -6 2945.26  138.14
   0   5   6 2773.39  114.03
   0   5  -6 2840.17  105.58
   0  -5   6 3090.07  107.93
   0  -5  -6 3123.56  123.47
   0   5   7  634.94  111.59
   0   5  -7  755.53  134.25
   0   5   7  632.45   93.74
   0   5  -7  575.91  113.93
   0  -5   7  483.04   94.71
   0  -5  -7  596.96  125.76
   0   5   8  208.98   48.23
   0   5  -8  244.79   40.04
   0   5   8  216.53   58.84
   0   5  -8  251.00   66.47
   0  -5   8  248.34   47.47
   0  -5  -8  248.11   74.45
   0   5  -9  821.65  170.04
   0   5   9  752.90  186.34
   0   5  -9  835.47  205.50
   0  -5   9  778.59  145.21
   0  -5  -9  903.61  225.74
   0   5 -10   71.72   36.93
   0   5  10   29.87   18.20
   0  -5  10    9.27   31.62
   0  -5 -10   26.12   42.80
   0   5 -11   81.80   27.09
   0   5  11  136.56   39.63
   0  -5  11  165.68   51.39
   0  -5 -11  107.29   61.89
   0   6   0 2259.16   98.94
   0  -6   0 1721.35  228.73
   0   6   1  123.44   31.00
   0   6  -1  159.86   41.14
   0  -6  -1   94.05   23.97
   0  -6   1   68.23   20.56
   0   6   2 1856.04  283.51
   0   6  -2 1929.05  100.62
   0  -6   2 1920.06  282.46
   0  -6  -2 1918.46   95.10
   0   6   3  305.66   56.09
   0   6  -3  326.82   58.64
   0  -6   3  320.93   53.79
   0  -6  -3  311.84   90.96
   0   6   4   43.01   27.16
   0   6  -4  121.61   26.85
   0  -6   4    9.34   24.44
   0  -6  -4   79.82   42.32
   0   6   5 1446.03   82.03
   0   6  -5 1273.07  275.29
   0  -6   5 1165.92  269.86
   0  -6  -5 1389.60  108.33
   0   6   6   82.70   21.04
   0   6  -6   80.42   25.34
   0  -6   6  101.27   22.08
   0  -6  -6   87.19   42.16
   0   6   7  430.46  106.44
   0   6  -7  557.93  134.41
   0  -6   7  450.21   88.14
   0  -6  -7  494.81  137.60
   0   6  -8  383.28   69.50
   0  -6  -8  391.36   74.18
   0   6  -9  -21.99   34.68
   0  -6  -9   18.47   29.53
   0   7   0   22.18   29.61
   0  -7   0   -7.36   33.10
   0   7   1  760.14  160.74
   0   7  -1  852.26  143.50
   0  -7   1  675.44  127.93
   0  -7  -1  655.27  159.05
   0   7   2  365.16   70.42
   0   7  -2  403.64   63.78
   0  -7   2  322.66   55.51
   0  -7  -2  462.84  102.54
   0   7   3  252.48   58.94
   0   7  -3  225.32   59.15
   0  -7   3  180.29   65.25
   0  -7  -3  268.16   75.23
   0   7   4  534.76  159.67
   0   7  -4  588.52   80.83
   0  -7   4  514.21  118.66
   0  -7  -4  596.35  186.31
   0   7   5   -5.63   25.09
   0   7  -5   -4.37   39.12
   0  -7   5   -2.25   28.95
   0  -7  -5  -28.98   52.06
   0   7   6  313.80   90.90
   0   7  -6  460.03  110.28
   0  -7   6  317.07   75.77
   0  -7  -6  488.70  122.68
   0   7  -7   32.58   36.79
   0  -7  -7  155.60   39.79
   1   0 -15  128.38   52.64
   1   0 -14  322.02   61.19
  -1   0  13   44.55   23.30
   1   0 -13  111.48   48.80
   1   0 -13   66.43   27.96
  -1   0  12 1097.92  123.65
   1   0 -12 1221.61   79.78
   1   0 -12 1233.19   69.24
  -1   0  11 1748.78  216.38
   1   0 -11 1815.63  247.92
   1   0 -11 1741.03   85.14
  -1   0  10  129.19   35.68
   1   0 -10  158.42   37.81
   1   0 -10  104.61   26.39
  -1   0   9 8092.68  395.54
   1   0  -9 7891.77  311.34
   1   0  -9 7935.87  284.96
  -1   0   8  571.06  125.03
   1   0  -8  399.81   44.84
   1   0  -8  412.70   38.01
  -1   0   7 1545.35  172.09
   1   0  -7 1366.75   63.94
   1   0  -7 1487.58   59.46
  -1   0   6 1420.06   74.21
   1   0  -6 1336.50   66.01
   1   0  -6 1365.53   62.49
  -1   0   5  991.07   53.16
   1   0  -5  994.25   52.98
   1   0  -5 1025.19   47.60
  -1   0   2 1094.33   63.24
   1   0  -2 1102.45   42.50
  -1   0   2 1088.47   37.69
   1   0  -2 1090.54   37.62
   1   0   124518.92  397.81
   1   0   123796.42  393.74
  -1   0  -124402.26  406.19
   1   0   4 9735.90  184.40
  -1   0  -4 9295.76  180.70
  -1   0  -4 9426.42  185.36
   1   0   5 3192.40  138.53
  -1   0  -5 3039.79  117.41
  -1   0  -5 3113.98  118.82
   1   0   610272.58  261.60
  -1   0  -6 9614.67  244.26
  -1   0  -6 9902.26  246.54
   1   0   7 2091.97  178.42
  -1   0  -7 1959.47   81.09
  -1   0  -7 2004.94   85.72
   1   0   8 1575.86  149.54
  -1   0  -8 1527.43   86.05
  -1   0  -8 1498.61   79.02
   1   0   9 1521.22  177.88
  -1   0  -9 1653.11  105.63
  -1   0  -9 1693.61  108.20
   1   0  10  173.94   41.20
  -1   0 -10  133.93   36.51
  -1   0 -11  565.64   57.68
   1   0  12   64.16   25.98
  -1   0 -12   -1.70   23.75
   1   0  13   59.57   30.08
  -1   0 -13   42.62   28.65
   1   0  14  338.96   95.72
  -1   0 -14  257.31   57.31
  -1   1  15  133.74   42.01
   1   1 -15   83.85   36.62
  -1   1  14   27.19   15.86
   1   1 -14   38.51   18.62
   1  -1 -14   -9.15   23.18
   1   1 -13  363.08   83.34
   1   1 -13  315.67   39.22
  -1  -1  13  295.06   72.92
   1  -1 -13  343.36   50.58
   1   1 -12  424.10   47.35
  -1   1  12  396.16   82.70
   1   1 -12  351.52   87.54
  -1  -1  12  467.86   67.18
   1  -1 -12  479.90   58.96
   1  -1 -12  399.11   56.20
   1   1 -11 1143.02   72.17
  -1   1  11 1208.55  129.03
   1   1 -11 1202.50   63.17
  -1  -1  11 1201.34  177.37
   1  -1 -11 1249.23   75.32
   1  -1 -11 1350.07   87.72
   1   1 -10 1233.11   89.81
  -1   1  10 1073.31  112.30
   1   1 -10 1198.50   69.58
  -1  -1  10 1321.36  120.60
   1  -1 -10 1170.22   81.29
   1  -1 -10 1065.26   76.78
   1   1  -9  653.06   56.47
  -1   1   9  682.43   74.87
   1   1  -9  671.44   48.93
  -1  -1   9  831.28  140.43
   1  -1  -9  725.86   61.15
   1  -1  -9  676.51   52.72
   1   1  -8 5799.20  181.54
  -1   1   8 5806.60  161.04
   1   1  -8 5639.52  153.51
  -1  -1   8 6772.47  218.39
   1  -1  -8 6527.33  184.81
   1  -1  -8 6334.04  239.79
   1   1  -7 2175.77   86.38
  -1   1   7 2211.48   77.76
   1   1  -7 2231.56   74.01
  -1  -1   7 2284.84  102.95
   1  -1  -7 2487.25   92.42
   1  -1  -7 2439.84   89.01
   1  -1  -6 5594.11  133.96
   1   1  -5 5067.94  178.28
  -1   1   5 5197.27  178.56
   1   1  -5 4930.73  174.43
  -1  -1   5 4501.81  166.32
   1  -1  -5 4477.54  158.14
   1  -1  -5 4697.00  165.07
   1   1   4 7036.29  127.34
  -1   1  -4 6773.67  137.50
   1   1   4 6770.01  143.46
  -1   1  -4 6848.01  142.46
  -1   1  -4 6629.89  138.96
  -1  -1  -4 6842.20  149.40
   1   1   513700.46  237.71
   1   1   514821.40  297.73
  -1   1  -515139.84  284.97
  -1   1  -514567.93  275.78
  -1  -1  -514331.97  284.04
   1   1   6 2167.29   99.61
   1   1   6 2198.68   64.95
  -1   1  -6 2045.39   81.88
  -1   1  -6 2050.19   76.11
   1  -1   6 2081.79   74.46
  -1  -1  -6 1952.61   79.60
   1   1   7 6178.98  211.69
   1   1   7 6405.56  162.33
  -1   1  -7 6545.80  188.37
  -1   1  -7 6089.45  172.75
   1  -1   7 6560.04  201.21
  -1  -1  -7 6487.94  188.85
   1   1   8 1701.52   98.97
   1   1   8 1753.04   76.71
  -1   1  -8 1688.37   92.60
  -1   1  -8 1682.36   88.52
   1  -1   8 1841.33  157.74
  -1  -1  -8 1773.95  100.51
   1   1   9  963.26  168.50
   1   1   9  891.26  103.96
  -1   1  -9  921.06  180.12
  -1   1  -9  863.45   73.01
   1  -1   9 1139.86  114.76
  -1  -1  -9 1035.17   82.06
  -1   1 -10  730.97   62.67
   1   1  10  830.98  113.95
  -1   1 -10  776.20   69.81
  -1  -1 -10  899.04   67.33
   1  -1  10  800.25  173.36
  -1   1 -11   33.74   21.75
   1   1  11   49.98   22.22
  -1   1 -11    6.79   36.44
  -1  -1 -11   43.10   24.53
   1  -1  11   99.88   25.99
   1   1  12  442.81   81.50
  -1   1 -12  482.62   65.37
  -1   1 -12  452.01   55.42
  -1  -1 -12  482.33   61.59
   1   1  13  187.52   48.14
  -1   1 -13  148.86   43.49
  -1  -1 -13  124.33   44.96
   1  -1  14  149.18   31.88
  -1  -1 -14   96.07   53.00
   1   2 -14  156.86   50.90
  -1   2  14   47.33   27.34
  -1  -2  14   76.63   24.60
   1  -2 -14   66.84   31.25
   1   2 -13   62.70   34.21
  -1   2  13   53.58   20.88
  -1  -2  13   29.69   22.35
   1  -2 -13   42.15   41.47
   1   2 -12  571.06   65.99
  -1   2  12  520.22   88.54
  -1  -2  12  534.00  100.76
   1  -2 -12  586.50   56.63
  -1   2  11  972.22   93.87
  -1   2  11  758.85  147.87
   1   2 -11  902.66   65.04
   1   2 -11  926.27   55.05
  -1  -2  11  805.81  130.88
   1  -2 -11  829.80  208.77
  -1   2  10  254.76   60.42
  -1   2  10  218.29   28.64
   1   2 -10  214.88   41.92
   1   2 -10  200.42   36.18
  -1  -2  10  210.52   46.49
   1  -2 -10  219.51   46.17
   1   2  -9 3372.50  172.71
  -1   2   9 3419.83  187.74
   1   2  -9 3766.63  202.70
   1  -2  -9 3039.82  162.72
  -1  -2   9 3107.30  205.95
   1   2  -8 2137.48   81.01
  -1   2   8 2178.01  120.28
   1   2  -8 2160.93   96.26
   1  -2  -8 2347.99  102.43
  -1  -2   8 2458.54  127.49
   1   2  -7 2687.96  165.60
  -1   2   7 2517.82   84.10
   1   2  -7 2427.91   78.98
  -1  -2   7 2708.50  105.15
   1  -2  -7 2627.66  107.76
   1  -2  -7 2594.38   92.41
   1   2  -6 5398.88  137.65
  -1   2   6 5627.49  158.05
   1   2  -6 5529.13  155.16
   1  -2  -6 4971.27  156.98
  -1  -2   6 5312.24  157.65
  -1   2   5  150.23   24.83
   1   2  -5  162.25   41.60
   1   2  -5  148.77   28.41
   1  -2  -5  154.34   30.82
  -1   2   421023.61  374.70
   1   2  -420229.63  364.95
  -1   2   420079.48  354.54
   1   2  -420067.82  362.16
  -1  -2   419607.75  353.82
   1  -2  -420124.24  364.35
  -1   2   3 7092.56  142.13
   1   2  -3 6605.54  153.29
  -1   2   3 6790.80  137.38
   1   2  -3 6940.42  140.42
  -1  -2   3 7098.83  136.41
   1  -2  -3 7025.28  165.41
  -1   2  -2 1976.36   90.52
  -1   2  -2 2053.76   79.53
   1   2   3 4609.26  159.85
  -1   2  -3 4659.36  174.87
   1   2   3 4715.14  164.62
  -1   2  -3 4762.74  163.16
  -1   2  -3 4800.11  168.41
   1   2   421023.58  370.60
  -1   2  -419297.64  367.74
   1   2   420427.31  399.31
  -1   2  -421204.31  384.57
  -1   2  -420661.63  373.71
  -1  -2  -420335.47  403.02
   1   2   5  711.55   35.65
  -1   2  -5  749.32   43.87
   1   2   5  761.83  130.69
  -1   2  -5  714.78   41.34
  -1   2  -5  687.69   41.23
  -1  -2  -5  824.11  119.78
   1   2   6 9360.57  229.30
  -1   2  -6 9258.07  247.12
   1   2   6 9224.39  259.73
  -1   2  -6 9306.47  242.00
  -1   2  -6 8708.22  241.65
  -1  -2  -6 9288.54  251.20
   1   2   7 2044.99   76.89
   1   2   7 2105.67  106.58
  -1   2  -7 1957.28   86.43
  -1   2  -7 1849.88   77.58
  -1  -2  -7 1946.02   98.45
   1   2   8   -6.84   11.09
   1   2   8   -5.23   28.04
  -1   2  -8   12.03   32.13
  -1   2  -8  -18.61   22.45
  -1  -2  -8   80.06   32.01
  -1   2  -9 1539.56   88.02
   1   2   9 2012.56  148.10
  -1   2  -9 1752.15  104.79
  -1  -2  -9 1450.85  100.99
   1  -2   9 1554.92  215.32
  -1   2 -10   59.43   24.82
   1   2  10   76.29   22.17
  -1   2 -10   66.85   26.92
  -1  -2 -10   84.90   48.65
   1  -2  10   55.53   12.32
  -1   2 -11  738.42   59.72
   1   2  11  866.34  195.92
  -1   2 -11  778.46   73.57
  -1  -2 -11  983.51   73.67
   1  -2  11  925.22  123.17
  -1   2 -12   80.69   25.95
   1   2  12  109.97   37.85
  -1   2 -12  157.09   54.25
  -1  -2 -12   94.85   49.27
   1  -2  12   70.77   16.08
   1   2  13   91.14   45.23
  -1   2 -13  122.57   52.13
  -1  -2 -13   30.93   43.17
   1   2  14   64.50   26.93
  -1  -2 -14  125.47   59.28
   1   3 -14   35.61   46.57
  -1   3  14    3.00   10.74
  -1  -3  14   11.26   14.24
   1  -3 -14   -0.95   32.54
   1   3 -13  173.93   47.32
  -1   3  13  123.87   19.16
  -1  -3  13  210.28   47.58
   1  -3 -13  203.51   57.04
   1   3 -12  268.11   58.82
  -1   3  12  247.01   48.86
  -1  -3  12  232.96   53.98
   1  -3 -12  257.20   61.77
  -1   3  11  327.49   77.44
  -1   3  11  243.36   54.56
   1   3 -11  341.01   71.65
  -1  -3  11  335.41   74.63
   1  -3 -11  357.05   65.10
  -1   3  10 1180.04  109.54
  -1   3  10  942.48  159.37
   1   3 -10 1099.65   67.89
  -1  -3  10 1213.96  218.34
   1  -3 -10 1166.21   76.35
  -1   3   9  781.43   66.30
  -1   3   9  781.85   52.55
   1   3  -9  797.65   65.80
  -1  -3   9  800.58  127.96
  -1  -3   9  657.10  146.18
   1  -3  -9  783.27  138.29
  -1   3   8 2575.67  149.96
  -1   3   8 2811.68  144.95
   1   3  -8 2831.13  153.03
  -1  -3   8 3458.06  216.33
  -1  -3   8 3364.62  189.81
   1  -3  -8 3488.32  209.03
  -1   3   7 1921.72   89.56
   1   3  -7 1752.93  100.27
  -1   3   7 1767.76  100.43
   1   3  -7 1857.26   95.23
  -1  -3   7 1840.31  127.40
   1  -3  -7 1872.61  106.77
  -1   3   6 2847.11  104.97
   1   3  -6 2937.39  117.75
  -1   3   6 2832.75  154.58
   1   3  -6 2899.39  112.40
  -1  -3   6 2748.72   93.78
   1  -3  -6 2799.59  199.33
  -1   3   5 5177.00  148.63
   1   3  -5 5071.68  153.73
  -1   3   5 5056.84  153.80
   1   3  -5 4934.26  151.34
  -1  -3   5 5194.00  144.11
   1  -3  -5 5094.50  156.44
  -1   3   4  731.13   44.07
   1   3  -4  671.26   46.39
  -1   3   4  658.55   38.04
   1   3  -4  728.03   78.86
  -1  -3   4  744.83   38.17
   1  -3  -4  707.32   63.79
  -1   3   3 9672.91  234.25
   1   3  -3 9621.62  261.53
  -1   3   3 9559.17  234.46
   1   3  -3 9658.83  233.00
  -1  -3   3 9519.97  234.98
   1  -3  -310027.13  253.39
  -1   3   210580.65  216.83
  -1   3   210495.61  187.02
   1   3  -210302.84  202.06
  -1  -3   210638.95  231.94
   1  -3  -210352.38  218.96
  -1   3   1 5412.41  193.86
   1   3  -1 5541.52  179.64
  -1   3   1 5158.64  167.47
   1   3  -1 5440.07  183.14
   1  -3  -1 5252.14  188.06
  -1  -3   1 5310.49  186.74
  -1   3   0 8755.20  191.20
   1   3   0 8731.95  183.50
   1   3   0 8838.93  171.08
  -1   3   0 8540.27  152.51
   1  -3   0 9596.59  226.67
  -1   3  -1  231.63   27.06
   1   3   1  235.67   24.90
   1   3   1  246.17   61.32
  -1   3  -1  231.35   29.60
   1  -3   1  220.64   49.12
  -1  -3  -1  273.51   74.35
   1   3   2 5340.66  144.12
  -1   3  -2 5303.58  176.71
   1   3   2 5396.31  151.80
  -1   3  -2 5325.31  140.11
   1  -3   2 5791.49  155.31
  -1  -3  -2 5545.50  185.46
   1   3   3 2316.83   74.11
  -1   3  -3 2266.06  111.04
   1   3   3 2391.94   79.84
  -1   3  -3 2342.55   73.24
  -1  -3  -3 2903.50  134.69
   1   3   4 2310.54  103.30
  -1   3  -4 2337.93  103.14
   1   3   4 2365.45   82.68
  -1   3  -4 2331.04   85.51
   1  -3   4 2340.45   93.70
  -1  -3  -4 2331.22  105.89
   1   3   5 4562.89  137.06
  -1   3  -5 4356.58  188.40
   1   3   5 4483.59  147.14
  -1   3  -5 4574.39  133.28
   1  -3   5 4228.81  136.54
  -1  -3  -5 4449.91  155.10
   1   3   6  121.18   28.80
  -1   3  -6  140.96   40.03
   1   3   6  126.16   32.91
  -1   3  -6  102.95   20.34
  -1  -3  -6  100.71   26.52
   1   3   7  892.22  144.21
  -1   3  -7 1127.62  196.35
   1   3   7 1116.30   87.97
  -1   3  -7 1157.49   78.52
  -1   3  -7 1079.85   75.57
   1   3   8  626.76  104.78
  -1   3  -8  841.28  180.17
   1   3   8  788.31  183.18
  -1   3  -8  848.33   74.65
  -1   3  -8  777.07   61.55
  -1  -3  -8 1020.65   93.81
  -1   3  -9   16.40   36.62
   1   3   9   22.36   21.33
  -1   3  -9    3.09   27.06
  -1  -3  -9   12.27   39.46
   1  -3   9   19.15   11.79
  -1   3 -10  854.26   66.61
   1   3  10  859.83  131.87
  -1   3 -10  932.49  151.26
  -1  -3 -10 1203.37   84.48
   1  -3  10  966.34  183.48
  -1   3 -11    6.93   23.24
   1   3  11   21.44   18.64
  -1   3 -11   18.07   27.61
  -1  -3 -11    2.84   37.87
   1  -3  11    0.22   16.25
  -1   3 -12  292.36   50.17
   1   3  12  203.08   52.64
   1  -3  12  259.25   53.58
  -1  -3 -12  243.88   64.20
   1   3  13  116.62   30.22
  -1   3 -13   31.60   32.51
  -1  -3 -13   79.41   41.68
   1   4 -13   21.01   30.06
  -1   4  13   33.63   20.12
  -1  -4  13   67.86   35.48
   1  -4 -13   63.74   26.91
   1   4 -12  155.80   42.54
  -1   4  12  169.08   39.48
  -1  -4  12  152.15   57.56
   1  -4 -12  187.75   58.81
   1   4 -11  436.70   61.72
  -1   4  11  401.66   80.92
  -1  -4  11  475.42  113.06
   1  -4 -11  486.70   68.18
  -1   4  10  167.07   36.84
  -1   4  10  150.47   33.23
   1   4 -10  187.37   40.24
  -1  -4  10  201.25   56.12
   1  -4 -10  278.59   77.89
  -1   4   9 1236.06  193.22
  -1   4   9 1293.62  182.54
   1   4  -9 1387.97   71.55
  -1  -4   9 1289.24  229.48
  -1  -4   9 1246.28  115.74
   1  -4  -9 1305.76  251.22
  -1   4   8  480.76  106.18
   1   4  -8  561.11  103.63
  -1   4   8  522.04   57.91
   1   4  -8  484.55  134.50
  -1  -4   8  349.03   68.31
   1  -4  -8  470.14  105.60
  -1   4   7 1102.74  174.91
   1   4  -7 1144.58   89.32
  -1   4   7 1044.56  151.98
   1   4  -7 1185.35   77.73
  -1  -4   7 1333.79   89.65
   1  -4  -7 1639.28  282.98
  -1   4   6 2979.40  157.67
   1   4  -6 3045.15  182.83
  -1   4   6 2851.32  245.36
   1   4  -6 3079.94  161.61
  -1  -4   6 2616.78  137.56
   1  -4  -6 2832.51  173.47
  -1   4   5  368.99   78.16
   1   4  -5  373.74   92.82
  -1   4   5  341.98   85.15
   1   4  -5  369.49   37.94
  -1  -4   5  362.40   76.56
   1  -4  -5  432.99  100.55
  -1   4   4 7090.45  212.26
   1   4  -4 7230.51  236.00
  -1   4   4 6794.52  206.15
   1   4  -4 6957.75  206.66
  -1  -4   4 6953.59  270.95
   1  -4  -4 6994.35  255.47
  -1   4   3  785.11  167.30
   1   4  -3  879.36  171.25
  -1   4   3  752.50   38.81
   1   4  -3  791.59   62.30
  -1  -4   3  586.71  100.87
   1  -4  -3  580.30  160.94
  -1   4   2 8217.26  261.46
   1   4  -2 8450.55  234.79
  -1   4   2 8357.90  208.92
   1   4  -2 8212.27  208.13
  -1  -4   2 8718.73  249.11
   1  -4  -2 8514.80  279.92
  -1   4   1 5098.03  170.24
   1   4  -1 5116.95  165.53
  -1   4   1 4739.82  120.47
   1   4  -1 4872.86  131.34
   1  -4  -1 4801.80  148.03
  -1  -4   1 4854.22  153.88
  -1   4   0  395.43   88.65
   1   4   0  382.95   61.01
   1   4   0  363.06   42.66
  -1   4   0  308.79   27.13
   1  -4   0  273.02   62.54
  -1  -4   0  272.12   70.75
   1   4   1 5315.17  228.15
  -1   4  -1 5530.64  196.83
   1   4   1 5571.67  145.52
  -1   4  -1 5327.81  132.06
   1  -4   1 5578.52  169.45
  -1  -4  -1 5866.35  178.93
   1   4   2  855.09   93.10
  -1   4  -2  821.90   70.21
   1   4   2  802.23   41.90
  -1   4  -2  848.05   92.27
   1  -4   2  826.48  144.04
  -1  -4  -2  814.47   58.70
   1   4   3 1462.80   68.29
  -1   4  -3 1512.81   77.71
   1   4   3 1462.60   62.94
  -1   4  -3 1518.34   78.03
   1  -4   3 1593.06  110.45
  -1  -4  -3 1726.20   95.29
   1   4   4 3086.42  179.02
  -1   4  -4 3195.95  149.34
   1   4   4 3167.99  138.76
  -1   4  -4 3118.55  123.35
   1  -4   4 3213.24  145.56
  -1  -4  -4 3087.22  145.85
   1   4   5  329.45   65.88
  -1   4  -5  330.74   78.21
   1   4   5  299.86   74.48
  -1   4  -5  273.47   30.37
   1  -4   5  345.12  101.51
  -1  -4  -5  411.66   84.71
   1   4   6 2059.67  102.44
  -1   4  -6 1984.84  159.69
   1   4   6 2121.83  125.52
  -1   4  -6 2220.11  115.70
   1  -4   6 1937.02  105.11
  -1  -4  -6 1912.80  125.21
   1   4   7   58.51   18.31
  -1   4  -7   33.28   16.77
   1   4   7   51.70   18.92
  -1   4  -7   64.81   24.99
  -1  -4  -7   65.41   30.04
   1   4   8  682.54  150.62
  -1   4  -8  957.24   75.85
   1   4   8  827.50  152.40
  -1   4  -8  807.82   72.42
   1  -4   8 1157.05   62.87
  -1  -4  -8 1150.33   86.83
   1   4   9  791.28   58.05
  -1   4  -9  710.33   58.86
   1  -4   9  617.70  114.63
  -1  -4  -9  742.51   75.86
  -1   4 -10   24.18   17.53
   1   4  10   22.73   20.74
   1  -4  10   12.57   18.49
   1  -4  10   36.74   18.19
  -1  -4 -10   50.06   48.01
  -1   4 -11  410.08   58.34
   1   4  11  372.82   66.27
   1  -4  11  400.77   91.38
  -1  -4 -11  399.91   76.74
  -1   4 -12   51.15   40.46
   1   4  12   32.72   19.85
   1  -4  12   41.06   23.04
  -1  -4 -12   46.00   60.37
   1   5 -12  182.29   43.26
  -1  -5  12  243.82   57.35
   1  -5 -12  229.60   63.00
   1   5 -11   53.33   21.69
  -1   5  11   36.68   12.43
  -1  -5  11  114.93   32.07
   1  -5 -11   68.85   44.51
   1   5 -10  508.95  116.77
  -1   5  10  478.46  118.26
  -1  -5  10  563.96  125.06
   1  -5 -10  623.07   84.82
  -1   5   9   53.37   17.38
  -1   5   9   43.72   17.00
   1   5  -9   75.08   42.63
   1  -5  -9   19.22   22.05
  -1   5   8  726.27  163.93
   1   5  -8  927.85  190.51
  -1   5   8  765.27   70.54
   1   5  -8  799.38   55.89
  -1  -5   8  612.22   99.27
   1  -5  -8  781.49   79.26
  -1   5   7 1221.00  201.11
   1   5  -7 1510.70  106.34
  -1   5   7 1119.64  112.85
   1   5  -7 1321.55   67.87
  -1  -5   7 1066.84  168.78
   1  -5  -7 1127.83   85.68
  -1   5   6  525.38  105.48
   1   5  -6  487.48   56.47
  -1   5   6  486.12   56.22
   1   5  -6  530.46   46.31
  -1  -5   6  558.04  119.88
   1  -5  -6  632.47  144.44
  -1   5   5 1726.04   89.89
   1   5  -5 1721.51  105.37
  -1   5   5 1573.25   79.85
   1   5  -5 1618.88  152.12
  -1  -5   5 1950.15   93.75
   1  -5  -5 2028.38  119.25
  -1   5   4  500.39   71.22
   1   5  -4  510.39  140.09
  -1   5   4  474.53   53.51
   1   5  -4  438.38   77.37
  -1  -5   4  533.91   97.48
   1  -5  -4  645.00  145.85
  -1   5   3 4385.60  210.53
   1   5  -3 4315.47  216.59
   1   5  -3 4408.27  194.55
  -1  -5   3 4947.43  173.35
   1  -5  -3 4864.09  180.01
  -1   5   2 3658.73  193.68
   1   5  -2 3524.38  186.81
   1   5  -2 3679.95  179.96
  -1  -5   2 3319.59  179.69
   1  -5  -2 3161.02  181.84
  -1   5   1  -12.44   29.23
   1   5  -1   56.84   31.31
   1   5  -1   22.25   11.93
   1  -5  -1  120.94   25.71
  -1  -5   1   83.49   20.61
  -1   5   0 2539.59  161.78
   1   5   0 2742.84  153.44
   1   5   0 2513.45  129.14
   1  -5   0 2740.89  215.51
  -1  -5   0 2794.90  153.66
  -1   5  -1  766.24  189.79
   1   5   1  812.85   98.75
   1   5   1  714.24   84.58
   1  -5   1  834.45  137.56
  -1  -5  -1  831.88  194.67
   1   5   2 2731.75  158.87
  -1   5  -2 2809.25  145.15
   1   5   2 2807.60  128.72
   1  -5   2 2722.10  148.31
  -1  -5  -2 2623.02  140.66
   1   5   3 1378.14   88.12
  -1   5  -3 1438.71  238.83
   1   5   3 1365.61  135.65
   1  -5   3 1442.20  150.69
  -1  -5  -3 1481.91   99.60
   1   5   4  231.64   43.39
  -1   5  -4  248.34   51.07
   1   5   4  211.95   42.62
  -1   5  -4  173.25   40.69
   1  -5   4  237.63   53.94
  -1  -5  -4  318.13   95.40
   1   5   5 2254.07   83.15
  -1   5  -5 2186.05  116.36
   1   5   5 1962.88  126.40
  -1   5  -5 2003.50  183.00
   1  -5   5 2035.36  129.24
  -1  -5  -5 2131.15  111.84
   1   5   6  229.77   59.13
  -1   5  -6  301.11   75.53
   1   5   6  281.94   55.38
  -1   5  -6  246.29   68.78
   1  -5   6  287.36   92.58
  -1  -5  -6  356.00   75.76
   1   5   7  545.56  104.46
  -1   5  -7  654.32   66.59
   1   5   7  619.00  147.61
  -1   5  -7  684.90   52.23
   1  -5   7  584.67  119.25
  -1  -5  -7  695.91   77.68
  -1   5  -8  578.43  133.11
   1   5   8  510.02  103.13
  -1   5  -8  549.44   51.23
   1  -5   8  455.76   93.64
  -1  -5  -8  578.80  123.44
  -1   5  -9  150.23   42.15
   1   5   9  112.69   42.22
  -1   5  -9  112.59   32.09
   1  -5   9  114.04   38.03
  -1  -5  -9  141.54   40.96
   1   5  10  141.47   27.55
  -1   5 -10  125.67   40.13
  -1  -5 -10  210.71   56.58
   1   5  11    5.31   14.06
   1  -5  11   -8.32   28.99
  -1  -5 -11   11.70   41.26
  -1  -6  10  -20.56   34.84
   1  -6 -10  106.29   40.91
   1   6  -9  425.77   82.54
   1  -6  -9  478.12   96.10
  -1   6   8  102.08   26.24
   1   6  -8  128.97   37.15
   1  -6  -8  155.13   72.69
  -1   6   7  516.84   95.62
   1   6  -7  681.01   88.70
  -1  -6   7  491.02   79.77
   1  -6  -7  655.81   98.90
  -1   6   6  738.13   69.21
   1   6  -6  729.46   74.47
  -1  -6   6  666.24  154.82
   1  -6  -6  861.56  174.85
  -1   6   5  -16.83   25.70
   1   6  -5   15.45   16.05
  -1  -6   5   43.27   16.79
   1  -6  -5   52.62   43.78
  -1   6   4  708.78  147.45
   1   6  -4  727.58  214.19
  -1  -6   4  780.72  109.34
   1  -6  -4  767.64  176.47
  -1   6   3  401.89   86.28
   1   6  -3  386.46   53.06
  -1  -6   3  406.16   67.61
   1  -6  -3  385.07   74.11
  -1   6   2  278.05   61.54
   1   6  -2  272.44   76.16
   1  -6  -2  335.16   74.31
  -1  -6   2  377.52   74.67
  -1   6   1  834.45  169.90
   1   6  -1  860.08  165.21
  -1  -6   1  873.13  154.10
   1  -6  -1  906.76  151.54
  -1   6   0  123.31   29.93
   1   6   0  109.03   31.15
   1  -6   0  177.65   38.63
  -1  -6   0  204.35   41.17
   1   6   1 2273.70  101.24
  -1   6  -1 2172.36  115.89
   1  -6   1 2440.26  200.00
  -1  -6  -1 2591.99  106.06
   1   6   2  109.09   26.28
  -1   6  -2  155.54   33.88
   1  -6   2  250.91   65.29
  -1  -6  -2  256.36   67.11
   1   6   3  274.35   65.61
  -1   6  -3  352.15   61.11
   1  -6   3  318.22   94.69
  -1  -6  -3  380.19   82.09
   1   6   4  517.27  131.56
  -1   6  -4  596.32  136.09
   1  -6   4  568.49  104.12
  -1  -6  -4  498.66  112.80
   1   6   5   21.99   13.26
  -1   6  -5  -17.86   30.99
   1  -6   5   30.16   22.96
  -1  -6  -5   -3.64   47.17
   1   6   6  632.54  136.30
  -1   6  -6  793.90  201.51
   1  -6   6  738.86  152.59
  -1  -6  -6  929.23  243.42
  -1   6  -7  154.32   42.67
   1  -6   7  130.54   27.25
  -1  -6  -7  168.91   61.82
  -1   6  -8  220.41   59.85
   1  -6   8  190.40   56.22
  -1  -6  -8  201.90   38.82
  -1   6  -9  215.23   57.47
  -1  -6  -9  153.67   50.00
  -1   7   7  215.68   52.44
   1   7  -7  288.96   62.38
   1  -7  -7  265.12   66.26
  -1   7   6  204.19   52.58
   1   7  -6  212.49   56.03
   1  -7  -6  199.39   73.70
  -1   7   5  633.57  124.58
   1   7  -5  743.74  141.20
  -1  -7   5  582.14  152.13
   1  -7  -5  768.64  122.55
  -1   7   4   44.15   17.90
   1   7  -4   63.56   22.92
  -1  -7   4   45.31   26.33
   1  -7  -4  -25.43   47.98
  -1   7   3  788.65  142.25
   1   7  -3  802.16  160.82
  -1  -7   3  663.79  141.61
   1  -7  -3  709.70  152.99
  -1   7   2  423.31  104.11
   1   7  -2  435.03   74.38
  -1  -7   2  322.41   92.38
   1  -7  -2  445.18  104.08
  -1   7   1  306.99   54.68
   1   7  -1  308.16   77.15
   1  -7  -1  263.18   58.88
  -1  -7   1  307.66   61.00
  -1   7   0 1052.80  202.87
   1   7   0  956.37  181.71
   1  -7   0  805.49  147.62
  -1  -7   0  860.17  184.46
  -1   7  -1  249.99   77.73
   1   7   1  179.67   50.68
   1  -7   1  146.51   33.34
  -1  -7  -1  120.73   36.96
  -1   7  -2  427.85   70.78
   1   7   2  384.20   75.85
   1  -7   2  402.80   94.13
  -1  -7  -2  395.96  110.25
   1   7   3  246.67   70.88
  -1   7  -3  263.30   67.60
   1  -7   3  171.40   43.19
  -1  -7  -3  258.58   65.47
   1   7   4   49.53   15.14
  -1   7  -4   93.10   40.98
   1  -7   4   28.98   28.32
  -1  -7  -4  124.12   49.13
   1   7   5  325.36   90.38
  -1   7  -5  442.77   85.71
   1  -7   5  326.54  105.65
  -1  -7  -5  453.74  111.51
  -1   7  -6   10.92   24.82
   1  -7   6   19.77   18.91
  -1  -7  -6   40.17   31.34
   2   0 -15  294.36   61.99
  -2   0  14   12.17   13.87
   2   0 -14   32.54   24.29
  -2   0  13  428.50   81.69
   2   0 -13  447.33   60.30
   2   0 -13  472.02   51.59
  -2   0  12   18.86   20.25
   2   0 -12  -23.63   33.56
   2   0 -12    6.14   21.30
  -2   0  11   50.21   25.67
   2   0 -11   -4.07   32.82
   2   0 -11   50.21   25.74
  -2   0  10 2136.51  162.30
   2   0 -10 2051.17  126.87
   2   0 -10 2112.84  115.82
  -2   0   9  127.06   37.05
   2   0  -9   85.41   19.77
   2   0  -9  119.17   25.21
  -2   0   8 8630.35  311.41
   2   0  -8 8306.84  231.08
   2   0  -8 8570.89  215.37
  -2   0   7   92.34   26.77
   2   0  -7   55.58   19.90
   2   0  -7   61.89   13.18
  -2   0   621010.94  403.10
   2   0  -621325.27  391.50
   2   0  -621857.34  377.70
  -2   0   5 5954.34  147.89
   2   0  -5 6158.81  134.72
   2   0  -5 6174.56  123.84
  -2   0   1 5591.58  107.12
   2   0  -1 5822.49  105.60
  -2   0   1 5913.86  106.83
   2   0   0 5612.30   99.49
  -2   0   0 5471.12  121.44
   2   0   0 5574.67  104.10
  -2   0   0 5513.77  126.94
   2   0   4  489.33   31.98
   2   0   4  525.59   36.33
  -2   0  -4  502.47   38.53
   2   0   5  311.97   30.22
   2   0   5  317.12   90.02
  -2   0  -5  255.94   32.42
   2   0   6  651.30   64.68
   2   0   6  605.47   47.16
  -2   0  -6  634.58   54.04
   2   0   7 3345.50  112.62
   2   0   7 3372.44  144.29
  -2   0  -7 3504.17  129.32
   2   0   8  635.32   69.49
   2   0   8  802.99  161.68
  -2   0  -8  727.15   56.93
   2   0   9 1201.84  108.35
   2   0   9 1427.55  237.35
  -2   0  -9 1368.73   91.98
   2   0  10 1802.60  284.47
  -2   0 -10 2054.91   93.23
   2   0  11  -24.54   32.61
  -2   0 -11   25.95   37.09
   2   0  12  330.30   65.87
  -2   0 -12  290.42   50.18
   2   0  13   44.11   23.35
  -2   0 -13   34.32   29.27
   2   0  14  -13.95   36.35
  -2   0 -14   21.94   37.93
   2   1 -15   19.18   37.50
   2  -1 -15   31.93   33.28
   2   1 -14  153.31   58.08
  -2  -1  14  202.16   50.21
   2  -1 -14  155.48   47.83
   2  -1 -14  134.14   34.99
   2   1 -13   39.91   34.77
  -2   1  13    8.46    9.25
  -2  -1  13  -11.12   33.72
   2  -1 -13   52.15   46.19
   2  -1 -13   19.17   24.19
   2   1 -12  726.20   74.30
  -2   1  12  610.93  131.10
   2   1 -12  674.60   73.62
  -2  -1  12  706.36   75.91
   2  -1 -12  785.15   60.58
   2  -1 -12  876.30   74.35
   2   1 -11  431.57   58.75
  -2   1  11  347.93   78.03
   2   1 -11  387.20   36.33
  -2  -1  11  441.69   59.79
   2  -1 -11  382.94   41.92
   2  -1 -11  369.53   84.61
   2   1 -10  510.18   55.44
  -2   1  10  572.65   55.40
   2   1 -10  553.81   46.03
  -2  -1  10  499.20   97.99
   2  -1 -10  393.80   40.84
   2  -1 -10  476.53   98.61
   2   1  -9 1846.19   89.76
  -2   1   9 1888.18   90.47
   2   1  -9 1776.10   70.02
  -2  -1   9 1794.82  171.92
   2  -1  -9 1670.61   75.33
   2  -1  -9 1608.40   80.09
   2   1  -8  211.09   51.07
  -2   1   8  143.74   27.73
   2   1  -8  135.54   20.40
  -2  -1   8  177.39   47.25
   2  -1  -8  169.70   40.62
   2  -1  -8  111.91   25.63
   2   1  -7 7933.45  211.37
  -2   1   7 7798.29  199.88
   2   1  -7 7577.95  178.14
  -2  -1   7 8212.12  251.14
   2  -1  -7 7715.80  237.79
   2  -1  -7 7527.85  196.48
   2   1  -6 1803.19   86.49
  -2   1   6 1754.36   81.05
   2   1  -6 1786.70   66.84
  -2  -1   6 1398.46   80.78
   2  -1  -6 1500.21   66.28
   2  -1  -6 1453.76   66.84
   2   1  -5 5376.84  191.55
  -2   1   5 5442.35  198.72
   2   1  -5 5418.65  174.91
  -2  -1   5 5604.55  148.55
   2  -1  -5 5783.30  126.17
   2  -1  -5 5685.57  138.75
   2   1   316781.83  275.27
  -2   1  -316882.55  293.47
   2   1   316970.24  315.99
  -2   1  -316846.66  301.68
  -2   1  -317397.39  317.57
   2   1   4 2461.77   81.69
  -2   1  -4 2359.61   99.01
   2   1   4 2344.99   95.53
  -2   1  -4 2338.08   92.62
  -2   1  -4 2399.31  101.17
   2   1   5 7765.54  171.29
  -2   1  -5 7587.00  186.58
   2   1   5 7541.66  271.47
  -2   1  -5 7548.40  192.13
  -2   1  -5 7303.09  191.06
  -2  -1  -5 6792.52  187.37
   2   1   6 5005.81  163.67
   2   1   6 5089.88  122.26
  -2   1  -6 5068.66  149.15
  -2   1  -6 4879.70  150.52
   2  -1   6 4918.66  140.37
  -2  -1  -6 4821.04  156.66
   2   1   7  169.20   33.95
   2   1   7   93.10   22.41
  -2   1  -7  105.81   25.20
  -2   1  -7  135.31   32.29
   2  -1   7   85.53   18.94
  -2  -1  -7   90.15   28.38
  -2   1  -8 3839.44  197.35
   2   1   8 3883.54  210.86
  -2   1  -8 4141.51  210.19
  -2  -1  -8 4162.70  216.53
   2  -1   8 4029.89  319.25
   2   1   9  446.04  107.08
  -2   1  -9  414.60   54.19
   2  -1   9  274.47   58.61
  -2  -1  -9  428.79   62.86
  -2   1 -10  167.31   36.14
   2   1  10  184.55   58.57
   2  -1  10  120.35   38.30
  -2  -1 -10  111.69   39.76
   2  -1  10  111.75   30.32
   2   1  11  898.51  238.37
  -2   1 -11 1007.31   71.79
   2  -1  11  962.17  128.82
  -2  -1 -11  924.78   71.83
   2   1  12   -0.06   39.38
  -2   1 -12    2.99   27.07
   2  -1  12   40.01   25.98
  -2  -1 -12   26.36   34.10
   2   1  13   66.99   31.51
  -2   1 -13  134.70   45.88
   2  -1  13  128.23   39.46
  -2  -1 -13  198.74   57.12
  -2   2  15   15.41   25.34
   2   2 -15   61.60   39.43
   2   2 -14   14.77   32.34
  -2   2  14   49.81   16.77
  -2  -2  14   32.60   25.91
   2  -2 -14    2.46   26.21
   2   2 -13  557.11   73.86
  -2   2  13  354.66   65.39
  -2  -2  13  478.17   78.97
   2  -2 -13  535.30   60.53
   2   2 -12  206.42   40.29
  -2   2  12  212.32   39.98
  -2  -2  12  237.47   46.57
   2  -2 -12  319.13   62.25
   2  -2 -12  234.47   62.09
   2   2 -11  559.06   58.68
  -2   2  11  462.89   71.23
   2   2 -11  447.02   42.18
  -2  -2  11  732.00  116.98
   2  -2 -11  663.63   66.23
   2  -2 -11  699.76   76.91
   2   2 -10 1445.53   92.09
  -2   2  10 1498.13  111.04
   2   2 -10 1494.04   77.27
  -2  -2  10 1358.82  208.40
   2  -2 -10 1140.42  110.92
   2  -2 -10 1219.93   83.29
   2   2  -9  869.96  179.51
  -2   2   9  731.90   51.63
   2   2  -9  776.14   48.84
  -2  -2   9  883.28  129.78
   2  -2  -9  826.40   59.68
   2  -2  -9  835.31   64.70
   2   2  -8 3302.45  133.82
  -2   2   8 3291.27  115.38
   2   2  -8 3358.27  103.42
  -2  -2   8 3529.65  137.05
   2  -2  -8 3431.01  126.23
   2  -2  -8 3317.07  120.61
   2   2  -7 1718.56   79.48
  -2   2   7 1692.88   70.06
   2   2  -7 1666.86   56.09
  -2  -2   7 1432.31   86.10
   2  -2  -7 1429.40   70.00
   2  -2  -7 1518.60   69.51
   2   2  -6 1529.86   68.72
  -2   2   6 1484.96   61.66
  -2  -2   6 1515.98   83.82
   2  -2  -6 1452.01   57.42
  -2  -2   6 1483.21   57.75
   2  -2  -6 1668.76  109.85
   2   2  -515828.11  342.98
  -2   2   516368.78  328.01
  -2  -2   516352.32  306.25
   2  -2  -515989.42  295.06
  -2  -2   515853.06  275.12
   2  -2  -515752.67  299.97
  -2   2   4 3390.39  127.56
   2   2  -4 3188.07  124.74
   2   2  -4 3229.22  124.33
   2  -2  -4 3516.46  121.65
  -2  -2   4 3407.73  116.30
   2  -2  -4 3455.91  127.88
  -2   2   3 6074.11  132.32
   2   2  -3 5747.41  131.04
   2   2  -3 5703.90  121.12
   2  -2  -3 5267.03  171.82
  -2  -2   3 5216.89  175.95
   2  -2  -3 5278.13  183.54
  -2   2   2 1894.60   78.77
   2   2  -2 1841.36   76.52
  -2   2   2 1845.90   63.53
   2   2  -2 1793.66   70.81
   2  -2  -2 1731.00   72.51
  -2  -2   2 1715.07   66.60
  -2   2  -1 5479.70  152.01
   2   2   1 5241.68  175.94
   2   2   1 5540.88  141.44
  -2   2  -1 5367.11  175.67
   2  -2   1 5464.02  144.86
  -2  -2  -1 5181.97  192.02
  -2   2  -221155.85  373.55
   2   2   221456.32  367.74
   2   2   221557.68  388.24
  -2   2  -220942.75  356.61
  -2   2  -221009.24  376.56
  -2  -2  -221561.66  393.95
   2   2   3 1906.77   69.40
  -2   2  -3 1934.35   84.72
   2   2   3 1927.94   85.47
  -2   2  -3 1865.58   74.32
  -2   2  -3 1765.76   77.69
  -2  -2  -3 1724.93   82.53
   2   2   4 7420.16  169.30
  -2   2  -4 7340.48  191.00
   2   2   4 7303.05  190.57
  -2   2  -4 7379.70  185.47
  -2   2  -4 7271.03  188.61
  -2  -2  -4 6883.11  191.91
   2   2   5 6070.64  145.14
  -2   2  -5 6049.30  169.50
   2   2   5 6129.13  216.26
  -2   2  -5 6139.48  176.64
  -2   2  -5 5927.11  175.14
  -2  -2  -5 5792.99  173.66
   2   2   6  441.57   64.73
  -2   2  -6  499.17   43.88
   2   2   6  498.76  107.66
  -2   2  -6  492.71   41.70
  -2   2  -6  464.18   49.19
  -2  -2  -6  564.37   54.27
  -2   2  -7 6369.83  245.70
   2   2   7 6236.07  334.34
  -2   2  -7 6289.43  245.50
  -2   2  -7 5977.56  229.67
  -2  -2  -7 6552.13  283.83
  -2   2  -8 1051.23   70.96
   2   2   8 1258.30  104.38
  -2   2  -8 1127.54   80.74
  -2  -2  -8  938.64   77.36
   2  -2   8  908.22   67.20
  -2   2  -9  573.69   55.54
   2   2   9  621.08  144.35
  -2   2  -9  636.21   63.38
  -2  -2  -9  870.74   69.12
   2  -2   9  737.01  160.74
  -2   2 -10 1138.31   73.04
   2   2  10 1147.42  267.46
  -2   2 -10 1426.40   86.67
  -2  -2 -10 1270.36   86.66
   2  -2  10  988.45  197.75
   2   2  11  -37.74   31.36
  -2   2 -11   43.63   27.01
   2  -2  11    8.76    8.33
  -2  -2 -11  -40.13   33.44
   2   2  12  227.88   50.77
  -2   2 -12  307.07   54.86
   2  -2  12  258.28   66.65
  -2  -2 -12  252.56   53.77
   2   2  13   11.40   16.07
   2  -2  13    6.82   19.57
  -2  -2 -13    3.44   34.72
   2   3 -14  124.94   42.73
  -2   3  14  122.29   28.30
  -2  -3  14   99.54   43.66
   2  -3 -14   71.52   44.70
   2   3 -13   22.06   34.70
  -2   3  13   40.10   22.80
  -2  -3  13   62.77   31.72
   2  -3 -13  106.70   44.88
  -2   3  12  339.43   72.17
  -2   3  12  256.19   57.74
   2   3 -12  386.55   91.95
  -2  -3  12  468.49   79.53
   2  -3 -12  354.15   85.83
  -2   3  11  495.93  103.63
  -2   3  11  487.19  123.56
   2   3 -11  573.42  115.34
  -2  -3  11  540.46   86.36
   2  -3 -11  541.50   59.79
  -2   3  10  587.10  128.18
  -2   3  10  523.14  115.87
   2   3 -10  633.57  186.53
  -2  -3  10  563.53  129.34
   2  -3 -10  608.21  132.87
  -2   3   9  424.67   68.45
  -2   3   9  448.08  105.37
   2   3  -9  463.99   52.40
  -2  -3   9  786.85  136.71
  -2  -3   9  631.24  112.32
   2  -3  -9  801.33  206.13
  -2   3   8  263.12   46.11
  -2   3   8  286.86   79.18
   2   3  -8  355.38   58.87
  -2  -3   8  404.87   91.25
  -2  -3   8  301.45   56.65
   2  -3  -8  367.07   60.46
  -2   3   7 2809.44  102.58
  -2   3   7 2929.26  125.75
   2   3  -7 2915.87  113.56
  -2  -3   7 2924.97  117.31
  -2  -3   7 2701.25   97.12
   2  -3  -7 2666.71  119.81
  -2   3   6 2433.58  134.36
   2   3  -6 2436.67  120.41
  -2   3   6 2341.80   81.56
   2   3  -6 2414.68   95.27
  -2  -3   6 2275.12   77.60
   2  -3  -6 2290.48   93.67
  -2   3   5 1668.21   72.13
   2   3  -5 1541.32   79.14
  -2   3   5 1525.03   61.94
   2   3  -5 1661.42  100.79
  -2  -3   5 1723.48   60.89
   2  -3  -5 1655.96  116.81
  -2   3   4 2620.36   97.64
   2   3  -4 2507.59  107.67
  -2   3   4 2549.79   85.40
   2   3  -4 2550.97   86.01
   2  -3  -4 2962.60   98.99
  -2   3   3  314.90   36.30
   2   3  -3  378.32   86.95
  -2   3   3  309.35   27.12
   2   3  -3  316.38   39.28
   2  -3  -3  422.44  105.24
  -2  -3   3  448.19   70.68
  -2   3   2 5471.41  150.63
   2   3  -2 5549.86  156.84
   2   3  -2 5406.36  139.92
   2  -3  -2 5462.52  149.96
  -2  -3   2 5435.23  143.26
  -2   3   1 2021.74   92.93
   2   3  -1 2018.98   89.83
   2   3  -1 2090.23   84.33
   2  -3  -1 2491.94  126.87
  -2  -3   1 2599.45  127.03
  -2   3   0  706.67   49.64
   2   3   0  746.48   46.91
   2   3   0  717.04   38.68
   2  -3   0  883.80   53.14
  -2  -3   0  874.34   56.59
  -2   3  -113046.04  321.20
   2   3   113691.25  316.31
   2   3   113652.13  336.14
  -2   3  -113803.36  296.97
   2  -3   113958.34  339.96
  -2  -3  -114419.15  347.46
   2   3   2  411.56   71.41
  -2   3  -2  408.27   35.12
   2   3   2  407.27   42.24
  -2   3  -2  399.41   24.15
   2  -3   2  524.77   57.60
  -2  -3  -2  623.48  137.10
   2   3   310150.11  261.03
  -2   3  -310237.68  273.66
   2   3   310155.17  268.23
  -2   3  -310489.78  274.70
  -2  -3  -310419.26  346.09
   2   3   4 1439.05   54.07
  -2   3  -4 1439.74   75.25
   2   3   4 1417.96   80.88
  -2   3  -4 1609.28  161.04
   2  -3   4 1388.39   65.06
  -2  -3  -4 1354.85  138.69
   2   3   5  489.90   71.90
  -2   3  -5  474.54   46.95
   2   3   5  513.12   49.00
  -2   3  -5  500.49   38.74
  -2   3  -5  447.44   48.07
  -2  -3  -5  455.01  117.51
   2   3   6 2569.16  105.32
  -2   3  -6 2592.97  148.97
   2   3   6 2599.56  186.45
  -2   3  -6 2722.89  164.85
  -2   3  -6 2551.36  119.48
  -2  -3  -6 3014.94  149.51
  -2   3  -7  204.58   37.81
   2   3   7  169.26   35.78
  -2   3  -7  193.08   35.03
  -2   3  -7  177.44   35.70
  -2  -3  -7  283.66   76.44
  -2   3  -8 2777.93  276.43
   2   3   8 2588.22  134.29
  -2   3  -8 2645.39  149.69
  -2   3  -8 2510.13  113.71
  -2  -3  -8 2602.88  132.45
  -2   3  -9  576.98   49.58
   2   3   9  669.88   97.40
  -2   3  -9  630.70   50.70
  -2  -3  -9  696.83  116.24
   2  -3   9  612.59  124.26
  -2   3 -10  193.53   43.32
   2   3  10  120.27   41.46
  -2   3 -10  150.34   39.81
  -2  -3 -10  134.49   41.49
   2  -3  10  193.88   39.60
  -2   3 -11  538.15   61.64
   2   3  11  456.01  107.52
  -2   3 -11  460.13   66.58
  -2  -3 -11  421.89   67.14
   2  -3  11  390.91   88.59
   2   3  12  -15.74   33.76
  -2  -3 -12    7.44   39.18
   2   4 -13  297.30   69.04
  -2   4  13  163.72   42.41
  -2  -4  13  186.57   53.36
   2  -4 -13  207.01   59.49
   2   4 -12  211.33   39.17
  -2   4  12  158.53   33.15
  -2  -4  12  199.09   54.17
   2  -4 -12  204.55   50.48
  -2   4  11  188.02   43.89
  -2   4  11  243.67   47.83
   2   4 -11  225.35   69.44
  -2  -4  11  234.60   45.42
   2  -4 -11  212.29   53.57
  -2   4  10  726.11   79.84
  -2   4  10  669.35  126.15
   2   4 -10  752.73  124.03
  -2  -4  10  665.97  144.42
   2  -4 -10  666.69  175.07
  -2   4   9  104.76   21.94
  -2   4   9   81.58   16.22
   2   4  -9  117.29   28.70
  -2  -4   9  104.51   24.73
   2  -4  -9  133.51   28.87
  -2   4   8  260.51   56.11
  -2   4   8  182.68   37.44
   2   4  -8  243.72   63.47
  -2  -4   8  262.12   66.21
   2  -4  -8  392.44   78.59
  -2   4   7  416.17   51.62
   2   4  -7  449.62   82.88
  -2   4   7  370.96   95.41
   2   4  -7  407.69   77.74
  -2  -4   7  229.23   42.14
   2  -4  -7  293.73   78.73
  -2   4   6 1856.54  110.14
   2   4  -6 1824.79  127.22
  -2   4   6 1674.58   92.18
   2   4  -6 1734.12  101.36
  -2  -4   6 1700.05   94.02
   2  -4  -6 1650.71  125.15
  -2   4   5 3649.79  152.30
   2   4  -5 3610.50  160.36
  -2   4   5 3414.96  132.93
   2   4  -5 3630.69  152.77
  -2  -4   5 3242.78  133.10
   2  -4  -5 3236.05  145.10
  -2   4   4  492.55   41.36
   2   4  -4  566.86  116.06
  -2   4   4  517.94   30.08
   2   4  -4  562.48   56.36
  -2  -4   4  587.44  110.91
   2  -4  -4  610.92  150.77
  -2   4   3 7473.96  221.11
   2   4  -3 7114.93  328.71
   2   4  -3 7047.27  207.89
   2  -4  -3 7254.80  232.13
  -2  -4   3 6959.09  246.74
  -2   4   2  595.11   83.70
   2   4  -2  659.05   55.25
   2   4  -2  645.74   62.93
   2  -4  -2  548.12  130.53
  -2  -4   2  519.25   90.98
  -2   4   1 2887.82  108.01
   2   4  -1 2988.22  117.70
   2   4  -1 2872.22   96.09
  -2   4   0 3879.65  130.67
   2   4   0 3848.44  125.49
   2   4   0 3836.37  114.02
  -2  -4   0 3336.76  122.34
  -2   4  -1   76.36   23.48
   2   4   1   78.06   24.81
   2   4   1   81.90   19.19
   2  -4   1   99.55   23.41
  -2  -4  -1  113.09   23.46
   2   4   2 3951.92  135.34
  -2   4  -2 3838.99  140.38
   2   4   2 3672.77  188.63
  -2   4  -2 3759.01  112.38
   2  -4   2 3604.89  152.77
  -2  -4  -2 3482.96  154.14
  -2   4  -3  286.15   40.00
   2   4   3  330.79   66.84
   2   4   3  313.97   70.81
  -2   4  -3  298.79   59.08
   2  -4   3  381.54   84.34
  -2  -4  -3  381.73   96.62
   2   4   4  728.46  107.68
  -2   4  -4  708.91   74.54
   2   4   4  743.34   60.48
  -2   4  -4  784.05   47.24
   2  -4   4  957.60   67.91
  -2  -4  -4 1108.39  224.83
   2   4   5 3091.54  138.91
  -2   4  -5 2934.56  179.87
   2   4   5 2947.06  142.23
  -2   4  -5 3099.23  145.68
   2  -4   5 2579.03  138.08
  -2  -4  -5 2657.87  159.00
   2   4   6  223.23   44.35
  -2   4  -6  311.76   68.34
   2   4   6  288.87   62.74
  -2   4  -6  281.74   36.13
   2  -4   6  280.21   77.45
  -2  -4  -6  303.71   54.90
  -2   4  -7 1101.11   88.20
   2   4   7 1008.53  160.69
  -2   4  -7 1122.82   64.77
   2  -4   7 1023.01  140.32
  -2  -4  -7 1156.18  242.38
  -2   4  -8  117.27   18.33
   2   4   8   88.35   26.29
  -2   4  -8  101.14   27.07
   2  -4   8  135.58   38.31
  -2  -4  -8  114.43   55.96
  -2   4  -9  200.56   46.29
   2   4   9  234.54   58.13
  -2   4  -9  234.47   35.85
   2  -4   9  174.74   55.42
  -2  -4  -9  366.81   75.30
  -2   4 -10  507.54   66.79
   2   4  10  421.92   71.85
   2  -4  10  452.56   91.23
   2  -4  10  332.45   82.57
  -2  -4 -10  432.95   68.13
  -2   4 -11   42.37   38.38
   2   4  11    3.29   20.50
   2  -4  11    7.69   18.61
   2  -4  11    6.35    7.94
  -2  -4 -11    3.84   41.09
   2   5 -12   45.94   38.96
  -2  -5  12  100.26   32.44
   2  -5 -12  122.49   61.68
   2   5 -11  166.76   47.55
  -2  -5  11  153.05   39.00
   2  -5 -11  113.12   50.97
  -2   5  10   90.08   21.51
  -2   5  10   41.25   15.66
   2   5 -10   63.32   27.04
  -2  -5  10   89.54   55.39
   2  -5 -10  106.86   36.86
  -2   5   9  725.18  119.48
  -2   5   9  939.35  167.08
   2   5  -9 1061.86   67.83
  -2  -5   9 1341.13  104.11
   2  -5  -9 1001.98   92.21
  -2   5   8  136.45   28.02
   2   5  -8  147.81   37.94
  -2   5   8  107.98   24.57
   2   5  -8  114.48   19.08
  -2  -5   8   95.08   19.32
   2  -5  -8  162.57   55.21
  -2   5   7 2079.62  126.25
   2   5  -7 2258.27  103.64
  -2   5   7 1935.20   94.71
   2   5  -7 2273.42   89.29
  -2  -5   7 2037.02  201.85
   2  -5  -7 2054.43  232.16
  -2   5   6 1345.33  186.55
   2   5  -6 1369.96   86.07
   2   5  -6 1170.93   77.24
  -2  -5   6 1178.92  149.78
   2  -5  -6 1333.57  187.24
  -2   5   5  548.24   90.30
   2   5  -5  601.81   61.07
   2   5  -5  488.73  114.96
  -2  -5   5  537.22  131.36
   2  -5  -5  593.39  140.89
  -2   5   4 2952.92  152.92
   2   5  -4 3067.82  197.18
   2   5  -4 2912.34  141.94
  -2  -5   4 3064.66  165.38
   2  -5  -4 3061.68  177.42
  -2   5   3 1185.31  230.99
   2   5  -3 1226.85  224.60
   2   5  -3 1164.80  140.58
  -2  -5   3 1020.93  195.23
   2  -5  -3 1013.85  145.81
  -2   5   2 4145.81  223.45
   2   5  -2 4439.50  226.83
   2   5  -2 4292.75  209.18
   2  -5  -2 4856.42  258.18
  -2  -5   2 4690.18  237.20
  -2   5   1 1014.81   77.31
   2   5  -1 1010.22   81.92
   2   5  -1  986.71   89.30
   2  -5  -1  923.79  105.00
  -2  -5   1 1023.21   86.50
  -2   5   0 1571.38  111.06
   2   5   0 1693.10  105.82
   2   5   0 1514.02  124.96
   2  -5   0 1623.75  193.55
  -2  -5   0 1701.96  124.93
  -2   5  -1 4963.45  195.02
   2   5   1 5097.20  189.09
   2   5   1 4955.18  185.06
   2  -5   1 4571.58  213.13
  -2  -5  -1 4660.32  222.12
   2   5   2  718.77  137.81
  -2   5  -2  666.14  147.58
   2   5   2  641.26   71.99
   2  -5   2  706.75  174.20
  -2  -5  -2  817.65  142.81
   2   5   3 2247.46  101.72
  -2   5  -3 2150.90  104.86
   2   5   3 2099.77   98.76
   2  -5   3 2126.12  103.55
  -2  -5  -3 2187.68  128.46
   2   5   4  755.04  162.03
  -2   5  -4  862.43   72.89
   2   5   4  818.99   62.82
   2  -5   4  829.46  120.21
  -2  -5  -4  883.49  184.36
   2   5   5  116.21   20.88
  -2   5  -5  107.72   35.38
   2   5   5  105.38   38.03
  -2   5  -5  113.19   25.52
   2  -5   5  191.72   38.75
  -2  -5  -5  181.84   47.35
   2   5   6  846.51  137.57
  -2   5  -6 1029.65   75.59
   2   5   6  947.89  115.49
  -2   5  -6  989.22   53.45
   2  -5   6  957.98  158.47
  -2  -5  -6 1045.04  248.74
  -2   5  -7  141.96   37.79
   2   5   7  112.11   28.46
  -2   5  -7   71.93   23.56
   2  -5   7   31.12   22.28
  -2  -5  -7   12.42   47.91
  -2   5  -8  387.45   58.73
   2   5   8  339.59   59.67
  -2   5  -8  385.60   76.37
   2  -5   8  362.96   76.07
  -2  -5  -8  444.21   70.38
  -2   5  -9  190.14   49.90
   2   5   9  186.29   46.27
   2  -5   9  236.20   58.66
  -2  -5  -9  324.96   70.27
   2   5  10   63.94   28.58
  -2  -5 -10   99.47   62.60
  -2  -6  10  273.95   63.96
   2  -6 -10  307.59   85.19
  -2   6   9    2.48   16.46
   2  -6  -9   64.68   32.22
  -2   6   8  876.97   76.34
   2   6  -8  893.16  190.10
   2   6  -8  616.11  157.74
   2  -6  -8 1070.13  217.71
  -2   6   7  211.00   45.78
   2   6  -7  272.12   54.14
   2   6  -7  244.69   39.66
  -2  -6   7  281.59   69.02
   2  -6  -7  289.12   74.80
  -2   6   6  714.30  181.36
   2   6  -6  813.63  103.58
   2   6  -6  495.44  140.70
  -2  -6   6  563.81  119.92
   2  -6  -6  619.27   71.18
  -2   6   5  919.80  166.52
   2   6  -5  978.04   86.15
   2   6  -5  675.28  146.56
  -2  -6   5  701.06  125.72
   2  -6  -5  787.59  181.53
  -2   6   4   29.06   28.78
   2   6  -4   30.32   23.14
   2   6  -4   27.20   21.11
   2  -6  -4   43.80   26.96
  -2  -6   4  -11.53   24.51
  -2   6   3 1410.90   89.25
   2   6  -3 1457.31  236.54
   2   6  -3 1198.88  182.06
   2  -6  -3 1581.75  272.73
  -2  -6   3 1548.38  228.90
  -2   6   2  537.41  140.12
   2   6  -2  647.15  117.16
   2   6  -2  493.35  119.22
   2  -6  -2  719.53  136.29
  -2  -6   2  681.69  135.28
  -2   6   1 1090.20  221.23
   2   6  -1  977.85  177.07
   2   6  -1 1052.00   56.46
   2  -6  -1  986.59  144.59
  -2  -6   1  882.69  169.10
  -2   6   0 1273.18  146.91
   2   6   0 1353.96   78.30
   2   6   0 1167.83  118.45
   2  -6   0 1320.39  275.95
  -2  -6   0 1287.55  293.91
  -2   6  -1  149.31   37.20
   2   6   1  152.40   41.36
   2   6   1  117.41   39.48
   2  -6   1  140.60   34.75
  -2  -6  -1  110.26   48.30
  -2   6  -2 1754.42  271.77
   2   6   2 1764.73  233.98
   2   6   2 1661.49   65.51
   2  -6   2 1877.94  287.46
  -2  -6  -2 2054.27  107.52
  -2   6  -3  193.74   45.92
   2   6   3  147.15   27.51
   2   6   3  124.00   38.49
   2  -6   3  122.16   26.77
  -2  -6  -3  132.89   36.40
   2   6   4  273.88   56.32
  -2   6  -4  316.79   48.65
   2   6   4  250.85   76.60
   2  -6   4  324.83   82.27
  -2  -6  -4  382.73   78.07
   2   6   5  849.49   54.68
  -2   6  -5  912.38   77.28
   2   6   5  637.38  141.07
   2  -6   5  892.04  170.56
  -2  -6  -5 1063.65  170.61
  -2   6  -6   31.46   26.22
   2   6   6   40.42   16.13
   2  -6   6   -9.33   18.12
  -2  -6  -6   44.60   21.26
  -2   6  -7  364.76   78.47
   2   6   7  237.34   59.09
   2  -6   7  292.07   67.70
  -2  -6  -7  284.25   87.99
  -2   6  -8   82.51   36.11
  -2  -6  -8  150.15   47.27
  -2   7   7  315.31   84.75
   2   7  -7  327.53   62.82
   2  -7  -7  389.80   72.46
  -2   7   6  257.53   75.25
   2   7  -6  311.34   68.34
   2  -7  -6  278.56   76.38
  -2   7   5   61.81   16.02
   2   7  -5  124.34   45.34
  -2  -7   5   39.96   23.94
   2  -7  -5   88.04   59.65
  -2   7   4  686.38   73.96
   2   7  -4  651.87  134.40
  -2  -7   4  498.70   86.15
   2  -7  -4  502.94  101.47
  -2   7   3   57.97   24.17
   2   7  -3   41.58   20.11
   2  -7  -3   59.38   54.34
  -2  -7   3   46.67   21.57
  -2   7   2  895.80  177.49
   2   7  -2 1073.29   80.48
   2  -7  -2  905.42  164.95
  -2  -7   2  856.37  162.03
  -2   7   1  517.15  155.12
   2   7  -1  672.23   68.33
   2  -7  -1  563.35   85.70
  -2  -7   1  509.24  103.76
  -2   7   0   14.99   37.94
   2   7   0   51.93   35.67
   2  -7   0   40.04   14.66
  -2  -7   0   73.09   42.50
  -2   7  -1  614.40  154.21
   2   7   1  654.51   67.42
   2  -7   1  682.82  157.13
  -2  -7  -1  746.23  146.01
   2   7   2  117.58   34.74
  -2   7  -2  142.35   35.10
   2  -7   2   76.95   31.56
  -2  -7  -2   74.70   39.34
   2   7   3  243.90   57.35
  -2   7  -3  303.89   75.61
   2  -7   3  274.61   61.21
  -2  -7  -3  316.90   58.19
  -2   7  -4  339.92   83.80
   2   7   4  271.74   66.78
   2  -7   4  373.65  116.01
  -2  -7  -4  343.69   88.66
  -2   7  -5   19.36   13.70
   2  -7   5  -15.51   30.50
  -2  -7  -5   31.13   30.31
  -2   7  -6  271.13   79.51
   2  -7   6  273.61   80.88
  -2  -7  -6  292.28   71.03
   3   0 -16   94.69   44.98
  -3   0  15   65.47   44.70
   3   0 -15   61.41   22.85
  -3   0  14  427.90   92.63
   3   0 -14  429.10  116.36
  -3   0  13   12.39   20.43
   3   0 -13    5.21   31.27
  -3   0  12  986.35  200.57
   3   0 -12 1025.84   79.89
   3   0 -12  948.93   50.56
  -3   0  11  396.01   79.89
   3   0 -11  355.07   68.31
   3   0 -11  321.73   37.92
  -3   0  10   -3.36   22.39
   3   0 -10   13.03   22.50
   3   0 -10   21.54   26.70
  -3   0   9 3802.43  209.44
   3   0  -9 3791.73  138.85
   3   0  -9 3826.54  120.43
  -3   0   8   39.86   31.15
   3   0  -8   38.14   22.36
   3   0  -8   49.41   15.91
  -3   0   7 6759.26  206.39
   3   0  -7 6693.09  180.87
   3   0  -7 7055.41  167.19
  -3   0   6 5897.40  194.90
   3   0  -6 5792.88  135.63
   3   0  -6 5857.02  116.79
  -3   0   5 4838.16  232.85
   3   0  -5 5030.65  185.39
   3   0  -5 5209.58  169.57
  -3   0  -2 1247.99   44.71
   3   0   2 1288.87   58.70
  -3   0  -2 1217.75   58.53
  -3   0  -3 7288.50  128.26
   3   0   3 7217.25  156.03
  -3   0  -3 7011.84  156.63
   3   0   4 1186.04   36.73
   3   0   4 1205.60   56.54
  -3   0  -4 1162.72   62.11
   3   0   5 1377.90   47.16
   3   0   5 1286.08   67.44
  -3   0  -5 1347.58   65.44
   3   0   6 7096.60  229.55
   3   0   6 7345.68  229.52
  -3   0  -6 7266.56  210.29
   3   0   7   48.21   15.53
  -3   0  -7   64.78   27.20
   3   0   8 1971.86  122.12
  -3   0  -8 1966.19  117.04
   3   0   9  772.96  171.36
  -3   0  -9  755.07   67.59
   3   0  10    4.58   22.79
  -3   0 -10   11.35   29.29
   3   0  11  532.82  123.21
  -3   0 -11  621.97   75.50
   3   0  12   19.77   13.69
  -3   0 -12   17.73   29.16
   3   0  13   83.03   41.02
  -3   0 -13   86.62   46.14
   3   1 -15  158.59   40.98
  -3  -1  15  167.42   52.61
   3  -1 -15  192.23   52.88
   3   1 -14   55.75   40.99
  -3   1  14   23.23   16.00
  -3  -1  14   28.37   23.80
   3  -1 -14   47.31   46.92
   3  -1 -14   32.32   21.64
   3   1 -13  536.26  160.91
  -3   1  13  535.93  143.59
  -3  -1  13  573.87  129.39
   3  -1 -13  567.12  131.82
   3  -1 -13  533.84   52.08
   3   1 -12   -7.65   35.33
  -3   1  12   27.40   30.25
  -3  -1  12   19.24   13.62
   3  -1 -12   20.17   18.08
   3  -1 -12    7.74   22.80
   3   1 -11 1888.66   77.34
  -3   1  11 2061.02  102.95
   3   1 -11 1919.18   99.27
   3  -1 -11 1706.48   89.40
  -3  -1  11 1757.65  286.65
   3   1 -10  320.52   31.53
  -3   1  10  387.65   63.60
   3   1 -10  339.56   47.93
   3  -1 -10  559.36   62.91
  -3  -1  10  606.43  118.52
   3   1  -9 1056.56  199.21
  -3   1   9 1009.01   68.16
   3   1  -9  925.68   41.56
  -3  -1   9 1200.64  233.54
   3  -1  -9 1100.43   59.09
   3  -1  -9 1038.15   65.73
   3   1  -8 4792.99  150.80
  -3   1   8 4963.78  165.17
   3   1  -8 4713.36  127.09
  -3  -1   8 4548.23  224.67
   3  -1  -8 4453.12  184.28
   3  -1  -8 4549.43  141.20
   3   1  -7  606.07   46.33
  -3   1   7  696.71   54.89
   3   1  -7  605.65   25.69
  -3  -1   7  541.67  108.75
   3  -1  -7  579.44  117.98
   3  -1  -7  466.94   35.51
   3   1  -6 8472.45  189.21
  -3   1   6 8523.65  221.85
   3   1  -6 8604.53  146.96
  -3  -1   6 9284.24  240.47
   3  -1  -6 8857.81  180.38
   3  -1  -6 8823.69  194.82
   3   1  -5 6429.97  202.27
  -3  -1   5 5598.34  153.07
   3  -1  -5 5184.12  178.17
   3  -1  -5 5322.48  180.54
   3   1  -4 7951.86  179.87
  -3   1   4 8113.62  164.03
  -3  -1   4 7478.90  190.22
   3  -1  -4 7633.81  147.73
   3  -1  -4 8064.20  153.99
  -3   1  -210997.27  201.90
   3   1   210938.11  217.88
  -3   1  -211010.86  214.82
   3  -1   211894.72  217.39
  -3  -1  -211637.33  228.53
  -3   1  -3  654.01   33.83
   3   1   3  702.70   50.84
  -3   1  -3  693.86   47.22
   3  -1   3  725.86   43.46
  -3  -1  -3  726.13   49.17
  -3   1  -4 8172.55  195.72
   3   1   4 8082.12  236.52
  -3   1  -4 8253.95  213.65
   3  -1   4 7635.16  209.49
  -3  -1  -4 7512.62  203.76
  -3   1  -5 1423.24   55.00
   3   1   5 1427.81  119.09
  -3   1  -5 1364.95   72.93
   3  -1   5 1138.67   64.16
  -3  -1  -5 1255.82   76.65
   3   1   6 1245.57  157.02
  -3   1  -6 1209.45   74.65
   3  -1   6 1075.46   86.20
  -3  -1  -6 1081.32   72.58
  -3   1  -7 4235.89  177.80
   3   1   7 4301.10  180.19
   3  -1   7 4539.17  187.99
  -3  -1  -7 4922.12  209.38
   3  -1   7 4586.89  177.05
  -3   1  -8   94.83   27.47
   3   1   8   94.74   21.55
   3  -1   8  120.04   21.47
  -3  -1  -8  142.97   45.10
   3  -1   8  136.34   30.91
   3   1   9  831.63  143.29
  -3   1  -9  906.04   68.58
   3  -1   9  975.26  174.74
  -3  -1  -9 1078.61   88.01
   3   1  10  349.18   76.42
  -3   1 -10  387.14   53.18
   3  -1  10  432.32   71.38
  -3  -1 -10  423.37   64.88
   3   1  11   36.97   18.79
  -3   1 -11   29.08   29.70
   3  -1  11   29.89   26.57
  -3  -1 -11   44.04   32.99
   3   1  12  204.34   55.08
  -3   1 -12  325.39   64.22
   3  -1  12  246.64   76.82
  -3  -1 -12  228.95   63.72
   3   1  13   40.68   25.35
  -3   1 -13    3.86   27.50
  -3  -1 -13   32.04   34.20
   3  -1  13  -19.73   33.25
   3   2 -15   38.93   35.50
  -3  -2  15   19.94   29.41
   3   2 -14  496.57  133.72
  -3   2  14  362.04   89.02
  -3  -2  14  560.37  118.12
   3  -2 -14  592.43   69.42
   3  -2 -14  584.94   64.16
   3   2 -13   14.90   28.95
  -3   2  13  -17.70   21.15
  -3  -2  13   76.58   33.73
   3  -2 -13   18.10   14.46
   3  -2 -13   13.27   27.50
   3   2 -12  458.45   57.79
  -3   2  12  443.98   94.83
  -3  -2  12  473.08   84.96
   3  -2 -12  490.06   55.99
   3  -2 -12  458.69   52.24
   3   2 -11  699.32  143.54
  -3   2  11  651.87  110.46
  -3  -2  11  760.67  134.06
   3  -2 -11  811.21   68.43
   3  -2 -11  807.67  126.08
   3   2 -10 2309.52  129.26
  -3   2  10 2048.48  160.76
  -3  -2  10 2402.11  152.32
   3  -2 -10 2158.41  117.28
   3  -2 -10 2165.13  120.16
   3   2  -9 6703.92  262.19
  -3   2   9 6504.52  258.71
  -3  -2   9 6410.62  362.15
   3  -2  -9 6703.15  263.91
   3  -2  -9 7004.35  281.72
   3   2  -8  146.65   38.68
  -3   2   8  125.10   35.71
  -3  -2   8  149.70   40.94
   3  -2  -8  121.69   29.32
  -3  -2   8  112.49   25.15
   3  -2  -8  164.54   42.47
  -3  -2   7 2543.10   98.84
   3  -2  -7 2554.05   88.17
  -3  -2   7 2549.96   77.49
   3  -2  -7 2679.82  115.86
   3   2  -6 4356.54  131.50
  -3   2   6 4257.88  133.07
  -3  -2   6 3853.53  131.39
   3  -2  -6 3905.41  110.30
  -3  -2   6 3931.12   94.97
   3  -2  -6 3998.92  126.58
   3   2  -5 5234.84  213.20
  -3   2   5 4950.27  181.89
  -3  -2   5 5386.28  223.65
   3  -2  -5 5563.04  119.17
  -3  -2   5 5481.28  130.88
   3  -2  -5 5334.84  189.47
   3   2  -410414.10  207.67
  -3   2   410682.12  225.85
  -3  -2   410250.46  209.76
   3  -2  -410337.34  190.31
   3  -2  -410173.78  214.69
  -3  -2   410197.53  189.65
  -3   2   3 1871.53  100.31
   3   2  -3 1911.52   77.86
   3  -2  -3 1883.74   70.21
   3  -2  -3 1912.77   78.42
  -3  -2   3 1785.50   66.30
  -3   2   212939.96  242.36
   3   2  -212418.98  236.25
   3   2  -212163.02  228.24
   3  -2  -212925.39  215.28
   3  -2  -212744.97  245.78
  -3  -2   212539.39  229.37
   3   2  -1 2554.89   96.37
  -3   2   0 6761.13  140.15
   3   2   0 6748.21  136.34
   3   2   0 6954.66  150.52
   3  -2   0 7415.71  131.88
   3  -2   0 7082.96  149.94
  -3  -2   0 6972.07  146.91
  -3   2  -112140.09  228.48
   3   2   112049.43  218.36
   3   2   112250.87  271.52
  -3   2  -112012.79  236.81
   3  -2   111643.65  211.87
  -3  -2  -111157.35  221.78
  -3   2  -2  853.75   49.41
   3   2   2  802.93   39.17
   3   2   2  877.68   68.48
  -3   2  -2  810.21   49.08
   3  -2   2  869.44   42.82
  -3  -2  -2  759.93   51.81
  -3   2  -3 6570.81  172.08
   3   2   3 6649.58  150.26
   3   2   3 6677.91  199.61
  -3   2  -3 6738.71  181.42
   3  -2   3 6923.55  174.50
  -3  -2  -3 6719.21  220.89
  -3   2  -4  302.91   28.70
   3   2   4  291.03   32.26
   3   2   4  310.33   68.85
  -3   2  -4  367.98   96.88
   3  -2   4  493.23   95.13
  -3  -2  -4  498.46   50.82
  -3   2  -5 1312.46   73.76
   3   2   5 1366.10   70.92
  -3   2  -5 1239.95   65.65
  -3  -2  -5 1326.17   84.99
  -3   2  -6 3808.61  153.37
   3   2   6 3956.60  194.99
  -3   2  -6 3696.77  157.51
  -3  -2  -6 4307.34  191.40
  -3   2  -7  248.95   54.43
   3   2   7  239.37   47.80
  -3   2  -7  233.17   41.44
   3  -2   7  280.92   69.09
  -3  -2  -7  221.51   59.70
  -3   2  -8  642.60   65.78
   3   2   8  769.53  133.85
   3  -2   8  739.22  141.96
  -3  -2  -8  890.69   87.75
   3  -2   8  782.45  154.44
  -3   2  -9  398.81   53.38
   3   2   9  446.31  109.65
   3  -2   9  379.90   74.41
  -3  -2  -9  344.39   56.67
   3  -2   9  323.15   69.93
  -3   2 -10  305.15   48.57
   3   2  10  398.00  113.85
   3  -2  10  377.77   94.67
  -3  -2 -10  389.94   63.65
   3  -2  10  345.53   63.46
   3   2  11  206.81   51.96
  -3   2 -11  223.30   43.96
   3  -2  11  173.70   39.68
  -3  -2 -11  206.04   43.13
   3   2  12   -9.89   35.19
  -3   2 -12   -7.67   25.54
   3  -2  12   36.16   35.36
  -3  -2 -12   23.04   36.91
   3   3 -14   69.68   52.38
  -3   3  14   25.50   11.88
  -3  -3  14   45.12   22.69
   3  -3 -14   20.92   17.44
  -3   3  13  282.60   68.99
  -3   3  13  259.16   66.96
   3   3 -13  331.57   56.62
  -3  -3  13  354.31   70.50
   3  -3 -13  331.21  103.63
  -3   3  12  154.69   28.56
  -3   3  12  162.83   36.91
   3   3 -12  158.50   36.81
  -3  -3  12  202.97   42.29
   3  -3 -12  197.90   47.89
  -3   3  11 1005.19   91.28
  -3   3  11 1070.96  151.19
   3   3 -11 1113.20  239.16
  -3  -3  11  888.57  141.92
   3  -3 -11  890.87  182.64
   3   3 -10 2056.71  109.08
  -3   3  10 1964.32  130.80
  -3  -3  10 2247.16  233.20
   3  -3 -10 2055.42  112.37
   3   3  -9  519.78   84.50
  -3   3   9  540.86  107.37
  -3  -3   9  548.36  128.01
   3  -3  -9  523.11  148.71
   3   3  -8 4723.64  238.56
  -3   3   8 4300.29  242.14
  -3  -3   8 4341.61  271.81
   3  -3  -8 4749.20  241.62
   3   3  -7  576.41  125.93
  -3   3   7  553.92  110.30
  -3  -3   7  635.57  142.52
  -3  -3   7  551.55   61.19
   3  -3  -7  623.72   54.25
   3   3  -6 3867.19  126.88
  -3   3   6 3957.95  131.90
  -3  -3   6 3987.40  134.29
  -3  -3   6 3736.95  116.24
   3  -3  -6 3746.31  143.40
  -3   3   5 5095.59  156.58
   3   3  -5 4967.91  159.89
  -3   3   5 4745.76  140.16
   3   3  -5 4945.59  158.15
  -3  -3   5 4908.17  143.87
   3  -3  -5 4846.23  155.71
  -3   3   4 2497.85   96.47
   3   3  -4 2491.96  154.90
  -3   3   4 2449.98   69.67
   3   3  -4 2576.53   90.06
   3  -3  -4 2360.87   89.31
  -3  -3   4 2384.63   76.20
  -3   3   315735.77  384.64
   3   3  -315914.45  381.44
  -3   3   314288.14  302.94
   3   3  -314867.71  349.19
   3  -3  -313650.28  337.56
  -3  -3   313756.39  322.69
  -3   3   2 1007.42   72.32
   3   3  -2  919.44   49.43
   3   3  -2 1011.88   48.71
   3  -3  -2  855.06   91.82
  -3  -3   2  810.71   45.89
  -3   3   1 5590.93  164.40
   3   3  -1 5441.17  146.32
   3   3  -1 5855.67  161.42
   3  -3  -1 5749.47  160.40
  -3  -3   1 5666.80  154.57
  -3   3   0 7442.06  213.19
   3   3   0 7726.16  198.69
   3   3   0 7929.60  199.60
   3  -3   0 6872.99  192.74
  -3  -3   0 6982.76  188.79
  -3   3  -1 2172.86   79.71
   3   3   1 2090.18  103.55
   3   3   1 2199.59   76.84
   3  -3   1 2632.67   92.44
  -3  -3  -1 2505.83  162.63
  -3   3  -2 9817.27  252.36
   3   3   2 9719.10  237.41
   3   3   2 9615.38  256.23
   3  -3   2 9731.15  233.33
   3  -3   2 9526.32  252.36
  -3  -3  -2 9222.71  371.45
  -3   3  -3 1152.36   80.10
   3   3   3 1204.19   53.58
   3   3   3 1142.54   90.12
   3  -3   3 1159.56  111.63
  -3  -3  -3 1209.15   83.83
   3   3   4 4145.39  121.13
  -3   3  -4 4198.27  146.41
   3   3   4 4110.56  146.10
  -3   3  -4 3968.00  139.92
  -3  -3  -4 4350.70  160.76
   3   3   5  741.94   37.70
  -3   3  -5  744.61  155.02
   3   3   5  788.71  137.92
  -3   3  -5  746.39   51.35
  -3   3  -5  669.09   56.32
  -3  -3  -5  631.01   72.61
  -3   3  -6  296.26   83.47
   3   3   6  294.59   69.83
  -3   3  -6  239.63   38.83
  -3  -3  -6  225.76   56.34
  -3   3  -7 3121.19  248.53
   3   3   7 2940.16  144.96
  -3   3  -7 2880.95  125.43
  -3  -3  -7 2717.65  136.38
  -3   3  -8 1100.96  132.93
   3   3   8 1070.08   84.26
  -3   3  -8  847.82   67.75
  -3  -3  -8  933.14   88.27
  -3   3  -9  844.72   69.98
   3   3   9  796.26  111.06
   3  -3   9  737.40  153.51
  -3  -3  -9  830.41   95.88
   3  -3   9  608.39  134.99
  -3   3 -10  291.79   52.46
   3   3  10  258.58   63.74
   3  -3  10  240.99   53.36
  -3  -3 -10  267.16   62.25
   3  -3  10  208.70   52.00
   3   3  11   43.46   23.72
  -3   3 -11   37.74   27.11
   3  -3  11   16.50   13.18
  -3  -3 -11   29.63   43.83
   3   3  12  226.96   45.43
  -3   3 -12  267.72   49.30
   3  -3  12  203.79   68.21
  -3  -3 -12  317.32   72.73
   3   4 -13   59.71   47.50
  -3   4  13   29.65   21.09
  -3  -4  13   41.11   27.42
   3  -4 -13  -14.28   33.94
  -3   4  12  263.22   50.01
  -3   4  12  247.55   79.16
   3   4 -12  314.59   80.35
  -3  -4  12  408.52   96.59
   3  -4 -12  374.59  100.92
  -3   4  11  126.37   38.65
  -3   4  11  132.85   43.96
   3   4 -11  202.69   50.77
  -3  -4  11  198.08   38.30
   3  -4 -11  227.58   54.90
  -3   4  10  621.25  106.98
  -3   4  10  762.69   59.03
   3   4 -10  894.19   71.50
  -3  -4  10  727.55  154.83
   3  -4 -10  704.90  164.52
  -3   4   9  620.55   79.39
  -3   4   9  615.46  118.93
   3   4  -9  722.00  169.96
  -3  -4   9  607.43  111.76
   3  -4  -9  495.85  116.40
  -3   4   8  379.95   73.32
  -3   4   8  549.88  110.48
   3   4  -8  425.32   46.96
  -3  -4   8  524.88  124.39
   3  -4  -8  489.78  123.70
  -3   4   7 2446.67  125.67
  -3   4   7 2290.34  117.96
   3   4  -7 2404.81  147.57
  -3  -4   7 2262.38  111.05
   3  -4  -7 2353.84  138.70
  -3   4   6 1114.39   81.03
   3   4  -6 1309.03  177.36
  -3   4   6 1077.61   75.49
   3   4  -6 1333.71  152.82
  -3  -4   6 1337.62   77.41
   3  -4  -6 1422.28  272.05
  -3   4   5 1224.49   90.25
   3   4  -5 1290.80   80.51
  -3   4   5 1123.00   63.31
   3   4  -5 1276.61  113.49
   3  -4  -5 1382.24   97.98
  -3  -4   5 1321.20  169.79
  -3   4   4 5290.02  210.40
   3   4  -4 5641.20  197.01
   3   4  -4 5260.15  200.73
   3  -4  -4 5050.52  172.32
  -3  -4   4 5074.52  164.86
  -3   4   3 1380.58  182.33
   3   4  -3 1319.12   79.14
   3   4  -3 1382.30  125.90
   3  -4  -3 1272.55   76.71
  -3  -4   3 1309.83   80.38
  -3   4   2 7640.76  243.39
   3   4  -2 7487.68  260.69
   3   4  -2 7524.08  215.59
   3  -4  -2 7576.15  245.07
  -3  -4   2 7644.37  244.17
  -3   4   1 1417.73   88.32
   3   4  -1 1304.37   68.60
   3   4  -1 1451.19   99.77
   3  -4  -1 1446.85   72.86
  -3  -4   1 1391.46   87.75
  -3   4   0 1772.39   91.61
   3   4   0 1670.91   74.97
   3   4   0 1820.07   79.41
   3  -4   0 1655.01   86.21
  -3  -4   0 1646.21   99.28
  -3   4  -1 4550.84  171.38
   3   4   1 4569.07  145.98
   3   4   1 4587.94  152.60
   3  -4   1 4121.90  195.78
  -3  -4  -1 4261.99  157.18
  -3   4  -2  182.41   47.36
   3   4   2  169.52   30.62
   3   4   2  192.64   39.09
   3  -4   2  177.38   49.63
  -3  -4  -2  188.01   47.31
  -3   4  -3 3340.23  294.04
   3   4   3 3036.99  183.37
   3   4   3 3219.45  140.87
   3  -4   3 3363.36  157.10
  -3  -4  -3 3567.00  171.96
   3   4   4 1456.56   84.42
  -3   4  -4 1457.80  150.83
   3   4   4 1556.50  109.40
   3  -4   4 1430.71   95.91
  -3  -4  -4 1452.96  299.50
   3   4   5 1146.11  107.59
  -3   4  -5 1197.53   80.04
   3   4   5 1249.08  116.89
  -3   4  -5 1190.15   59.34
   3  -4   5 1380.95   89.32
  -3  -4  -5 1392.35  100.00
  -3   4  -6  976.00   65.66
   3   4   6  999.21  198.27
   3  -4   6  801.80  168.73
  -3  -4  -6  954.41   89.40
  -3   4  -7   34.84   18.61
   3   4   7   65.61   24.17
   3  -4   7   29.56   13.36
  -3  -4  -7   29.48   26.92
  -3   4  -8 1351.01   78.77
   3   4   8 1227.86  208.93
   3  -4   8 1104.76  172.84
  -3  -4  -8 1177.53   85.48
  -3   4  -9  177.61   51.40
   3   4   9  216.62   39.49
   3  -4   9  162.82   38.35
   3  -4   9  173.18   54.82
  -3  -4  -9  181.65   70.89
   3   4  10  130.13   31.73
   3  -4  10   62.92   19.60
   3  -4  10  113.10   36.30
  -3  -4 -10  129.13   53.20
   3   4  11  184.64   39.93
  -3  -4 -11  193.88   50.35
   3   5 -12   41.76   43.08
  -3  -5  12   19.29   13.81
   3  -5 -12   40.21   44.28
   3   5 -11  358.35  105.83
  -3   5  11  305.52   71.41
  -3  -5  11  451.83   88.01
   3  -5 -11  394.46  115.54
   3   5 -10  406.25  125.64
  -3   5  10  448.74   92.62
  -3  -5  10  620.14  108.16
   3  -5 -10  491.09   61.70
   3   5  -9   95.89   42.59
  -3   5   9   78.63   22.39
  -3  -5   9   77.33   31.41
   3  -5  -9   65.03   48.78
  -3   5   8 1447.29  116.68
   3   5  -8 1589.14  123.56
   3  -5  -8 1215.92   95.93
  -3   5   7  555.10  119.65
   3   5  -7  622.39  125.25
   3   5  -7  532.06  141.23
  -3  -5   7  545.43  125.25
   3  -5  -7  639.54  149.70
  -3   5   6 2183.03  109.83
   3   5  -6 2130.88  104.30
   3   5  -6 2195.46  154.36
  -3  -5   6 2017.42   72.38
   3  -5  -6 2025.52  107.04
  -3   5   5  678.33   65.81
   3   5  -5  714.99   62.47
   3   5  -5  736.30  164.42
  -3  -5   5  866.26  118.92
   3  -5  -5  919.28  192.90
  -3   5   4  207.25   61.65
   3   5  -4  227.01   59.35
   3   5  -4  157.13   44.87
  -3  -5   4  162.12   44.75
   3  -5  -4  182.86   29.86
  -3   5   3 4162.59  203.98
   3   5  -3 4168.11  224.40
   3   5  -3 4117.12  185.86
   3  -5  -3 4124.38  230.30
  -3  -5   3 4147.86  195.95
  -3   5   2  647.87  169.05
   3   5  -2  644.48  145.84
   3   5  -2  663.75   56.43
   3  -5  -2  687.49  120.00
  -3  -5   2  695.94  147.16
  -3   5   1 4045.37  221.76
   3   5  -1 4052.71  254.41
   3   5  -1 4044.05  183.54
   3  -5  -1 3937.72  195.47
  -3  -5   1 3674.57  232.38
  -3   5   0 3778.98  188.13
   3   5   0 3846.93  181.16
   3   5   0 3574.72  176.90
   3  -5   0 3228.30  187.53
  -3  -5   0 3475.48  186.45
  -3   5  -1  216.03   56.13
   3   5   1  226.39   69.47
   3   5   1  192.77   31.81
   3  -5   1  165.42   41.48
  -3  -5  -1  190.07   44.50
  -3   5  -2 2830.20  126.23
   3   5   2 2809.06  111.42
   3   5   2 2863.22  118.00
   3  -5   2 2666.86  163.09
  -3  -5  -2 2448.25  229.37
  -3   5  -3  173.81   44.72
   3   5   3  194.96   34.82
   3   5   3  138.56   31.91
   3  -5   3  245.62   59.37
  -3  -5  -3  247.19   55.55
   3   5   4 1342.20  194.03
  -3   5  -4 1460.19  258.27
   3   5   4 1447.11  171.63
   3  -5   4 1471.54  175.38
  -3  -5  -4 1402.64  235.16
  -3   5  -5 1470.88  143.10
   3   5   5 1376.16   96.45
   3   5   5 1354.08  130.59
   3  -5   5 1386.10  238.70
  -3  -5  -5 1469.73  107.41
  -3   5  -6   54.43   21.26
   3   5   6   71.13   18.19
   3  -5   6   84.51   23.21
  -3  -5  -6   79.81   37.85
  -3   5  -7  507.41  106.85
   3   5   7  438.32   83.89
   3  -5   7  508.08   95.03
  -3  -5  -7  497.70   79.69
  -3   5  -8  147.69   41.92
   3   5   8  169.49   27.73
   3  -5   8  132.86   41.04
  -3  -5  -8  158.84   60.08
  -3   5  -9  116.00   33.56
   3   5   9   96.61   32.13
   3  -5   9   51.44   36.03
  -3  -5  -9   69.72   61.60
  -3  -5 -10   70.35   43.20
   3   6 -10  178.56   59.11
  -3   6  10  165.73   45.83
  -3  -6  10  217.18   66.88
   3  -6 -10  227.55   59.36
   3   6  -9  438.95  121.15
  -3   6   9  451.68  110.10
  -3  -6   9  637.30  153.48
   3  -6  -9  536.30   97.26
  -3   6   8  -25.85   26.44
   3   6  -8    6.80   30.03
   3  -6  -8   -2.19   30.84
  -3   6   7 1068.77  223.28
   3   6  -7 1323.34  278.57
   3   6  -7 1187.99   78.40
   3  -6  -7 1296.52  111.48
  -3   6   6  281.87   75.84
   3   6  -6  331.94   83.74
   3   6  -6  260.88   71.87
  -3  -6   6  221.24   55.49
   3  -6  -6  344.95   73.06
  -3   6   5  767.58  166.66
   3   6  -5  824.30   79.95
   3   6  -5  662.40  168.10
  -3  -6   5  740.04  166.52
   3  -6  -5  857.12  187.08
  -3   6   4  957.70  205.97
   3   6  -4 1020.84  150.51
   3   6  -4  898.87   69.24
   3  -6  -4  921.33  181.93
  -3  -6   4  820.74  187.30
  -3   6   3   24.16   30.63
   3   6  -3   25.30   21.60
   3   6  -3   10.75   13.80
   3  -6  -3   31.55   17.75
  -3  -6   3   38.76   21.20
  -3   6   2 2556.58  119.51
   3   6  -2 2428.44  117.97
   3   6  -2 2453.56   83.64
   3  -6  -2 2163.92  103.70
  -3  -6   2 1850.85  320.40
  -3   6   1  703.61   61.53
   3   6  -1  797.27   67.11
   3   6  -1  656.51  126.98
   3  -6  -1  580.35   91.99
  -3  -6   1  581.77   91.11
  -3   6   0 2263.49  111.37
   3   6   0 2129.52   89.32
   3   6   0 1991.16  160.62
   3  -6   0 2208.01  100.39
  -3  -6   0 1969.04  260.93
  -3   6  -1 3317.51  119.15
   3   6   1 3377.08  120.40
   3   6   1 2940.73  196.95
   3  -6   1 3282.26  271.98
  -3  -6  -1 3399.28  129.52
  -3   6  -2  203.40   46.10
   3   6   2  136.62   33.12
   3   6   2  130.75   34.19
   3  -6   2  121.50   35.71
  -3  -6  -2  191.65   61.82
   3   6   3 1263.69  121.71
  -3   6  -3 1456.04  117.61
   3   6   3 1249.27   73.22
   3  -6   3 1178.76  287.34
  -3  -6  -3 1262.65  238.34
  -3   6  -4  572.59  123.92
   3   6   4  515.31  100.85
   3   6   4  507.50  126.09
   3  -6   4  550.66  105.19
  -3  -6  -4  694.95   92.85
  -3   6  -5  359.60   82.89
   3   6   5  299.12   52.19
   3  -6   5  362.18   75.13
  -3  -6  -5  339.88   99.10
  -3   6  -6  755.06   84.95
   3   6   6  531.89  104.00
   3  -6   6  558.73  153.07
  -3  -6  -6  758.31  100.60
  -3   6  -7   18.02   15.84
   3   6   7    3.80   10.94
   3  -6   7   -4.33   26.07
  -3  -6  -7   10.94   53.22
  -3   6  -8  218.62   72.06
   3  -6   8  153.66   64.43
  -3  -6  -8  207.17   67.04
  -3   7   7   34.46   32.36
   3   7  -7   -9.27   40.57
   3  -7  -7  -30.69   44.15
  -3   7   6  368.66  103.21
   3   7  -6  430.35  117.20
   3  -7  -6  455.81  138.22
  -3   7   5  279.31   68.48
   3   7  -5  275.27   81.32
   3  -7  -5  283.11   70.69
  -3   7   4   67.03   14.14
   3   7  -4  118.21   31.52
   3  -7  -4   75.20   28.56
  -3  -7   4   64.87   31.91
  -3   7   3 1157.31   93.41
   3   7  -3 1097.64  248.03
   3  -7  -3 1028.05  297.37
  -3  -7   3  841.05  203.47
  -3   7   2  111.54   45.53
   3   7  -2   86.21   29.28
   3  -7  -2  110.51   31.43
  -3  -7   2   39.07   30.57
  -3   7   1  660.01  178.21
   3   7  -1  655.35  161.52
   3  -7  -1  618.43  118.43
  -3  -7   1  596.78  136.52
  -3   7   0  495.83  121.54
   3   7   0  493.68   59.71
   3  -7   0  385.05  136.82
  -3  -7   0  449.45  118.90
  -3   7  -1   86.75   38.17
   3   7   1  114.74   36.65
   3  -7   1  158.43   39.82
  -3  -7  -1  111.26   27.05
  -3   7  -2  573.59  125.15
   3   7   2  447.96  101.11
   3  -7   2  547.85  119.16
  -3  -7  -2  541.00  111.34
   3   7   3  145.61   31.67
  -3   7  -3   84.18   38.17
   3  -7   3  130.25   30.64
  -3  -7  -3  218.75   50.41
  -3   7  -4  232.48   64.79
   3  -7   4  234.29   62.52
  -3  -7  -4  270.56   56.16
  -3   7  -5  362.13   72.53
   3  -7   5  286.61   77.83
  -3  -7  -5  366.64   80.90
   4   0 -16  258.68   46.91
  -4   0  15  264.78   60.44
   4   0 -15  233.36   52.25
  -4   0  14   38.86   27.88
   4   0 -14   -2.66   36.72
  -4   0  13 1389.63  303.17
   4   0 -13 1451.67   90.63
  -4   0  12   11.35   17.33
   4   0 -12   -4.40   31.96
   4   0 -12    3.99   13.87
  -4   0  11  157.85   47.92
   4   0 -11   97.04   37.75
   4   0 -11  100.72   23.58
  -4   0  10 4264.37  198.87
   4   0 -10 4184.07  179.24
   4   0 -10 4000.61  149.11
  -4   0   9 2134.59  183.51
   4   0  -9 2197.32  100.51
   4   0  -9 2142.19   73.62
  -4   0   8 3231.87  132.46
   4   0  -8 3038.84  109.05
   4   0  -8 3011.71   95.67
  -4   0   7  318.54   85.89
   4   0  -7  391.58   85.23
   4   0  -7  305.50   32.24
  -4   0   6 5074.70  238.99
   4   0  -6 5170.02  200.59
   4   0  -6 5254.36  172.17
  -4   0   5 6508.74  181.42
   4   0  -5 6603.53  142.31
   4   0  -5 6651.65  125.89
  -4   0   4 2343.50  140.30
   4   0  -4 2296.29   89.73
   4   0  -4 2412.12   83.67
  -4   0  -1 1386.61   51.46
   4   0   1 1304.33   69.51
  -4   0  -1 1300.26   63.52
  -4   0  -2 8922.75  156.09
   4   0   2 8754.94  187.24
  -4   0  -2 8715.88  184.21
  -4   0  -3  147.82   22.18
   4   0   3  175.37   39.91
  -4   0  -3  147.45   26.07
   4   0   4  101.21   24.73
  -4   0  -4   71.43   30.64
   4   0   5 1960.69   88.99
  -4   0  -5 1987.24   94.89
   4   0   6  633.17  102.85
  -4   0  -6  591.43   56.71
   4   0   7 1525.98  106.77
  -4   0  -7 1515.50  105.11
   4   0   8   39.47   16.53
  -4   0  -8    1.23   31.71
   4   0   9  385.44   76.89
  -4   0  -9  404.77   55.33
   4   0  10   91.88   27.00
  -4   0 -10  132.86   50.93
   4   0  11  118.91   54.85
  -4   0 -11  192.98   57.89
   4   0  12   71.49   30.92
  -4   0 -12  108.66   48.61
   4   1 -16   47.57   35.33
  -4  -1  16   23.06   15.79
   4  -1 -16   89.30   51.40
   4   1 -15  142.25   54.26
  -4   1  15   59.50   35.21
  -4  -1  15  127.16   49.43
   4  -1 -15   47.81   32.44
   4   1 -14  432.11   68.79
  -4   1  14  356.96   92.85
  -4  -1  14  429.23  131.46
   4  -1 -14  472.73   63.38
   4   1 -13   97.32   46.00
  -4   1  13   46.26   38.38
  -4  -1  13  126.76   41.64
   4  -1 -13   72.89   30.32
   4  -1 -13   67.29   22.64
   4   1 -12 2239.44   98.65
  -4   1  12 2355.37  112.34
  -4  -1  12 2284.61  328.01
   4  -1 -12 2248.05   99.69
   4  -1 -12 2276.31   80.76
   4   1 -11  469.32   97.36
  -4   1  11  423.15   66.94
  -4  -1  11  434.85  102.15
   4  -1 -11  484.06   57.72
   4  -1 -11  421.79   40.66
   4   1 -10 3890.72  206.42
  -4   1  10 3509.01  194.77
  -4  -1  10 3250.88  242.33
   4  -1 -10 3017.56  163.63
   4  -1 -10 3165.30  159.74
   4   1  -9 6619.53  215.31
  -4   1   9 6345.23  211.25
  -4  -1   9 7210.08  261.22
   4  -1  -9 6620.60  210.28
   4  -1  -9 6747.18  212.58
   4   1  -8  425.90  108.84
  -4   1   8  307.94   48.15
  -4  -1   8  281.10   59.75
   4  -1  -8  288.50   62.23
   4  -1  -8  244.92   30.55
   4   1  -7 4972.60  148.85
  -4  -1   7 5798.51  185.53
   4  -1  -7 5911.96  161.24
   4   1  -6 4224.39  161.55
  -4   1   6 4128.87  158.16
  -4  -1   6 4017.70  168.36
   4  -1  -6 3969.90  146.82
   4  -1  -6 4066.55  155.42
  -4  -1   510156.43  255.46
   4  -1  -510023.13  208.50
   4  -1  -510314.93  198.86
   4   1  -410292.68  204.45
  -4   1   410646.02  212.75
  -4  -1   410401.63  213.73
   4  -1  -410499.53  195.92
   4  -1  -410548.45  201.42
  -4  -1   410978.37  183.21
   4   1  -3 1317.31   60.07
  -4   1   3 1279.32   61.82
  -4  -1   3 1183.89   82.80
   4  -1  -3 1101.36   46.31
   4  -1  -3 1216.50   51.51
  -4  -1   3 1118.15   42.90
   4   1  -112048.37  234.81
  -4   1   112287.71  233.63
  -4   1   111767.11  222.02
  -4  -1   112434.23  230.29
  -4  -1   112514.65  228.76
   4  -1  -113157.79  231.36
  -4   1   0 2664.05  102.16
   4   1   0 2636.52  108.53
  -4   1   0 2575.75   99.41
  -4  -1   0 2703.82  108.52
   4  -1   0 2660.19  100.22
  -4  -1   0 2447.94   96.40
  -4   1  -1 8548.64  169.44
   4   1   1 8707.22  179.49
  -4  -1  -1 8037.12  146.87
   4  -1   1 7697.98  151.06
  -4   1  -2  104.82   23.20
   4   1   2  148.31   33.64
  -4   1  -2   83.55   27.34
   4  -1   2  168.66   36.55
  -4  -1  -2  136.40   47.88
  -4   1  -3 7214.70  180.35
   4   1   3 7234.41  196.43
  -4   1  -3 7487.69  199.13
   4  -1   3 6948.34  229.54
  -4  -1  -3 6987.48  191.01
  -4   1  -4 2713.90   91.94
   4   1   4 2804.36  101.34
  -4   1  -4 2829.00  123.24
   4  -1   4 2549.80   91.36
  -4  -1  -4 2444.24   97.14
  -4   1  -5 2206.04   79.91
   4   1   5 2122.18  144.56
  -4   1  -5 2185.72  100.85
   4  -1   5 2528.31  102.68
  -4  -1  -5 2577.70  111.53
   4   1   6 3179.45  158.91
  -4   1  -6 3235.73  150.18
   4  -1   6 3155.24  142.41
  -4  -1  -6 3171.72  154.29
  -4   1  -7  -11.57   33.64
   4   1   7   -2.75   21.22
   4  -1   7   -2.97   29.83
  -4  -1  -7   11.02   42.28
   4  -1   7    1.85    4.40
   4   1   8 1335.34  217.86
  -4   1  -8 1365.70   88.22
  -4  -1  -8 1422.40   91.82
   4  -1   8 1389.98  205.57
   4   1   9   19.98   24.88
  -4   1  -9   51.94   32.57
   4  -1   9   90.46   24.36
  -4  -1  -9  113.32   47.70
   4   1  10  215.49   54.60
  -4   1 -10  259.61   53.54
  -4  -1 -10  186.07   53.42
   4  -1  10  182.00   43.62
   4   1  11  163.98   49.56
  -4   1 -11   89.37   44.38
  -4  -1 -11  160.87   49.98
   4  -1  11  118.35   39.01
   4   1  12   -8.46   37.54
  -4   1 -12   21.13   28.85
  -4  -1 -12  -22.97   34.37
   4  -1  12    6.56   19.48
   4   2 -15   94.95   35.95
  -4  -2  15  184.22   42.59
   4  -2 -15   99.97   44.50
   4   2 -14   21.66   40.45
  -4   2  14   66.61   15.08
  -4  -2  14   55.75   36.21
   4  -2 -14   79.35   33.05
   4  -2 -14  109.87   37.09
   4   2 -13  929.99   76.31
  -4   2  13  792.24  140.09
  -4  -2  13 1082.01  195.58
   4  -2 -13 1018.07   77.69
   4  -2 -13 1014.38   71.41
   4   2 -12  -13.63   34.68
  -4   2  12   39.16   35.41
  -4  -2  12   21.90   32.60
   4  -2 -12   36.25   27.65
   4  -2 -12    4.02   20.37
   4   2 -11 1800.37   89.74
  -4   2  11 1670.78   80.48
  -4  -2  11 1440.19  257.55
   4  -2 -11 1484.64   79.03
   4  -2 -11 1480.95   69.39
   4   2 -10 2663.27  140.58
  -4   2  10 2740.54  141.69
  -4  -2  10 2788.13  195.93
   4  -2 -10 2960.80  152.33
   4  -2 -10 2978.17  152.20
   4   2  -9  403.80  116.90
  -4   2   9  299.07   70.03
  -4  -2   9  289.13   55.52
   4  -2  -9  234.71   43.49
   4  -2  -9  260.12   71.91
   4   2  -8 5151.06  175.23
  -4   2   8 5020.04  174.64
  -4  -2   8 5020.39  223.36
   4  -2  -8 5258.43  178.62
   4  -2  -8 5105.61  179.79
   4   2  -7  164.34   46.71
  -4   2   7  157.55   37.40
  -4  -2   7  175.06   41.07
   4  -2  -7  190.04   33.53
   4  -2  -7  200.86   59.07
   4   2  -6 3358.07  116.60
  -4   2   6 3144.18  107.68
  -4  -2   6 2911.78  143.35
   4  -2  -6 2963.76   94.66
   4  -2  -6 2858.48   92.52
   4   2  -5 7914.65  219.29
  -4   2   5 8167.33  221.25
  -4  -2   5 8477.10  234.53
   4  -2  -5 8513.60  205.44
   4  -2  -5 8556.16  214.64
  -4  -2   5 8289.12  180.23
  -4  -2   4 2010.67  103.66
   4  -2  -4 2065.68   77.33
   4  -2  -4 2067.43   87.17
  -4  -2   4 2062.41   74.66
   4   2  -3 9580.05  202.04
  -4   2   3 9885.44  214.05
  -4  -2   3 8958.34  194.95
   4  -2  -3 8994.25  162.92
   4  -2  -3 8909.89  186.78
  -4  -2   3 9221.20  172.38
   4   2  -2  415.47   36.51
  -4   2   2  448.94  106.59
  -4  -2   2  448.73   34.90
   4  -2  -2  434.87   21.09
   4  -2  -2  465.37   31.49
  -4  -2   2  412.54   32.75
  -4  -2   1 8962.35  182.31
   4  -2  -1 8980.53  199.22
  -4  -2   1 8949.71  179.63
  -4  -2   0 8274.26  171.55
   4  -2   0 8418.65  156.38
  -4  -2   0 8259.91  177.78
  -4   2  -1 2364.21   85.82
   4   2   1 2378.43  108.12
  -4   2  -1 2312.53   90.08
  -4  -2  -1 2506.90   75.87
   4  -2   1 2681.77   99.12
  -4  -2  -1 2532.01   89.11
  -4   2  -2 3977.19  125.12
   4   2   2 4109.67  138.37
   4  -2   2 3493.84  104.92
  -4  -2  -2 3315.96  116.68
  -4  -2  -2 3372.99   88.59
  -4   2  -3  400.57   84.69
   4   2   3  405.25  110.01
  -4   2  -3  326.15   77.02
  -4  -2  -3  342.25   20.71
   4  -2   3  363.65   69.86
  -4  -2  -3  420.16  135.02
  -4   2  -4 3634.46  118.70
   4   2   4 3734.13  174.71
  -4   2  -4 3790.01  132.08
   4  -2   4 3708.00  152.26
  -4  -2  -4 3832.76  140.33
  -4   2  -5 2395.64  103.39
   4   2   5 2386.41  128.69
  -4   2  -5 2301.24  111.68
   4  -2   5 2536.93  120.74
  -4  -2  -5 2435.80  130.77
  -4   2  -6    7.02   12.23
   4   2   6   27.52   30.63
  -4   2  -6   38.46   32.22
   4  -2   6   31.37   15.78
  -4  -2  -6   15.84   46.51
  -4   2  -7  137.88   30.00
   4   2   7  104.44   28.50
  -4   2  -7  109.51   36.29
   4  -2   7  102.08   22.89
  -4  -2  -7   72.22   39.40
  -4   2  -8  135.31   37.38
   4   2   8  182.62   51.23
   4  -2   8  174.47   42.81
  -4  -2  -8  185.49   60.16
   4  -2   8  134.58   32.03
   4   2   9  364.24   67.79
  -4   2  -9  338.06   59.22
   4  -2   9  248.88   47.24
  -4  -2  -9  263.47   60.28
   4   2  10  103.45   45.72
  -4   2 -10  128.32   57.02
   4  -2  10  151.77   45.04
  -4  -2 -10  163.50   52.36
   4   2  11   19.65   11.64
  -4   2 -11   33.71   29.50
   4  -2  11   33.49   19.18
  -4  -2 -11   12.45   38.49
   4   2  12  149.76   44.64
  -4   2 -12  111.13   41.72
   4  -2  12  119.52   36.23
  -4  -2 -12   47.81   39.36
   4   3 -15   53.24   50.80
  -4   3  15   36.08   14.74
  -4  -3  15   18.79   27.43
  -4   3  14  135.74   35.66
  -4   3  14  134.06   47.19
   4   3 -14  166.25   59.76
  -4  -3  14  226.00   47.99
   4  -3 -14  202.78   45.04
   4   3 -13   57.82   27.63
  -4   3  13   44.87   21.08
  -4  -3  13   11.70   16.81
   4  -3 -13   60.08   45.84
   4   3 -12  912.84  174.75
  -4   3  12  794.73  157.25
  -4  -3  12  936.08  161.09
   4  -3 -12  886.51   68.66
   4  -3 -12  741.31  151.05
   4   3 -11  123.62   36.26
  -4   3  11  125.73   31.61
  -4  -3  11  185.95   46.76
   4  -3 -11  138.01   25.39
   4  -3 -11  174.78   34.73
   4   3 -10  338.69   50.92
  -4   3  10  295.31   62.69
  -4  -3  10  449.68   80.40
   4  -3 -10  394.44   45.91
   4  -3 -10  398.83  110.24
   4   3  -9 2480.85  134.85
  -4   3   9 2329.57  127.77
  -4  -3   9 2744.05  169.83
   4  -3  -9 2802.57  134.76
   4  -3  -9 2805.93  144.09
   4   3  -8  160.88   39.90
  -4   3   8  159.08   35.52
  -4  -3   8  127.59   34.07
   4  -3  -8  112.22   22.82
   4  -3  -8  142.75   34.20
   4   3  -7 5170.05  221.76
  -4   3   7 5140.53  238.17
  -4  -3   7 4703.11  229.20
   4  -3  -7 4922.86  180.95
   4  -3  -7 5029.23  201.27
   4   3  -6  996.09   67.42
  -4   3   6  848.14  105.48
  -4  -3   6 1075.54   87.90
   4  -3  -6  988.82   48.55
   4  -3  -6 1093.60  200.95
  -4  -3   6 1010.67   50.22
   4   3  -5 4034.12  132.11
  -4   3   5 3937.83  135.38
  -4  -3   5 3675.17  131.89
   4  -3  -5 3459.81   94.23
   4  -3  -5 3680.09  123.05
  -4  -3   5 3540.67  113.28
  -4   3   4 5014.83  164.25
   4   3  -4 4966.80  175.16
   4  -3  -4 4350.48  133.17
  -4  -3   4 4249.90  131.37
  -4   3   3  143.45   30.31
   4   3  -3   96.58   21.97
   4   3  -3  158.32   29.17
   4  -3  -3   90.41   26.97
  -4  -3   3  100.46   22.77
  -4   3   2 9969.19  269.38
   4   3  -210080.73  277.87
   4   3  -2 9948.91  260.60
   4  -3  -2 9068.12  235.93
  -4  -3   2 9324.13  246.07
  -4   3   1  758.19   48.69
   4   3  -1  799.21   47.15
   4   3  -1  865.84   49.93
   4  -3  -1  920.34   51.93
  -4  -3   1  921.09   60.35
  -4   3   0 3304.92  157.73
   4   3   0 3520.51  108.04
   4   3   0 3505.44  112.07
   4  -3   0 3455.25  116.61
  -4  -3   0 3399.56  129.58
  -4   3  -1 2285.29   91.88
   4   3   1 2361.96   75.55
   4   3   1 2276.28  103.61
   4  -3   1 2231.60   67.24
   4  -3   1 2138.33   91.14
  -4  -3  -1 2258.45   94.63
  -4   3  -2  604.19   49.19
   4   3   2  589.58   67.69
   4   3   2  569.43   56.15
   4  -3   2  481.10   64.84
   4  -3   2  499.36  108.79
  -4  -3  -2  558.43   65.90
  -4   3  -3 6885.76  218.17
   4   3   3 6944.53  191.68
   4   3   3 6655.57  245.63
  -4   3  -3 6942.77  220.28
   4  -3   3 6906.08  212.38
  -4  -3  -3 6892.10  245.94
  -4   3  -4  446.68   95.12
   4   3   4  381.18   97.67
  -4   3  -4  404.90   48.78
   4  -3   4  332.20   71.70
  -4  -3  -4  274.82   43.73
  -4   3  -5 1399.23   91.64
   4   3   5 1425.03   98.77
  -4   3  -5 1282.50   90.32
   4  -3   5 1219.33   75.97
  -4  -3  -5 1207.90   94.28
  -4   3  -6  229.24   34.30
   4   3   6  263.51   77.01
  -4   3  -6  302.24   55.76
   4  -3   6  355.32   61.92
  -4  -3  -6  389.60   91.07
  -4   3  -7   28.63   14.78
   4   3   7   48.44   19.97
  -4   3  -7   21.74   28.52
   4  -3   7   79.20   21.95
  -4  -3  -7  -34.84   44.19
  -4   3  -8  417.84   89.51
   4   3   8  410.84   84.33
  -4   3  -8  409.57   64.02
   4  -3   8  310.10   70.15
  -4  -3  -8  326.75   64.07
  -4   3  -9   54.97   33.92
   4   3   9  112.21   33.76
   4  -3   9  169.51   41.11
  -4  -3  -9  107.04   52.08
   4  -3   9  127.28   40.77
   4   3  10  215.13   48.16
  -4   3 -10  173.19   43.23
   4  -3  10  141.21   39.23
  -4  -3 -10  174.15   55.88
   4   3  11  102.11   36.47
  -4   3 -11  130.06   47.32
   4  -3  11  115.35   35.46
  -4  -3 -11   71.50   41.20
   4   4 -14   61.13   39.58
  -4   4  14   24.33   18.42
  -4  -4  14   73.63   27.41
   4  -4 -14   80.95   49.27
  -4   4  13  329.63   87.60
  -4   4  13  322.65   85.45
   4   4 -13  375.42  148.53
  -4  -4  13  629.84  118.20
   4  -4 -13  503.28  141.77
  -4   4  12   34.83   14.08
  -4   4  12    7.60   17.19
   4   4 -12   38.22   47.93
  -4  -4  12   25.36   30.41
   4  -4 -12   52.40   20.03
  -4   4  11  715.13  171.93
  -4   4  11  830.52  166.28
   4   4 -11  897.84  203.44
  -4  -4  11 1059.62  173.40
   4  -4 -11 1065.49  209.98
  -4   4  10  589.66  104.88
  -4   4  10  686.81  165.03
   4   4 -10  918.44   74.85
  -4  -4  10  706.50  155.20
   4  -4 -10  691.87  146.04
  -4   4   9  430.39  109.58
  -4   4   9  574.49  113.91
   4   4  -9  544.88  117.85
  -4  -4   9  700.23  116.78
   4  -4  -9  737.75  182.97
  -4   4   8 1957.58   90.73
  -4   4   8 2217.70  100.84
   4   4  -8 2265.90  119.23
  -4  -4   8 2312.33  128.83
   4  -4  -8 2222.16  112.55
  -4   4   7   18.13   12.77
  -4   4   7   38.93   16.96
   4   4  -7   29.92   23.47
  -4  -4   7   18.84   23.03
  -4  -4   7   24.12   16.82
   4  -4  -7   49.52   28.40
  -4   4   6 1992.46  116.87
  -4   4   6 1826.86   97.66
   4   4  -6 2043.03  124.81
   4  -4  -6 1999.88  127.46
  -4  -4   6 2040.48  109.19
  -4   4   5 3336.29  152.59
   4   4  -5 3418.60  156.03
   4   4  -5 3311.87  162.26
   4  -4  -5 3331.93  226.71
  -4  -4   5 3617.49  142.55
  -4   4   4 3072.12  134.85
   4   4  -4 3055.61  154.75
   4   4  -4 3241.52  142.37
   4  -4  -4 3557.34  163.53
  -4  -4   4 3357.75  147.20
  -4   4   310536.58  396.79
   4   4  -310646.44  393.18
   4   4  -310236.43  296.27
   4  -4  -3 9729.96  351.63
  -4  -4   310165.63  328.56
  -4   4   2  280.89   76.47
   4   4  -2  253.78   71.99
   4   4  -2  292.30   57.48
   4  -4  -2  250.08   52.30
  -4  -4   2  286.86   63.90
  -4   4   1 3943.64  157.95
   4   4  -1 3882.88  132.97
   4   4  -1 3829.38  128.39
   4  -4  -1 3445.00  129.32
  -4  -4   1 3410.99  127.71
  -4   4   0 2391.00  114.13
   4   4   0 2443.27  114.21
   4   4   0 2557.26  113.35
   4  -4   0 2453.04  118.20
  -4  -4   0 2474.22  120.47
  -4   4  -1 1054.68   73.16
   4   4   1 1065.75   99.51
   4   4   1 1159.17   72.55
   4  -4   1 1165.01   74.40
  -4  -4  -1 1211.03  236.27
  -4   4  -2 3198.73  174.51
   4   4   2 3000.78  153.80
   4   4   2 2874.46  172.74
   4  -4   2 3451.22  183.70
  -4  -4  -2 3311.19  183.07
  -4   4  -3   84.23   36.04
   4   4   3   83.93   26.26
   4   4   3   88.08   22.57
   4  -4   3   64.77   18.87
   4  -4   3   48.43   18.04
  -4  -4  -3    2.67   50.60
  -4   4  -4 2633.36  141.22
   4   4   4 2503.08  134.87
   4   4   4 2507.02  194.68
   4  -4   4 2626.33  136.08
   4  -4   4 2485.18  132.30
  -4  -4  -4 2608.10  145.01
  -4   4  -5 1114.51  213.07
   4   4   5 1132.17   81.45
   4  -4   5  858.18  151.14
   4  -4   5 1037.68  214.11
  -4  -4  -5  965.71  217.62
  -4   4  -6  610.54  162.39
   4   4   6  636.32  117.04
   4  -4   6  565.64  106.44
   4  -4   6  563.58  131.93
  -4  -4  -6  660.52   69.28
  -4   4  -7 1253.05  228.35
   4   4   7 1317.93  124.30
   4  -4   7 1228.75  230.13
   4  -4   7 1326.80  290.20
  -4  -4  -7 1610.80  101.04
  -4   4  -8   71.58   26.29
   4   4   8   57.05   21.71
   4  -4   8   34.00   15.17
  -4  -4  -8   92.21   51.52
  -4   4  -9  139.87   42.89
   4   4   9  176.96   40.23
   4  -4   9  138.21   41.98
  -4  -4  -9  285.31   82.33
   4   4  10  138.38   39.66
   4  -4  10   78.22   24.75
  -4  -4 -10  101.81   46.60
   4   5 -12  386.49  105.59
  -4   5  12  296.04   73.83
  -4  -5  12  398.99   96.75
   4  -5 -12  331.49   63.12
   4   5 -11   91.33   34.07
  -4   5  11   62.57   17.72
  -4  -5  11  131.35   47.84
   4  -5 -11   72.60   40.93
   4   5 -10  406.14   86.72
  -4   5  10  399.56   99.99
  -4  -5  10  465.97   94.08
   4  -5 -10  452.44  100.37
   4   5  -9  845.79   66.22
  -4   5   9  816.47  135.25
  -4  -5   9  717.38  129.53
   4  -5  -9  705.22  121.02
   4   5  -8   72.17   26.73
  -4   5   8    8.09   12.93
  -4  -5   8   69.76   32.91
   4  -5  -8   64.53   35.66
  -4   5   7 1654.47   84.01
   4   5  -7 1637.30  285.65
   4  -5  -7 1611.54  313.34
  -4   5   6  177.06   35.84
   4   5  -6  242.77   53.62
   4   5  -6  183.74   38.40
   4  -5  -6  244.79   56.57
  -4  -5   6  193.52   44.32
  -4   5   5  766.57  106.28
   4   5  -5  876.41  163.43
   4   5  -5  765.15  141.24
   4  -5  -5  675.95  170.74
  -4  -5   5  641.04   92.26
  -4   5   4 2135.76  108.50
   4   5  -4 2084.76  173.70
   4   5  -4 1987.36  115.57
   4  -5  -4 2338.02  160.52
  -4  -5   4 2268.41  106.52
  -4   5   3   75.96   18.39
   4   5  -3   66.11   36.69
   4   5  -3   31.58   12.80
   4  -5  -3  120.69   32.63
  -4  -5   3  117.46   24.19
  -4   5   2  743.06  186.52
   4   5  -2  704.28   62.02
   4   5  -2  698.29   52.44
   4  -5  -2  550.40  140.07
  -4  -5   2  582.33  152.62
  -4   5   1  415.97   90.41
   4   5  -1  479.94  101.62
   4   5  -1  368.40   70.31
   4  -5  -1  427.28   89.88
  -4  -5   1  508.85  120.64
  -4   5   0 1383.90  237.60
   4   5   0 1349.39   76.21
   4   5   0 1286.57  159.21
   4  -5   0 1121.74  214.74
  -4  -5   0 1082.93  204.98
  -4   5  -1 1266.93   90.44
   4   5   1 1150.55   78.15
   4   5   1 1446.65   79.34
   4  -5   1 1314.71  263.50
  -4  -5  -1 1329.05  258.75
  -4   5  -2  107.36   27.06
   4   5   2   86.62   25.20
   4   5   2   87.31   22.81
   4  -5   2   92.26   21.48
  -4  -5  -2  120.10   36.97
  -4   5  -3 1535.12   94.53
   4   5   3 1513.74  111.73
   4   5   3 1420.82  211.86
   4  -5   3 1404.57   85.81
  -4  -5  -3 1395.19  286.85
  -4   5  -4  408.72   74.55
   4   5   4  281.24   80.76
   4   5   4  361.28   92.55
   4  -5   4  382.04   92.53
  -4  -5  -4  343.41   61.70
  -4   5  -5  298.27   70.97
   4   5   5  277.59   58.19
   4  -5   5  328.87   61.12
  -4  -5  -5  299.56   56.87
  -4   5  -6  278.95   47.03
   4   5   6  314.98   86.57
   4  -5   6  343.00   65.06
  -4  -5  -6  313.06   73.23
  -4   5  -7   33.29   18.35
   4   5   7   44.61   18.23
   4  -5   7   62.11   19.97
  -4  -5  -7  122.07   71.50
  -4   5  -8  250.96   58.76
   4   5   8  254.86   54.54
   4  -5   8  282.99   71.27
  -4  -5  -8  428.56   89.27
  -4   5  -9   55.49   18.29
   4   5   9   38.40   20.58
   4  -5   9   -7.66   26.51
  -4  -5  -9   20.98   44.33
   4   6 -10  199.85   53.19
  -4   6  10  211.13   65.28
  -4  -6  10  303.81   79.42
   4  -6 -10  363.38   98.54
   4   6  -9  146.15   40.26
  -4   6   9  127.10   32.96
  -4  -6   9  203.42   48.45
   4  -6  -9  186.32   44.76
   4   6  -8  943.34  224.69
  -4   6   8 1218.43   83.90
  -4  -6   8 1078.38  250.88
   4  -6  -8 1169.77  119.73
  -4   6   7   16.74   17.89
   4   6  -7   24.92   23.45
   4  -6  -7   44.65   26.98
  -4   6   6  723.89  155.71
   4   6  -6  935.38  132.25
   4   6  -6  792.79   61.86
   4  -6  -6  841.56  133.44
  -4   6   5  398.78   83.72
   4   6  -5  342.80   97.66
   4   6  -5  270.28   62.53
   4  -6  -5  317.90   60.32
  -4  -6   5  218.98   57.18
  -4   6   4  624.86  124.30
   4   6  -4  630.81   78.80
   4   6  -4  509.44  124.44
   4  -6  -4  646.48  100.63
  -4  -6   4  496.61   99.37
  -4   6   3  813.56  190.04
   4   6  -3  809.92  174.97
   4   6  -3  719.90  155.98
   4  -6  -3  797.63  165.04
  -4  -6   3  822.64  110.74
  -4   6   2   -8.09   30.41
   4   6  -2   64.04   42.82
   4   6  -2    1.89   10.53
   4  -6  -2   22.54   22.51
  -4  -6   2   -3.04   32.92
  -4   6   1 1145.65   83.57
   4   6  -1 1072.95  218.72
   4   6  -1  996.41  164.39
   4  -6  -1 1232.47  219.33
  -4  -6   1 1290.36  213.65
  -4   6   0  974.71   73.80
   4   6   0  991.70  160.63
   4   6   0  937.23  103.07
   4  -6   0 1007.28  289.47
  -4  -6   0  957.27  208.82
  -4   6  -1  822.35  188.38
   4   6   1  745.21  157.88
   4   6   1  769.10   54.62
   4  -6   1  768.48  210.56
  -4  -6  -1  767.64  183.09
  -4   6  -2  738.33  130.46
   4   6   2  630.84  124.27
   4   6   2  842.13   83.60
   4  -6   2  767.99  156.62
  -4  -6  -2  869.37  149.07
  -4   6  -3  -10.84   27.77
   4   6   3    7.76    7.52
   4   6   3    6.85   13.67
   4  -6   3    1.08   17.44
  -4  -6  -3   -9.72   42.04
  -4   6  -4  749.35   72.22
   4   6   4  677.32   84.95
   4  -6   4  657.78  108.02
  -4  -6  -4  742.12  119.17
  -4   6  -5  371.81   63.40
   4   6   5  337.98   63.00
   4  -6   5  334.13   95.50
  -4  -6  -5  327.73  115.34
  -4   6  -6   39.51   22.15
   4   6   6   21.30    8.83
   4  -6   6   74.58   23.31
  -4  -6  -6   29.04   48.79
  -4   6  -7  279.34   78.76
   4   6   7  254.58   60.85
   4  -6   7  239.86   64.74
  -4  -6  -7  255.75   75.22
  -4   7   7  480.55  131.98
   4  -7  -7  551.67  136.24
  -4   7   6  132.80   33.25
   4   7  -6  135.67   34.36
   4  -7  -6   81.24   32.86
  -4   7   5  248.17   53.15
   4   7  -5  227.11   58.47
   4  -7  -5  202.17   66.20
  -4   7   4  599.18  113.93
   4   7  -4  640.52  156.07
   4  -7  -4  537.08  144.13
  -4  -7   4  626.58   88.51
  -4   7   3  -24.98   36.07
   4   7  -3    8.47   36.17
   4  -7  -3  -28.37   41.02
  -4  -7   3  -38.54   29.71
  -4   7   2 1025.07   92.04
   4   7  -2  790.82  202.56
   4  -7  -2  838.76  212.79
  -4  -7   2  739.20  231.48
  -4   7   1  208.19   46.80
   4   7  -1  222.48   47.81
   4  -7  -1  206.27   61.54
  -4  -7   1  196.96   55.88
  -4   7   0  470.81  119.86
   4   7   0  386.92   83.63
   4  -7   0  542.13  137.31
  -4  -7   0  549.63  102.69
  -4   7  -1  252.91   66.28
   4   7   1  153.29   39.14
   4  -7   1  202.88   52.02
  -4  -7  -1  182.60   34.21
  -4   7  -2   31.16   37.37
   4   7   2   37.78   22.63
   4  -7   2   50.63   27.90
  -4  -7  -2   25.98   33.19
  -4   7  -3  399.40  108.14
   4  -7   3  344.41   94.96
  -4  -7  -3  379.19   90.92
  -4   7  -4   26.00   36.86
   4  -7   4   27.93   20.36
  -4  -7  -4   83.69   53.47
  -5   0  16   56.55   29.02
   5   0 -16  115.12   46.10
  -5   0  15  269.04   94.48
   5   0 -15  260.21   62.72
  -5   0  14  420.25   92.15
   5   0 -14  418.03   56.82
  -5   0  13  215.78   57.66
   5   0 -13  208.44   56.74
  -5   0  12  213.72   57.85
   5   0 -12  223.82   41.27
  -5   0  11  679.01  181.91
   5   0 -11  556.05   56.92
  -5   0  10  985.77  217.25
   5   0 -10 1029.89   76.01
   5   0 -10  867.69   45.56
  -5   0   9 3641.79  186.99
   5   0  -9 3372.47  129.31
   5   0  -9 3287.92  104.97
  -5   0   8 2661.65  121.61
   5   0  -8 2515.03  100.58
   5   0  -8 2603.19   75.45
  -5   0   714355.71  419.62
   5   0  -713893.81  349.73
   5   0  -714540.12  321.24
  -5   0   6  255.23   63.81
   5   0  -6  263.90   56.00
   5   0  -6  211.50   20.80
  -5   0   5 5238.17  285.53
   5   0  -5 5236.02  186.73
   5   0  -5 5176.57  173.84
  -5   0   417366.46  373.48
   5   0  -416994.69  315.93
   5   0  -417818.98  316.49
  -5   0   3 3091.66  146.06
   5   0  -3 3151.01  116.29
  -5   0   3 3247.89  114.34
  -5   0   213340.91  256.17
   5   0  -213556.14  249.97
  -5   0   213765.71  250.72
  -5   0   1  607.14   37.04
   5   0  -1  520.55   34.23
  -5   0   1  573.93   40.74
  -5   0   0 3789.22  130.11
   5   0   0 3675.74  136.06
  -5   0   0 3790.43  140.96
  -5   0  -1 8966.37  164.80
   5   0   1 8518.13  183.58
  -5   0  -1 8459.91  182.58
  -5   0  -2 1145.45   40.69
   5   0   2 1070.79   72.53
  -5   0  -2 1137.80   64.76
  -5   0  -3 1668.91   47.51
   5   0   3 1642.66   75.10
  -5   0  -3 1732.59   85.63
   5   0   4   40.49   20.91
  -5   0  -4   -1.11   33.25
   5   0   5 1551.15   94.30
  -5   0  -5 1512.36   90.37
   5   0   6  972.71  167.71
  -5   0  -6  978.60   86.37
   5   0   7  229.41   45.99
  -5   0  -7  188.60   44.97
   5   0   8  552.99  136.44
  -5   0  -8  627.01   75.80
   5   0   9  133.67   36.67
  -5   0  -9  151.03   50.40
   5   0  10  275.10   80.90
  -5   0 -10  272.47   51.50
   5   0  11   12.76   44.17
  -5   0 -11   64.78   48.20
   5   0  12   56.31   25.68
  -5   0 -12    3.30   34.89
  -5   1  16  132.75   48.19
   5   1 -16  162.67   46.75
  -5  -1  16  193.98   50.19
   5  -1 -16  190.70   53.01
   5   1 -15  170.81   56.58
  -5   1  15   74.55   34.71
  -5  -1  15  114.07   66.00
   5  -1 -15   34.67   32.49
   5   1 -14  330.60   83.98
  -5   1  14  278.67   98.56
  -5  -1  14  303.48   59.93
   5  -1 -14  253.88   49.84
   5   1 -13  891.56   70.75
  -5   1  13  875.05  204.26
  -5  -1  13 1091.99  187.93
   5  -1 -13  942.29   78.02
   5   1 -12   48.52   37.90
  -5   1  12   36.99   41.52
  -5  -1  12   88.21   38.10
   5  -1 -12   47.54   42.69
   5  -1 -12   53.21   20.05
   5   1 -11 1951.93  114.74
  -5   1  11 2141.25  134.51
  -5  -1  11 1658.65  336.50
   5  -1 -11 1595.68  101.11
   5  -1 -11 1574.07  137.79
   5   1 -10  495.70   57.09
  -5   1  10  561.50   68.65
  -5  -1  10  442.67  105.89
   5  -1 -10  378.99   46.10
   5  -1 -10  370.65  108.49
   5   1  -9 1854.99  157.60
  -5   1   9 1819.71   97.09
  -5  -1   9 2001.32  111.19
   5  -1  -9 1965.30   89.04
   5  -1  -9 1906.39   78.63
   5   1  -8 3488.10  128.18
  -5   1   8 3329.18  134.87
  -5  -1   8 3620.92  188.45
   5  -1  -8 3523.83  127.51
   5  -1  -8 3385.36  133.40
   5   1  -7 1638.74   85.85
  -5   1   7 1600.95   87.72
  -5  -1   7 1585.06   99.99
   5  -1  -7 1550.96   65.02
   5  -1  -7 1548.01   84.43
   5   1  -615408.74  369.05
  -5   1   614849.30  393.12
  -5  -1   615887.64  445.23
   5  -1  -614922.94  346.68
   5  -1  -615206.63  356.78
   5   1  -5 3835.50  121.96
  -5   1   5 3914.68  165.00
   5   1  -5 3826.41  147.41
   5  -1  -5 3640.08  133.83
  -5  -1   5 3770.35  161.71
   5  -1  -5 3694.10  132.54
   5   1  -4 2453.63  130.00
  -5   1   4 2463.79  102.82
  -5  -1   4 2190.47  121.88
   5  -1  -4 2146.46   84.02
   5  -1  -4 2236.10   89.62
  -5  -1   4 2270.86   79.00
   5   1  -313574.09  266.14
  -5   1   314106.32  264.02
  -5  -1   313931.99  286.01
   5  -1  -313240.10  239.77
   5  -1  -313561.66  290.61
  -5  -1   313902.08  245.83
  -5   1   213335.56  256.27
   5   1  -213459.06  256.81
  -5   1   213739.73  258.39
  -5  -1   212747.73  265.26
   5  -1  -213021.26  235.88
  -5  -1   212706.79  234.01
  -5  -1   112959.24  277.89
   5  -1  -113560.92  249.06
  -5  -1   113180.97  247.29
  -5   1   0  166.97   37.74
   5   1   0  165.89   35.63
  -5   1   0  155.84   26.90
  -5  -1   0  139.75   38.31
   5  -1   0  133.72   29.71
  -5  -1   0   98.16   25.27
  -5   1  -1 2884.08   86.79
   5   1   1 2863.08   97.93
  -5   1  -1 2868.95   97.99
  -5  -1  -1 3244.33   83.04
   5  -1   1 3080.14  107.42
  -5  -1  -1 3020.54  100.17
  -5   1  -2 5877.28  150.82
   5   1   2 5963.39  171.38
  -5   1  -2 6024.24  170.24
   5  -1   2 6088.17  168.68
  -5  -1  -2 5991.69  168.92
  -5   1  -3  182.20   45.57
   5   1   3  226.85   52.24
  -5   1  -3  167.23   36.70
   5  -1   3  218.04   43.84
  -5  -1  -3  179.59   40.53
  -5   1  -4 2854.24  101.13
   5   1   4 2824.63  127.97
  -5   1  -4 3063.03  130.91
  -5  -1  -4 2607.64  118.15
   5  -1   4 2550.73  177.95
  -5   1  -5  788.69   44.01
   5   1   5  732.62   77.59
  -5   1  -5  765.71   71.29
   5  -1   5  832.82  132.70
  -5  -1  -5  755.78   64.24
   5   1   6  416.87  100.59
  -5   1  -6  343.85   66.81
   5  -1   6  503.36   98.66
  -5  -1  -6  440.56   61.21
   5   1   7  714.39  128.97
  -5   1  -7  791.96   85.67
   5  -1   7  793.47  154.40
  -5  -1  -7  807.31   74.55
   5   1   8   21.37   14.81
  -5   1  -8   38.67   41.42
   5  -1   8   18.22   12.23
  -5  -1  -8   37.92   37.46
   5   1   9  482.92  102.33
  -5   1  -9  704.16   77.97
   5  -1   9  433.81   90.21
  -5  -1  -9  566.75   77.59
   5   1  10   89.07   28.41
  -5   1 -10  131.41   49.08
   5  -1  10   88.90   35.38
  -5  -1 -10   88.58   50.01
   5   1  11   62.55   37.24
  -5   1 -11   70.29   47.30
   5  -1  11   16.87   21.22
  -5  -1 -11   22.92   37.09
   5   2 -15  246.94   65.21
  -5   2  15  171.22   50.53
  -5  -2  15  148.13   68.18
   5  -2 -15  207.34   47.62
   5   2 -14  356.29  104.83
  -5   2  14  356.00   86.74
  -5  -2  14  459.76  117.71
   5  -2 -14  378.92   87.09
   5   2 -13  167.23   39.13
  -5   2  13  157.80   46.04
  -5  -2  13  161.76   49.34
   5  -2 -13  210.68   47.68
   5  -2 -13  178.11   58.56
   5   2 -12 1384.15   88.67
  -5   2  12 1405.10   86.73
  -5  -2  12 1620.09  296.89
   5  -2 -12 1583.22   90.97
   5  -2 -12 1612.47   81.15
   5   2 -11  131.13   40.37
  -5   2  11   82.08   28.79
  -5  -2  11   71.92   23.57
   5  -2 -11   69.72   29.43
   5  -2 -11   74.90   17.33
   5   2 -10 2008.56  119.87
  -5  -2  10 2371.94  373.25
   5  -2 -10 2307.25  122.42
   5  -2 -10 2392.11  132.85
   5   2  -9 1001.18   82.50
  -5   2   9 1012.37  176.67
  -5  -2   9 1210.43  232.28
   5  -2  -9 1223.19   72.03
   5  -2  -9 1236.41   72.30
   5   2  -8  811.60   83.95
  -5   2   8  850.36  147.97
  -5  -2   8  903.33  185.29
   5  -2  -8  847.00  102.41
   5  -2  -8  832.51   49.89
   5   2  -7 2443.09  103.46
  -5   2   7 2391.59   97.19
  -5  -2   7 2810.48  184.45
   5  -2  -7 2672.10   90.65
   5  -2  -7 2722.25  136.20
   5   2  -6  486.66   46.16
  -5   2   6  499.83  122.29
  -5  -2   6  508.11  105.93
   5  -2  -6  500.56   34.40
   5  -2  -6  455.26   36.49
   5   2  -5 3390.35  114.82
  -5  -2   5 3729.21  159.04
   5  -2  -5 3925.54  123.26
   5  -2  -5 4054.21  123.66
  -5  -2   5 4016.72   93.33
   5   2  -4 2492.69   88.98
  -5   2   4 2438.23   92.72
  -5  -2   4 2401.99   94.72
   5  -2  -4 2448.53   71.30
   5  -2  -4 2555.59   87.15
  -5  -2   4 2387.96   65.75
   5   2  -3 2111.29   80.14
  -5   2   3 2173.83   88.73
  -5  -2   3 1856.46   75.46
   5  -2  -3 1992.43   56.80
   5  -2  -3 1992.78   73.49
  -5  -2   3 1848.25   59.24
  -5  -2   2 9939.32  270.99
   5  -2  -210185.42  277.56
   5   2  -1  630.87  127.24
  -5   2   1  512.74   68.77
  -5  -2   1  650.29   72.33
   5  -2  -1  621.74   30.52
   5  -2  -1  626.02   39.74
  -5  -2   1  639.11   39.07
  -5   2   0 7166.31  209.13
   5   2   0 7218.39  191.43
  -5   2   0 7329.89  194.68
  -5  -2   0 7387.44  191.38
   5  -2   0 7820.82  188.84
  -5  -2   0 7721.98  201.25
  -5   2  -1 4334.86  130.58
   5   2   1 4498.08  284.37
  -5   2  -1 4373.64  138.51
  -5  -2  -1 5089.13  134.61
   5  -2   1 5180.41  132.70
  -5  -2  -1 4718.19  142.58
  -5   2  -2  863.93   70.40
   5   2   2  855.85   73.72
  -5   2  -2  870.18   56.38
  -5  -2  -2  867.79   37.96
   5  -2   2  953.25   45.29
  -5  -2  -2  869.47   65.20
  -5   2  -3 4084.20  127.77
   5   2   3 4061.69  146.99
  -5   2  -3 3930.96  204.20
   5  -2   3 4034.55  139.66
  -5  -2  -3 4078.47  153.88
  -5   2  -4  612.07   53.17
   5   2   4  597.94  120.83
  -5   2  -4  621.12   66.49
   5  -2   4  664.03  132.90
  -5  -2  -4  687.86   73.38
  -5   2  -5  816.04   80.56
   5   2   5  856.50  154.07
  -5   2  -5  909.87   76.70
   5  -2   5 1072.74  182.08
  -5  -2  -5 1030.39   93.13
  -5   2  -6  916.05   91.28
   5   2   6  953.05  141.65
  -5   2  -6  940.39   73.85
   5  -2   6 1208.05  215.79
  -5  -2  -6 1280.04  110.17
  -5   2  -7  923.52  136.37
   5   2   7  902.22  204.65
  -5   2  -7  943.10   82.32
   5  -2   7  942.72  139.27
  -5  -2  -7 1246.80  100.10
   5   2   8  411.86   67.75
  -5   2  -8  273.13   46.16
   5  -2   8  363.52   94.45
  -5  -2  -8  409.03   69.17
   5   2   9   21.56   14.74
  -5   2  -9   70.37   44.12
   5  -2   9   34.39   27.78
  -5  -2  -9   20.89   38.06
   5   2  10  210.44   47.45
  -5   2 -10  171.36   47.71
   5  -2  10  158.80   44.20
  -5  -2 -10  162.62   57.36
   5   2  11   46.68   22.65
  -5   2 -11   -6.83   31.63
   5  -2  11   36.47   15.37
  -5  -2 -11   14.02   36.97
   5   3 -15   -4.84   36.14
  -5  -3  15    3.89   25.06
   5   3 -14  139.85   30.34
  -5   3  14  175.03   36.24
  -5  -3  14  156.00   50.31
   5  -3 -14  115.59   40.88
   5  -3 -14  105.05   38.58
   5   3 -13  638.71   69.36
  -5   3  13  603.03   92.04
  -5  -3  13  648.97  114.41
   5  -3 -13  681.23   66.69
   5  -3 -13  519.63  129.79
   5   3 -12   23.21   23.34
  -5   3  12   11.31   21.08
  -5  -3  12  -14.30   39.70
   5  -3 -12   51.58   32.14
   5  -3 -12   27.28   16.04
   5   3 -11 1546.87   89.59
  -5   3  11 1487.12   78.66
  -5  -3  11 1540.39  207.95
   5  -3 -11 1344.79  171.04
   5  -3 -11 1496.12   80.41
   5   3 -10  276.29   55.32
  -5   3  10  190.66   44.20
  -5  -3  10  367.75   89.22
   5  -3 -10  334.14   85.21
   5  -3 -10  397.32   83.22
   5   3  -9  820.96  139.26
  -5   3   9  839.17  182.12
  -5  -3   9  757.39  118.04
   5  -3  -9  778.31   90.98
   5  -3  -9  697.57   65.79
   5   3  -8 2383.82  154.32
  -5   3   8 2318.69  149.56
  -5  -3   8 2136.44  203.54
   5  -3  -8 2142.94  114.11
   5  -3  -8 2130.97  128.00
   5   3  -7   91.30   29.16
  -5   3   7   84.68   20.36
  -5  -3   7   41.61   13.39
   5  -3  -7   66.63   15.37
   5  -3  -7   72.07   17.54
   5   3  -6 6027.81  199.46
  -5   3   6 5686.56  189.62
  -5  -3   6 5785.54  258.14
   5  -3  -6 5777.64  161.67
   5  -3  -6 5715.53  195.98
   5   3  -5  543.66   46.93
  -5   3   5  494.06   46.32
  -5  -3   5  634.62  113.00
   5  -3  -5  482.43   58.74
   5  -3  -5  521.22  142.17
  -5  -3   5  439.85   86.64
   5   3  -4 2378.51   92.04
  -5   3   4 2383.78  120.73
  -5  -3   4 1913.85  103.99
   5  -3  -4 1990.30   85.13
  -5  -3   4 2013.10   73.75
   5   3  -3 2747.75  103.42
  -5   3   3 2708.47  107.71
  -5  -3   3 2568.19  116.45
   5  -3  -3 2454.73  113.38
  -5  -3   3 2637.18   88.02
   5   3  -2   27.46   27.18
  -5   3   2  -27.48   26.37
  -5  -3   2   11.96   11.29
   5  -3  -2   21.66   19.20
  -5  -3   2   36.81   21.77
   5   3  -1 2674.10   98.78
  -5   3   1 2616.67  102.92
  -5  -3   1 2338.17  132.27
   5  -3  -1 2112.84   96.13
  -5  -3   1 2303.15   91.76
  -5   3   0 1947.09  189.12
   5   3   0 1808.30   80.55
   5  -3   0 1880.15   55.72
   5  -3   0 1849.13   84.16
  -5  -3   0 1828.41   80.16
  -5   3  -1 3654.37  133.24
   5   3   1 3917.26  224.09
   5  -3   1 3397.56  109.25
   5  -3   1 3257.24  123.09
  -5  -3  -1 3274.75  137.40
  -5   3  -2 3981.23  142.85
   5   3   2 3920.27  191.73
   5  -3   2 4065.35  146.93
  -5  -3  -2 3961.23  151.37
  -5   3  -3  142.76   41.64
   5   3   3  114.64   21.89
  -5   3  -3   88.11   28.89
   5  -3   3  139.83   29.96
  -5  -3  -3  170.81   45.19
  -5   3  -4 2747.24  146.93
   5   3   4 2777.94  178.44
  -5   3  -4 2601.80  150.07
   5  -3   4 2430.37  139.69
  -5  -3  -4 2312.98  139.96
  -5   3  -5  146.71   30.41
   5   3   5  136.23   33.09
  -5   3  -5  121.28   41.05
   5  -3   5  233.15   52.20
  -5  -3  -5  193.56   54.10
  -5   3  -6 1108.25   69.38
   5   3   6 1177.98   98.03
  -5   3  -6 1294.20   91.48
   5  -3   6  989.55  214.70
  -5  -3  -6 1125.85   83.98
  -5   3  -7  835.33  199.05
   5   3   7  911.87  226.77
  -5   3  -7  870.85   80.83
   5  -3   7  675.74  133.38
  -5  -3  -7  663.01   67.17
  -5   3  -8    5.54   14.84
   5   3   8   -4.34   30.70
  -5   3  -8  -15.19   27.61
   5  -3   8   27.18   11.96
  -5  -3  -8   39.85   45.50
   5   3   9  416.47   84.59
  -5   3  -9  392.96   59.99
   5  -3   9  311.55   80.65
  -5  -3  -9  493.77   74.99
   5   3  10   78.90   33.83
  -5   3 -10    6.54   30.91
   5  -3  10   16.53    7.82
  -5  -3 -10  -17.71   37.63
   5   4 -14  124.31   49.59
  -5   4  14  106.91   37.55
  -5  -4  14  219.51   64.38
   5  -4 -14  123.09   47.75
  -5   4  13   -9.61   19.14
  -5   4  13   17.53   12.48
   5   4 -13    7.79   33.75
  -5  -4  13  -17.49   33.91
   5  -4 -13   15.50   13.16
  -5   4  12  460.53   84.71
  -5   4  12  522.11  110.78
   5   4 -12  532.70  108.71
  -5  -4  12  648.75  129.28
   5  -4 -12  535.81  147.64
  -5   4  11   54.92   14.53
  -5   4  11   51.84   28.15
   5   4 -11  -26.66   35.39
  -5  -4  11   62.36   33.05
   5  -4 -11   16.18   23.60
  -5   4  10  404.49  102.21
  -5   4  10  609.60  140.90
   5   4 -10  639.16   79.44
  -5  -4  10  829.62  155.10
   5  -4 -10  707.20  185.41
  -5   4   9  293.02   57.99
  -5   4   9  329.65   87.01
   5   4  -9  383.25   46.27
  -5  -4   9  673.94  113.19
   5  -4  -9  636.02  169.33
  -5   4   8  496.95  108.44
  -5   4   8  681.76  143.24
   5   4  -8  785.97   71.82
  -5  -4   8  728.80  173.49
   5  -4  -8  735.54  116.56
   5   4  -7 2908.13  153.89
  -5   4   7 2779.63  155.10
  -5  -4   7 3017.26  202.46
   5  -4  -7 2936.01  173.10
   5   4  -6  446.73   83.74
  -5   4   6  417.92   94.68
  -5  -4   6  549.56   83.69
   5  -4  -6  513.54  107.46
  -5  -4   6  421.32   67.42
   5   4  -5 2638.06  149.68
  -5   4   5 2330.68  140.95
  -5  -4   5 2823.32  188.20
   5  -4  -5 2854.53  165.60
  -5  -4   5 2624.15  166.02
  -5   4   4 4694.41  212.10
   5   4  -4 4605.10  227.04
   5  -4  -4 4605.14  312.89
  -5  -4   4 5013.22  203.52
  -5   4   3  557.84   58.85
   5   4  -3  643.23   59.31
   5   4  -3  531.99   76.62
   5  -4  -3  742.40  118.61
  -5  -4   3  663.03  138.16
  -5   4   2 1907.46  128.20
   5   4  -2 2117.21  112.37
   5   4  -2 1861.55  141.68
   5  -4  -2 2410.29  122.31
  -5  -4   2 2336.61  118.81
  -5   4   1   -6.62   27.88
   5   4  -1   25.79   23.57
   5   4  -1   67.90   45.90
   5  -4  -1   24.05   22.66
  -5  -4   1    0.87   29.74
  -5   4   0 2335.16  134.72
   5   4   0 2344.85  106.69
   5   4   0 2353.53  113.23
   5  -4   0 1972.71  114.23
  -5  -4   0 1963.99  104.87
  -5   4  -1 1100.76   89.21
   5   4   1 1044.63   72.55
   5   4   1 1123.91   82.09
   5  -4   1 1231.96   90.28
  -5  -4  -1 1337.75  234.54
  -5   4  -2 1549.07   99.77
   5   4   2 1629.47   86.11
   5   4   2 1629.29  127.12
   5  -4   2 1459.03  196.23
  -5  -4  -2 1506.13  100.86
  -5   4  -3 1306.38  139.72
   5   4   3 1157.25   55.27
   5   4   3 1212.49  196.12
   5  -4   3 1215.60  188.61
  -5  -4  -3 1240.88   93.67
  -5   4  -4  162.18   38.94
   5   4   4  180.60   35.41
   5  -4   4   91.75   22.75
   5  -4   4  115.83   28.63
  -5  -4  -4  109.12   49.54
  -5   4  -5 1446.91   74.26
   5   4   5 1507.88  123.31
   5  -4   5 1453.26   62.34
   5  -4   5 1317.22   87.57
  -5  -4  -5 1434.68  104.52
  -5   4  -6  306.22   65.07
   5   4   6  368.96   66.02
   5  -4   6  304.08   77.21
   5  -4   6  304.39   85.64
  -5  -4  -6  368.62  106.50
  -5   4  -7  287.62   72.83
   5   4   7  333.86   65.05
   5  -4   7  186.91   58.76
  -5  -4  -7  234.99   77.74
  -5   4  -8  346.97   47.95
   5   4   8  326.04   85.45
   5  -4   8  227.82   60.57
  -5  -4  -8  365.59   74.85
   5   4   9    8.33   16.24
  -5   4  -9    9.47   30.75
   5  -4   9   12.03   11.04
  -5  -4  -9   31.71   42.22
   5   5 -12   39.06   35.24
  -5   5  12    2.11   18.84
  -5  -5  12   74.18   43.30
   5  -5 -12   89.51   37.70
   5   5 -11  356.71   58.78
  -5   5  11  426.46   76.85
  -5  -5  11  514.13  123.41
   5  -5 -11  514.78  114.27
   5   5 -10  199.89   59.61
  -5   5  10  201.43   44.51
  -5  -5  10  195.77   59.87
   5  -5 -10  204.54   61.23
   5   5  -9  281.08   77.16
  -5   5   9  400.17   65.90
  -5  -5   9  420.77   92.02
   5  -5  -9  458.31   93.80
   5   5  -8 1053.18  178.53
  -5   5   8 1022.98  215.79
  -5  -5   8 1242.96  240.16
   5  -5  -8 1244.51  254.86
   5   5  -7  162.96   51.49
  -5   5   7  126.39   33.30
  -5  -5   7  151.81   38.47
   5  -5  -7  168.05   40.65
   5   5  -6 1760.83   90.94
  -5   5   6 1603.01  173.02
  -5  -5   6 1990.15  108.91
   5  -5  -6 1703.23  124.74
  -5  -5   6 1421.98  147.77
  -5   5   5  389.40  102.30
   5   5  -5  382.97  102.59
   5  -5  -5  473.02   96.32
  -5  -5   5  453.88   81.24
  -5   5   4  990.00  123.57
   5   5  -4  987.94  171.06
   5   5  -4 1022.63  166.08
   5  -5  -4 1210.32   83.87
  -5  -5   4 1151.13  155.57
  -5   5   3 1534.61  177.11
   5   5  -3 1400.40  164.60
   5   5  -3 1408.97   97.22
   5  -5  -3 1939.03  116.33
  -5  -5   3 1911.59   98.15
  -5   5   2  431.54   90.92
   5   5  -2  457.30   65.32
   5   5  -2  438.86  121.66
   5  -5  -2  397.27   90.63
  -5  -5   2  456.51  104.73
  -5   5   1 2495.00  121.03
   5   5  -1 2437.45  192.48
   5   5  -1 2457.10  120.61
   5  -5  -1 2488.77  121.60
  -5  -5   1 2423.63  125.62
  -5   5   0  263.24   48.15
   5   5   0  259.43   37.63
   5   5   0  219.85   49.36
   5  -5   0  232.44   51.04
  -5  -5   0  249.15   60.44
  -5   5  -1  523.17  119.47
   5   5   1  536.46   84.51
   5   5   1  566.59   57.02
   5  -5   1  401.43  106.66
  -5  -5  -1  434.21   97.61
  -5   5  -2  577.23   97.84
   5   5   2  494.84   83.28
   5   5   2  517.24   46.64
   5  -5   2  576.70  119.71
  -5  -5  -2  572.59  114.71
  -5   5  -3  108.21   26.11
   5   5   3  110.66   25.97
   5   5   3   99.94   21.62
   5  -5   3  121.30   35.61
  -5  -5  -3   55.12   43.00
  -5   5  -4  840.36  158.08
   5   5   4  765.71  131.97
   5  -5   4  857.28  183.53
  -5  -5  -4  846.32   85.45
  -5   5  -5    1.99   14.38
   5   5   5   16.79   11.74
   5  -5   5   23.90   13.39
  -5  -5  -5  -30.22   43.82
  -5   5  -6  185.59   55.35
   5   5   6  209.28   41.70
   5  -5   6  212.15   51.55
  -5  -5  -6  299.38   78.72
  -5   5  -7  174.09   62.02
   5   5   7  161.75   40.52
   5  -5   7  244.70   50.27
  -5  -5  -7  249.55   70.39
  -5   5  -8    9.34   17.21
   5   5   8   28.53   26.61
   5  -5   8    7.52   19.60
  -5  -5  -8   -8.55   41.18
   5   6 -10  115.54   36.54
  -5   6  10  126.30   36.80
  -5  -6  10  125.31   29.56
   5  -6 -10  182.33   44.15
   5   6  -9  342.25  105.19
  -5   6   9  338.76   85.02
  -5  -6   9  440.64   95.18
   5  -6  -9  435.66   75.12
   5   6  -8  244.72   64.77
  -5   6   8  280.00   67.22
  -5  -6   8  310.55   79.70
   5  -6  -8  297.52   70.36
   5   6  -7  695.57  181.26
  -5   6   7  840.04   92.71
  -5  -6   7  750.69  150.32
   5  -6  -7  769.47  130.74
  -5   6   6   21.02   21.50
   5   6  -6   -6.85   26.31
   5  -6  -6   55.51   28.39
  -5   6   5  761.51  187.43
   5   6  -5  804.44   81.26
   5   6  -5  643.01   68.85
   5  -6  -5  716.47  116.22
  -5  -6   5  540.43  124.31
  -5   6   4  513.83   66.11
   5   6  -4  480.44  143.88
   5   6  -4  499.68  114.96
   5  -6  -4  524.41  106.53
  -5  -6   4  469.78   95.00
  -5   6   3  379.75   83.17
   5   6  -3  330.24   89.34
   5   6  -3  285.29   84.95
   5  -6  -3  386.08   70.58
  -5  -6   3  289.83   79.81
  -5   6   2 1025.31  190.78
   5   6  -2  800.95  182.75
   5   6  -2  938.92  105.94
   5  -6  -2  846.54  205.08
  -5  -6   2  803.76  140.69
  -5   6   1   15.77   16.76
   5   6  -1   25.95   34.21
   5   6  -1    7.78    8.95
   5  -6  -1   30.19   22.49
  -5  -6   1   24.24   25.18
  -5   6   0 1092.22   73.72
   5   6   0  981.60  145.91
   5   6   0  995.04   77.25
   5  -6   0  945.80  138.93
  -5  -6   0 1007.64  164.37
  -5   6  -1  536.72   99.13
   5   6   1  392.43   81.97
   5   6   1  376.53  106.29
   5  -6   1  439.67  117.45
  -5  -6  -1  489.96  120.66
  -5   6  -2  215.05   63.92
   5   6   2  185.92   53.19
   5   6   2  183.76   58.28
   5  -6   2  256.03   72.79
  -5  -6  -2  247.39   64.57
  -5   6  -3  533.51   68.73
   5   6   3  427.26   52.10
   5  -6   3  466.31  102.97
  -5  -6  -3  516.02  117.14
  -5   6  -4   74.87   21.46
   5   6   4   63.85   28.13
   5  -6   4   40.77   19.16
  -5  -6  -4   68.05   62.99
  -5   6  -5  189.75   67.85
   5   6   5  215.87   51.46
   5  -6   5  138.04   48.67
  -5  -6  -5  199.90   53.11
  -5   6  -6   55.12   31.57
   5   6   6  118.68   45.32
   5  -6   6  133.76   34.33
  -5  -6  -6   42.58   41.01
  -5   7   7    5.92   21.10
  -5  -7   7   22.97   32.37
   5  -7  -7  -21.30   39.15
  -5   7   6  247.30   73.33
   5  -7  -6  183.51   61.75
  -5   7   5   55.09   37.79
   5   7  -5   88.66   37.55
   5  -7  -5   49.69   27.91
  -5   7   4  188.28   56.18
   5   7  -4  205.29   50.80
   5  -7  -4  144.37   49.87
  -5   7   3  596.06  127.39
   5   7  -3  514.75  103.32
   5  -7  -3  537.30  133.08
  -5  -7   3  449.54  136.36
  -5   7   2   -2.82   22.15
   5   7  -2  -13.56   30.19
   5  -7  -2   37.11   26.96
  -5  -7   2   -2.69   31.57
  -5   7   1  455.83  131.53
   5   7  -1  399.46  111.57
   5  -7  -1  535.66  133.45
  -5  -7   1  540.56  118.72
  -5   7   0  140.75   38.68
   5   7   0   50.20   27.78
   5  -7   0   98.06   44.50
  -5  -7   0  157.17   61.39
  -5   7  -1  274.41   63.16
   5   7   1  233.06   46.50
   5  -7   1  226.93   57.06
  -5  -7  -1  256.30   62.16
  -5   7  -2  153.18   55.68
   5  -7   2  218.31   45.61
  -5  -7  -2  160.50   62.03
  -5   7  -3   33.99   21.91
   5  -7   3    3.26   16.80
  -5  -7  -3  -33.64   43.90
  -6   0  16  314.65   81.59
   6   0 -16  283.83   76.28
  -6   0  15   38.90   28.37
   6   0 -15   10.47   23.89
  -6   0  14  870.50  193.21
   6   0 -14  800.07   71.73
  -6   0  13  818.25  162.54
   6   0 -13  708.53  128.44
  -6   0  12  360.97   93.34
   6   0 -12  394.46  102.03
  -6   0  11  562.55  124.38
   6   0 -11  563.35  125.87
  -6   0  10  207.46   44.12
   6   0 -10  163.77   34.54
  -6   0   9 2286.42  150.04
   6   0  -9 2175.15   98.15
  -6   0   8 5998.09  257.98
   6   0  -8 6083.00  181.52
   6   0  -8 6050.00  150.24
  -6   0   7 1397.68  113.99
   6   0  -7 1367.58   66.29
   6   0  -7 1391.61   45.81
  -6   0   6 7228.78  221.30
   6   0  -6 7546.57  201.08
   6   0  -6 6804.56  156.75
  -6   0   5  428.61   98.01
   6   0  -5  375.73   36.03
   6   0  -5  402.33   32.09
  -6   0   4 6935.38  194.49
   6   0  -4 6427.26  147.46
  -6   0   4 6847.13  137.77
  -6   0   310402.59  224.42
   6   0  -3 9838.45  218.19
  -6   0   310140.96  198.49
  -6   0   2 1158.73   71.29
   6   0  -2 1094.16   58.75
  -6   0   2 1060.33   52.95
  -6   0   115478.41  279.39
   6   0  -114929.53  281.72
  -6   0   116128.83  309.61
  -6   0   0    1.81   14.55
   6   0   0   -8.41   20.26
  -6   0   0   -9.72   27.14
  -6   0  -1 9583.02  226.12
   6   0   1 8983.56  248.49
  -6   0  -1 9738.04  259.22
  -6   0  -2 4456.53  116.84
   6   0   2 4433.65  153.57
  -6   0  -2 4388.86  148.24
   6   0   3 1937.40   86.76
  -6   0  -3 1921.10   99.16
   6   0   4 3627.60  187.09
  -6   0  -4 3639.64  161.25
   6   0   5  503.61  116.50
  -6   0  -5  437.09   58.86
   6   0   6 1848.53  109.52
  -6   0  -6 1912.17  110.55
   6   0   7  497.54   74.09
  -6   0  -7  449.26   60.19
   6   0   8   -8.24   29.80
  -6   0  -8  -53.10   39.68
   6   0   9   77.08   20.63
  -6   0  -9  167.07   52.00
   6   0  10   61.96   22.07
  -6   0 -10   86.40   45.02
   6   0  11   34.79   24.35
  -6   0 -11   15.41   38.74
   6   1 -16   21.93   26.60
  -6   1  16   21.89   29.79
  -6  -1  16   52.96   30.23
   6  -1 -16   30.83   33.26
   6   1 -15  629.54   74.88
  -6   1  15  569.36  143.88
  -6  -1  15  678.19  172.59
   6  -1 -15  776.65   79.27
   6   1 -14   82.02   41.36
  -6   1  14   99.88   48.69
  -6  -1  14   41.92   45.90
   6  -1 -14  129.44   42.25
   6   1 -13  494.15   65.95
  -6   1  13  493.88  131.66
  -6  -1  13  557.16  139.02
   6  -1 -13  629.22   72.91
   6   1 -12 1610.62   92.00
  -6   1  12 1778.94  218.49
  -6  -1  12 1471.62  244.77
   6  -1 -12 1428.81   76.69
   6  -1 -12 1276.67  132.18
   6   1 -11  164.87   44.94
  -6   1  11  169.97   53.53
  -6  -1  11  173.67   54.33
   6  -1 -11  178.93   33.63
   6  -1 -11  145.58   34.59
   6   1 -10 5219.95  313.67
  -6   1  10 5374.00  320.56
  -6  -1  10 5617.69  306.87
   6  -1 -10 6010.68  294.87
   6  -1 -10 5830.80  291.07
   6   1  -9 1159.68  232.72
  -6   1   9 1021.96  241.77
  -6  -1   9 1007.72  211.37
   6  -1  -9  876.84   61.74
   6  -1  -9  926.62   62.63
   6   1  -8 1664.26   85.29
  -6   1   8 1645.74  185.41
  -6  -1   8 2006.54  172.55
   6  -1  -8 1991.12   86.76
   6  -1  -8 2023.78   78.63
   6   1  -7 7559.96  220.88
  -6   1   7 7347.54  241.84
  -6  -1   7 7956.89  282.97
   6  -1  -7 7947.01  213.81
   6  -1  -7 7823.95  260.06
   6   1  -6  785.88   51.70
  -6   1   6  779.46   59.12
  -6  -1   6  824.80  187.43
   6  -1  -6  812.82   44.79
   6  -1  -6  828.46   38.89
  -6   1   5 8028.41  216.11
  -6  -1   5 8466.35  286.21
   6  -1  -5 9088.69  221.42
   6  -1  -5 8826.97  219.29
   6   1  -4   78.34   31.37
  -6   1   4   20.47   18.69
  -6  -1   4  -32.31   38.45
   6  -1  -4   24.83   19.77
   6  -1  -4   34.80    8.16
  -6  -1   4   16.22    9.33
  -6   1   3 4724.10  141.08
   6   1  -3 4612.34  132.58
  -6   1   3 4777.24  131.74
  -6  -1   3 4440.29  199.33
   6  -1  -3 4878.28  129.20
  -6  -1   3 4831.06  124.11
   6   1  -231318.88  686.41
  -6   1   234252.30  772.28
  -6   1   235601.99  793.86
  -6  -1   233817.14  749.87
  -6  -1   234323.01  760.20
   6  -1  -233393.77  731.87
   6   1  -1 2231.52   94.20
  -6   1   1 2416.85  132.47
  -6   1   1 2276.43   82.83
  -6  -1   1 2519.65   88.24
  -6  -1   1 2303.20   81.14
   6  -1  -1 2364.39   76.52
  -6   1   012987.40  299.79
   6   1   012270.32  304.33
  -6   1   012977.85  315.15
  -6  -1   013600.74  310.74
   6  -1   012181.03  294.78
  -6  -1   012413.36  303.42
   6   1   1 4109.98  129.82
  -6   1  -1 4159.50  114.09
  -6   1  -1 4264.02  135.74
  -6  -1  -1 4490.15  107.86
  -6  -1  -1 4241.66  139.42
   6  -1   1 4418.38  129.00
  -6   1  -2 2017.79   70.35
   6   1   2 2046.40   89.65
  -6   1  -2 1929.62   92.30
   6  -1   2 2316.48  130.57
  -6  -1  -2 2135.52  142.56
  -6   1  -3 4337.80  125.99
   6   1   3 4265.43  155.88
  -6   1  -3 4154.90  151.41
  -6  -1  -3 3819.15  152.73
   6  -1   3 4101.01  141.76
  -6   1  -4  182.96   19.13
   6   1   4  219.24   47.71
  -6   1  -4  166.11   34.78
   6  -1   4  195.96   32.32
  -6  -1  -4  223.22   48.56
   6   1   5 3525.21  191.02
  -6   1  -5 3703.99  187.47
   6  -1   5 3644.82  196.15
  -6  -1  -5 3826.23  191.34
   6   1   6  843.77  161.73
  -6   1  -6 1058.15   88.01
  -6  -1  -6  998.97   77.36
   6  -1   6  988.56  171.87
   6   1   7  392.99   92.82
  -6   1  -7  422.05   62.52
  -6  -1  -7  412.30   61.44
   6  -1   7  426.31   83.97
   6   1   8  713.39  100.72
  -6   1  -8  848.95   96.34
   6  -1   8  803.04  142.25
  -6  -1  -8  872.57   94.62
   6   1   9   34.80   26.77
  -6   1  -9   -8.78   35.87
  -6  -1  -9   35.11   36.60
   6  -1   9   65.34   30.83
   6   1  10  139.08   38.93
  -6   1 -10   61.32   36.25
  -6  -1 -10  116.42   61.20
   6  -1  10  166.93   47.00
   6   1  11    8.86   20.88
  -6   1 -11   28.99   34.35
  -6  -1 -11   26.39   37.27
   6  -1  11   59.76   31.50
   6   2 -15   16.25   25.19
  -6   2  15   31.24   26.73
  -6  -2  15   18.91   26.78
   6  -2 -15    5.24   29.16
   6   2 -14  446.45  104.02
  -6   2  14  308.89   45.07
  -6  -2  14  366.61   64.96
   6  -2 -14  450.78   58.00
   6   2 -13  292.00   59.53
  -6   2  13  286.03   47.05
  -6  -2  13  265.43   56.23
   6  -2 -13  295.84   56.04
   6  -2 -13  238.78   59.89
   6   2 -12  351.78   63.83
  -6   2  12  319.05   56.85
  -6  -2  12  257.33   72.42
   6  -2 -12  260.22   58.89
   6  -2 -12  267.15   77.35
   6   2 -11 2912.30  199.63
  -6   2  11 2736.28  105.45
  -6  -2  11 3000.48  460.50
   6  -2 -11 3017.24  101.04
   6  -2 -11 3166.53  102.55
   6   2 -10  454.38  120.54
  -6   2  10  324.19   51.79
  -6  -2  10  479.43  130.33
   6  -2 -10  394.43   45.34
   6  -2 -10  436.16   52.26
   6   2  -9 2463.38  149.30
  -6   2   9 2285.09  180.98
  -6  -2   9 2477.62  292.07
   6  -2  -9 2576.32  142.75
   6  -2  -9 2563.30  137.10
   6   2  -8 1134.21   85.11
  -6   2   8 1028.81   85.26
  -6  -2   8  884.47  121.93
   6  -2  -8  807.88   51.66
   6  -2  -8  886.92   75.73
   6   2  -7  646.84   66.93
  -6   2   7  526.28   54.38
  -6  -2   7  722.62  152.27
   6  -2  -7  686.30   44.53
   6  -2  -7  734.35   69.19
   6   2  -6 5638.01  176.60
  -6   2   6 5389.27  170.64
  -6  -2   6 5665.72  197.83
   6  -2  -6 5661.30  165.32
   6  -2  -6 6004.69  178.47
   6   2  -5  234.36   48.34
  -6   2   5  189.68   45.73
  -6  -2   5  283.40   77.44
   6  -2  -5  309.67   61.48
   6  -2  -5  278.98   66.77
  -6  -2   5  268.83   19.31
   6   2  -4 5893.69  173.87
  -6   2   4 5809.86  175.34
  -6  -2   4 5610.76  243.29
   6  -2  -4 6068.66  151.06
   6  -2  -4 5759.75  171.01
  -6  -2   4 5945.18  145.09
   6   2  -3 4055.40  127.81
  -6   2   3 3995.28  145.75
  -6  -2   3 4505.76  179.59
   6  -2  -3 4511.15  114.79
   6  -2  -3 4568.27  143.83
  -6  -2   3 4539.40  122.68
   6   2  -2 6021.22  171.89
  -6   2   2 5869.83  167.01
  -6  -2   2 5539.69  200.32
   6  -2  -2 6136.46  149.12
   6  -2  -2 5870.18  164.10
  -6  -2   2 5729.96  152.61
   6   2  -1 8262.70  217.53
  -6   2   1 8020.14  233.82
  -6   2   1 8310.16  223.95
  -6  -2   1 7578.62  219.46
  -6  -2   1 7376.98  192.00
   6  -2  -1 7576.01  203.67
   6   2   0 2585.03  140.71
  -6   2   0 2575.66   95.59
  -6   2   0 2569.35   98.69
  -6  -2   0 2401.40   89.89
  -6  -2   0 2316.23   85.94
   6  -2   0 2589.50   82.79
  -6   2  -1 2105.94   91.60
   6   2   1 2178.44  108.25
  -6   2  -1 2153.29   91.90
  -6  -2  -1 1954.46   77.66
   6  -2   1 2080.53   71.34
  -6  -2  -1 2117.87  100.45
  -6   2  -2 4331.64  145.49
   6   2   2 4258.34  161.73
  -6   2  -2 4406.41  159.15
   6  -2   2 4405.40  172.82
  -6  -2  -2 4534.76  163.80
  -6   2  -3  729.02   59.63
   6   2   3  731.49  129.93
  -6   2  -3  743.23  198.38
   6  -2   3  605.96  116.89
  -6  -2  -3  654.84   67.02
  -6   2  -4 1308.69   79.49
   6   2   4 1276.56  228.03
  -6   2  -4 1293.16  107.69
   6  -2   4 1387.62  240.94
  -6  -2  -4 1354.17  106.96
  -6   2  -5 1121.50  151.52
   6   2   5 1236.29  106.42
  -6   2  -5 1116.20   76.79
   6  -2   5 1305.74   83.92
  -6  -2  -5 1256.84   94.50
  -6   2  -6  906.87   67.94
   6   2   6  971.79   83.28
  -6   2  -6 1023.37   86.98
   6  -2   6  894.62  122.84
  -6  -2  -6  890.01   78.97
   6   2   7  527.40   83.34
  -6   2  -7  429.86   58.17
   6  -2   7  477.21  107.01
  -6  -2  -7  652.48   84.15
   6   2   8   32.29   32.77
  -6   2  -8    1.41   35.32
   6  -2   8   19.85   20.25
  -6  -2  -8  -11.01   39.40
   6   2   9  318.86   59.37
  -6   2  -9  304.85   62.54
   6  -2   9  286.48   59.08
  -6  -2  -9  340.20   57.13
   6   2  10   20.19   20.61
  -6   2 -10  -15.20   33.58
   6  -2  10  -28.05   31.87
  -6  -2 -10   20.10   37.74
   6   3 -15  300.45   64.51
  -6   3  15  198.51   41.87
  -6  -3  15  311.13   70.12
   6  -3 -15  322.24   56.83
   6   3 -14   91.48   54.03
  -6   3  14   60.87   32.78
  -6  -3  14   37.09   23.49
   6  -3 -14    7.91   15.30
   6  -3 -14   39.06   24.96
   6   3 -13  108.49   37.11
  -6   3  13  103.92   36.53
  -6  -3  13  178.93   50.68
   6  -3 -13  122.16   36.57
   6  -3 -13   69.50   25.03
   6   3 -12 1052.95   80.87
  -6   3  12  907.97   74.29
  -6  -3  12 1027.84  147.93
   6  -3 -12  869.61   65.46
   6  -3 -12  769.98  201.67
   6   3 -11   16.91   28.05
  -6   3  11   29.30   26.76
  -6  -3  11   33.04   18.75
   6  -3 -11   46.33   13.75
   6  -3 -11   45.82   16.71
   6   3 -10 2677.15  125.23
  -6   3  10 2543.20  206.38
  -6  -3  10 2443.41  406.07
   6  -3 -10 2643.35   87.79
   6  -3 -10 2851.72  190.58
   6   3  -9  602.05   99.81
  -6   3   9  451.70  100.36
  -6  -3   9  514.95  109.41
   6  -3  -9  454.53   44.71
   6  -3  -9  531.71  107.10
   6   3  -8 1132.44  226.47
  -6   3   8 1101.75  236.24
  -6  -3   8 1008.04  213.72
   6  -3  -8 1006.27   68.02
   6  -3  -8  985.10   73.84
   6   3  -7 4575.38  197.30
  -6   3   7 4465.31  191.98
  -6  -3   7 4274.50  232.12
   6  -3  -7 4519.75  170.75
   6  -3  -7 4471.65  192.91
   6   3  -6   27.00   35.71
  -6   3   6  -12.03   32.97
  -6  -3   6   40.03   18.95
   6  -3  -6   27.55   18.08
   6  -3  -6   39.90   20.89
   6   3  -5 8601.62  303.84
  -6   3   5 9004.21  274.84
  -6  -3   5 8219.97  358.19
   6  -3  -5 8326.95  227.05
   6  -3  -5 8494.12  298.33
  -6  -3   5 8314.25  232.92
   6   3  -4 1427.50   78.00
  -6   3   4 1311.94   78.19
  -6  -3   4 1178.24   75.85
   6  -3  -4 1217.17  102.09
  -6  -3   4 1180.06   55.12
   6   3  -3 3279.69  130.51
  -6   3   3 3412.09  129.52
  -6  -3   3 3447.59  154.00
   6  -3  -3 3490.44  172.42
  -6  -3   3 3570.99  120.45
   6   3  -2 3405.29  126.77
  -6   3   2 3342.48  131.10
  -6  -3   2 3484.99  214.91
   6  -3  -2 3501.15  129.92
  -6  -3   2 3431.74  119.32
   6   3  -1   95.78   28.83
  -6   3   1   80.12   21.11
  -6  -3   1   57.52   15.21
   6  -3  -1   78.51   15.79
   6  -3  -1   98.03   28.12
  -6  -3   1   43.32   26.61
  -6   3   0 2649.74  106.55
   6   3   0 2544.11  105.93
  -6  -3   0 2710.98   96.62
   6  -3   0 2823.52   93.63
   6  -3   0 2750.29  117.80
  -6  -3   0 2644.48  111.97
  -6   3  -1 2730.90  138.05
   6   3   1 2675.35  181.15
  -6  -3  -1 2547.53  115.43
   6  -3   1 2783.39  113.47
  -6  -3  -1 2747.38  156.61
  -6   3  -2  574.28   53.96
   6   3   2  630.90  152.73
  -6   3  -2  627.56   71.41
   6  -3   2  522.43   81.47
  -6  -3  -2  522.25   58.10
  -6   3  -3 2809.98  210.59
   6   3   3 2463.18  150.17
  -6   3  -3 2481.52  136.91
   6  -3   3 2797.23  131.84
  -6  -3  -3 2786.54  156.52
  -6   3  -4  104.21   28.14
   6   3   4  121.42   24.29
  -6   3  -4  104.06   33.15
   6  -3   4  141.39   30.31
  -6  -3  -4  103.58   37.46
  -6   3  -5  909.36   60.73
   6   3   5  889.07  144.36
  -6   3  -5  825.78   64.90
   6  -3   5  781.46  179.43
  -6  -3  -5  832.19   83.05
  -6   3  -6  386.24   93.92
   6   3   6  450.87   65.25
  -6   3  -6  391.70   55.14
   6  -3   6  338.59   63.84
  -6  -3  -6  440.85   70.92
  -6   3  -7   52.38   13.39
   6   3   7   18.91   20.60
  -6   3  -7    1.27   33.09
   6  -3   7   66.67   24.21
  -6  -3  -7  101.01   72.07
   6   3   8  425.80   77.11
  -6   3  -8  416.30   60.95
   6  -3   8  340.32   92.83
  -6  -3  -8  543.52   93.97
   6   3   9   15.53   19.64
  -6   3  -9    9.98   32.49
   6  -3   9  -33.34   25.27
  -6  -3  -9   64.87   56.28
   6   3  10   75.87   36.90
  -6   3 -10  112.02   49.90
   6  -3  10  114.75   41.25
  -6  -3 -10   59.01   42.02
   6   4 -14  105.88   54.88
  -6   4  14  148.64   38.57
  -6  -4  14  200.69   66.42
   6  -4 -14  155.78   41.96
   6   4 -13  191.20   53.65
  -6   4  13  142.23   45.48
  -6  -4  13  234.64   61.87
   6  -4 -13  184.40   51.42
   6   4 -12  153.05   54.20
  -6   4  12  121.69   41.98
  -6  -4  12  166.33   47.18
   6  -4 -12  188.44   56.25
   6   4 -11 1103.16  153.34
  -6   4  11 1208.52  189.97
  -6  -4  11 1188.26  170.19
   6  -4 -11 1091.99  175.24
   6   4 -10  134.99   32.47
  -6   4  10   40.86   28.39
  -6  -4  10   66.81   20.48
   6  -4 -10   61.49   18.11
   6   4  -9 2882.74  129.60
  -6   4   9 2806.84  111.65
  -6  -4   9 2923.51  368.69
   6  -4  -9 2953.24  178.69
   6   4  -8 1898.33  161.61
  -6   4   8 1798.70   89.95
  -6  -4   8 2144.14  236.88
   6  -4  -8 2051.38   86.27
   6   4  -7  763.75   74.81
  -6   4   7  743.47  137.13
  -6  -4   7  805.86   94.04
   6  -4  -7  752.00  109.65
   6   4  -6 3232.43  264.56
  -6   4   6 2575.50  214.83
  -6  -4   6 3645.84  236.13
   6  -4  -6 3731.38  286.49
   6   4  -5  332.56   89.17
  -6   4   5  362.21   90.08
  -6  -4   5  357.78   68.27
   6  -4  -5  381.46   77.57
  -6  -4   5  314.51   65.48
   6   4  -4 5342.66  339.60
  -6   4   4 5286.25  346.86
  -6  -4   4 5654.70  374.13
   6  -4  -4 5637.89  284.86
  -6  -4   4 5201.67  303.94
   6   4  -3 3473.46  180.64
  -6   4   3 3550.93  232.78
  -6  -4   3 4077.63  245.34
   6  -4  -3 4131.95  211.94
  -6  -4   3 4144.15  208.53
   6   4  -2 1146.84  201.02
  -6   4   2 1169.33   91.70
  -6  -4   2 1020.32   91.36
   6  -4  -2 1087.86   85.08
  -6  -4   2 1080.39   79.48
   6   4  -1 3572.46  288.84
  -6   4   1 3560.74  188.63
  -6  -4   1 3658.01  189.33
   6  -4  -1 3601.62  192.94
  -6  -4   1 3584.04  190.51
   6   4   0  321.84   43.41
  -6   4   0  368.09   52.59
  -6  -4   0  322.89   69.50
   6  -4   0  363.44   89.01
  -6  -4   0  312.09   70.65
   6   4   1 1864.29  113.51
  -6   4  -1 1977.46  296.16
  -6  -4  -1 1807.16  138.94
   6  -4   1 1855.46  113.32
  -6  -4  -1 1803.39  107.39
   6   4   2 1090.10   92.51
  -6   4  -2 1141.46  110.14
  -6  -4  -2 1257.74  141.72
   6  -4   2 1352.65   90.20
  -6  -4  -2 1386.83   87.76
  -6   4  -3  223.67   49.96
   6   4   3  216.23   47.19
   6  -4   3  174.50   51.74
  -6  -4  -3  155.27   52.50
  -6   4  -4 1191.22   71.44
   6   4   4 1075.30  142.41
   6  -4   4 1153.32  128.03
  -6  -4  -4 1225.86  109.93
  -6   4  -5   19.78   12.27
   6   4   5   49.09   22.93
   6  -4   5   -0.88    9.15
   6  -4   5  -23.60   29.87
  -6  -4  -5   46.31   40.89
  -6   4  -6  643.33   59.94
   6   4   6  509.90  138.98
   6  -4   6  375.64   77.88
  -6  -4  -6  557.13   94.19
  -6   4  -7  466.79  148.83
   6   4   7  554.49   94.20
  -6   4  -7  532.33   62.69
  -6  -4  -7  572.34   79.67
   6   4   8   39.96   31.57
  -6  -4  -8   86.42   67.28
   6   4   9  108.49   28.49
  -6   4  -9   47.13   36.47
  -6  -4  -9  123.84   65.59
   6   5 -12  242.72   66.63
  -6   5  12  165.33   52.74
  -6  -5  12  206.37   58.10
   6  -5 -12  174.88   56.26
   6   5 -11   22.81   33.42
  -6   5  11   37.54   28.02
  -6  -5  11   -9.41   41.34
   6  -5 -11    9.26   40.88
   6   5 -10  255.78   86.88
  -6   5  10  234.11   51.76
  -6  -5  10  372.29   75.30
   6  -5 -10  294.91   84.13
   6   5  -9  120.28   37.00
  -6   5   9  141.58   28.22
  -6  -5   9   82.75   35.11
   6  -5  -9   71.66   31.17
   6   5  -8  208.65   44.25
  -6   5   8  196.01   43.17
  -6  -5   8  246.99   46.74
   6  -5  -8  221.07   37.97
   6   5  -7 1120.06  177.12
  -6   5   7 1052.00  252.76
  -6  -5   7 1244.62  162.98
   6  -5  -7 1291.79  222.11
   6   5  -6  117.29   41.47
  -6   5   6   74.41   20.15
  -6  -5   6  102.06   34.24
   6  -5  -6  133.42   44.10
   6   5  -5 1029.11   73.29
  -6   5   5  983.59  192.94
  -6  -5   5 1143.10  175.21
   6  -5  -5 1085.59  186.28
  -6  -5   5  890.46  162.62
   6   5  -4  634.76  114.26
  -6   5   4  605.55   54.92
  -6  -5   4  868.27  151.77
   6  -5  -4  871.70  196.57
  -6  -5   4  832.66   85.03
   6   5  -3  728.89   65.39
  -6   5   3  690.99  155.38
  -6  -5   3  566.56   60.04
   6  -5  -3  604.40  134.01
  -6  -5   3  479.55   83.37
  -6   5   2 2034.16  128.15
   6   5  -2 2190.94  261.62
   6  -5  -2 2031.45  109.48
  -6  -5   2 2202.00   95.12
  -6   5   1    4.71   17.69
   6   5  -1   15.69   14.50
   6  -5  -1   44.29   21.31
  -6  -5   1   25.53   12.37
  -6   5   0 1329.98   90.41
   6   5   0 1334.08   75.26
   6  -5   0 1123.38  220.70
  -6  -5   0 1228.95   88.86
  -6   5  -1  109.99   39.97
   6   5   1  102.43   41.95
   6  -5   1   91.34   24.50
  -6  -5  -1  164.67   53.75
  -6   5  -2  386.63   61.52
   6   5   2  370.87   55.31
   6  -5   2  316.78   73.65
  -6  -5  -2  416.66   72.57
  -6   5  -3  758.22  134.67
   6   5   3  801.33  133.25
   6  -5   3  786.71  173.02
  -6  -5  -3  985.49   93.69
  -6   5  -4   21.80   16.84
   6   5   4    1.94   11.63
   6  -5   4   12.92    9.19
  -6  -5  -4  -10.62   41.60
  -6   5  -5  300.63   79.66
   6   5   5  294.46   72.26
   6  -5   5  260.98   76.95
  -6  -5  -5  351.14  100.32
  -6   5  -6   32.83   25.43
   6   5   6   32.11   26.45
   6  -5   6   52.78   31.88
  -6  -5  -6   47.21   47.29
  -6   5  -7   72.29   22.18
   6   5   7   62.28   22.91
   6  -5   7   43.45   16.89
  -6  -5  -7   65.04   63.75
   6   6 -10   28.34   19.73
  -6   6  10   12.32   14.29
  -6  -6  10  105.66   50.49
   6  -6 -10   30.06   18.77
   6   6  -9  223.15   49.46
  -6   6   9  174.55   48.88
  -6  -6   9  198.30   53.38
   6  -6  -9  213.22   56.56
   6   6  -8  496.02  110.67
  -6   6   8  545.73   84.61
  -6  -6   8  510.54  104.24
   6  -6  -8  480.01  137.50
   6   6  -7   92.32   39.38
  -6   6   7  102.71   30.68
  -6  -6   7  121.55   44.58
   6  -6  -7  164.51   34.05
   6   6  -6  524.32  140.65
  -6   6   6  684.61   79.85
  -6  -6   6  688.58  137.23
   6  -6  -6  701.27  139.50
   6   6  -5   26.93   20.50
  -6   6   5   20.92   21.06
  -6  -6   5   60.22   39.89
   6  -6  -5   74.67   27.51
  -6   6   4  496.19   97.43
   6   6  -4  486.38  110.83
   6  -6  -4  576.76  165.48
  -6  -6   4  433.37  117.40
  -6   6   3  779.97  143.16
   6   6  -3  745.12   63.35
   6  -6  -3  645.83   94.25
  -6  -6   3  589.57  133.59
  -6   6   2  175.56   49.30
   6   6  -2  128.11   35.45
   6   6  -2  142.09   35.44
   6  -6  -2  172.50   42.40
  -6  -6   2  128.30   48.64
  -6   6   1 1863.44  105.36
   6   6  -1 1820.22  196.96
   6   6  -1 1648.72   90.63
   6  -6  -1 1922.91  118.01
  -6  -6   1 1724.20  249.10
  -6   6   0  255.45   65.10
   6   6   0  208.64   51.76
   6   6   0  228.29   66.28
   6  -6   0  343.61   60.26
  -6  -6   0  323.01   94.30
  -6   6  -1  605.01  142.96
   6   6   1  460.41  138.32
   6   6   1  629.49   61.05
   6  -6   1  560.10  157.03
  -6  -6  -1  676.07   78.37
  -6   6  -2  430.82  114.67
   6   6   2  277.37   62.56
   6  -6   2  452.62   77.17
  -6  -6  -2  433.89  120.12
  -6   6  -3  -21.37   31.19
   6   6   3  -23.29   24.49
   6  -6   3   29.70   26.62
  -6  -6  -3  -29.37   39.95
  -6   6  -4  378.48  108.65
   6   6   4  307.06   51.22
   6  -6   4  315.15   96.81
  -6  -6  -4  427.57   72.67
  -6   6  -5    9.55   29.34
   6   6   5   21.58   12.69
   6  -6   5   57.11   37.88
  -6  -6  -5   37.39   14.78
  -6   7   6   79.27   26.97
  -6  -7   6   57.10   36.97
   6  -7  -6   42.41   20.19
  -6   7   5  395.22   58.47
  -6  -7   5  373.87   79.52
   6  -7  -5  383.89  102.37
  -6   7   4  167.37   49.90
   6  -7  -4  212.91   54.58
  -6   7   3  237.06   62.54
   6  -7  -3  176.90   34.97
  -6  -7   3  149.23   50.53
  -6   7   2  467.13   77.81
   6   7  -2  329.70   91.00
   6  -7  -2  399.17   94.97
  -6  -7   2  336.41   55.73
  -6   7   1   78.36   31.01
   6   7  -1   16.18   17.99
   6  -7  -1    8.28   19.49
  -6  -7   1  -20.98   35.09
  -6   7   0  615.62   70.78
   6  -7   0  499.66  100.17
  -6  -7   0  574.76   72.08
  -6   7  -1   44.08   23.83
   6  -7   1   -1.17   24.09
  -6  -7  -1   42.46   44.24
  -7   0  16   23.77   32.10
   7   0 -16   36.30   49.82
  -7   0  15  440.43   82.29
   7   0 -15  259.91   58.73
  -7   0  14  -23.22   57.31
   7   0 -14  -11.06   33.81
  -7   0  13 2129.03  261.39
   7   0 -13 1914.19   97.40
  -7   0  12  118.66   30.98
   7   0 -12  151.42   37.10
  -7   0  11  904.43  216.82
   7   0 -11  899.65   79.98
  -7   0  10 7838.20  380.62
   7   0 -10 7644.97  382.29
  -7   0   9  102.84   36.28
   7   0  -9  103.84   26.95
  -7   0   8 3162.40  141.22
   7   0  -8 3291.10  131.68
   7   0  -8 3115.20   98.23
  -7   0   7 4885.99  273.38
   7   0  -7 5080.75  156.78
   7   0  -7 4871.89  130.02
  -7   0   6 2584.15  115.11
   7   0  -6 2660.23   98.04
   7   0  -6 2586.08   90.67
  -7   0   5 6717.68  204.19
   7   0  -5 5848.93  181.01
  -7   0   4   53.54   17.15
   7   0  -4    2.76   23.88
  -7   0   4   25.39   11.73
  -7   0   3 1252.09   60.09
   7   0  -3 1143.15   57.23
  -7   0   3 1241.55   56.54
  -7   0   2  123.57   22.51
   7   0  -2  107.56   28.67
  -7   0   2  117.50   29.34
  -7   0   1 1692.94   65.76
   7   0  -1 1586.78   67.81
  -7   0   1 1671.75   77.37
  -7   0   0 4229.32  131.87
   7   0   0 4101.08  129.71
  -7   0   0 4287.26  138.02
  -7   0  -1  196.68   44.32
   7   0   1  206.05   38.80
  -7   0  -1  184.05   30.62
  -7   0  -2 4213.62  125.99
   7   0   2 4312.94  163.30
  -7   0  -2 4326.01  160.08
   7   0   3  678.87  104.13
  -7   0  -3  664.38   62.09
   7   0   4  245.00   49.52
  -7   0  -4  231.22   42.68
   7   0   5 2417.10  189.46
  -7   0  -5 2633.81  134.05
   7   0   6  282.17   62.24
  -7   0  -6  325.16   60.00
   7   0   7  535.80  124.33
  -7   0  -7  696.53   85.90
   7   0   8  116.52   27.83
  -7   0  -8  163.21   51.74
   7   0   9   40.47   25.58
  -7   0  -9    3.30   35.35
   7   0  10  158.10   34.53
  -7   0 -10  148.87   57.50
   7   1 -16  110.95   41.08
  -7   1  16  102.78   36.47
  -7  -1  16  179.24   71.18
   7  -1 -16  100.77   34.00
  -7   1  15   39.82   30.04
   7   1 -15   24.61   38.05
  -7  -1  15   17.13   44.67
   7  -1 -15    1.92   34.49
   7   1 -14 1020.43   88.16
  -7   1  14  885.64  242.04
  -7  -1  14  917.90  248.49
   7  -1 -14 1020.59  172.26
   7   1 -13  373.86   75.75
  -7   1  13  364.16  119.42
  -7  -1  13  267.96   63.11
   7  -1 -13  283.28   79.19
   7   1 -12  422.52   58.32
  -7   1  12  361.63   59.00
  -7  -1  12  418.92  100.93
   7  -1 -12  400.25   74.31
   7   1 -11 5810.03  152.10
  -7   1  11 5738.78  257.78
  -7  -1  11 5223.44  312.57
   7  -1 -11 5610.89  143.55
   7  -1 -11 5183.12  196.78
   7   1 -10  165.60   39.76
  -7   1  10  100.28   34.19
  -7  -1  10  120.68   56.02
   7  -1 -10  139.38   40.94
   7  -1 -10  104.88   26.89
   7   1  -9 3569.39  161.42
  -7   1   9 3519.40  171.21
  -7  -1   9 3575.06  274.93
   7  -1  -9 3717.74  159.84
   7  -1  -9 3581.98  155.30
   7   1  -8 2039.64   99.73
  -7   1   8 1979.33  157.25
  -7  -1   8 2079.07  378.56
   7  -1  -8 2111.89   91.60
   7  -1  -8 2125.77   80.60
   7   1  -7  951.67  141.15
  -7   1   7  958.09  179.95
  -7  -1   7 1292.67  272.93
   7  -1  -7 1191.71   62.73
   7  -1  -7 1229.16   71.58
   7   1  -6 9452.16  215.84
  -7   1   6 9923.95  271.35
   7   1  -6 9687.14  266.76
   7  -1  -6 9719.58  250.04
  -7  -1   6 9006.35  394.95
   7  -1  -6 9410.61  249.69
   7   1  -5  251.49   50.12
  -7   1   5  183.44   44.30
  -7  -1   5  184.43   53.42
   7  -1  -5  207.98   30.71
   7  -1  -5  179.11   53.85
  -7  -1   5  165.30   28.85
   7   1  -4 3322.58  111.60
  -7   1   4 3408.57  113.90
  -7  -1   4 3434.13  197.42
   7  -1  -4 3272.46  100.72
   7  -1  -4 3352.49  107.96
  -7  -1   4 3551.53  129.58
   7   1  -3 8613.19  227.46
  -7   1   3 8757.60  233.57
  -7   1   3 9024.54  229.24
  -7  -1   3 8998.75  253.14
  -7  -1   3 9568.10  231.65
   7  -1  -3 9088.38  228.39
   7   1  -2   41.85   22.99
  -7   1   2   66.31   21.99
  -7   1   2   49.74   26.42
  -7  -1   2  117.55   25.99
  -7  -1   2   82.82   22.32
   7  -1  -2   86.01   24.81
  -7   1   1 5299.09  167.26
   7   1  -1 5487.75  161.77
  -7   1   1 5711.02  168.33
  -7  -1   1 5399.92  151.50
   7  -1  -1 4980.03  144.22
  -7  -1   1 4928.08  145.84
   7   1   0  322.88   68.63
  -7   1   0  345.02   72.23
  -7   1   0  331.21   39.84
  -7  -1   0  329.94   52.69
  -7  -1   0  269.42   38.62
   7  -1   0  325.06   73.28
   7   1   1 3923.35  146.02
  -7   1  -1 3969.76  133.30
  -7   1  -1 4275.17  156.31
  -7  -1  -1 4113.76  120.11
  -7  -1  -1 4050.60  149.38
   7  -1   1 4008.29  136.62
  -7   1  -2 1374.09   67.66
   7   1   2 1335.40   78.37
  -7   1  -2 1426.64   93.43
   7  -1   2 1130.65  207.29
  -7  -1  -2 1139.18   78.87
  -7   1  -3  190.39   26.05
   7   1   3  235.78   57.12
  -7   1  -3  282.04   59.17
   7  -1   3  327.85   69.10
  -7  -1  -3  286.31   41.34
   7   1   4 3390.71  194.42
  -7   1  -4 3628.07  187.13
  -7  -1  -4 3803.52  194.89
   7  -1   4 3864.60  187.53
   7   1   5  345.32   63.37
  -7   1  -5  319.04   53.36
   7  -1   5  280.67   52.51
  -7  -1  -5  263.51   43.13
   7   1   6  566.94  100.72
  -7   1  -6  622.54   73.98
   7  -1   6  496.66  100.57
  -7  -1  -6  492.19   66.92
   7   1   7  479.16  107.79
  -7   1  -7  477.47   70.10
   7  -1   7  432.04   68.26
  -7  -1  -7  493.20   77.30
   7   1   8   78.82   20.84
  -7   1  -8   68.63   38.05
   7  -1   8   84.30   38.48
  -7  -1  -8  101.27   65.25
   7   1   9  124.79   53.42
  -7   1  -9  194.76   63.18
   7  -1   9  187.11   51.88
  -7  -1  -9  195.25   65.26
   7   1  10   -0.73   18.30
  -7   1 -10   51.85   51.85
   7  -1  10   15.37   21.86
  -7  -1 -10   80.28   57.05
   7   2 -15  152.94   42.08
  -7   2  15  227.90   77.68
  -7  -2  15  267.79   80.26
   7  -2 -15  241.11   57.93
   7   2 -14   12.81   43.93
  -7   2  14   29.47   36.46
  -7  -2  14  -11.30   48.88
   7  -2 -14   39.00   29.25
   7   2 -13  870.66  182.81
  -7   2  13  843.67   88.73
  -7  -2  13  839.69  176.32
   7  -2 -13  772.35   86.51
   7   2 -12 1063.92   81.60
  -7   2  12 1071.95   95.53
  -7  -2  12  889.73  158.66
   7  -2 -12  929.01  173.22
   7  -2 -12  815.15  167.58
   7   2 -11   21.75   38.86
  -7   2  11   14.98   34.49
  -7  -2  11   15.86   33.80
   7  -2 -11   29.35   23.98
   7  -2 -11  -17.09   22.53
   7   2 -10 1888.22  106.91
  -7   2  10 2076.65  117.54
  -7  -2  10 2038.42  286.30
   7  -2 -10 2041.32   95.68
   7  -2 -10 2055.63   94.65
   7   2  -9  747.52  165.63
  -7   2   9  639.63  152.60
  -7  -2   9  688.13  133.01
   7  -2  -9  660.86  117.92
   7  -2  -9  641.65   58.79
   7   2  -8 2068.41  130.52
  -7   2   8 1822.48  103.63
  -7  -2   8 2541.76  313.16
   7  -2  -8 2314.13  105.34
   7  -2  -8 2431.54  161.66
   7   2  -7 3757.62  163.59
  -7   2   7 3697.21  169.26
  -7  -2   7 3632.10  230.55
   7  -2  -7 3741.65  148.08
   7  -2  -7 3827.71  195.34
   7   2  -6  174.54   44.95
  -7   2   6  143.02   36.83
  -7  -2   6  147.49   36.97
   7  -2  -6  113.91   22.37
   7  -2  -6  107.14   26.08
   7   2  -5 4381.42  156.78
  -7   2   5 4228.15  156.60
  -7  -2   5 3661.29  169.38
   7  -2  -5 3989.51  129.34
   7  -2  -5 4074.26  137.79
  -7  -2   5 4153.71  118.38
   7   2  -4 2247.59   99.08
  -7   2   4 2009.58  101.78
  -7  -2   4 2142.00  130.01
   7  -2  -4 2403.51   79.10
   7  -2  -4 2299.13   93.16
  -7  -2   4 2296.30   76.08
   7   2  -3 8634.29  239.29
  -7   2   3 8990.24  245.89
  -7  -2   3 9088.90  290.02
   7  -2  -3 9209.17  227.00
   7  -2  -3 8899.60  268.17
  -7  -2   3 8918.60  224.97
   7   2  -2 8360.08  228.10
   7  -2  -2 9581.88  238.99
  -7  -2   2 9296.61  273.02
   7  -2  -2 8764.20  279.72
  -7  -2   2 9377.82  240.52
   7   2  -1  578.13  121.37
  -7   2   1  462.80   58.18
  -7   2   1  526.05   54.76
  -7  -2   1  599.36   62.08
  -7  -2   1  576.27   49.22
   7  -2  -1  625.69   40.21
   7   2   0 3977.78  165.06
  -7   2   0 4059.58  139.44
  -7   2   0 4258.50  152.01
  -7  -2   0 4400.78  142.71
  -7  -2   0 4395.84  156.26
   7  -2   0 4347.27  137.66
  -7   2  -1  347.49   33.65
   7   2   1  412.94   79.88
  -7   2  -1  336.06   48.24
  -7  -2  -1  357.04   57.70
   7  -2   1  385.72   84.61
  -7  -2  -1  344.02   47.33
  -7   2  -2 2792.66  148.73
   7   2   2 2744.04  175.44
  -7   2  -2 2865.85  170.46
   7  -2   2 2658.97  140.96
  -7  -2  -2 2794.55  158.06
  -7   2  -3 2607.01  125.85
   7   2   3 2511.09  204.74
  -7   2  -3 2645.37  148.58
   7  -2   3 2450.55  126.96
  -7  -2  -3 2573.70  146.39
  -7   2  -4   47.89   21.06
   7   2   4   60.14   26.07
  -7   2  -4   47.34   16.84
   7  -2   4   58.42   16.18
  -7  -2  -4   34.08   39.17
  -7   2  -5  512.04  119.43
   7   2   5  736.23  118.11
  -7   2  -5  612.53   63.16
   7  -2   5  716.61  131.82
  -7  -2  -5  809.57   93.24
   7   2   6  110.31   32.68
  -7   2  -6   55.97   39.54
   7  -2   6   60.77   32.00
  -7  -2  -6   47.80   55.11
   7   2   7  283.95   80.97
  -7   2  -7  239.67   55.97
   7  -2   7  379.85   56.79
  -7  -2  -7  353.42   56.13
   7   2   8  281.57   65.65
  -7   2  -8  259.98   58.72
   7  -2   8  279.24   55.47
  -7  -2  -8  254.07   74.26
   7   2   9   34.35   35.55
  -7   2  -9   -0.12   32.89
   7  -2   9   25.61   16.24
  -7  -2  -9    3.15   39.27
   7   3 -15   56.41   39.67
  -7   3  15  -17.24   28.86
  -7  -3  15  -45.66   48.72
   7  -3 -15   16.40   15.02
   7   3 -14  430.46  124.00
  -7   3  14  453.63   68.58
  -7  -3  14  399.80   77.92
   7  -3 -14  377.08   78.69
   7   3 -13  105.41   57.42
  -7   3  13  113.23   45.72
  -7  -3  13  135.53   45.55
   7  -3 -13   88.10   28.50
   7  -3 -13   76.56   27.03
   7   3 -12  434.76  111.35
  -7   3  12  376.02   64.70
  -7  -3  12  349.85   70.45
   7  -3 -12  403.10   54.15
   7  -3 -12  369.81   85.60
   7   3 -11  840.52  136.72
  -7   3  11  790.22   77.48
  -7  -3  11  688.59  115.25
   7  -3 -11  757.01   52.00
   7  -3 -11  678.63  171.78
   7   3 -10  -17.89   35.16
  -7   3  10    1.05   30.56
  -7  -3  10    8.63   22.83
   7  -3 -10   37.49   17.54
   7  -3 -10   25.49   15.60
   7   3  -9 1672.64   96.34
  -7   3   9 1699.63  207.94
  -7  -3   9 1688.87  164.74
   7  -3  -9 1446.99   96.39
   7  -3  -9 1611.13  139.15
   7   3  -8 1137.20   83.83
  -7   3   8  956.21   81.85
  -7  -3   8 1026.28  178.65
   7  -3  -8  786.01  115.74
   7  -3  -8  920.28   81.11
   7   3  -7  656.66  166.02
  -7   3   7  586.40   63.58
  -7  -3   7  747.14  140.98
   7  -3  -7  621.26   67.88
   7  -3  -7  732.07   67.53
   7   3  -6 4964.66  255.91
  -7   3   6 4884.27  247.13
  -7  -3   6 4781.70  322.81
   7  -3  -6 5004.56  230.47
   7  -3  -6 5096.36  252.41
   7   3  -5  353.83   70.95
  -7   3   5  322.84   44.34
  -7  -3   5  348.82   51.67
   7  -3  -5  288.75   37.98
   7  -3  -5  342.36   75.38
  -7  -3   5  309.40   30.69
   7   3  -4 4829.09  196.56
  -7   3   4 4854.52  214.08
  -7  -3   4 4651.50  220.49
   7  -3  -4 5115.24  223.45
  -7  -3   4 5234.74  191.71
   7   3  -3 1008.48   84.94
  -7   3   3 1139.25  127.34
  -7  -3   3 1060.55   63.90
   7  -3  -3 1070.66   77.29
  -7  -3   3 1119.89   66.50
   7   3  -2 1474.18   91.26
  -7   3   2 1407.58   84.06
  -7  -3   2 1507.68  182.12
   7  -3  -2 1523.59   88.71
  -7  -3   2 1498.55   85.02
   7   3  -1 3267.30  153.98
  -7   3   1 3193.60  145.73
  -7  -3   1 3461.42  171.50
   7  -3  -1 3564.39  130.91
   7  -3  -1 3611.65  161.08
  -7  -3   1 3577.96  159.14
  -7   3   0  137.72   36.73
   7   3   0  160.26   45.40
  -7  -3   0  147.66   28.50
   7  -3   0  124.44   29.38
   7  -3   0  114.22   20.49
  -7  -3   0  176.81   52.43
  -7   3  -1 1976.27  118.23
   7   3   1 1927.69  137.81
  -7   3  -1 1970.46  125.90
  -7  -3  -1 1767.09  106.00
   7  -3   1 1814.06  111.07
  -7  -3  -1 1973.15  125.04
  -7   3  -2 1229.71   81.91
   7   3   2 1313.81  234.84
  -7   3  -2 1246.89   87.67
   7  -3   2 1337.85  145.27
  -7  -3  -2 1333.45  102.74
  -7   3  -3  992.12   91.30
   7   3   3  976.31  203.28
  -7   3  -3  968.67   75.24
   7  -3   3 1037.64   59.10
  -7  -3  -3 1017.72   78.38
  -7   3  -4 1323.02   72.35
   7   3   4 1346.67  261.83
  -7   3  -4 1295.80   82.60
   7  -3   4 1373.80   65.33
  -7  -3  -4 1529.67  110.07
  -7   3  -5   16.59   14.40
   7   3   5   -2.54   33.31
  -7   3  -5   -1.06   36.26
   7  -3   5    7.76   11.95
  -7  -3  -5   33.16   38.00
  -7   3  -6  123.32   29.32
   7   3   6  147.25   38.18
  -7   3  -6  158.73   54.96
   7  -3   6  215.41   40.47
  -7  -3  -6  213.00   77.29
   7   3   7  150.71   55.03
  -7   3  -7  142.31   51.83
   7  -3   7   72.38   14.25
  -7  -3  -7  100.89   47.46
   7   3   8  -40.26   35.90
  -7   3  -8   38.01   35.05
   7  -3   8   12.71   15.06
  -7  -3  -8   19.61   45.40
   7   3   9  144.26   34.64
   7  -3   9  167.80   41.84
  -7  -3  -9  209.87   75.33
   7   4 -14   82.74   23.87
  -7   4  14   98.74   43.89
  -7  -4  14  150.75   60.07
   7   4 -13  237.53   63.94
  -7   4  13  188.58   65.80
  -7  -4  13  295.57   64.77
   7  -4 -13  199.02   53.86
   7   4 -12  499.21   83.27
  -7   4  12  397.39   93.14
  -7  -4  12  521.71   71.10
   7  -4 -12  421.06  121.15
   7   4 -11  142.14   35.78
  -7   4  11   77.99   19.44
  -7  -4  11  199.55   53.51
   7  -4 -11  153.13   46.35
   7   4 -10 1145.28  144.79
  -7   4  10 1150.15  190.05
  -7  -4  10 1257.01  186.49
   7  -4 -10 1102.66  179.07
   7   4  -9  386.08   86.73
  -7   4   9  404.33   97.11
  -7  -4   9  372.85   78.20
   7  -4  -9  411.36   97.01
   7   4  -8 1075.70  196.32
  -7   4   8  963.83  195.89
  -7  -4   8  922.28  125.36
   7  -4  -8  991.61  202.80
   7   4  -7  648.91   57.14
  -7   4   7  640.36  159.87
  -7  -4   7  748.18  105.88
   7  -4  -7  770.68  119.14
   7   4  -6   73.93   27.43
  -7   4   6   50.52   21.13
  -7  -4   6  133.26   35.17
   7  -4  -6   89.35   26.65
   7   4  -5 4224.23  160.58
  -7   4   5 4202.70  161.63
  -7  -4   5 4406.98  231.07
   7  -4  -5 4296.24  221.20
  -7  -4   5 4070.15  302.54
   7   4  -4 1593.53  103.05
  -7   4   4 1672.32  104.79
  -7  -4   4 1540.26  106.53
   7  -4  -4 1472.77  110.31
  -7  -4   4 1533.85  151.52
   7   4  -3  516.40  106.64
  -7   4   3  471.27  125.76
  -7  -4   3  507.92   98.33
   7  -4  -3  562.04  128.77
  -7  -4   3  480.15  111.88
   7   4  -2 1734.06  110.50
  -7   4   2 1759.92  108.84
  -7  -4   2 1691.51  141.42
   7  -4  -2 1729.65  248.27
  -7  -4   2 1591.76   97.42
   7   4  -1   18.28   32.20
  -7   4   1   37.73   14.78
  -7  -4   1   57.60   14.43
   7  -4  -1   35.28   26.28
  -7  -4   1   62.96   38.57
   7   4   0 1420.59   92.99
  -7   4   0 1391.61   88.19
  -7  -4   0 1465.92  120.64
   7  -4   0 1571.03  248.24
  -7  -4   0 1454.33   84.97
   7   4   1  370.99  104.03
  -7   4  -1  474.37   72.65
  -7  -4  -1  441.75   65.52
   7  -4   1  535.51  105.88
  -7  -4  -1  513.54   59.23
  -7   4  -2  637.59   61.42
   7   4   2  579.76  136.47
   7  -4   2  625.57  163.70
  -7  -4  -2  589.55   61.97
  -7   4  -3  879.37  146.64
   7   4   3  857.56  105.95
   7  -4   3  890.66  172.67
  -7  -4  -3  980.99   95.60
  -7   4  -4   23.49   24.60
   7   4   4   20.90   15.55
   7  -4   4  -10.38   29.64
  -7  -4  -4   38.16   41.25
  -7   4  -5  412.53   51.50
   7   4   5  454.60   73.81
  -7  -4  -5  478.44   73.33
  -7   4  -6  327.03   83.26
   7   4   6  436.88   56.96
  -7   4  -6  435.62   68.78
  -7  -4  -6  489.55   78.85
   7   4   7    7.87   31.10
  -7   4  -7   -1.59   33.40
  -7  -4  -7   -4.19   45.38
   7   4   8   39.14   27.95
  -7   4  -8    6.53   34.36
  -7  -4  -8   44.50   43.06
   7   5 -12   62.90   38.71
  -7   5  12   41.85   23.61
  -7  -5  12  100.12   39.83
   7  -5 -12   78.48   44.56
   7   5 -11  449.09  108.27
  -7   5  11  340.52   99.15
  -7  -5  11  508.89   91.56
   7  -5 -11  392.47  108.17
   7   5 -10  271.61   46.66
  -7   5  10  248.53   51.70
  -7  -5  10  218.57   66.07
   7  -5 -10  203.27   60.36
   7   5  -9  545.27  113.79
  -7   5   9  476.79  119.74
  -7  -5   9  585.42  127.46
   7  -5  -9  561.44   93.89
   7   5  -8  287.30   61.35
  -7   5   8  333.33   67.45
  -7  -5   8  271.63   58.63
   7  -5  -8  319.42   57.08
   7   5  -7  403.58   73.28
  -7   5   7  247.68   63.09
  -7  -5   7  427.25   87.96
   7  -5  -7  354.22   65.01
   7   5  -6 1290.46   82.18
  -7   5   6 1199.12   79.23
  -7  -5   6 1227.31  182.84
   7  -5  -6 1137.53  261.95
   7   5  -5    8.99   15.91
  -7   5   5   41.46   25.00
  -7  -5   5   -1.59   28.95
   7  -5  -5   31.78   22.42
  -7  -5   5   -2.04   20.73
   7   5  -4 1206.27  197.40
  -7   5   4 1159.47  111.31
  -7  -5   4 1217.45  238.74
   7  -5  -4 1205.43  262.76
  -7  -5   4 1003.09  168.27
   7   5  -3  326.79   84.51
  -7   5   3  387.61   53.27
  -7  -5   3  260.82   57.65
   7  -5  -3  270.92   61.33
  -7  -5   3  240.61   33.41
   7   5  -2  172.75   33.24
  -7   5   2  177.30   35.51
  -7  -5   2  232.49   55.03
   7  -5  -2  288.56   71.41
  -7  -5   2  219.11   37.02
   7   5  -1 1827.99   93.54
  -7   5   1 1634.68  113.80
  -7  -5   1 1399.23  265.94
   7  -5  -1 1640.79  170.37
  -7  -5   1 1523.65  282.45
   7   5   0   48.67   32.38
  -7   5   0  -14.21   29.96
  -7  -5   0    6.54   18.63
   7  -5   0   23.48    9.81
  -7  -5   0  -15.87   35.52
  -7   5  -1  625.16   61.15
   7   5   1  615.01  105.47
   7  -5   1  603.18  154.40
  -7  -5  -1  614.53   80.89
  -7   5  -2  402.76   84.02
   7   5   2  492.79   63.75
   7  -5   2  432.43  108.89
  -7  -5  -2  328.13   60.27
  -7   5  -3   34.25   25.26
   7   5   3   12.18   10.60
   7  -5   3  107.56   30.81
  -7  -5  -3   79.04   23.64
  -7   5  -4  333.90   71.74
   7   5   4  298.85   70.91
   7  -5   4  339.83   79.13
  -7  -5  -4  284.98   62.64
  -7   5  -5   39.09   27.48
   7   5   5  -26.80   31.42
   7  -5   5   14.29   24.39
  -7  -5  -5    4.70   43.13
  -7   5  -6  166.99   48.97
   7   5   6  201.52   47.41
   7  -5   6  164.45   56.24
  -7  -5  -6  256.54   80.67
   7   6 -10  224.64   70.79
  -7   6  10  273.89   60.20
  -7  -6  10  257.98   47.25
   7  -6 -10  204.20   42.96
   7   6  -9  166.25   40.69
  -7   6   9  209.87   55.17
  -7  -6   9  213.42   52.93
   7  -6  -9  173.12   54.91
   7   6  -8  282.34   72.09
  -7   6   8  375.41   89.30
  -7  -6   8  412.64   69.75
   7  -6  -8  420.64   89.24
   7   6  -7  406.90   84.22
  -7   6   7  352.39   66.61
  -7  -6   7  450.74   94.43
   7  -6  -7  447.61   67.14
   7   6  -6   62.81   18.31
  -7   6   6   19.93   19.33
  -7  -6   6   26.34   16.29
   7  -6  -6   27.48   25.54
   7   6  -5 1013.97   79.73
  -7   6   5  950.29  230.28
  -7  -6   5  925.78  200.55
   7  -6  -5 1039.22  217.83
   7   6  -4   80.12   47.13
  -7   6   4  159.88   37.16
  -7  -6   4  130.47   32.81
   7  -6  -4  132.55   44.24
  -7  -6   4  105.51   25.63
   7   6  -3  463.89   52.41
  -7   6   3  527.34  129.59
  -7  -6   3  382.62   69.11
   7  -6  -3  494.23   81.07
  -7  -6   3  549.58   58.62
   7   6  -2  796.39  151.03
  -7   6   2  968.09   85.57
  -7  -6   2  797.27  142.07
   7  -6  -2  856.61  209.43
  -7  -6   2 1042.09   81.69
   7   6  -1   33.34   28.30
  -7   6   1   28.93   33.33
  -7  -6   1   25.97   18.36
   7  -6  -1   10.71   18.01
  -7  -6   1   32.35   41.44
   7   6   0  440.92   76.70
  -7   6   0  559.70  114.07
  -7  -6   0  416.44  102.82
   7  -6   0  515.35  113.28
  -7  -6   0  466.22  103.96
  -7   6  -1  119.91   45.32
   7   6   1  161.05   40.82
   7  -6   1  198.39   47.21
  -7   6  -2  155.65   34.17
   7   6   2  164.83   44.20
   7  -6   2  143.18   51.72
  -7  -6  -2  253.00   75.42
  -7   6  -3  321.89   54.82
   7   6   3  236.97   48.10
   7  -6   3  341.99   82.64
  -7  -6  -3  404.67   74.27
  -7   6  -4   -5.18   29.69
   7   6   4  -16.19   28.18
   7  -6   4   -2.88   37.52
  -7  -6  -4   30.71   21.92
  -7   7   5  -14.99   35.88
  -7  -7   5   18.38   19.74
   7  -7  -5   33.57   17.88
   7   7  -4   98.55   34.05
  -7   7   4  157.28   51.56
  -7  -7   4  184.08   47.57
   7  -7  -4  251.94   61.27
   7   7  -3  125.56   47.70
  -7   7   3  115.61   53.33
  -7  -7   3  131.44   44.86
   7  -7  -3  231.70   54.80
   7   7  -2   24.50   21.73
  -7   7   2   49.17   36.70
  -7  -7   2   78.50   31.92
   7  -7  -2   86.35   37.11
  -7   7   1  387.62   60.33
   7  -7  -1  427.13   87.62
  -7  -7   1  431.75   61.36
  -8   0  16   22.74   53.93
   8   0 -16   55.81   38.77
  -8   0  15   46.36   30.33
   8   0 -15   21.40   35.97
  -8   0  14  322.77   74.35
   8   0 -14  265.82   54.02
  -8   0  13  -30.67   51.29
   8   0 -13   24.65   16.88
  -8   0  12  147.51   44.09
   8   0 -12  111.04   46.02
  -8   0  11  306.95   79.58
   8   0 -11  338.45   61.83
  -8   0  10   90.29   46.07
   8   0 -10  178.40   41.65
  -8   0   9 2351.82  175.40
   8   0  -9 2542.30  143.96
  -8   0   8  565.16  128.23
   8   0  -8  594.04  135.58
   8   0  -8  497.78   57.19
  -8   0   7 6439.34  231.24
   8   0  -7 6073.47  192.82
   8   0  -7 5645.84  193.26
  -8   0   6 3613.05  164.66
   8   0  -6 3339.31  125.78
   8   0  -6 3329.61  117.35
  -8   0   5  253.76   58.44
   8   0  -5  284.34   49.78
  -8   0   5  189.72   26.69
  -8   0   4 4890.13  152.72
   8   0  -4 4867.89  152.45
  -8   0   4 5301.41  150.48
  -8   0   3  679.78   56.34
   8   0  -3  646.89   61.16
  -8   0   3  698.29   54.05
  -8   0   2 2973.70   99.69
   8   0  -2 2800.35  104.60
  -8   0   2 2808.48  100.04
  -8   0   1  489.29   36.96
   8   0  -1  497.89   88.63
  -8   0   1  535.73   53.75
  -8   0   0  -14.54   15.85
   8   0   0   25.28   19.82
  -8   0   0   19.45   19.20
  -8   0  -1 2388.78  105.17
   8   0   1 2292.57  119.23
  -8   0  -1 2498.64  127.89
   8   0   2   88.99   24.42
  -8   0  -2   56.26   30.61
   8   0   3 1386.12  234.24
  -8   0  -3 1416.81  106.01
   8   0   4 1092.80  212.38
  -8   0  -4 1141.68   86.07
   8   0   5    1.94   17.43
  -8   0  -5   29.98   41.10
   8   0   6  508.50  106.65
  -8   0  -6  514.73   72.55
   8   0   7   41.12   21.25
  -8   0  -7   43.00   46.61
   8   0   8   56.78   27.50
  -8   0  -8   75.60   43.20
   8   0   9  131.53   44.42
  -8   0  -9  259.20   68.61
  -8   1  16    6.28   14.92
   8   1 -16   13.60   35.30
  -8  -1  16   -4.03   44.14
   8  -1 -16   30.98   35.32
   8   1 -15  409.38   77.24
  -8   1  15  218.00   84.51
  -8  -1  15  256.06   77.01
   8  -1 -15  265.84   66.28
   8   1 -14  -16.39   25.99
  -8   1  14  -48.68   36.20
  -8  -1  14   64.18   44.34
   8  -1 -14  -26.85   29.71
   8   1 -13   94.52   36.06
  -8   1  13  112.19   50.63
  -8  -1  13   85.30   43.03
   8  -1 -13   39.11   27.15
   8   1 -12  845.08  142.47
  -8   1  12  734.55  206.07
  -8  -1  12  565.87  120.39
   8  -1 -12  494.87   68.34
   8   1 -11  252.32   54.28
  -8   1  11  225.69   62.18
  -8  -1  11  318.45   67.62
   8  -1 -11  312.42   49.65
   8   1 -10 1524.73   98.32
  -8   1  10 1490.14  186.90
  -8  -1  10 1374.84  213.42
   8  -1 -10 1322.58   90.65
   8  -1 -10 1247.22   72.67
   8   1  -9  182.39   37.23
  -8   1   9  258.77   55.41
  -8  -1   9  115.99   70.80
   8  -1  -9  151.06   36.01
   8  -1  -9  120.33   26.46
   8   1  -8 5267.41  265.78
  -8   1   8 5278.88  296.11
  -8  -1   8 4622.13  245.08
   8  -1  -8 4946.46  203.14
   8  -1  -8 4733.08  193.08
   8   1  -7 1987.13  105.13
  -8   1   7 2051.44  142.44
  -8  -1   7 1649.22  150.18
   8  -1  -7 1728.58   97.26
   8  -1  -7 1678.86  118.96
   8   1  -6  637.62  132.73
  -8   1   6  584.07   63.53
  -8  -1   6  710.49  121.29
   8  -1  -6  735.18  149.87
   8  -1  -6  690.14   74.72
  -8  -1   6  760.75   38.16
  -8   1   5 4650.89  157.25
   8   1  -5 4829.90  164.77
  -8  -1   5 4254.59  171.26
   8  -1  -5 3888.87  184.19
   8  -1  -5 4131.32  153.88
  -8  -1   5 4604.17  136.73
  -8   1   4  220.90   57.92
   8   1  -4  244.43   51.04
  -8  -1   4  203.44   39.53
   8  -1  -4  204.60   46.77
  -8  -1   4  167.75   24.11
  -8   1   3 3697.79  131.51
  -8   1   3 3511.65  126.31
   8   1  -3 3547.80  134.63
  -8  -1   3 2937.62  103.89
  -8  -1   3 3011.91  197.45
   8   1  -2 1806.99   88.36
  -8   1   2 1836.88   78.80
  -8   1   2 1839.30   89.73
  -8  -1   2 1713.92   82.45
  -8  -1   2 1558.54   74.49
   8  -1  -2 1581.41   71.75
   8   1  -1 1874.92   89.87
  -8   1   1 1914.54   91.46
  -8   1   1 1849.38   88.42
  -8  -1   1 2150.28   93.45
  -8  -1   1 2050.41   94.64
   8  -1  -1 2058.47   88.02
   8   1   0 2781.23  124.74
  -8   1   0 2910.31  124.53
  -8   1   0 3013.62  138.30
  -8  -1   0 3233.53  140.20
  -8  -1   0 3269.96  144.35
   8  -1   0 3114.24  154.02
  -8   1  -1   23.70    7.27
   8   1   1   57.41   33.29
  -8   1  -1   50.55   38.81
   8  -1   1   42.94   14.38
  -8  -1  -1   59.40   52.66
  -8   1  -2  800.47   53.80
   8   1   2  794.95  148.21
  -8   1  -2  857.71   75.17
  -8  -1  -2  767.56   70.47
   8  -1   2  785.63  152.94
  -8   1  -3  136.36   30.02
   8   1   3  305.56   76.23
  -8   1  -3  294.09   52.14
   8  -1   3  370.91   71.25
  -8  -1  -3  345.64   52.31
   8   1   4  112.92   24.19
  -8   1  -4  141.78   49.20
   8  -1   4  136.15   37.80
  -8  -1  -4  119.90   48.42
   8   1   5  421.01   97.32
  -8   1  -5  510.59   74.97
  -8  -1  -5  568.45   65.68
   8  -1   5  626.15  111.91
   8   1   6   23.96   20.27
  -8   1  -6   19.00   35.83
  -8  -1  -6  -19.12   40.90
   8  -1   6  -13.64   28.02
   8   1   7  297.05   88.15
  -8   1  -7  298.44   64.52
  -8  -1  -7  378.80   83.35
   8  -1   7  345.05   60.58
   8   1   8  117.92   42.07
  -8   1  -8  146.47   43.26
  -8  -1  -8  123.31   62.08
   8  -1   8  146.57   39.57
   8   1   9   53.13   25.74
  -8   1  -9   15.92   36.47
  -8  -1  -9    3.96   41.07
   8  -1   9   13.51   22.59
   8   2 -15   14.02   39.30
  -8   2  15   35.08   17.59
  -8  -2  15  -44.79   51.89
   8  -2 -15   13.80   12.75
   8   2 -14  496.23   90.48
  -8   2  14  441.17   78.73
  -8  -2  14  411.73   96.35
   8  -2 -14  581.26   73.91
   8   2 -13  311.57   70.30
  -8   2  13  284.05   53.61
  -8  -2  13  262.52   56.52
   8  -2 -13  314.63   48.09
   8   2 -12  592.93   65.84
  -8   2  12  732.97   80.71
  -8  -2  12  719.04  110.10
   8  -2 -12  594.22   57.48
   8  -2 -12  586.99   71.95
   8   2 -11  599.44  113.03
  -8   2  11  507.64  118.97
  -8  -2  11  693.82  136.49
   8  -2 -11  671.65   58.28
   8  -2 -11  565.82  148.03
   8   2 -10  228.94   57.82
  -8   2  10  186.54   50.50
  -8  -2  10  214.66   37.42
   8  -2 -10  179.98   33.45
   8  -2 -10  196.13   50.69
   8   2  -9 2311.91  138.84
  -8   2   9 1948.28  153.73
  -8  -2   9 2052.12  311.90
   8  -2  -9 1884.92  101.32
   8  -2  -9 1808.40  127.16
   8   2  -8  147.93   44.23
  -8   2   8  101.03   36.54
  -8  -2   8  122.05   46.49
   8  -2  -8   63.18   28.00
   8  -2  -8   80.36   17.08
   8   2  -7 3270.58  183.71
  -8   2   7 3174.98  172.65
  -8  -2   7 3117.59  223.99
   8  -2  -7 3252.18  163.48
   8  -2  -7 3226.72  192.94
   8   2  -6 2421.42  160.53
  -8   2   6 2227.56  144.59
  -8  -2   6 2059.15  361.10
   8  -2  -6 2221.02   98.05
   8  -2  -6 2203.16  129.87
   8   2  -5  500.95   50.55
  -8   2   5  535.18   57.01
  -8  -2   5  605.07   99.86
   8  -2  -5  690.94   94.36
   8  -2  -5  704.28  148.18
  -8  -2   5  618.15   38.30
   8   2  -4 5734.05  268.43
  -8   2   4 5921.44  201.51
  -8  -2   4 5889.69  219.11
   8  -2  -4 5777.61  169.11
   8  -2  -4 5721.54  213.51
  -8  -2   4 5914.38  172.60
   8   2  -3 1526.04   85.29
  -8  -2   3 1901.14   91.88
   8  -2  -3 1947.30   74.91
   8  -2  -3 1849.66   89.16
  -8  -2   3 1930.30   79.65
   8   2  -2 1699.12   96.95
  -8   2   2 1605.88  112.39
  -8   2   2 1659.15   95.65
  -8  -2   2 1718.66  128.09
  -8  -2   2 1688.01   86.87
   8  -2  -2 1922.61   84.29
   8   2  -1 2648.85  191.23
  -8   2   1 2864.30  244.04
  -8   2   1 2726.64  127.38
  -8  -2   1 3049.06  134.97
  -8  -2   1 3223.52  145.63
   8  -2  -1 3153.59  127.76
   8   2   0  345.10   74.84
  -8   2   0  304.85   69.43
  -8   2   0  333.08   53.57
  -8  -2   0  243.09   70.68
  -8  -2   0  280.00   51.77
   8  -2   0  276.26   61.57
  -8   2  -1 2528.94  207.83
   8   2   1 2583.60  148.27
  -8   2  -1 2501.83  147.07
   8  -2   1 2729.89  145.56
  -8  -2  -1 2791.79  156.74
  -8   2  -2  345.72   64.08
   8   2   2  399.13   82.72
  -8   2  -2  384.96   59.68
   8  -2   2  339.17   51.70
  -8  -2  -2  319.18   53.79
  -8   2  -3  815.96   46.64
   8   2   3  826.28  146.83
  -8   2  -3  843.12   70.67
   8  -2   3  677.94  145.01
  -8  -2  -3  768.25   78.08
  -8   2  -4  268.30   34.09
   8   2   4  281.46   53.40
  -8   2  -4  238.01   44.85
   8  -2   4  446.17   85.92
  -8  -2  -4  412.88   58.83
   8   2   5  222.02   57.63
  -8   2  -5  224.19   51.57
   8  -2   5  173.65   31.46
  -8  -2  -5  205.23   54.32
   8   2   6  734.15  146.97
  -8   2  -6  825.78   80.16
   8  -2   6  812.96  139.47
  -8  -2  -6  959.73  101.29
   8   2   7   21.18   22.14
  -8   2  -7  -25.56   34.59
  -8  -2  -7    7.86   46.52
   8  -2   7    2.78   11.36
   8   2   8  202.76   62.23
  -8   2  -8  169.45   59.61
   8  -2   8  142.29   43.16
  -8  -2  -8  152.94   69.87
   8   3 -15  205.39   60.49
  -8   3  15  250.03   65.76
  -8  -3  15  239.35   44.16
   8  -3 -15  227.24   63.74
   8   3 -14  123.46   57.63
  -8   3  14   40.77   34.45
  -8  -3  14   57.34   54.32
   8  -3 -14   47.30   14.11
   8   3 -13  364.50  112.95
  -8   3  13  378.32   61.78
  -8  -3  13  448.51  120.29
   8  -3 -13  432.95   52.17
   8  -3 -13  342.96   82.98
   8   3 -12  312.40   71.97
  -8   3  12  243.57   48.85
  -8  -3  12  323.89  102.77
   8  -3 -12  240.68   68.33
   8  -3 -12  291.26   70.90
   8   3 -11  495.04   72.77
  -8   3  11  357.92   53.37
  -8  -3  11  500.42   92.88
   8  -3 -11  429.47   46.07
   8  -3 -11  355.40   79.68
   8   3 -10  637.30  109.65
  -8   3  10  545.72  127.90
  -8  -3  10  539.09   91.43
   8  -3 -10  508.50   44.63
   8  -3 -10  550.33  121.61
   8   3  -9  102.09   37.78
  -8   3   9  165.86   44.53
  -8  -3   9   88.56   34.53
   8  -3  -9   77.81   21.39
   8  -3  -9  113.34   30.32
   8   3  -8  684.51  150.46
  -8   3   8  589.26  140.40
  -8  -3   8  578.28  142.12
   8  -3  -8  453.61  103.36
   8  -3  -8  571.72  149.11
   8   3  -7 1655.30  303.84
  -8   3   7 1458.46   91.88
  -8  -3   7 1542.65  260.82
   8  -3  -7 1362.87   94.43
   8  -3  -7 1516.29  189.04
   8   3  -6  994.38  166.88
  -8   3   6  860.34   75.05
  -8  -3   6 1113.58  238.80
   8  -3  -6  879.18  145.51
   8  -3  -6 1189.33  213.65
   8   3  -5 3449.41  187.85
  -8   3   5 3347.14  187.70
  -8  -3   5 2888.19  181.23
   8  -3  -5 3045.08  168.52
  -8  -3   5 3019.85  148.00
   8   3  -4  477.77  120.53
  -8   3   4  502.87  111.04
  -8  -3   4  455.66   92.67
   8  -3  -4  420.81  100.19
  -8  -3   4  422.11   44.48
  -8   3   3 1821.43  123.23
  -8  -3   3 2423.64  154.27
   8  -3  -3 2646.93  171.88
   8   3  -2  528.43   55.86
  -8   3   2  613.86   57.90
  -8  -3   2  413.79   65.55
   8  -3  -2  502.95   59.60
   8  -3  -2  521.20  103.61
  -8  -3   2  527.28   57.23
   8   3  -1  219.60   39.75
  -8   3   1  196.31   33.18
  -8  -3   1  333.46   78.23
   8  -3  -1  324.78   34.38
   8  -3  -1  300.33   64.75
  -8  -3   1  325.34   54.54
   8   3   0 2062.26  125.70
  -8   3   0 2018.06  116.84
  -8  -3   0 1955.59  105.40
   8  -3   0 2146.68  127.31
   8  -3   0 2072.34  140.31
  -8  -3   0 2148.40  123.25
  -8   3  -1   92.39   23.14
   8   3   1  110.67   33.28
  -8   3  -1  149.10   47.19
  -8  -3  -1   48.34   47.49
   8  -3   1   84.76   19.08
  -8   3  -2  969.00   57.70
   8   3   2 1014.43  170.94
  -8   3  -2 1063.31   89.87
   8  -3   2  953.53  156.76
  -8  -3  -2 1166.19   86.80
  -8   3  -3  633.49   53.36
   8   3   3  662.41  167.57
  -8   3  -3  629.22   75.09
   8  -3   3  465.72   78.78
  -8  -3  -3  655.20   77.82
  -8   3  -4  271.96   38.32
   8   3   4  290.43   53.13
  -8   3  -4  298.07   55.85
   8  -3   4  243.97   51.28
  -8  -3  -4  288.19   58.67
  -8   3  -5  367.12  108.57
   8   3   5  419.77  126.03
  -8   3  -5  503.14   64.73
   8  -3   5  455.24  120.93
  -8  -3  -5  572.34   83.38
   8   3   6   73.50   55.62
  -8   3  -6  113.69   37.90
   8  -3   6  123.12   30.00
  -8  -3  -6  102.12   59.14
   8   3   7   79.01   25.60
  -8   3  -7   95.34   59.52
   8  -3   7  101.22   21.06
  -8  -3  -7  166.65   84.68
   8   3   8   90.87   32.66
  -8   3  -8    8.89   34.71
   8  -3   8   97.11   35.41
  -8  -3  -8   42.86   41.01
   8   4 -13  162.50   46.34
  -8   4  13  116.30   30.52
  -8  -4  13  143.39   55.24
   8  -4 -13  102.94   30.78
   8   4 -12  186.85   64.39
  -8   4  12  161.07   44.60
  -8  -4  12  136.82   40.15
   8  -4 -12  166.02   41.62
   8   4 -11  291.13   59.01
  -8   4  11  246.27   80.36
  -8  -4  11  403.54   87.99
   8  -4 -11  302.50   97.14
   8   4 -10  116.47   26.25
  -8   4  10  143.40   41.12
  -8  -4  10   81.75   34.17
   8  -4 -10   79.41   22.28
   8   4  -9 1129.20  248.61
  -8   4   9 1034.63   75.25
  -8  -4   9 1003.54  168.80
   8  -4  -9  914.98  154.38
   8   4  -8  218.24   49.81
  -8   4   8  213.97   55.66
  -8  -4   8  308.31   49.33
   8  -4  -8  244.67   57.83
   8   4  -7  616.58   65.45
  -8   4   7  568.20  118.90
  -8  -4   7  446.75   77.78
   8  -4  -7  441.84   86.97
   8   4  -6 1102.23  106.42
  -8   4   6 1030.06  181.31
  -8  -4   6 1124.25  182.05
   8  -4  -6 1154.47  220.45
   8   4  -5  193.26   39.14
  -8   4   5  106.19   39.04
  -8  -4   5  186.21   35.88
   8  -4  -5  204.90   42.12
  -8  -4   5  179.69   25.97
   8   4  -4  591.65  136.32
  -8   4   4  541.28   58.38
  -8  -4   4  698.65  114.56
   8  -4  -4  717.49  179.46
  -8  -4   4  570.77   46.10
   8   4  -3  137.08   30.47
  -8   4   3  164.96   36.95
  -8  -4   3  113.52   22.94
   8  -4  -3  129.77   26.42
  -8  -4   3   54.94   26.83
   8   4  -2  684.21  131.39
  -8   4   2  790.16  182.90
  -8  -4   2  696.85  130.44
   8  -4  -2  797.21  141.79
  -8  -4   2  724.64   52.59
   8   4  -1  910.46   74.99
  -8   4   1  836.23  148.74
  -8  -4   1  694.46  134.12
   8  -4  -1  671.64  184.61
  -8  -4   1  835.57   66.56
   8   4   0   41.31   33.46
  -8   4   0   52.16   26.34
  -8  -4   0   46.55   13.56
   8  -4   0   66.31   31.07
  -8  -4   0    3.13   33.42
  -8   4  -1 1215.68  217.91
   8   4   1 1240.70   85.30
   8  -4   1 1174.51  129.00
  -8  -4  -1 1245.86   78.10
  -8   4  -2  133.90   38.10
   8   4   2   53.76   32.59
   8  -4   2  131.39   31.91
  -8  -4  -2   90.57   38.44
  -8   4  -3  194.63   47.79
   8   4   3  241.33   44.12
   8  -4   3  206.22   51.67
  -8  -4  -3  311.29   55.91
  -8   4  -4  226.59   38.78
   8   4   4  284.42   63.81
   8  -4   4  249.55   74.07
  -8  -4  -4  286.15   58.71
  -8   4  -5   10.13   10.01
   8   4   5    2.14   16.24
  -8  -4  -5   13.17   46.76
   8   4   6  153.68   40.69
  -8   4  -6  206.29   60.99
  -8  -4  -6  168.63   72.03
   8   5 -12  240.13   76.99
  -8   5  12  201.75   65.05
  -8  -5  12  254.31   72.18
   8  -5 -12  189.96   49.76
   8   5 -11   -1.13   34.16
  -8   5  11   -0.54   29.79
  -8  -5  11   33.17   23.52
   8  -5 -11   36.76   18.58
   8   5 -10  514.34  124.79
  -8   5  10  498.19   88.12
  -8  -5  10  672.12  121.44
   8  -5 -10  565.01  112.64
   8   5  -9   39.99   35.19
  -8   5   9  -10.46   33.94
  -8  -5   9   10.62   22.12
   8  -5  -9   48.22   30.05
   8   5  -8  935.87  172.03
  -8   5   8  877.27  181.79
  -8  -5   8  840.75  163.83
   8  -5  -8  837.03  200.82
   8   5  -7  466.18  108.61
  -8   5   7  371.93   56.82
  -8  -5   7  394.15   78.67
   8  -5  -7  422.17  111.41
   8   5  -6  243.79   48.75
  -8   5   6  262.99   43.81
  -8  -5   6  254.93   43.50
   8  -5  -6  323.88   55.97
   8   5  -5 1413.66  230.41
  -8   5   5 1604.34   94.85
  -8  -5   5 1456.40  255.18
   8  -5  -5 1471.85  206.56
   8   5  -4   49.12   15.74
  -8   5   4   68.52   39.10
  -8  -5   4   80.24   27.29
   8  -5  -4   38.89   21.52
  -8  -5   4   37.75   25.37
   8   5  -3 1659.34   93.87
  -8   5   3 1614.01   96.30
  -8  -5   3 1519.56  103.36
   8  -5  -3 1496.51  255.28
  -8  -5   3 1537.68   80.99
   8   5  -2  701.88  110.05
  -8   5   2  647.75  110.04
  -8  -5   2  540.57  118.82
   8  -5  -2  631.57  142.20
  -8  -5   2  620.98   61.29
   8   5  -1  275.39   68.96
  -8   5   1  295.96   55.12
  -8  -5   1  313.46   64.51
   8  -5  -1  366.31   84.25
  -8  -5   1  339.55   76.84
  -8   5   0  738.81  126.97
   8   5   0  596.94  112.56
   8  -5   0  718.41  194.01
  -8  -5   0  737.85   73.24
  -8   5  -1    4.31   27.81
   8   5   1   18.45   32.99
   8  -5   1   37.11   32.87
  -8  -5  -1   20.15   35.24
  -8   5  -2  443.14   90.37
   8   5   2  414.76  109.23
   8  -5   2  399.93  108.48
  -8  -5  -2  433.36   73.39
  -8   5  -3  238.06   50.44
   8   5   3  227.37   55.58
   8  -5   3  169.80   57.09
  -8  -5  -3  261.13   69.82
  -8   5  -4   85.00   29.91
   8   5   4  116.31   41.18
   8  -5   4   69.39   34.06
  -8  -5  -4  218.90   62.74
  -8   5  -5  140.49   42.71
   8   5   5  203.16   41.96
   8  -5   5  181.70   54.80
  -8  -5  -5  225.62   65.12
   8   6  -9  346.06  129.91
  -8   6   9  337.97   84.21
  -8  -6   9  403.18  111.34
   8  -6  -9  398.08   76.94
   8   6  -8   94.30   30.98
  -8   6   8   46.27   21.99
  -8  -6   8   82.21   29.46
   8  -6  -8   67.82   30.99
   8   6  -7  200.98   44.07
  -8   6   7  202.06   63.50
  -8  -6   7  167.73   37.70
   8  -6  -7  242.78   53.92
   8   6  -6  315.97   71.22
  -8   6   6  288.25   74.06
  -8  -6   6  299.92   69.17
   8  -6  -6  345.33   58.64
   8   6  -5  101.50   28.88
  -8   6   5  108.52   37.75
  -8  -6   5   72.38   23.29
   8  -6  -5  155.25   46.25
   8   6  -4  699.46   66.26
  -8   6   4  625.72  147.60
  -8  -6   4  649.17  125.88
   8  -6  -4  684.34  175.58
   8   6  -3  111.73   40.57
  -8   6   3  157.59   57.02
  -8  -6   3   32.80   24.39
   8  -6  -3   78.81   41.05
  -8  -6   3   58.65   47.69
   8   6  -2  298.97   57.52
  -8   6   2  278.89   55.88
  -8  -6   2  265.28   56.89
   8  -6  -2  330.51   53.45
  -8  -6   2  344.07   57.42
  -8   6   1  454.27   64.39
   8   6  -1  288.85   80.51
   8  -6  -1  329.82   79.97
  -8  -6   1  386.36   81.80
  -8   6   0    5.64   34.02
   8   6   0    4.51   29.63
   8  -6   0   -2.09   16.81
  -8  -6   0   33.22   36.15
  -8   6  -1  256.08   70.61
   8   6   1  229.53   65.05
   8  -6   1  217.59   62.13
  -8  -6  -1  292.92   84.74
  -8   6  -2  113.97   51.72
   8   6   2  110.80   35.21
   8  -6   2  132.24   44.62
  -8  -6  -2   79.61   42.00
  -9   0  16  190.47   59.05
   9   0 -16  127.87   39.91
  -9   0  15  292.82   93.67
   9   0 -15  477.28   70.20
  -9   0  14   -8.34   52.58
   9   0 -14   13.21   21.78
  -9   0  13  449.09  116.50
   9   0 -13  493.00   74.28
  -9   0  12   29.99   34.94
   9   0 -12  -30.73   36.75
  -9   0  11  695.41  188.01
   9   0 -11  707.60   64.29
  -9   0  10  850.02  187.13
   9   0 -10  772.81  163.86
  -9   0   9  271.00   68.42
   9   0  -9  251.23   47.03
  -9   0   8 3146.50  187.92
   9   0  -8 2974.60  173.88
   9   0  -8 2765.50  143.68
  -9   0   7  635.96  152.19
   9   0  -7  694.54   60.56
   9   0  -7  621.77   53.67
  -9   0   6 1516.02  103.21
   9   0  -6 1524.93   87.75
   9   0  -6 1605.36  108.47
  -9   0   5 1214.72   91.48
   9   0  -5 1118.99   69.33
  -9   0   5 1198.50   64.27
  -9   0   4   52.98   13.79
   9   0  -4   72.75   18.57
  -9   0   4   47.47   24.13
  -9   0   3 6520.83  241.01
   9   0  -3 6187.90  235.32
  -9   0   3 6792.69  256.48
  -9   0   2  420.37   40.53
   9   0  -2  360.08   52.49
  -9   0   2  444.43   52.29
  -9   0   1 2656.40  123.47
   9   0  -1 2513.64  117.23
  -9   0   1 2616.34  125.69
  -9   0   0 3516.72  193.21
   9   0   0 3399.40  179.56
  -9   0   0 3783.03  202.95
  -9   0  -1   18.12   10.83
   9   0   1    7.85   16.64
  -9   0  -1    7.24   37.03
   9   0   2 1841.42  292.61
  -9   0  -2 2050.68  115.59
   9   0   3  469.02   79.93
  -9   0  -3  418.84   56.41
   9   0   4  590.21  128.87
  -9   0  -4  686.73   72.99
   9   0   5  539.58  118.40
  -9   0  -5  597.69   82.95
   9   0   6  121.99   28.44
  -9   0  -6   76.71   47.92
   9   0   7  179.78   37.63
  -9   0  -7  168.32   66.49
   9   0   8   80.09   34.64
  -9   0  -8  -41.76   37.58
  -9   1  16  170.05   65.86
  -9  -1  16  216.01   52.20
   9  -1 -16  136.04   52.82
   9   1 -15   49.95   39.67
  -9   1  15   31.65   35.09
  -9  -1  15   52.18   38.42
   9  -1 -15   38.57   27.76
  -9   1  14  286.62   77.98
   9   1 -14  268.98   64.91
  -9  -1  14  348.64   82.80
   9  -1 -14  328.70   87.39
   9   1 -13   84.76   36.90
  -9   1  13   31.93   43.53
  -9  -1  13   96.46   59.40
   9  -1 -13   72.32   38.23
   9   1 -12  402.26  101.17
  -9   1  12  411.42   93.43
  -9  -1  12  467.57  101.88
   9  -1 -12  352.82   46.31
   9   1 -11 1234.49   91.15
  -9   1  11 1054.00  202.59
  -9  -1  11 1522.97  225.28
   9  -1 -11 1441.45  222.77
   9   1 -10  315.36   54.04
  -9   1  10  295.60   78.85
  -9  -1  10  216.32   60.12
   9  -1 -10  202.38   48.91
   9  -1 -10  189.30   32.03
   9   1  -9 1449.28   97.76
  -9   1   9 1491.79  289.49
  -9  -1   9 1652.57  348.94
   9  -1  -9 1495.89  108.49
   9  -1  -9 1337.56   93.94
   9   1  -8  237.59   45.87
  -9   1   8  299.73   63.14
  -9  -1   8  356.70   99.12
   9  -1  -8  313.14   77.73
   9  -1  -8  320.95   65.31
   9   1  -7 1491.70  103.05
  -9   1   7 1382.87   98.82
  -9  -1   7 1488.14  154.80
   9  -1  -7 1545.94   98.24
   9  -1  -7 1489.38   97.88
   9   1  -6  393.09   80.85
  -9  -1   6  713.42  124.56
   9  -1  -6  630.86   57.89
   9  -1  -6  651.87  116.94
  -9  -1   6  710.74   43.40
   9   1  -5 1377.31  146.17
  -9   1   5 1573.11  154.86
  -9  -1   5 1322.35  122.33
   9  -1  -5 1447.96   85.56
   9  -1  -5 1448.81  179.09
  -9  -1   5 1466.70   70.75
   9   1  -4 3232.03  152.49
  -9   1   4 3407.59  251.59
  -9   1   4 3313.34  143.13
  -9  -1   4 3001.95  168.24
  -9  -1   4 3277.47  135.55
   9  -1  -4 3130.64  135.29
   9   1  -3  753.88   58.67
  -9   1   3  824.21   61.89
  -9   1   3  851.03   68.94
  -9  -1   3  789.63   61.40
  -9  -1   3  758.47  103.71
   9  -1  -3  734.01   59.61
   9   1  -2 3377.05  146.37
  -9   1   2 3562.09  221.84
  -9   1   2 3738.19  160.96
  -9  -1   2 3961.60  161.52
  -9  -1   2 3888.09  165.42
   9  -1  -2 3911.36  160.58
   9   1  -1 2031.21  127.06
  -9   1   1 2081.82  193.71
  -9   1   1 2185.75  127.84
  -9  -1   1 2322.84  120.05
  -9  -1   1 2140.81  129.62
   9  -1  -1 1997.80  116.97
   9   1   0  245.92   43.20
  -9   1   0  190.22   40.09
  -9   1   0  178.29   42.40
  -9  -1   0  168.18   43.10
  -9  -1   0  202.79   40.64
   9  -1   0  210.59   59.89
  -9   1  -1 1257.67  149.88
   9   1   1 1243.78  249.73
  -9   1  -1 1247.14   85.42
  -9  -1  -1 1518.35  106.31
   9  -1   1 1521.81  244.09
  -9   1  -2   39.97   10.82
   9   1   2   49.05   20.87
  -9   1  -2   82.31   42.64
   9  -1   2   29.01   12.23
  -9  -1  -2   39.77   36.28
   9   1   3  411.25   79.32
  -9   1  -3  399.67   75.38
  -9  -1  -3  539.22   65.81
   9  -1   3  472.85  100.00
   9   1   4  650.33  117.74
  -9   1  -4  679.97   71.91
  -9  -1  -4  901.79   86.20
   9  -1   4  760.00  147.24
   9   1   5  220.83   57.08
  -9   1  -5  178.70   58.15
   9  -1   5  200.34   49.21
  -9  -1  -5  236.25   60.20
   9   1   6  331.48   81.16
  -9   1  -6  298.20   66.00
   9  -1   6  314.90   79.81
  -9  -1  -6  350.15   80.12
   9   1   7   49.79   29.92
  -9   1  -7  -23.35   37.57
  -9  -1  -7  -14.91   42.97
   9  -1   7   26.06   27.75
   9   1   8   28.20   16.24
  -9   1  -8  105.07   61.45
  -9  -1  -8   73.10   58.45
   9  -1   8   51.89   17.98
   9   2 -15  208.04   72.48
  -9   2  15  154.38   65.47
  -9  -2  15  159.86   67.70
   9  -2 -15  101.32   31.62
   9   2 -14  -48.84   42.04
  -9   2  14   -7.56   36.52
  -9  -2  14   23.91   42.17
   9  -2 -14   20.40   13.11
   9   2 -13  594.19  163.86
  -9   2  13  736.09   87.62
  -9  -2  13  613.74  114.22
   9  -2 -13  471.72  116.44
   9   2 -12  350.76   80.66
  -9   2  12  282.41   51.58
  -9  -2  12  429.28  125.48
   9  -2 -12  428.24   55.14
   9   2 -11  629.66  121.53
  -9   2  11  612.39  159.34
  -9  -2  11  453.09  121.28
   9  -2 -11  511.54   46.62
   9  -2 -11  461.55  126.24
   9   2 -10  652.04  153.73
  -9   2  10  599.92  113.73
  -9  -2  10  558.62  125.34
   9  -2 -10  616.69   79.95
   9  -2 -10  596.32  107.53
   9   2  -9  413.43   77.22
  -9   2   9  386.61  101.52
  -9  -2   9  418.03   65.15
   9  -2  -9  339.43   79.32
   9  -2  -9  368.15   53.30
   9   2  -8 2074.91  114.29
  -9   2   8 1927.32  104.80
  -9  -2   8 1933.16  176.31
   9  -2  -8 1896.94  123.96
   9  -2  -8 1944.55  155.01
   9   2  -7  214.80   44.82
  -9   2   7  165.24   38.25
  -9  -2   7   81.09   32.31
   9  -2  -7  112.77   24.69
   9  -2  -7  148.81   28.53
   9   2  -6 3303.55  197.57
  -9   2   6 3366.77  182.45
  -9  -2   6 2936.63  191.25
   9  -2  -6 3164.05  163.10
   9  -2  -6 3234.56  194.47
  -9  -2   6 3288.71  156.67
   9   2  -5 2041.72  232.14
  -9   2   5 2013.20  137.21
  -9  -2   5 1604.53  223.20
   9  -2  -5 1473.11   85.90
   9  -2  -5 1558.79   95.33
  -9  -2   5 1613.84   90.11
   9   2  -4  756.12  171.18
  -9   2   4  742.80  145.83
  -9  -2   4  712.28  133.90
   9  -2  -4  673.08   50.14
   9  -2  -4  744.58   78.23
  -9  -2   4  661.63   50.13
   9   2  -3 6888.31  334.65
  -9   2   3 6584.47  323.17
  -9  -2   3 6021.50  306.46
   9  -2  -3 6120.50  293.02
   9  -2  -3 5968.27  333.94
  -9  -2   3 6313.09  298.85
  -9   2   2  826.94  163.88
   9   2  -2  874.91   82.57
  -9   2   2  864.28   71.76
  -9  -2   2  596.65  121.26
   9  -2  -2  601.69   83.38
  -9  -2   2  607.01   60.31
  -9   2   1  536.19  114.92
   9   2  -1  610.99  126.10
  -9   2   1  536.55   51.72
  -9  -2   1  634.85   70.35
   9  -2  -1  609.77   74.09
  -9  -2   1  639.51   66.93
  -9   2   0 1222.11  103.07
   9   2   0 1305.37  214.41
  -9   2   0 1370.26   97.13
   9  -2   0 1166.84  131.16
  -9  -2   0 1112.22   83.70
  -9   2  -1  194.53   48.48
   9   2   1  184.51   42.68
  -9   2  -1  197.75   47.84
  -9  -2  -1  173.14   34.39
   9  -2   1  207.67   44.98
  -9   2  -2  888.42  184.61
   9   2   2  924.18  221.99
  -9   2  -2 1007.72   75.47
   9  -2   2  828.69  123.04
  -9  -2  -2  901.54   84.68
  -9   2  -3   24.59   16.59
   9   2   3   21.66   21.47
  -9   2  -3   18.76   15.34
   9  -2   3   -1.83   21.38
  -9  -2  -3    6.79   39.16
   9   2   4  256.29   62.76
  -9   2  -4  267.72   87.64
  -9  -2  -4  161.19   58.03
   9  -2   4  200.65   35.28
   9   2   5  342.13   64.64
  -9   2  -5  344.96   69.10
   9  -2   5  270.85   51.22
  -9  -2  -5  277.76   65.63
   9   2   6  -24.02   37.16
  -9   2  -6   30.50   40.44
   9  -2   6  -10.64   25.92
  -9  -2  -6   36.20   43.75
   9   2   7  201.19   46.16
  -9   2  -7  197.85   52.04
   9  -2   7  156.31   36.45
  -9  -2  -7  207.16   72.95
   9   3 -14  246.82   50.25
  -9   3  14  162.40   52.93
  -9  -3  14  151.20   47.86
   9   3 -13   58.34   46.38
  -9   3  13   50.77   48.18
  -9  -3  13   22.83   47.04
   9  -3 -13    8.71   17.55
   9   3 -12  666.08  143.42
  -9   3  12  648.78   73.22
  -9  -3  12  720.12  155.35
   9  -3 -12  675.49   54.66
   9  -3 -12  576.28  155.56
   9   3 -11  480.30  131.34
  -9   3  11  502.77   72.33
  -9  -3  11  532.85  101.43
   9  -3 -11  412.10   44.93
   9  -3 -11  390.72   95.54
   9   3 -10  355.37   60.30
  -9   3  10  352.14   63.69
  -9  -3  10  391.93   85.09
   9  -3 -10  321.97   60.03
   9  -3 -10  327.61   73.72
   9   3  -9 1112.46  215.98
  -9   3   9 1060.42   78.01
  -9  -3   9 1064.50  169.51
   9  -3  -9  941.26   55.26
   9  -3  -9  980.04  147.92
   9   3  -8  114.02   26.31
  -9   3   8   61.77   27.94
  -9  -3   8   95.21   32.93
   9  -3  -8   65.38   20.51
   9  -3  -8   81.30   17.57
   9   3  -7 1267.00  245.98
  -9   3   7 1110.32  245.42
  -9  -3   7 1071.58   83.86
   9  -3  -7  875.32  142.52
   9  -3  -7 1248.09   80.28
   9   3  -6 2334.43  117.51
  -9   3   6 2020.19  130.29
  -9  -3   6 1738.06  146.48
   9  -3  -6 1966.88  128.68
   9   3  -5  937.41   87.59
  -9   3   5 1067.62  200.85
  -9  -3   5 1176.93  182.40
   9  -3  -5 1180.62  169.44
  -9  -3   5 1024.49   54.26
   9   3  -4 2732.25  149.48
  -9   3   4 2886.39  281.64
  -9  -3   4 3268.87  366.99
   9  -3  -4 3222.62  309.49
  -9  -3   4 3077.02  112.75
   9   3  -3  184.52   46.86
  -9   3   3  216.00   40.48
  -9  -3   3  186.58   37.69
   9  -3  -3  211.54   53.17
  -9  -3   3  205.49   40.44
   9   3  -2 1542.41  134.77
  -9   3   2 1646.68  133.32
  -9  -3   2 1302.14  255.59
   9  -3  -2 1479.15   92.00
  -9  -3   2 1444.88   82.35
   9   3  -1 1385.10   79.64
  -9   3   1 1392.98   90.65
  -9  -3   1 1050.31  125.32
   9  -3  -1 1116.35  132.91
   9  -3  -1 1254.96   89.54
  -9  -3   1 1320.48   78.39
  -9   3   0   90.48   24.34
   9   3   0   77.30   51.20
   9  -3   0  102.49   24.83
  -9  -3   0   97.89   30.90
  -9   3  -1 1206.70   95.38
   9   3   1 1221.45  204.43
  -9   3  -1 1201.37   90.24
   9  -3   1 1197.70  134.82
  -9  -3  -1 1215.63   76.93
  -9   3  -2   92.82   26.33
   9   3   2  116.25   31.28
  -9   3  -2   98.77   36.16
  -9  -3  -2   45.84   39.99
   9  -3   2   81.61   22.74
  -9   3  -3  499.27  140.66
   9   3   3  540.54   85.20
  -9   3  -3  544.45   69.93
   9  -3   3  467.88  103.73
  -9  -3  -3  615.22   80.72
   9   3   4  274.97   80.65
  -9   3  -4  296.73   67.97
   9  -3   4  248.43   60.10
  -9  -3  -4  276.31   69.44
   9   3   5   52.52   22.79
  -9   3  -5   96.65   57.69
   9  -3   5   48.31   16.94
  -9  -3  -5   70.32   43.55
   9   3   6   77.29   29.14
  -9   3  -6  145.41   54.12
  -9  -3  -6  157.42   60.36
   9   4 -13  277.95   78.10
  -9   4  13  300.70   66.19
  -9  -4  13  251.43   68.01
   9   4 -12  122.36   37.14
  -9   4  12  157.25   47.52
  -9  -4  12  141.66   54.29
   9  -4 -12  132.04   35.23
   9   4 -11  493.00  133.26
  -9   4  11  445.37  121.07
  -9  -4  11  565.40  111.41
   9  -4 -11  469.00  152.57
   9   4 -10 1028.32  199.65
  -9   4  10 1188.36  216.47
  -9  -4  10  984.94  167.28
   9  -4 -10  910.81  162.62
   9   4  -9  128.68   33.47
  -9   4   9   80.80   42.17
  -9  -4   9  127.36   40.44
   9  -4  -9   95.42   28.17
   9   4  -8 1459.11  112.82
  -9   4   8 1199.81   87.35
  -9  -4   8 1206.19  225.55
   9  -4  -8 1193.66  107.71
   9   4  -7  279.23   54.43
  -9   4   7  256.69   72.41
  -9  -4   7  379.64   74.50
   9  -4  -7  416.41   86.06
   9   4  -6  420.01   69.64
  -9   4   6  399.66   80.22
  -9  -4   6  352.27   67.15
   9  -4  -6  399.91   69.48
   9   4  -5 1630.33  276.22
  -9   4   5 1445.20  267.54
  -9  -4   5 1377.50  217.80
   9  -4  -5 1495.91   96.34
  -9  -4   5 1491.68   66.19
   9   4  -4  278.41   55.49
  -9   4   4  170.80   49.87
  -9  -4   4  197.28   38.79
   9  -4  -4  208.64   43.89
  -9  -4   4  197.08   37.69
   9   4  -3 1943.80   99.56
  -9   4   3 1895.00  290.27
  -9  -4   3 1601.51  267.12
   9  -4  -3 1777.20  163.62
  -9  -4   3 1822.48   76.73
   9   4  -2  427.46   88.59
  -9   4   2  396.85   53.66
  -9  -4   2  418.60   85.78
   9  -4  -2  426.87   99.41
  -9  -4   2  426.12   53.78
   9   4  -1  523.66   65.42
  -9   4   1  557.65   58.34
  -9  -4   1  365.10   76.10
   9  -4  -1  501.50  100.98
  -9  -4   1  482.12   59.81
  -9   4   0 1152.27   82.37
   9   4   0 1036.93  176.35
   9  -4   0 1052.31  205.19
  -9  -4   0 1329.78   94.72
  -9   4  -1  -38.05   24.72
   9   4   1   18.98   30.97
   9  -4   1    3.61   20.50
  -9  -4  -1   43.91   40.13
  -9   4  -2  694.14  156.31
   9   4   2  851.36  172.49
   9  -4   2  828.60  200.67
  -9  -4  -2  907.66   80.56
  -9   4  -3  176.75   37.54
   9   4   3  138.81   36.10
   9  -4   3  164.12   55.12
  -9  -4  -3  147.15   51.47
  -9   4  -4   76.13   31.65
   9   4   4  171.43   41.32
   9  -4   4   96.95   38.32
  -9  -4  -4  215.57   67.07
   9   4   5  203.29   81.73
  -9  -4  -5  262.25   64.89
   9   5 -11   89.64   34.35
  -9   5  11   44.14   27.77
  -9  -5  11   68.66   26.74
   9  -5 -11   76.81   38.34
   9   5 -10  195.05   50.23
  -9   5  10  224.26   57.65
  -9  -5  10  272.41   51.18
   9  -5 -10  212.20   63.66
   9   5  -9  732.96   76.79
  -9   5   9  671.48   80.65
  -9  -5   9  803.97  165.25
   9  -5  -9  611.29  104.23
   9   5  -8   30.70   18.79
  -9   5   8   18.09   10.48
  -9  -5   8   22.65   25.49
   9  -5  -8   53.69   24.18
   9   5  -7  492.69   74.23
  -9   5   7  423.82   90.11
  -9  -5   7  472.81   97.54
   9  -5  -7  445.07  118.30
   9   5  -6  311.53   58.40
  -9   5   6  302.91   61.81
  -9  -5   6  307.86   60.49
   9  -5  -6  381.51   73.55
   9   5  -5  453.28   88.56
  -9   5   5  357.22   79.18
  -9  -5   5  392.63   45.91
   9  -5  -5  315.03   68.76
   9   5  -4 1007.72   88.67
  -9   5   4  935.79  200.56
  -9  -5   4  755.75  133.14
   9  -5  -4  808.54  135.49
  -9  -5   4  834.90   59.84
   9   5  -3   35.26   38.05
  -9   5   3   12.76   28.71
  -9  -5   3    6.71   18.23
   9  -5  -3   29.43   35.96
  -9  -5   3    7.27   26.10
   9   5  -2  594.99  129.55
  -9   5   2  594.02  128.89
  -9  -5   2  461.62  105.86
   9  -5  -2  442.42  140.93
  -9  -5   2  577.50   59.63
  -9   5   1  339.82   69.58
   9   5  -1  370.31   78.85
   9  -5  -1  338.72   79.76
  -9  -5   1  277.11   51.35
  -9   5   0  358.49   67.02
   9   5   0  274.59   59.13
   9  -5   0  362.07   64.23
  -9  -5   0  300.55   56.74
  -9   5  -1  501.08   57.10
   9   5   1  504.82   61.48
   9  -5   1  473.35  151.36
  -9  -5  -1  567.74   70.19
  -9   5  -2   60.16   15.55
   9   5   2   54.40   50.40
   9  -5   2   94.18   40.95
  -9  -5  -2   33.59   39.31
  -9   5  -3  127.58   54.84
   9   5   3  167.31   52.82
   9  -5   3  194.97   49.06
  -9  -5  -3  271.78   64.35
   9   6  -8  315.52   87.82
  -9   6   8  289.37   92.21
  -9  -6   8  346.80   67.86
   9  -6  -8  323.35   71.72
   9   6  -7   41.60   43.48
  -9   6   7   22.65   28.15
  -9  -6   7   76.94   31.31
   9   6  -6   82.06   49.40
  -9   6   6   90.07   30.45
  -9  -6   6  204.42   48.53
   9  -6  -6  193.03   46.57
   9   6  -5  279.56   55.06
  -9   6   5  357.33   67.02
  -9  -6   5  362.67   84.92
   9  -6  -5  350.76  100.26
   9   6  -4   -0.86   35.21
  -9   6   4    1.12   17.15
  -9  -6   4   31.50   17.80
   9  -6  -4   20.91   13.61
   9   6  -3  405.36   60.93
  -9   6   3  563.46   72.23
  -9  -6   3  468.38  114.96
   9  -6  -3  481.95  108.97
  -9   6   2  238.28   55.31
   9   6  -2  199.56   40.78
   9  -6  -2  239.90   62.93
  -9  -6   2  177.46   51.91
  -9   6   1  125.51   48.97
   9   6  -1  128.88   32.24
   9  -6  -1   82.88   40.34
  -9  -6   1   95.03   35.59
  -9   6   0  160.45   50.75
   9   6   0  122.43   36.28
   9  -6   0  112.03   36.94
  -9  -6   0  181.15   59.46
 -10   0  15  264.16   83.58
  10   0 -15  143.60   53.22
 -10   0  14  773.71  155.29
  10   0 -14  681.88   82.06
 -10   0  13   22.68   31.46
  10   0 -13   28.97   45.91
 -10   0  12 3127.84  532.10
  10   0 -12 2893.34  189.93
 -10   0  11 1974.01  137.46
  10   0 -11 1938.29  129.31
 -10   0  10  525.81  118.84
  10   0 -10  503.28   99.97
 -10   0   9 2207.39  129.94
  10   0  -9 2148.41  307.94
 -10   0   8   93.49   47.16
  10   0  -8  103.89   36.76
  10   0  -8   74.41   14.76
 -10   0   7 4867.06  187.31
  10   0  -7 4786.20  229.09
  10   0  -7 4429.50  205.30
 -10   0   6  838.03  202.10
  10   0  -6  787.36   65.21
 -10   0   5  934.98  194.10
  10   0  -5 1053.51  172.91
 -10   0   5 1057.80   72.00
 -10   0   4 2915.63  164.73
  10   0  -4 2611.40  147.78
 -10   0   4 2811.10  155.39
 -10   0   3   97.76   21.07
  10   0  -3   37.41   29.88
 -10   0   3   44.61   44.30
 -10   0   2 3130.94  151.65
  10   0  -2 3029.65  151.38
 -10   0   2 3170.67  162.30
 -10   0   1  992.43   62.53
  10   0  -1  952.65  169.19
 -10   0   1  944.90   77.27
 -10   0   0  261.46   85.92
  10   0   0  337.60   58.80
 -10   0   0  361.47   57.74
  10   0   1 1081.10  224.88
 -10   0  -1 1112.84   79.63
  10   0   2   -8.29   20.34
 -10   0  -2  -17.95   37.58
  10   0   3  764.60  155.89
 -10   0  -3  952.57   84.38
  10   0   4  462.24   96.50
 -10   0  -4  528.90   83.25
  10   0   5   20.07   26.16
 -10   0  -5   -6.39   43.07
  10   0   6  144.49   40.44
 -10   0  -6  191.94   67.17
  10   0   7   20.87   17.64
 -10   0  -7   50.63   45.47
 -10   1  15  252.14   77.14
  10   1 -15  237.61   74.46
 -10  -1  15  260.47   61.53
  10  -1 -15  225.33   65.53
  10   1 -14  107.86   33.11
 -10   1  14   60.94   47.34
 -10  -1  14  105.28   34.35
  10  -1 -14   74.36   32.54
  10   1 -13  469.02   94.20
 -10   1  13  401.98  139.79
 -10  -1  13  338.75  117.80
  10  -1 -13  406.20   52.75
  10   1 -12  670.80  168.11
 -10   1  12  571.48  166.98
 -10  -1  12  764.88  157.23
  10  -1 -12  654.17  132.96
  10   1 -11  509.75   94.47
 -10   1  11  466.42  133.71
 -10  -1  11  528.77   75.60
  10  -1 -11  500.60   91.12
  10   1 -10 1104.14  253.00
 -10   1  10 1147.97  211.68
 -10  -1  10 1154.45  288.43
  10  -1 -10 1122.77  136.53
  10   1  -9   43.25   25.76
 -10   1   9   19.58   48.12
 -10  -1   9   -9.85   49.15
  10  -1  -9   -0.74   17.01
  10  -1  -9   20.55   10.35
  10   1  -8 1579.39   92.62
 -10   1   8 1528.74  101.86
 -10  -1   8 2029.36  378.05
  10  -1  -8 2085.69  106.96
  10  -1  -8 1872.46  107.21
 -10   1   7  223.07   47.50
  10   1  -7  220.95   49.64
 -10  -1   7  378.91   91.12
  10  -1  -7  336.37   80.29
  10  -1  -7  292.89   50.78
  10   1  -6  862.64   71.34
 -10   1   6  806.42   74.82
 -10  -1   6  821.63  146.02
  10  -1  -6  840.64  173.59
  10  -1  -6  808.55   63.11
 -10  -1   6  864.85   53.27
  10   1  -5 1179.92   81.20
 -10   1   5 1360.37   86.18
 -10  -1   5 1361.53  107.71
  10  -1  -5 1355.45   84.22
  10  -1  -5 1426.86   88.88
 -10  -1   5 1447.12   82.80
 -10   1   4   79.47   35.93
  10   1  -4   92.84   53.84
 -10   1   4   70.08   33.45
 -10  -1   4   14.04   11.57
  10  -1  -4   37.22   24.87
 -10  -1   4   24.65   23.31
 -10   1   3  941.82   71.22
  10   1  -3  919.14   73.60
 -10   1   3  894.51   68.58
 -10  -1   3 1144.78   93.37
  10  -1  -3 1151.20   77.02
 -10  -1   3 1199.79   79.30
 -10   1   2  426.12   42.10
  10   1  -2  381.61   48.66
 -10   1   2  382.07   49.01
 -10  -1   2  340.16   64.28
  10  -1  -2  345.57   44.07
 -10  -1   2  412.30   58.20
  10   1  -1  440.32   94.05
 -10   1   1  444.88   86.87
 -10   1   1  478.42  124.90
 -10  -1   1  520.26   67.82
 -10  -1   1  571.96   61.48
  10  -1  -1  631.77  156.53
 -10   1   0  864.23   50.85
  10   1   0  837.42  144.73
 -10   1   0  925.75   72.83
  10  -1   0  883.44  151.05
 -10  -1   0  874.80   70.88
 -10   1  -1  148.12   35.06
  10   1   1  193.80   45.81
 -10   1  -1  219.52   49.81
 -10  -1  -1  262.64   58.68
  10  -1   1  226.54   35.08
  10   1   2  248.97   56.95
 -10   1  -2  348.97   55.11
 -10  -1  -2  334.06   57.89
  10  -1   2  301.82   65.36
  10   1   3  213.74   50.32
 -10   1  -3  264.30   55.33
  10  -1   3  244.05   42.22
 -10  -1  -3  272.53   63.62
  10   1   4   28.14   22.49
 -10   1  -4   84.13   44.64
 -10  -1  -4   46.49   44.26
  10  -1   4   62.92   17.66
  10   1   5  139.48   39.89
 -10   1  -5  152.03   63.86
 -10  -1  -5  104.69   61.15
  10  -1   5  124.11   37.38
  10   1   6   -4.09   35.74
 -10   1  -6   33.05   43.76
 -10  -1  -6   56.89   62.77
  10  -1   6   35.85   14.91
 -10   1  -7   98.17   53.18
 -10  -1  -7   51.50   57.39
  10  -1   7    6.15   36.82
  10   2 -15  220.67   64.59
 -10   2  15  130.92   48.75
 -10  -2  15  183.10   58.58
  10  -2 -15  119.89   37.19
  10   2 -14  452.61  124.93
 -10   2  14  442.03  128.10
 -10  -2  14  499.76  133.17
  10  -2 -14  372.16   56.79
  10   2 -13   35.08   23.05
 -10   2  13   65.01   34.38
 -10  -2  13   41.29   40.07
  10  -2 -13    2.48   28.62
  10   2 -12  605.82  112.72
 -10   2  12  520.22  132.09
 -10  -2  12  451.44  110.33
  10  -2 -12  409.30  106.46
  10   2 -11  422.76   69.95
 -10   2  11  313.15   75.87
 -10  -2  11  355.55   66.76
  10  -2 -11  310.96   40.05
  10  -2 -11  293.22   51.05
  10   2 -10  200.17   33.75
 -10   2  10  196.33   54.07
 -10  -2  10  199.62   41.12
  10  -2 -10  165.02   34.41
  10  -2 -10  160.66   33.13
  10   2  -9 1002.27  162.24
 -10   2   9  960.05  200.30
 -10  -2   9 1233.17  283.53
  10  -2  -9 1141.21  224.09
  10  -2  -9 1186.75   70.22
  10   2  -8  139.31   40.81
 -10   2   8  181.56   50.23
 -10  -2   8  220.89   60.97
  10  -2  -8  186.86   42.61
  10  -2  -8  186.94   39.71
  10   2  -7 1263.97  144.93
 -10   2   7 1232.76  245.15
 -10  -2   7 1295.11  200.93
  10  -2  -7 1219.83  128.51
  10  -2  -7 1222.42  209.86
  10   2  -6  174.79   35.86
 -10   2   6  176.86   40.07
 -10  -2   6  233.31   55.96
  10  -2  -6  248.35   50.85
  10  -2  -6  255.35   55.71
 -10  -2   6  196.68   24.89
  10   2  -5  451.41   52.80
 -10   2   5  521.03   91.18
 -10  -2   5  304.03   63.21
  10  -2  -5  301.57   54.16
  10  -2  -5  353.03  107.08
 -10  -2   5  267.87   31.09
  10   2  -4 3475.76  143.52
 -10   2   4 3470.66  142.57
 -10  -2   4 3495.77  186.89
  10  -2  -4 3731.40  134.51
  10  -2  -4 3680.29  149.24
 -10  -2   4 3692.13  135.03
  10   2  -3  674.82  114.69
 -10   2   3  613.93   61.35
 -10  -2   3  660.24  142.44
  10  -2  -3  586.89  110.53
 -10  -2   3  656.64   56.03
 -10   2   2  592.89   50.21
  10   2  -2  584.56   74.18
 -10   2   2  659.03   72.72
 -10  -2   2  590.90   86.02
  10  -2  -2  589.48   65.60
 -10  -2   2  647.66   59.69
 -10   2   1  289.75   55.30
  10   2  -1  252.06   48.56
 -10   2   1  263.11   47.51
 -10  -2   1  194.39   49.90
  10  -2  -1  263.89   49.02
 -10  -2   1  287.75   48.72
 -10   2   0  197.42   55.28
  10   2   0  165.59   39.64
 -10   2   0  232.17   65.11
 -10  -2   0  163.28   39.75
  10  -2   0  169.52   32.59
 -10   2  -1  846.41  153.72
  10   2   1  953.77  211.99
 -10   2  -1 1100.80   92.87
 -10  -2  -1  952.44   86.21
  10  -2   1  765.64  185.72
 -10   2  -2   63.99   20.31
  10   2   2   28.97   16.13
 -10   2  -2    8.96   36.90
 -10  -2  -2   80.66   35.92
  10  -2   2   79.32   16.81
  10   2   3  372.95  110.24
 -10   2  -3  392.32   72.04
  10  -2   3  295.23   57.52
 -10  -2  -3  292.37   57.21
  10   2   4  153.88   32.87
 -10   2  -4  117.50   60.84
  10  -2   4   27.32   16.64
 -10  -2  -4   60.70   58.14
  10   2   5   38.09   22.03
 -10   2  -5   26.06   45.42
 -10  -2  -5  135.27   66.60
  10  -2   5   45.27   19.99
  10   2   6   57.73   22.23
 -10   2  -6   94.08   44.06
 -10  -2  -6  145.33   51.74
  10  -2   6   52.32   25.59
  10   3 -14  132.30   34.72
 -10   3  14  111.41   55.76
 -10  -3  14   69.68   38.08
  10   3 -13  644.06  135.15
 -10   3  13  718.71   87.50
 -10  -3  13  649.69  138.87
  10   3 -12  102.34   24.19
 -10   3  12   86.49   48.02
 -10  -3  12   70.25   31.22
  10  -3 -12   53.08   18.91
  10   3 -11  539.83  129.84
 -10   3  11  495.91   80.55
 -10  -3  11  532.17  120.92
  10  -3 -11  402.41   87.01
  10   3 -10  940.37  226.91
 -10   3  10  870.06  160.53
 -10  -3  10  844.21  136.10
  10  -3 -10  721.36   70.91
  10   3  -9   23.57   21.08
 -10   3   9   40.97   20.53
 -10  -3   9   61.84   40.06
  10  -3  -9   72.35   26.70
  10  -3  -9   99.68   24.71
  10   3  -8  814.47  211.40
 -10   3   8  846.72   73.08
 -10  -3   8  950.17  126.55
  10  -3  -8  816.49  151.20
  10   3  -7  542.64  118.15
 -10   3   7  552.72  102.72
 -10  -3   7  550.02  123.49
  10  -3  -7  562.27  104.28
  10   3  -6 1112.39   77.44
 -10   3   6 1054.60  178.33
 -10  -3   6 1169.90  199.83
  10  -3  -6 1167.15   73.83
  10   3  -5 1713.59  143.75
 -10   3   5 1624.76   86.33
 -10  -3   5 1927.12  149.03
  10  -3  -5 1725.06  101.97
 -10  -3   5 1876.93   70.73
  10   3  -4  682.97  131.54
 -10   3   4  571.58  127.51
 -10  -3   4  527.96  104.25
  10  -3  -4  609.19  109.29
 -10  -3   4  517.86   42.61
  10   3  -3 1623.68   92.99
 -10   3   3 1591.37  226.36
 -10  -3   3 1333.83  267.70
  10  -3  -3 1434.83  126.22
 -10  -3   3 1452.99   70.25
  10   3  -2   50.16   38.09
 -10   3   2   52.49   24.49
 -10  -3   2   48.58   21.70
  10  -3  -2   90.13   18.50
 -10  -3   2   75.98   32.35
 -10   3   1  792.68  125.29
  10   3  -1  867.11   78.35
  10  -3  -1  729.58  206.48
 -10  -3   1  781.48   66.63
 -10   3   0  402.74  106.16
  10   3   0  424.90   76.29
 -10  -3   0  463.25   61.34
 -10   3  -1  177.78   35.83
  10   3   1  180.88   36.20
 -10   3  -1  196.28   55.92
  10  -3   1  119.90   28.85
 -10  -3  -1  163.75   37.86
 -10   3  -2 1038.28   75.67
  10   3   2  936.51  181.78
 -10   3  -2 1171.09  103.38
 -10  -3  -2  974.98   81.24
  10   3   3   36.31   17.78
 -10   3  -3   61.86   62.17
 -10  -3  -3   58.16   51.45
  10   3   4  238.82   67.39
 -10   3  -4  205.83   69.10
 -10  -3  -4  197.92   60.41
  10   3   5   34.85   26.20
 -10   3  -5  -21.82   36.00
 -10  -3  -5   46.64   41.07
  10   4 -13   38.18   42.62
 -10   4  13    5.64   17.89
 -10  -4  13   40.76   36.73
  10   4 -12  475.81  122.86
 -10   4  12  358.02   84.36
 -10  -4  12  447.22  116.12
  10  -4 -12  418.14  105.17
  10   4 -11  347.82   64.72
 -10   4  11  234.34   69.26
 -10  -4  11  319.40   58.23
  10  -4 -11  242.42   55.18
  10   4 -10  114.74   34.95
 -10   4  10   63.56   40.94
 -10  -4  10  -25.60   46.62
  10  -4 -10   55.47   23.93
  10   4  -9  664.86  145.26
 -10   4   9  664.01  154.11
 -10  -4   9  717.16  106.55
  10  -4  -9  627.06  114.64
  10   4  -8   15.73   33.84
 -10   4   8   -6.63   36.07
 -10  -4   8   64.99   32.01
  10  -4  -8   31.91   18.31
  10   4  -7  789.56  200.38
 -10   4   7  784.66  137.20
 -10  -4   7  788.37  145.37
  10  -4  -7  891.81  142.98
  10   4  -6  583.19  142.88
 -10   4   6  536.00  134.72
 -10  -4   6  567.41   93.54
  10  -4  -6  665.94  145.98
  10   4  -5   55.11   34.47
 -10   4   5   57.11   26.20
 -10  -4   5   15.31   24.10
  10  -4  -5   81.58   25.01
  10   4  -4  387.06   77.15
 -10   4   4  367.66   83.77
 -10  -4   4  275.68   64.16
  10  -4  -4  259.79   47.88
 -10  -4   4  238.66   35.11
  10   4  -3   86.48   47.78
 -10   4   3   31.23   21.76
 -10  -4   3   68.76   30.77
  10  -4  -3   83.78   25.42
 -10  -4   3   69.41   27.67
  10   4  -2  777.28  157.96
 -10   4   2  709.07  176.45
 -10  -4   2  539.82  147.05
  10  -4  -2  730.13  150.24
 -10  -4   2  773.02   72.36
 -10   4   1   71.05   25.94
  10   4  -1  100.63   45.37
  10  -4  -1   63.98   25.35
 -10  -4   1   98.86   39.34
 -10   4   0  277.72   67.91
  10   4   0  267.52   43.28
  10  -4   0  319.14   71.15
 -10  -4   0  266.80   54.62
 -10   4  -1  520.35   57.77
  10   4   1  502.97  112.02
  10  -4   1  458.25  104.04
 -10  -4  -1  456.28   58.72
 -10   4  -2   23.54   23.56
  10   4   2   -4.15   33.28
  10  -4   2   35.02   22.96
 -10  -4  -2   33.86   51.52
  10   4   3  281.40   61.84
  10  -4   3  212.71   68.82
 -10  -4  -3  344.56   79.62
  10   4   4   91.62   33.07
  10  -4   4   39.84   23.97
 -10  -4  -4   73.12   58.21
  10   5 -11  303.58   70.72
 -10   5  11  259.85   75.54
 -10  -5  11  442.99  107.06
  10  -5 -11  270.80   85.08
  10   5 -10  326.61   75.12
 -10   5  10  320.89   87.23
 -10  -5  10  385.37   79.87
  10  -5 -10  312.75   75.08
 -10   5   9  135.49   52.38
 -10  -5   9  106.59   29.15
  10  -5  -9  124.81   34.72
  10   5  -8  531.82  155.24
 -10   5   8  537.66  121.55
 -10  -5   8  484.85   98.14
  10  -5  -8  566.47  106.41
  10   5  -7   79.47   42.30
 -10   5   7  109.28   55.98
 -10  -5   7   45.85   15.76
  10  -5  -7   49.10   24.05
  10   5  -6  695.42  128.63
 -10   5   6  577.22   73.44
 -10  -5   6  584.79  130.04
  10  -5  -6  599.07   96.64
  10   5  -5  527.93  107.02
 -10   5   5  568.95   71.00
 -10  -5   5  457.67   85.20
  10  -5  -5  558.78   94.67
  10   5  -4   42.27   16.71
 -10   5   4   50.82   31.13
 -10  -5   4   32.91   16.12
  10  -5  -4   86.04   31.33
  10   5  -3  474.89   89.78
 -10   5   3  441.10   63.61
 -10  -5   3  365.61   78.37
  10  -5  -3  435.38   91.86
 -10  -5   3  484.03   58.33
 -10   5   2  215.33   37.10
  10   5  -2  165.02   54.59
  10  -5  -2  101.99   37.80
 -10  -5   2  178.69   45.38
 -10   5   1  215.77   44.68
  10   5  -1  217.93   61.52
  10  -5  -1  178.28   41.22
 -10  -5   1  152.95   43.22
 -10   5   0  217.87   48.74
  10   5   0  230.87   49.14
  10  -5   0  285.53   64.38
 -10  -5   0  307.35   62.03
 -10   5  -1   16.56   16.50
  10   5   1    0.73   32.59
  10  -5   1    4.39   20.70
 -10  -5  -1   28.33   36.66
 -10   5  -2  190.30   45.86
  10   5   2  119.68   38.68
  10  -5   2  183.41   37.17
 -10  -5  -2  163.33   55.85
  10   6  -6  125.67   49.27
 -10   6   6  134.35   36.83
 -10  -6   6  156.17   47.69
  10  -6  -6  137.20   44.34
  10   6  -5   94.32   30.03
 -10   6   5   49.01   32.60
 -10  -6   5  116.73   31.90
  10  -6  -5   91.23   26.18
 -10   6   4  274.08   82.34
  10   6  -4  374.99   61.00
  10  -6  -4  271.74   73.39
 -10   6   3    2.43   32.52
  10   6  -3   68.27   39.94
  10  -6  -3   19.51   22.38
 -10   6   2  138.24   36.97
  10  -6  -2   48.52   25.05
 -11   0  15  159.50   75.39
  11   0 -15  176.80   43.41
 -11   0  14   50.83   58.88
  11   0 -14   74.15   29.28
 -11   0  13  525.49  100.57
  11   0 -13  498.03  137.13
 -11   0  12  169.16   74.05
  11   0 -12  160.33   47.22
 -11   0  11  410.94   72.93
  11   0 -11  432.18   54.83
 -11   0  10  499.35   82.12
  11   0 -10  502.29  107.13
 -11   0   9  151.88   47.51
  11   0  -9  199.99   35.71
 -11   0   8 2211.62  113.67
  11   0  -8 2151.82  113.67
 -11   0   7  244.90   58.68
  11   0  -7  270.84   61.65
  11   0  -7  222.56   57.23
 -11   0   6  449.79  108.55
  11   0  -6  445.74   79.41
 -11   0   6  423.25   47.71
 -11   0   5  635.47   69.69
  11   0  -5  533.40   51.38
 -11   0   5  593.72   53.34
 -11   0   4  255.61   54.19
  11   0  -4  256.26   42.44
 -11   0   4  227.53   34.22
 -11   0   3 1368.81  204.73
  11   0  -3 1308.02  208.99
 -11   0   3 1399.80   77.84
 -11   0   2  103.33   36.66
  11   0  -2   86.91   27.63
 -11   0   2   99.54   34.81
 -11   0   1  448.20   82.16
  11   0  -1  648.38  109.96
 -11   0   1  636.40   63.57
  11   0   0  163.18   38.55
 -11   0   0  159.04   47.63
  11   0   1  107.31   25.96
 -11   0  -1  136.07   56.09
  11   0   2  527.03  115.87
 -11   0  -2  604.42   84.57
  11   0   3  167.69   40.46
 -11   0  -3  204.68   61.00
  11   0   4  -15.84   34.57
 -11   0  -4   33.11   41.93
  11   0   5   34.39   29.60
 -11   0  -5   36.54   44.79
  11   1 -15  166.04   49.28
 -11   1  15  147.44   49.12
 -11  -1  15  126.79   65.42
  11  -1 -15  108.18   45.78
  11   1 -14  163.26   49.19
 -11   1  14  136.87   58.43
 -11  -1  14  115.75   54.17
  11  -1 -14  171.79   49.85
  11   1 -13   52.28   30.42
 -11   1  13   37.83   50.06
 -11  -1  13  154.06   50.41
  11  -1 -13   95.67   23.78
  11   1 -12  325.27   85.25
 -11   1  12  295.63   75.83
 -11  -1  12  450.27   97.70
  11  -1 -12  413.06   99.57
  11   1 -11  138.30   50.85
 -11   1  11  157.41   48.41
 -11  -1  11  229.34   68.16
  11  -1 -11  177.78   41.99
  11   1 -10  547.37   67.62
 -11   1  10  660.16   87.30
 -11  -1  10  596.89  123.23
  11  -1 -10  574.52  129.98
  11   1  -9 1529.70  328.13
 -11   1   9 1438.51  102.03
 -11  -1   9 1551.78  262.91
  11  -1  -9 1388.47  259.84
  11  -1  -9 1272.74   86.99
  11   1  -8  236.39   49.31
 -11   1   8  125.18   43.94
 -11  -1   8  157.21   40.17
  11  -1  -8  189.25   38.35
  11  -1  -8  157.34   29.02
  11   1  -7  991.25  150.24
 -11   1   7  936.98   74.21
 -11  -1   7  993.48  227.30
  11  -1  -7  859.26  136.79
  11  -1  -7  905.40   73.72
 -11   1   6  474.57   65.92
  11   1  -6  514.95   89.65
 -11  -1   6  367.67   57.03
  11  -1  -6  372.53   90.46
  11  -1  -6  361.47  103.30
 -11  -1   6  369.59   37.89
  11   1  -5  535.14  117.64
 -11   1   5  480.73   52.48
 -11  -1   5  470.00   62.17
  11  -1  -5  502.52   57.82
 -11  -1   5  487.27   42.70
  11   1  -4  665.52   64.94
 -11   1   4  638.24   62.09
 -11   1   4  655.45   61.25
 -11  -1   4  512.93  102.87
 -11  -1   4  588.45   56.25
  11  -1  -4  600.96   94.89
 -11   1   3  142.25   28.57
  11   1  -3  114.71   39.87
 -11   1   3  131.88   36.56
 -11  -1   3  168.27   51.49
  11  -1  -3  149.30   26.93
 -11  -1   3  171.79   38.19
 -11   1   2  936.62   62.18
  11   1  -2 1016.93   74.73
 -11   1   2 1119.09   82.84
 -11  -1   2 1192.17   62.67
  11  -1  -2 1075.83   84.07
 -11  -1   2 1191.61   72.58
 -11   1   1  113.70   30.02
  11   1  -1  156.86   37.69
 -11   1   1  146.73   41.74
  11  -1  -1  195.36   34.58
 -11  -1   1  139.89   37.07
 -11   1   0  454.81  120.57
  11   1   0  641.36  106.77
 -11   1   0  601.42   67.75
 -11  -1   0  746.47   76.14
  11  -1   0  527.12  123.81
  11   1   1  269.08   65.89
 -11   1  -1  262.35   51.77
 -11  -1  -1  218.63   43.00
  11  -1   1  232.18   41.85
  11   1   2   79.47   32.20
 -11   1  -2  100.91   38.79
 -11  -1  -2  100.02   48.77
  11  -1   2   29.51   15.26
  11   1   3   37.63   24.26
 -11   1  -3  196.02   72.70
 -11  -1  -3  194.51   60.74
  11  -1   3   98.89   32.97
  11   1   4   74.05   29.03
 -11   1  -4   51.91   45.02
  11  -1   4   32.30   25.14
 -11  -1  -4   59.79   67.77
  11   1   5   69.07   21.65
 -11   1  -5  148.02   62.98
 -11  -1  -5   66.40   45.63
  11  -1   5   41.23   29.01
  11   2 -14   69.81   47.19
 -11   2  14   36.18   21.36
 -11  -2  14   30.53   45.53
  11  -2 -14   12.72   29.10
  11   2 -13  488.20   92.59
 -11   2  13  500.41  116.25
 -11  -2  13  458.51  131.22
  11  -2 -13  409.48   54.10
  11   2 -12   13.20   44.24
 -11   2  12   57.23   35.17
 -11  -2  12   48.20   51.35
  11  -2 -12   12.25   26.84
  11   2 -11  511.27  114.84
 -11   2  11  595.75   82.53
 -11  -2  11  529.18  109.55
  11  -2 -11  497.22   54.57
  11   2 -10  278.40   55.24
 -11   2  10  341.88   80.67
 -11  -2  10  236.35   69.06
  11  -2 -10  225.47   53.67
  11  -2 -10  192.63   41.83
  11   2  -9  242.12   70.61
 -11   2   9  229.59   62.92
 -11  -2   9  130.66   32.56
  11  -2  -9  185.96   39.05
  11  -2  -9  195.19   42.35
  11   2  -8 1787.04  102.22
 -11   2   8 1702.64   99.45
 -11  -2   8 1722.67  111.91
  11  -2  -8 1636.66   98.32
  11  -2  -8 1692.62   82.17
  11   2  -7  323.51   83.91
 -11   2   7  269.78   54.74
 -11  -2   7  273.93   64.17
  11  -2  -7  211.95   51.94
  11  -2  -7  258.48   45.05
  11   2  -6 1195.54  191.02
 -11   2   6 1169.85   80.28
 -11  -2   6 1181.60  200.38
  11  -2  -6 1042.43  162.02
  11  -2  -6 1304.70  116.96
  11   2  -5 1456.06   84.08
 -11   2   5 1309.63  233.61
 -11  -2   5 1277.87  198.61
  11  -2  -5 1278.90  202.22
  11  -2  -5 1377.21   91.56
 -11  -2   5 1436.18   64.00
 -11   2   4  198.27   44.66
  11   2  -4  215.49   47.70
 -11  -2   4  117.48   26.32
  11  -2  -4   83.17   19.81
  11  -2  -4  142.43   36.61
 -11  -2   4  104.81   29.06
  11   2  -3  531.26  129.64
 -11   2   3  502.07  124.35
 -11  -2   3  544.71   65.70
  11  -2  -3  506.08   78.74
 -11  -2   3  606.50   53.77
 -11   2   2  107.73   30.44
  11   2  -2  184.93   53.47
 -11   2   2  131.05   45.87
 -11  -2   2  104.49   34.72
  11  -2  -2  104.76   25.16
 -11  -2   2  138.09   38.15
 -11   2   1  591.48   84.81
  11   2  -1  611.69  119.93
 -11   2   1  689.53   78.19
  11  -2  -1  593.54   50.53
 -11  -2   1  640.68   65.51
 -11   2   0  291.17   85.74
  11   2   0  385.85   60.45
 -11   2   0  403.41   57.41
 -11  -2   0  419.07   53.72
  11  -2   0  431.66   44.59
 -11   2  -1   16.32   12.37
  11   2   1   -6.79   34.06
 -11   2  -1    9.68   39.19
  11  -2   1   28.11   19.72
 -11  -2  -1   28.93   37.87
  11   2   2  289.08   71.88
 -11   2  -2  334.45   66.62
 -11  -2  -2  287.22   52.22
  11  -2   2  269.94   69.49
  11   2   3   34.40   17.61
 -11   2  -3   33.41   41.64
 -11  -2  -3   14.06   36.86
  11  -2   3   29.36   17.14
  11   2   4  207.11   50.03
 -11   2  -4  202.69   64.57
  11  -2   4  194.46   54.65
 -11  -2  -4  263.97   74.44
  11   2   5   88.94   24.69
 -11   2  -5   43.60   43.82
  11  -2   5   41.18   20.82
 -11  -2  -5  105.87   58.20
  11   3 -13   50.84   22.22
 -11   3  13   26.52   38.39
 -11  -3  13  136.23   53.01
  11   3 -12  394.87   85.60
 -11   3  12  436.37  103.14
 -11  -3  12  364.75  109.82
  11   3 -11   46.18   23.16
 -11   3  11   22.07   39.53
 -11  -3  11  -26.33   49.63
  11  -3 -11   19.40   14.66
  11   3 -10  403.40   82.36
 -11   3  10  330.06   73.67
 -11  -3  10  355.93   67.66
  11  -3 -10  306.41   77.51
  11   3  -9  209.49   61.78
 -11   3   9  237.41   58.11
 -11  -3   9  164.46   51.42
  11  -3  -9  215.75   38.51
  11   3  -8   74.91   57.38
 -11   3   8   35.45   20.20
 -11  -3   8    5.08   49.16
  11  -3  -8   57.18   21.55
  11   3  -7  897.59  225.25
 -11   3   7  772.34  189.01
 -11  -3   7 1001.99  153.61
  11  -3  -7  998.95   82.10
  11   3  -6  578.50  116.01
 -11   3   6  556.12   60.78
 -11  -3   6  529.27   83.45
  11  -3  -6  630.55  125.35
  11   3  -5  250.85   52.98
 -11   3   5  275.44   55.69
 -11  -3   5  357.21   64.96
  11  -3  -5  334.78   84.04
 -11  -3   5  350.54   42.37
  11   3  -4  704.12  139.60
 -11   3   4  618.89  135.41
 -11  -3   4  867.77  192.17
  11  -3  -4  989.63  240.80
 -11  -3   4 1040.79   59.28
  11   3  -3   27.00   34.36
 -11   3   3   29.73   14.82
 -11  -3   3   23.07   16.97
  11  -3  -3   14.38   20.76
 -11  -3   3    2.78   20.45
 -11   3   2  171.50   38.76
  11   3  -2  204.51   43.51
  11  -3  -2  243.71   57.12
 -11  -3   2  251.03   46.61
 -11   3   1  189.50   34.90
  11   3  -1  265.14   62.90
  11  -3  -1  308.58   74.16
 -11  -3   1  274.91   56.61
 -11   3   0   96.17   30.91
  11   3   0  127.69   55.65
 -11   3   0  144.98   55.48
 -11  -3   0   34.15   29.52
 -11   3  -1  164.05   38.35
  11   3   1  241.71   62.57
 -11   3  -1  285.95   64.52
 -11  -3  -1  263.35   53.22
  11   3   2   27.93   16.59
 -11   3  -2   36.18   42.86
 -11  -3  -2  -21.93   35.29
  11   3   3  128.00   48.46
 -11   3  -3  118.46   44.81
 -11  -3  -3   96.33   39.06
  11   3   4  -39.92   35.73
 -11   3  -4   16.72   41.17
 -11  -3  -4  -28.88   39.94
  11   4 -12   51.39   17.54
 -11   4  12   19.73    9.75
 -11  -4  12   -3.34   52.86
  11   4 -11  315.55   54.88
 -11   4  11  267.44   96.16
 -11  -4  11  262.19   66.15
  11  -4 -11  261.47   80.59
  11   4 -10  165.09   56.79
 -11   4  10   92.56   43.99
 -11  -4  10   98.65   62.65
  11  -4 -10   84.03   24.54
  11   4  -9  215.90   67.16
 -11   4   9  260.42   65.18
 -11  -4   9  125.03   33.41
  11  -4  -9  213.72   40.58
  11   4  -8  593.41   78.93
 -11   4   8  492.39   82.54
 -11  -4   8  491.83   85.18
  11  -4  -8  510.78  126.54
  11   4  -7   43.52   24.01
 -11   4   7  -13.22   30.96
 -11  -4   7   36.35   24.15
  11  -4  -7    0.03   30.96
  11   4  -6  369.54   84.71
 -11   4   6  313.33   93.64
 -11  -4   6  357.61   69.15
  11  -4  -6  363.47   83.93
  11   4  -5   39.13   37.06
 -11   4   5  -32.10   29.49
 -11  -4   5   28.86   26.20
  11  -4  -5   27.51   20.74
  11   4  -4  250.79   83.24
 -11   4   4  190.85   48.85
 -11  -4   4  281.50   73.51
  11  -4  -4  306.44   69.29
 -11  -4   4  313.09   40.47
 -11   4   3  387.68   97.20
  11   4  -3  501.56   70.00
  11  -4  -3  407.43   79.84
 -11  -4   3  412.82   49.03
 -11   4   2    6.73   11.79
  11   4  -2   22.63   19.37
  11  -4  -2   -1.97   31.67
 -11  -4   2  -12.04   27.62
 -11   4   1  250.28   80.55
  11   4  -1  283.79   59.08
  11  -4  -1  280.68   97.63
 -11  -4   1  278.66   59.04
 -11   4   0   70.73   22.66
  11   4   0   51.72   39.85
  11  -4   0   84.76   43.24
 -11  -4   0   64.87   43.61
 -11   4  -1   64.00   20.53
  11   4   1   65.23   53.59
  11  -4   1   68.51   31.19
 -11  -4  -1   73.09   40.37
  11   4   2  128.25   34.36
  11  -4   2   89.60   25.25
 -11  -4  -2  127.29   50.89
  11   5  -9  206.45   62.43
 -11   5   9  267.85   58.03
 -11  -5   9  204.75   42.38
  11  -5  -9  234.83   57.91
  11   5  -8   71.18   28.38
 -11   5   8   34.17   34.77
 -11  -5   8   -6.64   39.01
  11  -5  -8   31.07   22.50
  11   5  -7  410.66   85.04
 -11   5   7  378.99  102.21
 -11  -5   7  370.72   66.98
  11  -5  -7  413.41   98.93
  11   5  -6  218.49   47.40
 -11   5   6  154.77   38.35
 -11  -5   6  154.71   55.79
  11  -5  -6  185.92   40.14
  11   5  -5  179.03   61.40
 -11   5   5  262.80   63.25
 -11  -5   5  215.60   49.18
  11  -5  -5  288.22   77.61
 -11   5   4  334.20  104.52
  11   5  -4  346.23  116.80
  11  -5  -4  342.38   94.00
 -11   5   3   33.88   22.75
  11   5  -3   25.14   17.09
  11  -5  -3  -19.64   32.25
 -11   5   2  241.90   74.42
  11   5  -2  263.21   67.97
  11  -5  -2  244.03   75.16
 -11  -5   2  174.64   41.18
 -11   5   1   49.59   36.59
  11   5  -1   43.37   37.54
  11  -5  -1   87.11   25.25
 -11  -5   1   23.86   33.66
 -11   5   0   49.02   31.26
  11   5   0  104.10   45.50
  11  -5   0  107.51   44.37
 -11  -5   0   63.34   38.69
 -12   0  14  125.08   61.91
  12   0 -14  101.39   46.91
 -12   0  13  326.51   79.22
  12   0 -13  302.29   69.81
 -12   0  12  969.92  115.28
  12   0 -12  880.58  225.40
 -12   0  11  -10.44   50.52
  12   0 -11   16.86   19.75
 -12   0  10  436.10  125.90
  12   0 -10  408.24   84.61
 -12   0   9  727.43  219.92
  12   0  -9  887.43  165.04
 -12   0   8   40.97   29.12
  12   0  -8   20.96   22.57
 -12   0   7  534.29  166.61
  12   0  -7  539.85  132.95
  12   0  -7  438.44  119.10
 -12   0   6   41.16   42.36
  12   0  -6   -2.91   27.57
 -12   0   6   -8.25   19.82
 -12   0   5  360.11   81.11
  12   0  -5  301.53   50.56
 -12   0   5  365.96   46.11
 -12   0   4  973.93  225.45
  12   0  -4 1076.07  168.35
 -12   0   4 1262.04   72.32
 -12   0   3  273.07   39.88
  12   0  -3  240.51   81.64
 -12   0   3  282.79   45.12
 -12   0   2 1154.85  140.10
  12   0  -2 1271.72  115.11
 -12   0   2 1225.83   75.18
  12   0  -1  104.01   39.90
 -12   0   1  123.01   44.16
  12   0   0  255.52   50.95
 -12   0   0  267.09   53.33
  12   0   1  156.30   62.07
 -12   0  -1  145.37   46.57
  12   0   2  -21.51   31.46
 -12   0  -2  -25.51   35.36
  12   0   3  180.47   36.99
 -12   0  -3  271.49   64.50
  12   0   4   25.36   19.56
 -12   0  -4   18.43   39.82
 -12   1  14  138.00   51.53
  12   1 -14  341.40   85.81
 -12  -1  14  257.72   76.53
  12  -1 -14  237.94   61.45
  12   1 -13  249.77   56.21
 -12   1  13  234.60   66.75
 -12  -1  13  365.46   64.62
  12  -1 -13  313.74   77.12
  12   1 -12  167.41   46.02
 -12   1  12  139.81   68.74
 -12  -1  12  112.25   34.65
  12  -1 -12  171.98   41.96
  12   1 -11  653.45  145.32
 -12   1  11  796.37  107.06
 -12  -1  11  740.67  163.68
  12  -1 -11  674.54  128.63
  12   1 -10  252.15   64.55
 -12   1  10  318.06   63.06
 -12  -1  10  376.43   79.55
  12  -1 -10  307.80   66.84
  12   1  -9  624.80  120.15
 -12   1   9  562.17   67.78
 -12  -1   9  675.12  154.62
  12  -1  -9  614.13   61.17
 -12   1   8  742.33   81.04
  12   1  -8  731.74   78.99
 -12  -1   8  706.56  139.46
  12  -1  -8  768.95   65.22
  12  -1  -8  655.25  119.20
  12   1  -7  177.41   49.37
 -12   1   7  245.76   55.80
 -12  -1   7  234.92   73.72
  12  -1  -7  231.35   39.14
  12  -1  -7  187.88   52.35
 -12   1   6  827.60  156.63
  12   1  -6  981.95   81.51
 -12  -1   6  829.52  150.85
  12  -1  -6  880.19   62.35
  12  -1  -6  741.92  161.27
 -12  -1   6  872.84   53.13
  12   1  -5  346.72   68.78
 -12   1   5  210.89   31.68
 -12  -1   5  215.71   55.47
  12  -1  -5  248.62   35.63
 -12  -1   5  329.17   43.83
 -12   1   4  346.93   73.85
  12   1  -4  352.75   42.40
 -12   1   4  428.25   49.52
 -12  -1   4  384.04   75.96
  12  -1  -4  417.86   63.88
 -12  -1   4  438.64   42.62
 -12   1   3  639.58  150.97
  12   1  -3  749.28  134.30
 -12   1   3  763.19   66.39
 -12  -1   3  875.47   62.12
  12  -1  -3  811.21   60.22
 -12  -1   3  835.73   68.49
 -12   1   2   33.97   17.85
  12   1  -2  -10.85   32.55
 -12   1   2   31.51   32.84
  12  -1  -2   14.91   12.98
 -12  -1   2   47.08   44.96
 -12   1   1  449.45  130.12
  12   1  -1  570.70  101.76
 -12   1   1  596.51   64.49
 -12  -1   1  601.41   68.52
  12  -1  -1  511.05   94.88
  12   1   0  116.01   34.05
 -12   1   0  139.63   43.51
 -12  -1   0  101.52   38.19
  12  -1   0   78.08   27.53
  12   1   1  263.68   81.01
 -12   1  -1  310.56   70.85
 -12  -1  -1  369.12   64.61
  12  -1   1  251.74   47.41
  12   1   2   79.31   29.57
 -12   1  -2  143.29   59.10
 -12  -1  -2  130.89   49.32
  12  -1   2  105.37   35.68
  12   1   3  103.08   49.48
 -12   1  -3   69.50   57.02
 -12  -1  -3  108.02   54.32
  12  -1   3  104.15   25.99
  12   1   4  175.94   57.86
 -12   1  -4  255.16   66.85
 -12  -1  -4  159.96   57.94
  12  -1   4  114.25   47.60
  12   2 -14  249.66   67.29
 -12   2  14  199.58   68.61
 -12  -2  14   92.16   44.53
  12   2 -13   89.41   25.50
 -12   2  13  119.37   54.84
 -12  -2  13  101.35   40.45
  12  -2 -13   13.29   26.42
  12   2 -12  365.20   90.05
 -12   2  12  329.19  107.04
 -12  -2  12  377.87   71.80
  12  -2 -12  303.41   94.80
  12   2 -11   45.00   30.91
 -12   2  11   10.59   42.82
 -12  -2  11   48.38   36.64
  12  -2 -11   -1.42   22.62
  12   2 -10  872.95  159.49
 -12   2  10  845.53   90.55
 -12  -2  10  890.54  243.25
  12  -2 -10  728.38  162.06
  12   2  -9  536.34  117.04
 -12   2   9  430.11  100.79
 -12  -2   9  560.89  121.36
  12  -2  -9  446.85   95.26
  12  -2  -9  446.62  102.31
  12   2  -8  197.31   53.21
 -12   2   8  166.83   43.41
 -12  -2   8  241.83   56.28
  12  -2  -8  249.72   57.21
  12  -2  -8  246.46   42.15
  12   2  -7 1509.01  113.21
 -12   2   7 1534.52  208.21
 -12  -2   7 1367.86  241.87
  12  -2  -7 1123.89  199.13
  12  -2  -7 1418.65  109.26
  12   2  -6   32.45   34.20
 -12   2   6   45.12   27.51
 -12  -2   6   20.56   20.85
  12  -2  -6   40.60   30.03
  12  -2  -6   20.69   16.01
  12   2  -5 1086.92  166.96
 -12   2   5  974.94  185.67
 -12  -2   5 1033.95  251.66
  12  -2  -5 1008.74  135.62
  12  -2  -5  945.00  204.79
 -12  -2   5 1164.63   68.29
 -12   2   4  565.70  143.19
  12   2  -4  583.10   63.09
 -12  -2   4  529.44  127.07
  12  -2  -4  549.42   71.68
  12  -2  -4  556.54  108.49
 -12  -2   4  637.81   58.18
  12   2  -3  165.25   43.67
 -12   2   3  154.31   37.47
 -12  -2   3  154.74   58.22
  12  -2  -3  176.48   40.86
 -12  -2   3  198.33   35.53
 -12   2   2  574.68  127.06
  12   2  -2  678.80  121.84
 -12   2   2  831.73   86.90
  12  -2  -2  591.15  117.14
 -12  -2   2  714.83   67.29
 -12   2   1   25.79   13.49
  12   2  -1   10.34   19.05
 -12   2   1   24.51   33.33
 -12  -2   1   40.53   33.52
  12  -2  -1   -1.64   20.94
  12   2   0  183.04   54.94
 -12   2   0  168.84   52.86
 -12  -2   0  236.34   49.36
  12  -2   0  240.28   40.15
  12   2   1  106.67   51.00
 -12   2  -1   55.10   42.08
 -12  -2  -1   88.46   37.43
  12  -2   1   30.39   16.91
  12   2   2  103.13   35.53
 -12   2  -2  101.10   62.39
  12  -2   2  114.99   30.83
 -12  -2  -2   72.38   56.15
 -12   2  -3  200.09   66.06
 -12  -2  -3  199.69   75.30
  12  -2   3  129.18   41.36
  12   3 -13  247.50   62.40
 -12   3  13  351.20   86.92
 -12  -3  13  137.08   39.69
  12   3 -12   75.48   47.96
 -12   3  12   62.78   30.74
 -12  -3  12  -15.92   56.97
  12   3 -11  432.99   85.13
 -12   3  11  339.38   70.05
 -12  -3  11  408.60   92.81
  12   3 -10   45.09   26.73
 -12   3  10   19.86   22.90
 -12  -3  10   83.03   66.42
  12  -3 -10   91.10   24.72
  12   3  -9  333.01   65.90
 -12   3   9  307.08   72.03
 -12  -3   9  308.19   58.88
  12  -3  -9  228.10   73.06
  12   3  -8  404.32   72.84
 -12   3   8  309.37   60.33
 -12  -3   8  444.28  109.73
  12  -3  -8  403.87   69.59
  12   3  -7   14.73   40.46
 -12   3   7   14.03   10.88
 -12  -3   7  -36.66   42.32
  12  -3  -7    8.24   28.98
  12   3  -6  877.29   85.36
 -12   3   6  800.70  171.07
 -12  -3   6  922.64  158.02
  12  -3  -6  966.26   85.04
  12   3  -5  353.89   63.51
 -12   3   5  355.53   80.87
 -12  -3   5  509.07   81.40
  12  -3  -5  556.20   93.74
  12   3  -4 1180.16  208.02
 -12   3   4 1117.48   91.89
 -12  -3   4  902.46  159.12
  12  -3  -4 1146.86  259.87
 -12  -3   4 1263.97   76.58
 -12   3   3  474.81   60.99
  12   3  -3  569.24   85.30
  12  -3  -3  514.41   77.69
 -12  -3   3  467.49   51.98
 -12   3   2    7.93   26.27
  12   3  -2   46.30   40.52
  12  -3  -2   14.06   12.50
 -12  -3   2   -1.20   28.03
 -12   3   1  192.56   55.51
  12   3  -1  173.69   54.21
  12  -3  -1  226.18   64.45
 -12  -3   1  287.82   57.00
 -12   3   0  101.21   32.47
  12   3   0  149.54   30.50
 -12  -3   0   71.75   32.79
  12   3   1   60.31   38.19
 -12   3  -1   98.89   61.23
 -12  -3  -1   87.49   51.26
  12   3   2   55.96   37.32
 -12   3  -2   90.96   44.75
 -12  -3  -2  143.22   55.83
  12   4 -11   42.81   31.58
 -12   4  11  -13.69   36.94
 -12  -4  11  -10.15   47.42
  12   4 -10  201.69   50.54
 -12   4  10  141.90   37.64
 -12  -4  10   55.69   34.86
  12  -4 -10   50.83   27.63
  12   4  -9   55.05   22.05
 -12   4   9   69.24   36.36
 -12  -4   9   90.99   49.88
  12  -4  -9   94.21   31.94
  12   4  -8  108.60   57.26
 -12   4   8   77.45   28.77
 -12  -4   8   76.34   28.96
  12  -4  -8  128.49   36.70
  12   4  -7  273.66   58.37
 -12   4   7  201.94   43.52
 -12  -4   7  236.38   65.26
  12  -4  -7  279.91   51.28
  12   4  -6   25.73   40.90
 -12   4   6   21.05   18.21
 -12  -4   6   35.88   21.02
  12  -4  -6   17.42   20.85
  12   4  -5  394.27   98.44
 -12   4   5  451.65   88.87
 -12  -4   5  337.62   69.14
  12  -4  -5  408.24  105.84
 -12   4   4  109.76   28.71
  12   4  -4  134.71   32.68
  12  -4  -4  139.08   36.36
 -12   4   3   71.22   21.07
  12   4  -3   74.91   56.16
  12  -4  -3  119.73   64.20
 -12  -4   3  118.30   41.36
 -12   4   2  290.75   53.76
  12   4  -2  246.43   53.01
  12  -4  -2  329.10   72.56
 -12  -4   2  377.97   63.49
 -12   4   1  -13.11   20.76
  12   4  -1   58.41   20.25
  12  -4  -1   17.71   19.14
 -12  -4   1   76.82   35.69
 -12   4   0  126.23   30.10
  12   4   0  188.59   60.39
  12  -4   0  138.40   60.57
  12   5  -7   67.70   20.38
 -12   5   7   52.32   39.14
 -12  -5   7  -27.44   40.74
  12  -5  -7   30.49   24.67
  12   5  -6  217.89   62.04
 -12   5   6  173.53   45.47
 -12  -5   6  148.93   38.43
  12  -5  -6  211.34   54.20
 -12   5   5   41.94   23.86
  12   5  -5   89.69   45.89
  12  -5  -5   -8.89   35.74
 -12   5   4   93.42   26.08
  12   5  -4  101.22   32.18
  12  -5  -4  124.99   34.94
 -13   0  14  208.26   70.75
  13   0 -14  240.16   73.61
 -13   0  13  706.03  167.09
  13   0 -13  591.60  157.45
 -13   0  12   20.79   40.03
  13   0 -12   66.62   20.33
 -13   0  11  418.14  103.92
  13   0 -11  465.82  112.00
 -13   0  10   -9.01   41.80
  13   0 -10   23.12   25.31
 -13   0   9  522.80  109.25
  13   0  -9  604.64   71.14
 -13   0   8  567.70   75.51
  13   0  -8  494.16   67.13
 -13   0   7  160.23   47.43
  13   0  -7  173.39   48.87
  13   0  -7  133.69   36.62
 -13   0   6  956.33   84.38
  13   0  -6  899.14  190.94
 -13   0   6  968.88   63.64
 -13   0   5   93.61   29.95
  13   0  -5  135.87   39.76
 -13   0   5  150.09   32.07
 -13   0   4  474.87   90.40
  13   0  -4  520.27  120.67
 -13   0   4  606.28   56.71
 -13   0   3  826.31   90.73
  13   0  -3  797.40  153.58
 -13   0   3  751.33  197.52
  13   0  -2   22.63   14.77
 -13   0   2  -13.58   28.16
  13   0  -1  382.25   61.70
 -13   0   1  391.98   60.53
  13   0   0    8.92   29.74
 -13   0   0   32.14   37.05
  13   0   1   19.46   35.11
 -13   0  -1    4.01   34.57
  13   0   2  218.64   68.64
 -13   0  -2  288.07   67.50
  13   1 -13  125.48   52.84
 -13   1  13  154.01   49.57
 -13  -1  13  165.41   66.18
  13  -1 -13  124.63   45.88
 -13   1  12  452.04   88.27
  13   1 -12  384.60   66.50
 -13  -1  12  311.02  115.18
  13  -1 -12  314.29   94.87
  13   1 -11   27.91   27.74
 -13   1  11  -23.92   37.73
 -13  -1  11  -34.77   51.88
  13  -1 -11    6.93   31.98
 -13   1  10  545.26  106.65
  13   1 -10  588.32  144.01
 -13  -1  10  588.79  131.63
  13  -1 -10  536.96  141.08
  13   1  -9  200.88   47.54
 -13   1   9  232.39   73.20
 -13  -1   9  205.33   61.93
  13  -1  -9  176.37   38.77
 -13   1   8  840.45   85.20
  13   1  -8  765.88  149.51
 -13  -1   8  828.29   97.72
  13  -1  -8  725.09  159.82
  13  -1  -8  736.97   66.25
  13   1  -7  541.50   78.46
 -13   1   7  549.57  125.56
 -13  -1   7  417.62  145.54
  13  -1  -7  509.44  100.69
  13  -1  -7  413.47  101.96
 -13   1   6   -7.82   30.82
  13   1  -6   22.54   32.64
 -13  -1   6   -1.14   30.21
  13  -1  -6   20.13   17.97
  13  -1  -6   18.27   14.49
 -13  -1   6   -2.88   20.13
  13   1  -5  748.53  130.70
 -13   1   5  773.10   63.83
 -13  -1   5  915.32   88.55
  13  -1  -5  832.80   73.58
 -13  -1   5  600.97  146.92
 -13   1   4  172.53   49.88
  13   1  -4  274.18   48.19
 -13   1   4  235.02   55.75
 -13  -1   4  231.57   41.95
  13  -1  -4  203.81   59.07
 -13  -1   4  288.02   44.87
 -13   1   3  168.95   49.63
  13   1  -3  241.64   48.31
 -13   1   3  207.45   50.39
  13  -1  -3  171.51   42.91
 -13  -1   3  232.84   45.26
 -13   1   2  258.02   75.23
  13   1  -2  411.00   68.06
 -13   1   2  451.63   72.23
  13  -1  -2  414.34   81.48
 -13  -1   2  492.01   64.71
  13   1  -1    2.11   30.29
 -13   1   1    6.36   33.50
 -13  -1   1   11.61   29.39
  13  -1  -1  -10.74   27.45
  13   1   0  275.52   58.80
 -13   1   0  364.63   64.24
  13  -1   0  375.94   53.91
 -13  -1   0  379.04   77.25
  13   1   1   63.41   37.78
 -13   1  -1   28.97   16.86
 -13  -1  -1   63.06   39.66
  13  -1   1   89.19   39.16
 -13   1  -2   58.47   42.38
 -13  -1  -2  -13.42   39.50
  13  -1   2   42.73   25.03
  13   2 -13  161.78   61.45
 -13   2  13  197.34   53.37
 -13  -2  13  195.74   67.19
  13   2 -12  114.39   30.51
 -13   2  12   59.33   27.95
 -13  -2  12   90.75   54.15
  13  -2 -12   23.60   25.79
  13   2 -11  572.04   86.84
 -13   2  11  607.75   79.25
 -13  -2  11  535.38   95.53
  13   2 -10   64.75   48.86
 -13   2  10   91.63   25.20
 -13  -2  10   43.55   41.47
  13  -2 -10   71.99   25.32
  13   2  -9  213.26   64.61
 -13   2   9  240.06   57.95
 -13  -2   9  318.81   74.22
  13  -2  -9  228.52   75.55
  13  -2  -9  249.33   62.01
  13   2  -8  502.49   95.94
 -13   2   8  460.37  138.37
 -13  -2   8  445.21   79.42
  13  -2  -8  437.74  109.55
  13  -2  -8  429.59   71.03
  13   2  -7  211.85   52.78
 -13   2   7  204.56   55.89
 -13  -2   7  176.17   53.05
  13  -2  -7  174.69   43.27
  13  -2  -7  204.57   43.44
  13   2  -6  834.37   78.22
 -13   2   6  773.23  137.33
 -13  -2   6  730.50  167.37
  13  -2  -6  733.25  136.77
  13  -2  -6  816.12  169.17
  13   2  -5  283.92   66.86
 -13   2   5  315.68   87.69
 -13  -2   5  272.25   55.08
  13  -2  -5  257.43   63.13
  13  -2  -5  270.77   73.15
 -13  -2   5  390.51   49.26
 -13   2   4  168.27   49.69
  13   2  -4  198.12   54.39
 -13  -2   4  108.57   44.29
  13  -2  -4  149.99   38.12
  13  -2  -4  165.11   42.43
 -13  -2   4  207.36   45.66
 -13   2   3  144.00   46.83
  13   2  -3  166.33   51.97
  13  -2  -3  192.50   40.45
 -13  -2   3  220.47   41.55
 -13   2   2    8.38   12.53
  13   2  -2   59.40   23.14
 -13   2   2   63.39   51.95
  13  -2  -2    2.52   20.12
 -13  -2   2   78.74   45.98
  13   2  -1  296.48   78.23
 -13   2   1  332.67   68.23
  13  -2  -1  209.39   47.63
 -13  -2   1  316.35   58.67
  13   2   0   13.86   38.29
 -13   2   0   -0.80   34.30
 -13  -2   0   39.89   48.87
  13   2   1   82.82   36.43
 -13   2  -1  262.19   80.67
 -13  -2  -1  139.76   61.37
  13   3 -11   79.25   50.84
 -13   3  11   40.98   16.71
 -13  -3  11   38.06   48.56
  13   3 -10  200.25   53.91
 -13   3  10  198.35   53.50
 -13  -3  10  322.26   87.59
  13   3  -9  116.87   63.33
 -13   3   9  183.55   45.56
 -13  -3   9  144.43   50.01
  13  -3  -9   89.21   42.05
  13   3  -8   20.83   25.21
 -13   3   8   63.60   33.62
 -13  -3   8   -7.31   46.97
  13  -3  -8   24.18   15.18
  13   3  -7  397.70   89.52
 -13   3   7  376.87   84.43
 -13  -3   7  387.22  119.77
  13  -3  -7  397.42   70.63
  13   3  -6  109.05   59.81
 -13   3   6   62.90   15.04
 -13  -3   6   85.98   29.78
  13  -3  -6   75.74   27.03
  13   3  -5  702.37   88.27
 -13   3   5  500.86  132.59
 -13  -3   5  463.97   89.40
  13  -3  -5  529.76  152.14
 -13   3   4  234.71   62.99
  13   3  -4  319.28   78.70
  13  -3  -4  175.80   41.52
 -13   3   3  125.51   44.80
  13   3  -3  124.00   50.31
  13  -3  -3   74.85   40.63
 -13  -3   3  104.62   36.22
  13   3  -2  164.93   61.97
  13  -3  -2  149.77   60.07
 -13  -3   2  167.00   49.50
  13   3  -1   24.65   40.64
  13  -3  -1   23.41   12.37
 -13  -3   1  -12.90   31.01
  13   3   0  274.77   69.21
 -13  -3   0  166.56   52.52
  13   4  -9   82.06   58.00
 -13   4   9  106.39   40.30
 -13  -4   9   55.69   22.20
  13  -4  -9   60.66   25.16
 -13   4   8  129.20   37.84
  13   4  -8  211.94   52.06
  13  -4  -8  182.50   54.04
  13   4  -7   61.08   22.88
 -13   4   7   -3.90   32.36
 -13  -4   7  -19.88   40.74
  13  -4  -7   -7.75   31.99
  13   4  -6  204.64   50.99
 -13   4   6  212.59   72.26
 -13  -4   6  125.31   36.69
  13  -4  -6  155.21   44.44
 -13   4   5  -15.00   30.65
  13   4  -5   24.81   23.07
  13  -4  -5  -29.62   34.66
 -13   4   4  183.20   53.87
  13   4  -4   91.24   34.95
  13  -4  -4  163.31   42.90
 -13   4   3  135.88   42.10
  13   4  -3  183.39   57.90
  13  -4  -3  108.20   19.95
 -14   0  12   38.45   29.56
  14   0 -12   71.05   24.57
 -14   0  11   71.24   48.63
  14   0 -11   -5.81   33.14
 -14   0  10  126.47   52.75
  14   0 -10  157.41   45.03
 -14   0   9   39.74   45.72
  14   0  -9   18.60   16.04
 -14   0   8   33.71   46.26
  14   0  -8   21.55   30.47
 -14   0   7   42.09   29.58
  14   0  -7   55.52   23.79
 -14   0   6   -9.87   30.69
  14   0  -6   11.26   25.07
 -14   0   6    7.13   26.13
 -14   0   5  182.79   73.39
  14   0  -5  232.10   46.68
 -14   0   5  218.74   40.56
 -14   0   4   32.90   10.31
  14   0  -4   57.28   28.77
 -14   0   4   28.24   30.31
  14   0  -3  221.08   65.19
 -14   0   3  252.97   54.91
 -14   0   2   27.31   18.76
  14   0  -1   55.78   30.54
 -14   0   1   94.32   42.15
  14   0   0   90.81   41.43
 -14   0   0   91.72   39.26
  14   1 -12   50.42   34.00
 -14   1  12   96.29   39.80
 -14  -1  12  128.76   71.09
  14  -1 -12   58.96   28.35
 -14   1  11  178.71   60.79
  14   1 -11  172.53   67.76
  14  -1 -11  124.49   43.37
  14   1 -10   24.64   21.84
 -14   1  10    5.07   21.82
 -14  -1  10    7.80   41.98
  14  -1 -10  -14.09   28.39
  14   1  -9  574.37  112.83
 -14   1   9  569.81  132.13
 -14  -1   9  422.34  104.99
  14  -1  -9  445.64   87.26
 -14   1   8  130.15   35.59
  14   1  -8  204.32   51.04
 -14  -1   8   98.18   37.34
  14  -1  -8  141.35   46.41
  14   1  -7  122.80   44.07
 -14  -1   7  110.82   50.86
  14  -1  -7  141.35   35.83
  14  -1  -7  115.13   41.75
 -14   1   6  412.12   68.89
  14   1  -6  435.50   73.33
 -14  -1   6  355.51   48.78
  14  -1  -6  336.84   71.32
  14  -1  -6  261.37   75.31
  14   1  -5   -0.56   31.25
 -14   1   5  -39.77   27.51
 -14  -1   5  -16.91   23.53
  14  -1  -5   -2.69   24.21
 -14  -1   5    2.42   26.67
 -14   1   4  259.81   73.88
  14   1  -4  300.08   53.19
 -14   1   4  384.57   65.71
  14  -1  -4  295.32   60.54
 -14  -1   4  328.26   82.55
  14   1  -3   60.70   35.08
 -14   1   3   61.85   30.86
 -14  -1   3   50.54   30.75
  14  -1  -3   22.34   25.96
  14   1  -2   87.11   41.21
 -14   1   2  153.23   49.19
  14  -1  -2   93.55   40.60
 -14  -1   2  133.01   49.61
  14   1  -1  246.89   67.21
 -14   1   1  224.67   54.07
  14  -1  -1  287.20   49.51
 -14  -1   1  210.41   60.64
  14   1   0   20.17   17.78
 -14   1   0   36.23   38.46
 -14  -1   0  -16.68   32.46
  14  -1   0  -18.48   26.41
  14   2 -11   79.42   38.46
 -14   2  11   46.27   29.06
 -14  -2  11   49.24   25.56
  14   2 -10  267.63   69.84
 -14   2  10  249.01   59.35
 -14  -2  10  225.33   75.62
  14   2  -9   17.87   39.44
 -14   2   9   35.09   20.59
 -14  -2   9  -15.16   41.89
  14   2  -8  281.90   79.82
 -14   2   8  209.18   47.63
 -14  -2   8  303.41   72.81
  14  -2  -8  235.33   85.28
  14   2  -7  444.33  102.76
 -14   2   7  312.43   88.12
 -14  -2   7  361.30   62.68
  14  -2  -7  333.79   59.48
  14   2  -6    9.10   36.11
 -14   2   6  -33.31   27.28
 -14  -2   6  -13.68   27.27
  14  -2  -6   -4.73   27.86
 -14   2   5   89.97   32.16
  14   2  -5  164.14   50.95
  14  -2  -5   68.09   20.42
 -14   2   4   10.79   11.14
  14   2  -4  -11.01   35.88
  14  -2  -4   59.52   28.33
 -14  -2   4   27.99   26.00
  14   2  -3   70.02   35.77
 -14  -2   3   86.95   42.54
  14   2  -2  111.61   51.06
 -14   2   2  111.30   48.38
 -14  -2   2  139.54   43.85
  14   2  -1  -28.81   35.07
 -14   2   1   10.27   37.14
 -14  -2   1    9.84   35.00
  14   3  -9  220.79   63.97
 -14   3   9  137.15   42.41
 -14  -3   9  130.99   53.28
  14   3  -8  135.72   48.74
 -14   3   8   66.59   36.25
 -14  -3   8   94.32   38.78
  14  -3  -8   57.92   34.91
  14   3  -7  -22.40   37.87
 -14   3   7   32.12   34.13
 -14  -3   7   20.19   20.45
  14  -3  -7   18.14   10.44
 -14   3   6  141.30   49.80
  14   3  -6  113.88   59.43
  14  -3  -6  121.68   33.83
 -14   3   5   17.10   29.44
  14   3  -5    7.05   38.07
  14  -3  -5   45.00   27.92
 -14   3   4   91.15   36.58
  14   3  -4  119.01   37.40
  14  -3  -4   89.31   36.48
 -14   3   3    0.00   12.63
  14   3  -3   84.15   48.93
  14  -3  -3   27.07   15.45
 -15   0  10   10.14   38.20
  15   0 -10   38.35   26.04
 -15   0   9   23.82   34.49
  15   0  -9  124.02   33.62
 -15   0   8   20.60   14.95
  15   0  -8   -0.83   31.94
 -15   0   7  110.03   42.36
  15   0  -7   85.90   22.97
 -15   0   6   47.99   17.59
  15   0  -6   86.13   40.29
  15   0  -5    0.35   30.14
 -15   0   5  -24.92   28.94
  15   0  -4  243.03   66.37
 -15   0   4  343.53   59.51
  15   0  -3   56.79   20.62
 -15   0   3   72.19   37.55
  15   1 -10  214.70   55.41
 -15   1  10  208.07   47.60
 -15  -1  10  218.19   71.08
  15  -1 -10  210.23   60.01
  15   1  -9   12.72   16.26
 -15   1   9   20.63   24.08
 -15  -1   9  -13.76   39.42
  15  -1  -9   24.06   16.94
 -15   1   8  134.49   47.14
  15   1  -8  180.11   61.47
 -15  -1   8  202.11   50.86
  15  -1  -8  221.99   51.33
  15   1  -7   26.83   20.66
 -15   1   7   69.98   44.34
 -15  -1   7   40.85   28.62
  15  -1  -7   33.08   19.91
 -15   1   6   62.15   29.28
  15   1  -6   47.55   47.88
  15  -1  -6   73.16   34.71
  15  -1  -6   31.07   21.81
 -15   1   5   85.81   31.24
  15   1  -5  121.28   46.97
  15  -1  -5  141.32   47.06
  15   1  -4   -4.79   31.47
 -15   1   4   30.57   34.38
  15  -1  -4   31.01   33.50
 -15  -1   4   24.69   16.50
  15   1  -3  115.50   35.18
 -15   1   3  174.71   60.82
  15  -1  -3  131.92   56.36
 -15  -1   3  137.43   43.08
  15   2  -8   60.09   40.75
 -15   2   8   12.09   16.28
 -15  -2   8   24.02   33.66
 -15   2   7   58.46   31.84
  15   2  -7   62.82   24.48
 -15   2   6   41.68   21.75
  15   2  -6   56.68   38.03
  15  -2  -6   56.22   25.01
 -15   2   5   61.23   33.62
  15   2  -5  129.14   53.53
  15  -2  -5   47.10   19.45
;
loop_
_symmetry_equiv_pos_site_id
_space_group_symop_operation_xyz
1 +X,+Y,+Z
2 -X,1/2+Y,-Z
loop_
_atom_site_label
_atom_site_type_symbol
_atom_site_fract_x
_atom_site_fract_y
_atom_site_fract_z
_atom_site_U_iso_or_equiv
_atom_site_adp_type
_atom_site_occupancy
_atom_site_site_symmetry_multiplicity
_atom_site_calc_flag
_atom_site_refinement_flags
_atom_site_disorder_assembly
_atom_site_disorder_group
As1 As 0.21550(3) 0.64034(9) 0.80051(3) 0.04937(13) Uani 1 2 d . . .
O19 O 0.4846(3) 0.3208(6) 1.3688(3) 0.0727(9) Uani 1 2 d . . .
C1 C 0.0625(4) 0.5762(6) 0.8149(3) 0.0499(10) Uani 1 2 d . . .
C2 C 0.4612(3) 0.1558(11) 1.1868(3) 0.0530(8) Uani 1 2 d . . .
C3 C 0.3073(3) 0.3838(6) 0.8824(3) 0.0436(8) Uani 1 2 d . . .
C4 C 0.1296(4) 0.4203(9) 0.4572(4) 0.0707(13) Uani 1 2 d . . .
C5 C 0.1909(4) 0.4842(7) 0.6594(4) 0.0504(9) Uani 1 2 d . . .
C6 C 0.3579(3) 0.3644(6) 1.0101(3) 0.0428(8) Uani 1 2 d . . .
C7 C 0.2561(4) 0.2876(7) 0.6853(3) 0.0497(9) Uani 1 2 d . . .
C8 C 0.4167(3) 0.1745(9) 1.0675(3) 0.0518(11) Uani 1 2 d . . .
C9 C 0.1274(4) 0.5510(8) 0.5444(4) 0.0606(11) Uani 1 2 d . . .
C10 C 0.2572(4) 0.1604(12) 0.5951(3) 0.0610(10) Uani 1 2 d . . .
C11 C 0.4467(4) 0.3239(7) 1.2513(3) 0.0508(9) Uani 1 2 d . . .
C12 C 0.3470(4) 0.5341(6) 1.0780(4) 0.0536(9) Uani 1 2 d . . .
C13 C 0.3181(3) 0.2379(7) 0.8081(3) 0.0477(9) Uani 1 2 d . . .
C14 C 0.3902(4) 0.5151(7) 1.1965(4) 0.0576(10) Uani 1 2 d . . .
C15 C 0.0026(4) 0.3781(8) 0.7824(4) 0.0660(11) Uani 1 2 d . . .
C16 C 0.5308(6) 0.1227(17) 1.4273(4) 0.0999(19) Uani 1 2 d . . .
C17 C 0.0165(4) 0.7325(8) 0.8633(4) 0.0691(13) Uani 1 2 d . . .
C18 C -0.0914(5) 0.6907(12) 0.8770(5) 0.088(2) Uani 1 2 d . . .
C20 C -0.1037(4) 0.3380(10) 0.7965(5) 0.0832(15) Uani 1 2 d . . .
C21 C -0.1497(5) 0.4923(12) 0.8435(6) 0.0874(18) Uani 1 2 d . . .
C22 C 0.1930(4) 0.2273(9) 0.4818(4) 0.0733(14) Uani 1 2 d . . .
H2 H 0.5011 0.02897 1.22319 0.0636 Uiso 1 2 calc R . .
H4 H 0.08748 0.46355 0.38064 0.0848 Uiso 1 2 calc R . .
H8 H 0.42604 0.05859 1.02485 0.0622 Uiso 1 2 calc R . .
H9 H 0.08437 0.68172 0.52702 0.0727 Uiso 1 2 calc R . .
H10 H 0.30105 0.03065 0.61104 0.0732 Uiso 1 2 calc R . .
H12 H 0.30977 0.66339 1.04255 0.0643 Uiso 1 2 calc R . .
H13 H 0.36337 0.11077 0.83413 0.0572 Uiso 1 2 calc R . .
H14 H 0.38146 0.63052 1.23973 0.0691 Uiso 1 2 calc R . .
H15 H 0.03388 0.27081 0.75087 0.0792 Uiso 1 2 calc R . .
H16A H 0.55401 0.14236 1.50848 0.1199 Uiso 1 2 calc R . .
H16B H 0.469 0.01216 1.39823 0.1199 Uiso 1 2 calc R . .
H16C H 0.60077 0.0789 1.41483 0.1199 Uiso 1 2 calc R . .
H17 H 0.05657 0.86522 0.88688 0.0830 Uiso 1 2 calc R . .
H18 H -0.12353 0.79675 0.90849 0.1062 Uiso 1 2 calc R . .
H20 H -0.14346 0.20486 0.77366 0.0998 Uiso 1 2 calc R . .
H21 H -0.22063 0.46432 0.85325 0.1049 Uiso 1 2 calc R . .
H22 H 0.19288 0.14073 0.42179 0.0880 Uiso 1 2 calc R . .
loop_
_atom_site_aniso_label
_atom_site_aniso_U_11
_atom_site_aniso_U_22
_atom_site_aniso_U_33
_atom_site_aniso_U_12
_atom_site_aniso_U_13
_atom_site_aniso_U_23
As1 0.0580(2) 0.03780(19) 0.0574(2) -0.0003(2) 0.02918(16) 0.0003(3)
O19 0.098(2) 0.070(2) 0.0528(17) 0.0107(18) 0.0347(17) 0.0043(15)
C1 0.054(2) 0.055(3) 0.0421(19) 0.0168(17) 0.0212(17) 0.0109(15)
C2 0.0574(18) 0.048(2) 0.061(2) 0.010(3) 0.0317(17) 0.008(3)
C3 0.0407(18) 0.040(2) 0.054(2) -0.0056(15) 0.0235(17) -0.0027(16)
C4 0.069(3) 0.084(4) 0.056(3) 0.003(3) 0.023(2) -0.001(2)
C5 0.053(2) 0.047(2) 0.059(2) -0.0030(17) 0.0303(19) 0.0006(18)
C6 0.0360(17) 0.043(2) 0.054(2) -0.0033(15) 0.0229(16) -0.0012(17)
C7 0.051(2) 0.046(2) 0.057(2) -0.0056(17) 0.0272(19) -0.0057(17)
C8 0.0540(18) 0.050(3) 0.058(2) 0.006(2) 0.0297(17) -0.001(2)
C9 0.066(2) 0.062(3) 0.055(2) 0.004(2) 0.027(2) 0.0050(19)
C10 0.066(2) 0.056(3) 0.062(2) 0.001(3) 0.0279(19) -0.009(3)
C11 0.047(2) 0.056(3) 0.051(2) -0.0022(18) 0.0226(18) -0.0012(18)
C12 0.059(2) 0.041(2) 0.057(2) 0.0045(18) 0.020(2) -0.0034(18)
C13 0.0439(19) 0.044(2) 0.057(2) 0.0002(15) 0.0231(18) -0.0011(17)
C14 0.068(3) 0.052(2) 0.055(2) 0.004(2) 0.028(2) -0.0082(19)
C15 0.062(3) 0.060(3) 0.087(3) -0.000(2) 0.043(2) -0.001(2)
C16 0.152(5) 0.088(4) 0.064(3) 0.028(5) 0.050(3) 0.023(4)
C17 0.075(3) 0.068(3) 0.069(3) 0.020(2) 0.034(3) 0.002(2)
C18 0.088(4) 0.108(7) 0.090(4) 0.046(4) 0.057(3) 0.013(3)
C20 0.061(3) 0.088(4) 0.110(4) 0.000(3) 0.045(3) 0.013(3)
C21 0.067(3) 0.112(5) 0.104(4) 0.021(3) 0.056(3) 0.031(4)
C22 0.074(3) 0.086(4) 0.060(3) -0.008(3) 0.028(2) -0.023(2)
loop_
_atom_type_symbol
_atom_type_description
_atom_type_scat_dispersion_real
_atom_type_scat_dispersion_imag
_atom_type_scat_source
C C 0.0033 0.0016
;
International Tables for Crystallography
(Vol. C, Tables 4.2.6.8 and 6.1.1.4)
;
H H 0.0000 0.0000
;
International Tables for Crystallography
(Vol. C, Table 6.1.1.4)
;
As As 0.0499 2.0058
;
International Tables for Crystallography
(Vol. C, Tables 4.2.6.8 and 6.1.1.4)
;
O O 0.0106 0.0060
;
International Tables for Crystallography
(Vol. C, Tables 4.2.6.8 and 6.1.1.4)
;
loop_
_geom_angle_atom_site_label_1
_geom_angle_atom_site_label_2
_geom_angle_atom_site_label_3
_geom_angle
_geom_angle_publ_flag
_geom_angle_site_symmetry_1
_geom_angle_site_symmetry_2
_geom_angle_site_symmetry_3
C1 As1 C3 97.63(18) yes . . .
C1 As1 C5 101.59(17) yes . . .
C3 As1 C5 86.00(18) yes . . .
C11 O19 C16 117.8(4) yes . . .
As1 C1 C15 122.6(4) yes . . .
As1 C1 C17 118.1(3) yes . . .
C15 C1 C17 119.2(5) yes . . .
C8 C2 C11 120.3(5) yes . . .
As1 C3 C6 122.0(3) yes . . .
As1 C3 C13 111.0(3) yes . . .
C6 C3 C13 126.9(3) yes . . .
C9 C4 C22 121.0(4) yes . . .
As1 C5 C7 110.6(3) yes . . .
As1 C5 C9 128.9(3) yes . . .
C7 C5 C9 120.3(4) yes . . .
C3 C6 C8 121.7(4) yes . . .
C3 C6 C12 121.2(3) yes . . .
C8 C6 C12 117.2(4) yes . . .
C5 C7 C10 119.0(4) yes . . .
C5 C7 C13 114.7(4) yes . . .
C10 C7 C13 126.2(4) yes . . .
C2 C8 C6 121.3(5) yes . . .
C4 C9 C5 119.1(4) yes . . .
C7 C10 C22 120.0(6) yes . . .
O19 C11 C2 125.1(4) yes . . .
O19 C11 C14 115.5(4) yes . . .
C2 C11 C14 119.4(4) yes . . .
C6 C12 C14 121.6(4) yes . . .
C3 C13 C7 117.3(4) yes . . .
C11 C14 C12 120.2(4) yes . . .
C1 C15 C20 120.7(5) yes . . .
C1 C17 C18 119.7(5) yes . . .
C17 C18 C21 120.0(7) yes . . .
C15 C20 C21 120.3(6) yes . . .
C18 C21 C20 120.1(7) yes . . .
C4 C22 C10 120.6(5) yes . . .
C8 C2 H2 119.850 no . . .
C11 C2 H2 119.843 no . . .
C9 C4 H4 119.521 no . . .
C22 C4 H4 119.516 no . . .
C2 C8 H8 119.347 no . . .
C6 C8 H8 119.349 no . . .
C4 C9 H9 120.456 no . . .
C5 C9 H9 120.452 no . . .
C7 C10 H10 119.989 no . . .
C22 C10 H10 120.003 no . . .
C6 C12 H12 119.181 no . . .
C14 C12 H12 119.189 no . . .
C3 C13 H13 121.360 no . . .
C7 C13 H13 121.355 no . . .
C11 C14 H14 119.903 no . . .
C12 C14 H14 119.911 no . . .
C1 C15 H15 119.630 no . . .
C20 C15 H15 119.630 no . . .
O19 C16 H16A 109.474 no . . .
O19 C16 H16B 109.466 no . . .
O19 C16 H16C 109.466 no . . .
H16A C16 H16B 109.481 no . . .
H16A C16 H16C 109.470 no . . .
H16B C16 H16C 109.470 no . . .
C1 C17 H17 120.140 no . . .
C18 C17 H17 120.163 no . . .
C17 C18 H18 119.977 no . . .
C21 C18 H18 119.981 no . . .
C15 C20 H20 119.878 no . . .
C21 C20 H20 119.867 no . . .
C18 C21 H21 119.954 no . . .
C20 C21 H21 119.958 no . . .
C4 C22 H22 119.724 no . . .
C10 C22 H22 119.722 no . . .
loop_
_geom_bond_atom_site_label_1
_geom_bond_atom_site_label_2
_geom_bond_distance
_geom_bond_publ_flag
_geom_bond_site_symmetry_1
_geom_bond_site_symmetry_2
As1 C1 1.970(5) yes . .
As1 C3 1.956(4) yes . .
As1 C5 1.947(5) yes . .
O19 C11 1.370(5) yes . .
O19 C16 1.413(10) yes . .
C1 C15 1.386(6) yes . .
C1 C17 1.377(7) yes . .
C2 C8 1.389(6) yes . .
C2 C11 1.376(8) yes . .
C3 C6 1.485(6) yes . .
C3 C13 1.349(6) yes . .
C4 C9 1.379(8) yes . .
C4 C22 1.373(8) yes . .
C5 C7 1.402(6) yes . .
C5 C9 1.402(6) yes . .
C6 C8 1.400(6) yes . .
C6 C12 1.394(6) yes . .
C7 C10 1.394(7) yes . .
C7 C13 1.456(6) yes . .
C10 C22 1.385(6) yes . .
C11 C14 1.389(6) yes . .
C12 C14 1.381(6) yes . .
C15 C20 1.389(8) yes . .
C17 C18 1.408(9) yes . .
C18 C21 1.381(10) yes . .
C20 C21 1.357(10) yes . .
C2 H2 0.930 no . .
C4 H4 0.930 no . .
C8 H8 0.930 no . .
C9 H9 0.930 no . .
C10 H10 0.930 no . .
C12 H12 0.930 no . .
C13 H13 0.930 no . .
C14 H14 0.930 no . .
C15 H15 0.930 no . .
C16 H16A 0.960 no . .
C16 H16B 0.960 no . .
C16 H16C 0.960 no . .
C17 H17 0.930 no . .
C18 H18 0.930 no . .
C20 H20 0.930 no . .
C21 H21 0.930 no . .
C22 H22 0.930 no . .
loop_
_geom_contact_atom_site_label_1
_geom_contact_atom_site_label_2
_geom_contact_distance
_geom_contact_publ_flag
_geom_contact_site_symmetry_1
_geom_contact_site_symmetry_2
As1 C12 3.279(6) no . .
C1 C21 2.781(9) no . .
C2 C12 2.759(7) no . .
C2 C16 2.826(7) no . .
C3 C15 3.349(7) no . .
C4 C7 2.781(7) no . .
C5 C15 3.320(8) no . .
C5 C22 2.768(8) no . .
C6 C11 2.811(7) no . .
C8 C13 3.034(7) no . .
C8 C14 2.759(7) no . .
C9 C10 2.787(8) no . .
C15 C18 2.749(10) no . .
C17 C20 2.767(8) no . .
O19 C16 3.260(9) no . 2_658
C3 C8 3.591(7) no . 2_657
C8 C3 3.591(7) no . 2_647
C16 O19 3.260(9) no . 2_648
As1 H9 3.1779 no . .
As1 H12 2.8091 no . .
As1 H15 3.0300 no . .
As1 H17 2.9253 no . .
O19 H2 2.6448 no . .
O19 H14 2.4804 no . .
C1 H12 3.2180 no . .
C1 H18 3.2449 no . .
C1 H20 3.2475 no . .
C2 H14 3.2264 no . .
C2 H16B 2.7991 no . .
C2 H16C 2.7216 no . .
C3 H8 2.6741 no . .
C3 H12 2.6567 no . .
C3 H15 3.0892 no . .
C4 H10 3.2318 no . .
C5 H4 3.2381 no . .
C5 H10 3.2522 no . .
C5 H13 3.2647 no . .
C5 H15 2.9164 no . .
C6 H2 3.2658 no . .
C6 H13 2.7533 no . .
C6 H14 3.2575 no . .
C7 H9 3.2727 no . .
C7 H15 3.1257 no . .
C7 H22 3.2448 no . .
C8 H12 3.2278 no . .
C8 H13 2.7945 no . .
C9 H22 3.2302 no . .
C10 H4 3.2306 no . .
C10 H13 2.7832 no . .
C11 H8 3.2313 no . .
C11 H12 3.2353 no . .
C11 H16A 3.1787 no . .
C11 H16B 2.6103 no . .
C11 H16C 2.6104 no . .
C12 H8 3.2280 no . .
C13 H8 2.7436 no . .
C13 H10 2.7442 no . .
C13 H15 3.1998 no . .
C14 H2 3.2278 no . .
C15 H17 3.2253 no . .
C15 H21 3.2215 no . .
C16 H2 2.5383 no . .
C17 H12 3.3391 no . .
C17 H15 3.2209 no . .
C17 H21 3.2559 no . .
C18 H20 3.2126 no . .
C20 H18 3.2097 no . .
C21 H15 3.2150 no . .
C21 H17 3.2535 no . .
C22 H9 3.2338 no . .
H2 H8 2.3078 no . .
H2 H16A 3.4881 no . .
H2 H16B 2.4206 no . .
H2 H16C 2.2463 no . .
H4 H9 2.3090 no . .
H4 H22 2.2927 no . .
H8 H13 2.2457 no . .
H10 H13 2.6647 no . .
H10 H22 2.3111 no . .
H12 H14 2.2986 no . .
H12 H17 3.1188 no . .
H15 H20 2.3119 no . .
H17 H18 2.3396 no . .
H18 H21 2.3103 no . .
H20 H21 2.2847 no . .
As1 H13 3.3251 no . 1_565
O19 H10 2.8021 no . 2_657
O19 H16A 2.6773 no . 2_658
O19 H16B 3.0196 no . 2_658
C1 H4 3.3704 no . 2_556
C1 H22 3.3120 no . 2_556
C2 H13 3.5795 no . 2_657
C2 H14 3.5086 no . 1_545
C2 H21 2.9708 no . 2_547
C3 H2 3.2480 no . 2_657
C3 H8 3.1164 no . 2_657
C4 H9 3.0462 no . 2_546
C4 H15 3.3415 no . 2_556
C4 H16C 3.1222 no . 2_657
C4 H20 3.4846 no . 2_556
C5 H2 3.3866 no . 2_657
C5 H16C 3.0892 no . 2_657
C6 H8 3.0639 no . 2_657
C6 H13 3.4565 no . 2_657
C6 H18 3.4195 no . 2_547
C7 H2 3.0451 no . 2_657
C7 H16C 3.1063 no . 2_657
C8 H8 3.5225 no . 2_657
C8 H12 3.3546 no . 1_545
C8 H21 3.2055 no . 2_547
C9 H9 3.2469 no . 2_546
C9 H10 3.5043 no . 1_565
C9 H16C 3.1027 no . 2_657
C10 H9 3.4945 no . 1_545
C10 H16C 3.1186 no . 2_657
C11 H10 3.0785 no . 2_657
C11 H13 3.4091 no . 2_657
C11 H18 3.5677 no . 2_547
C11 H21 3.3226 no . 2_547
C12 H8 3.5017 no . 1_565
C12 H8 3.4984 no . 2_657
C12 H13 3.2260 no . 2_657
C12 H18 3.1318 no . 2_547
C12 H21 3.3432 no . 2_557
C13 H2 2.9716 no . 2_657
C13 H8 3.5255 no . 2_657
C14 H2 3.3861 no . 1_565
C14 H10 3.4999 no . 2_657
C14 H13 3.2102 no . 2_657
C14 H18 3.2143 no . 2_547
C14 H20 3.3629 no . 2_557
C14 H21 3.3316 no . 2_557
C15 H4 3.1746 no . 2_546
C15 H17 3.3721 no . 1_545
C15 H22 3.1295 no . 2_556
C16 H10 3.3834 no . 2_657
C16 H16A 3.3321 no . 2_648
C16 H16A 3.5475 no . 2_658
C16 H16B 3.2636 no . 2_658
C17 H4 3.1597 no . 2_556
C17 H20 3.4031 no . 1_565
C17 H22 3.4952 no . 2_556
C18 H17 3.4875 no . 2_547
C18 H20 3.3744 no . 1_565
C18 H22 3.4909 no . 2_556
C20 H4 3.2837 no . 2_546
C20 H14 3.4301 no . 2_547
C20 H17 3.4077 no . 1_545
C20 H22 3.1374 no . 2_556
C21 H12 3.5002 no . 2_547
C21 H14 3.3738 no . 2_547
C21 H17 3.2314 no . 2_547
C21 H22 3.3257 no . 2_556
C22 H9 3.3129 no . 2_546
C22 H16C 3.1361 no . 2_657
H2 C3 3.2480 no . 2_647
H2 C5 3.3866 no . 2_647
H2 C7 3.0451 no . 2_647
H2 C13 2.9716 no . 2_647
H2 C14 3.3861 no . 1_545
H2 H12 3.3482 no . 1_545
H2 H13 3.2848 no . 2_647
H2 H14 2.8911 no . 1_545
H2 H21 3.1297 no . 2_547
H4 C1 3.3704 no . 2_546
H4 C15 3.1746 no . 2_556
H4 C17 3.1597 no . 2_546
H4 C20 3.2837 no . 2_556
H4 H9 3.2733 no . 2_546
H4 H15 2.5401 no . 2_556
H4 H17 3.1698 no . 2_546
H4 H20 2.7615 no . 2_556
H8 C3 3.1164 no . 2_647
H8 C6 3.0639 no . 2_647
H8 C8 3.5225 no . 2_647
H8 C12 3.5017 no . 1_545
H8 C12 3.4984 no . 2_647
H8 C13 3.5255 no . 2_647
H8 H12 2.8570 no . 1_545
H8 H21 3.4800 no . 2_547
H9 C4 3.0462 no . 2_556
H9 C9 3.2469 no . 2_556
H9 C10 3.4945 no . 1_565
H9 C22 3.3129 no . 2_556
H9 H4 3.2733 no . 2_556
H9 H9 3.5854 no . 2_546
H9 H9 3.5854 no . 2_556
H9 H10 3.1968 no . 1_565
H9 H15 3.2629 no . 2_556
H9 H22 3.5934 no . 1_565
H10 O19 2.8021 no . 2_647
H10 C9 3.5043 no . 1_545
H10 C11 3.0785 no . 2_647
H10 C14 3.4999 no . 2_647
H10 C16 3.3834 no . 2_647
H10 H9 3.1968 no . 1_545
H10 H14 3.5447 no . 2_647
H10 H16C 3.0855 no . 2_647
H12 C8 3.3546 no . 1_565
H12 C21 3.5002 no . 2_557
H12 H2 3.3482 no . 1_565
H12 H8 2.8570 no . 1_565
H12 H13 3.5965 no . 2_657
H12 H18 3.4162 no . 2_547
H12 H21 2.7430 no . 2_557
H13 As1 3.3251 no . 1_545
H13 C2 3.5795 no . 2_647
H13 C6 3.4565 no . 2_647
H13 C11 3.4091 no . 2_647
H13 C12 3.2260 no . 2_647
H13 C14 3.2102 no . 2_647
H13 H2 3.2848 no . 2_657
H13 H12 3.5965 no . 2_647
H13 H14 3.5779 no . 2_647
H14 C2 3.5086 no . 1_565
H14 C20 3.4301 no . 2_557
H14 C21 3.3738 no . 2_557
H14 H2 2.8911 no . 1_565
H14 H10 3.5447 no . 2_657
H14 H13 3.5779 no . 2_657
H14 H16A 2.9692 no . 2_658
H14 H16B 2.9820 no . 1_565
H14 H18 3.5389 no . 2_547
H14 H20 2.8409 no . 2_557
H14 H21 2.7273 no . 2_557
H15 C4 3.3415 no . 2_546
H15 H4 2.5401 no . 2_546
H15 H9 3.2629 no . 2_546
H15 H17 2.9790 no . 1_545
H15 H22 3.5267 no . 2_556
H16A O19 2.6773 no . 2_648
H16A C16 3.5475 no . 2_648
H16A C16 3.3321 no . 2_658
H16A H14 2.9692 no . 2_648
H16A H16A 3.3045 no . 2_648
H16A H16A 3.3045 no . 2_658
H16A H16B 2.6295 no . 2_658
H16B O19 3.0196 no . 2_648
H16B C16 3.2636 no . 2_648
H16B H14 2.9820 no . 1_545
H16B H16A 2.6295 no . 2_648
H16B H21 3.3610 no . 2_547
H16B H22 3.5560 no . 1_556
H16C C4 3.1222 no . 2_647
H16C C5 3.0892 no . 2_647
H16C C7 3.1063 no . 2_647
H16C C9 3.1027 no . 2_647
H16C C10 3.1186 no . 2_647
H16C C22 3.1361 no . 2_647
H16C H10 3.0855 no . 2_657
H17 C15 3.3721 no . 1_565
H17 C18 3.4875 no . 2_557
H17 C20 3.4077 no . 1_565
H17 C21 3.2314 no . 2_557
H17 H4 3.1698 no . 2_556
H17 H15 2.9790 no . 1_565
H17 H18 3.5636 no . 2_557
H17 H20 3.0550 no . 1_565
H17 H21 3.1253 no . 2_557
H18 C6 3.4195 no . 2_557
H18 C11 3.5677 no . 2_557
H18 C12 3.1318 no . 2_557
H18 C14 3.2143 no . 2_557
H18 H12 3.4162 no . 2_557
H18 H14 3.5389 no . 2_557
H18 H17 3.5636 no . 2_547
H18 H20 2.9890 no . 1_565
H20 C4 3.4846 no . 2_546
H20 C14 3.3629 no . 2_547
H20 C17 3.4031 no . 1_545
H20 C18 3.3744 no . 1_545
H20 H4 2.7615 no . 2_546
H20 H14 2.8409 no . 2_547
H20 H17 3.0550 no . 1_545
H20 H18 2.9890 no . 1_545
H20 H22 3.5310 no . 2_556
H21 C2 2.9708 no . 2_557
H21 C8 3.2055 no . 2_557
H21 C11 3.3226 no . 2_557
H21 C12 3.3432 no . 2_547
H21 C14 3.3316 no . 2_547
H21 H2 3.1297 no . 2_557
H21 H8 3.4800 no . 2_557
H21 H12 2.7430 no . 2_547
H21 H14 2.7273 no . 2_547
H21 H16B 3.3610 no . 2_557
H21 H17 3.1253 no . 2_547
H22 C1 3.3120 no . 2_546
H22 C15 3.1295 no . 2_546
H22 C17 3.4952 no . 2_546
H22 C18 3.4909 no . 2_546
H22 C20 3.1374 no . 2_546
H22 C21 3.3257 no . 2_546
H22 H9 3.5934 no . 1_545
H22 H15 3.5267 no . 2_546
H22 H16B 3.5560 no . 1_554
H22 H20 3.5310 no . 2_546
loop_
_geom_torsion_atom_site_label_1
_geom_torsion_atom_site_label_2
_geom_torsion_atom_site_label_3
_geom_torsion_atom_site_label_4
_geom_torsion
_geom_torsion_publ_flag
_geom_torsion_site_symmetry_1
_geom_torsion_site_symmetry_2
_geom_torsion_site_symmetry_3
_geom_torsion_site_symmetry_4
C1 As1 C3 C6 -75.0(3) no . . . .
C1 As1 C3 C13 106.0(3) no . . . .
C3 As1 C1 C15 -52.3(3) no . . . .
C3 As1 C1 C17 125.2(3) no . . . .
C1 As1 C5 C7 -102.0(3) no . . . .
C1 As1 C5 C9 83.0(4) no . . . .
C5 As1 C1 C15 35.1(3) no . . . .
C5 As1 C1 C17 -147.4(2) no . . . .
C3 As1 C5 C7 -5.0(3) no . . . .
C3 As1 C5 C9 180.0(4) no . . . .
C5 As1 C3 C6 -176.1(3) no . . . .
C5 As1 C3 C13 4.8(3) no . . . .
C16 O19 C11 C2 -7.0(7) no . . . .
C16 O19 C11 C14 173.4(4) no . . . .
As1 C1 C15 C20 178.5(2) no . . . .
As1 C1 C17 C18 -178.8(2) no . . . .
C15 C1 C17 C18 -1.2(6) no . . . .
C17 C1 C15 C20 1.0(6) no . . . .
C8 C2 C11 O19 178.5(4) no . . . .
C8 C2 C11 C14 -1.9(6) no . . . .
C11 C2 C8 C6 1.0(6) no . . . .
As1 C3 C6 C8 175.8(2) no . . . .
As1 C3 C6 C12 -3.2(5) no . . . .
As1 C3 C13 C7 -3.7(4) no . . . .
C6 C3 C13 C7 177.4(3) no . . . .
C13 C3 C6 C8 -5.3(6) no . . . .
C13 C3 C6 C12 175.7(4) no . . . .
C9 C4 C22 C10 -0.5(8) no . . . .
C22 C4 C9 C5 -0.2(8) no . . . .
As1 C5 C7 C10 -175.2(3) no . . . .
As1 C5 C7 C13 4.4(5) no . . . .
As1 C5 C9 C4 174.9(3) no . . . .
C7 C5 C9 C4 0.3(7) no . . . .
C9 C5 C7 C10 0.2(6) no . . . .
C9 C5 C7 C13 179.8(4) no . . . .
C3 C6 C8 C2 -178.5(3) no . . . .
C3 C6 C12 C14 177.9(3) no . . . .
C8 C6 C12 C14 -1.2(6) no . . . .
C12 C6 C8 C2 0.5(6) no . . . .
C5 C7 C10 C22 -0.9(7) no . . . .
C5 C7 C13 C3 -0.5(6) no . . . .
C10 C7 C13 C3 179.1(4) no . . . .
C13 C7 C10 C22 179.5(4) no . . . .
C7 C10 C22 C4 1.1(8) no . . . .
O19 C11 C14 C12 -179.1(4) no . . . .
C2 C11 C14 C12 1.2(7) no . . . .
C6 C12 C14 C11 0.3(7) no . . . .
C1 C15 C20 C21 -0.6(7) no . . . .
C1 C17 C18 C21 1.0(7) no . . . .
C17 C18 C21 C20 -0.6(8) no . . . .
C15 C20 C21 C18 0.4(8) no . . . .
