#------------------------------------------------------------------------------
#$Date: 2020-11-06 14:23:36 +0200 (Fri, 06 Nov 2020) $
#$Revision: 258867 $
#$URL: file:///home/coder/svn-repositories/cod/cif/7/70/52/7705280.cif $
#------------------------------------------------------------------------------
#
# This file is available in the Crystallography Open Database (COD),
# http://www.crystallography.net/
#
# All data on this site have been placed in the public domain by the
# contributors.
#
data_7705280
loop_
_publ_author_name
'Wu, Sijie'
'Wu, Zhou'
'Wang, Xiao-Li'
'Wang, Xiang'
'Zhou, Rui'
'Li, Dong-Sheng'
'Wu, Tao'
_publ_section_title
;
 Two new layered metal chalcogenide frameworks as photocatalysts for
 highly efficient and selective dye degradation.
;
_journal_issue                   38
_journal_name_full
'Dalton transactions (Cambridge, England : 2003)'
_journal_page_first              13276
_journal_page_last               13281
_journal_paper_doi               10.1039/d0dt02454f
_journal_volume                  49
_journal_year                    2020
_chemical_formula_moiety         'In4 S12 Sn2'
_chemical_formula_sum            'In4 S12 Sn2'
_chemical_formula_weight         1081.38
_space_group_crystal_system      monoclinic
_space_group_IT_number           14
_space_group_name_Hall           '-P 2ybc'
_space_group_name_H-M_alt        'P 1 21/c 1'
_audit_creation_date             2019-09-02
_audit_creation_method
;
Olex2 1.2
(compiled 2018.05.29 svn.r3508 for OlexSys, GUI svn.r5506)
;
_audit_update_record
;
2020-05-31 deposited with the CCDC.	2020-08-26 downloaded from the CCDC.
;
_cell_angle_alpha                90
_cell_angle_beta                 91.933(2)
_cell_angle_gamma                90
_cell_formula_units_Z            4
_cell_length_a                   13.0435(7)
_cell_length_b                   35.1784(17)
_cell_length_c                   10.3323(5)
_cell_measurement_reflns_used    9879
_cell_measurement_temperature    120(2)
_cell_measurement_theta_max      25.3537
_cell_measurement_theta_min      2.2870
_cell_volume                     4738.3(4)
_computing_molecular_graphics    'Olex2 (Dolomanov et al., 2009)'
_computing_publication_material  'Olex2 (Dolomanov et al., 2009)'
_computing_structure_refinement  'XL (Sheldrick, 2008)'
_diffrn_ambient_temperature      119.89
_diffrn_measured_fraction_theta_full 0.994
_diffrn_measured_fraction_theta_max 0.992
_diffrn_measurement_device_type  'Bruker APEX-II CCD'
_diffrn_measurement_method       '\f and \w scans'
_diffrn_radiation_type           MoK\a
_diffrn_radiation_wavelength     0.71073
_diffrn_reflns_av_R_equivalents  0.0728
_diffrn_reflns_av_unetI/netI     0.0518
_diffrn_reflns_Laue_measured_fraction_full 0.994
_diffrn_reflns_Laue_measured_fraction_max 0.992
_diffrn_reflns_limit_h_max       15
_diffrn_reflns_limit_h_min       -15
_diffrn_reflns_limit_k_max       42
_diffrn_reflns_limit_k_min       -42
_diffrn_reflns_limit_l_max       12
_diffrn_reflns_limit_l_min       -12
_diffrn_reflns_number            46448
_diffrn_reflns_point_group_measured_fraction_full 0.994
_diffrn_reflns_point_group_measured_fraction_max 0.992
_diffrn_reflns_theta_full        25.242
_diffrn_reflns_theta_max         25.402
_diffrn_reflns_theta_min         1.944
_exptl_absorpt_coefficient_mu    3.472
_exptl_crystal_colour            colourless
_exptl_crystal_density_diffrn    1.516
_exptl_crystal_description       prism
_exptl_crystal_F_000             1952
_refine_diff_density_max         1.251
_refine_diff_density_min         -1.283
_refine_diff_density_rms         0.169
_refine_ls_extinction_method     none
_refine_ls_goodness_of_fit_ref   1.042
_refine_ls_hydrogen_treatment    undef
_refine_ls_matrix_type           full
_refine_ls_number_parameters     163
_refine_ls_number_reflns         8658
_refine_ls_number_restraints     0
_refine_ls_restrained_S_all      1.042
_refine_ls_R_factor_all          0.0580
_refine_ls_R_factor_gt           0.0423
_refine_ls_shift/su_max          0.001
_refine_ls_shift/su_mean         0.000
_refine_ls_structure_factor_coef Fsqd
_refine_ls_weighting_details
'w=1/[\s^2^(Fo^2^)+(0.0481P)^2^+31.0208P] where P=(Fo^2^+2Fc^2^)/3'
_refine_ls_weighting_scheme      calc
_refine_ls_wR_factor_gt          0.1095
_refine_ls_wR_factor_ref         0.1189
_reflns_Friedel_coverage         0.000
_reflns_number_gt                6761
_reflns_number_total             8658
_reflns_threshold_expression     'I > 2\s(I)'
_cod_data_source_file            d0dt02454f2.cif
_cod_data_source_block           SOF-30
_cod_depositor_comments
'Adding full bibliography for 7705280--7705281.cif.'
_cod_database_code               7705280
_shelx_shelxl_version_number     2014/7
_shelx_space_group_comment
;
The symmetry employed for this shelxl refinement is uniquely defined
by the following loop, which should always be used as a source of
symmetry information in preference to the above space-group names.
They are only intended as comments.
;
_olex2_refinement_description
;
;
_shelx_res_file
;
    aa_a_sq.res created by SHELXL-2014/7

TITL AA_a.res in P2(1)/c
REM Old TITL AA in P2(1)/c
REM SHELXT solution in P2(1)/c
REM R1 0.178, Rweak 0.009, Alpha 0.032, Orientation as input
REM Formula found by SHELXT: C22 N7 S24 Sn12
CELL 0.71073 13.0435 35.1784 10.3323 90 91.933 90
ZERR 4 0.0007 0.0017 0.0005 0 0.002 0
LATT 1
SYMM -X,0.5+Y,0.5-Z
SFAC In S Sn
UNIT 16 48 8

L.S. 5 0 612
PLAN  50
TEMP -153.26
ABIN
fmap 2
acta
OMIT 0 3 1
OMIT 0 0 2
OMIT 1 4 1
OMIT 1 3 2
OMIT 1 0 2
OMIT -1 7 2
OMIT 8 28 5
OMIT 0 9 1
OMIT -4 2 8
OMIT 0 2 2
OMIT 2 2 0
OMIT 1 6 1
OMIT -2 1 1
OMIT -1 1 2
OMIT 0 4 2
OMIT 2 4 0
OMIT 1 7 0
OMIT -1 6 1
OMIT 1 7 2
OMIT 0 7 1
OMIT -2 0 2
OMIT 0 4 0
OMIT -2 2 2
OMIT 0 6 0
OMIT -3 4 1
OMIT 2 4 1
REM <olex2.extras>
REM <HklSrc "%.\\aa_a_sq.hkl">
REM </olex2.extras>

WGHT    0.048100   31.020800
FVAR       0.11065
IN3   1    0.217540    0.406300    0.850438    11.00000    0.03714    0.02852 =
         0.01819    0.00116   -0.00740    0.00000
IN1   1    0.530121    0.355066    0.386688    11.00000    0.02122    0.04436 =
         0.02397    0.00054   -0.00403   -0.00053
SN1   3    0.761615    0.363948    0.515113    11.00000    0.01940    0.04329 =
         0.02820    0.00349   -0.00223    0.00104
IN2   1    0.268334    0.365025    0.522257    11.00000    0.02639    0.04787 =
         0.01986   -0.00002   -0.00094   -0.00158
IN4   1   -0.004750    0.374061    0.639700    11.00000    0.02061    0.04884 =
         0.03037    0.00608   -0.00499   -0.00003
SN2   3    0.309311    0.392355    0.149945    11.00000    0.04658    0.03982 =
         0.01880    0.00108   -0.00787   -0.00037
S10   2    0.229108    0.349693    0.987271    11.00000    0.04034    0.02801 =
         0.02585    0.00351   -0.00257   -0.00050
S8    2    0.391494    0.317040    0.465784    11.00000    0.03015    0.04464 =
         0.03538   -0.00038    0.00580   -0.00397
S4    2    0.609048    0.401382    0.538693    11.00000    0.03046    0.04405 =
         0.04532   -0.01442   -0.00018    0.00585
S1    2    0.907512    0.398036    0.440596    11.00000    0.02983    0.06177 =
         0.02861    0.01589   -0.00007   -0.00513
S12   2    0.129793    0.328076    0.610965    11.00000    0.02517    0.04809 =
         0.05905    0.00482    0.00911    0.00221
S9    2    0.338485    0.409825    0.679359    11.00000    0.05097    0.06259 =
         0.02746   -0.00711    0.00491   -0.02617
S6    2    0.284697    0.449981    0.018006    11.00000    0.09706    0.03005 =
         0.03184   -0.00071   -0.02003   -0.00795
S3    2    0.687525    0.315476    0.377349    11.00000    0.03715    0.04714 =
         0.05625   -0.01687    0.00120    0.00570
S11   2    0.045435    0.424718    0.789262    11.00000    0.05154    0.05130 =
         0.05390   -0.01108   -0.01981    0.01837
S2    2    0.841025    0.340444    0.713208    11.00000    0.02698    0.09447 =
         0.04165    0.03345   -0.00251   -0.00787
S5    2    0.491606    0.381645    0.174044    11.00000    0.04073    0.11598 =
         0.03189    0.03076   -0.00958   -0.01899
S7    2    0.201497    0.399717    0.333648    11.00000    0.07569    0.10233 =
         0.02362    0.00695    0.00310    0.04477
HKLF 4

REM  AA_a.res in P2(1)/c
REM R1 =  0.0423 for    6761 Fo > 4sig(Fo)  and  0.0580 for all    8658 data
REM    163 parameters refined using      0 restraints

END

WGHT      0.0481     31.0236

REM Highest difference peak  1.251,  deepest hole -1.283,  1-sigma level  0.169
Q1    1   0.2692  0.4182  0.3512  11.00000  0.05    1.25
Q2    1   0.3392  0.4326  0.5679  11.00000  0.05    1.02
Q3    1   0.2586  0.4291  0.6202  11.00000  0.05    0.89
Q4    1   0.3731  0.4463  0.6605  11.00000  0.05    0.86
Q5    1   0.2680  0.3150  1.0474  11.00000  0.05    0.84
Q6    1   0.5379  0.3206  0.4000  11.00000  0.05    0.82
Q7    1   0.0188  0.4351  0.6362  11.00000  0.05    0.82
Q8    1   0.0923  0.4586  0.7771  11.00000  0.05    0.81
Q9    1   0.6805  0.2932  0.2631  11.00000  0.05    0.80
Q10   1   0.8002  0.3099  0.7189  11.00000  0.05    0.80
Q11   1   0.6200  0.4362  0.4795  11.00000  0.05    0.80
Q12   1   0.3177  0.4207  0.1025  11.00000  0.05    0.80
Q13   1   0.0883  0.2909  0.6012  11.00000  0.05    0.79
Q14   1   0.6857  0.3276  0.2830  11.00000  0.05    0.77
Q15   1   0.5833  0.4382  0.5402  11.00000  0.05    0.76
Q16   1  -0.0077  0.3445  0.5970  11.00000  0.05    0.76
Q17   1   0.1415  0.2936  0.6346  11.00000  0.05    0.76
Q18   1   0.9330  0.4350  0.4857  11.00000  0.05    0.74
Q19   1   0.8577  0.3180  0.8395  11.00000  0.05    0.74
Q20   1   0.5443  0.3449  0.2329  11.00000  0.05    0.73
Q21   1   0.2937  0.3624  0.3727  11.00000  0.05    0.72
Q22   1   0.5228  0.3380  0.2174  11.00000  0.05    0.71
Q23   1   0.2553  0.3881  0.4161  11.00000  0.05    0.71
Q24   1   0.1983  0.4416  0.3538  11.00000  0.05    0.71
Q25   1   0.3120  0.3935  0.3019  11.00000  0.05    0.70
Q26   1   0.3873  0.2850  0.3931  11.00000  0.05    0.70
Q27   1   0.2938  0.4035  0.5617  11.00000  0.05    0.69
Q28   1   0.0296  0.3377  0.7267  11.00000  0.05    0.68
Q29   1   0.2080  0.4555  0.8416  11.00000  0.05    0.68
Q30   1   0.2094  0.3121  0.9697  11.00000  0.05    0.67
Q31   1   0.8599  0.3041  0.7431  11.00000  0.05    0.66
Q32   1   0.2199  0.3930  1.0314  11.00000  0.05    0.64
Q33   1   0.2649  0.3382  0.5071  11.00000  0.05    0.64
Q34   1   0.3009  0.4253  0.1563  11.00000  0.05    0.64
Q35   1   0.2153  0.4461  0.0385  11.00000  0.05    0.63
Q36   1   0.5532  0.3923  0.4058  11.00000  0.05    0.63
Q37   1   0.0166  0.3666  0.5052  11.00000  0.05    0.63
Q38   1   0.8841  0.4394  0.4748  11.00000  0.05    0.63
Q39   1   0.2858  0.4174 -0.0218  11.00000  0.05    0.63
Q40   1   0.7419  0.3957  0.4961  11.00000  0.05    0.63
Q41   1   0.3763  0.3910  0.2225  11.00000  0.05    0.62
Q42   1   0.2424  0.4177  0.5155  11.00000  0.05    0.62
Q43   1   0.9727  0.4254  0.3697  11.00000  0.05    0.62
Q44   1   0.1714  0.3170  0.7635  11.00000  0.05    0.61
Q45   1   0.2224  0.3755  0.7605  11.00000  0.05    0.61
Q46   1   0.8609  0.4360  0.4643  11.00000  0.05    0.61
Q47   1   0.4801  0.3737  0.6283  11.00000  0.05    0.61
Q48   1  -0.0032  0.4556  0.7318  11.00000  0.05    0.61
Q49   1  -0.0119  0.3656  0.5572  11.00000  0.05    0.60
Q50   1   0.2396  0.4431 -0.0890  11.00000  0.05    0.60
;
_shelx_res_checksum              88857
_shelx_fab_file
;
    0    0    2   -188.80      0.00
    0    0    4    -24.68      0.00
    0    0    6     17.89      0.00
    0    0    8     -2.64      0.00
    0    0   10     -9.86      0.00
    0    0   12      4.66      0.00
    0    1    2    -33.96      0.00
    0    1    3     60.60      0.00
    0    1    4     -3.11      0.00
    0    1    5     -3.06      0.00
    0    1    6     -1.54      0.00
    0    1    7     -0.13      0.00
    0    1    8     -2.12      0.00
    0    1    9      2.90      0.00
    0    1   10      9.05      0.00
    0    1   11      1.13      0.00
    0    1   12      8.13      0.00
    0    2    2     90.92      0.00
    0    2    3     16.84      0.00
    0    2    4     -4.89      0.00
    0    2    5      7.92      0.00
    0    2    6     -4.58      0.00
    0    2    7      1.96      0.00
    0    2    8     -3.57      0.00
    0    2    9     -4.47      0.00
    0    2   10      8.53      0.00
    0    2   11      2.00      0.00
    0    2   12      2.62      0.00
    0    3    1    519.55      0.00
    0    3    2     70.09      0.00
    0    3    3    -68.58      0.00
    0    3    4    -17.80      0.00
    0    3    5      2.60      0.00
    0    3    6     -5.35      0.00
    0    3    7      6.79      0.00
    0    3    8      5.03      0.00
    0    3    9    -12.23      0.00
    0    3   10     -5.57      0.00
    0    3   11      2.49      0.00
    0    3   12     -6.06      0.00
    0    4    0   1194.26      0.00
    0    4    1      7.47      0.00
    0    4    2   -167.55      0.00
    0    4    3    -40.61      0.00
    0    4    4     34.59      0.00
    0    4    5     -8.67      0.00
    0    4    6     13.05      0.00
    0    4    7     -1.73      0.00
    0    4    8     -0.50      0.00
    0    4    9      8.11      0.00
    0    4   10      0.22      0.00
    0    4   11     -0.35      0.00
    0    4   12     -4.56      0.00
    0    5    1     15.95      0.00
    0    5    2      7.70      0.00
    0    5    3     68.92      0.00
    0    5    4     32.38      0.00
    0    5    5    -25.17      0.00
    0    5    6     13.98      0.00
    0    5    7     -3.14      0.00
    0    5    8    -11.63      0.00
    0    5    9      8.35      0.00
    0    5   10      4.58      0.00
    0    5   11      1.46      0.00
    0    5   12      6.69      0.00
    0    6    0    135.72      0.00
    0    6    1     35.22      0.00
    0    6    2     43.40      0.00
    0    6    3     19.93      0.00
    0    6    4    -20.18      0.00
    0    6    5    -28.35      0.00
    0    6    6     10.15      0.00
    0    6    7      8.23      0.00
    0    6    8     -7.72      0.00
    0    6    9     -0.36      0.00
    0    6   10     -5.96      0.00
    0    6   11     -4.30      0.00
    0    6   12      5.45      0.00
    0    7    1    256.08      0.00
    0    7    2     56.79      0.00
    0    7    3    -54.24      0.00
    0    7    4    -43.51      0.00
    0    7    5     12.40      0.00
    0    7    6     -6.49      0.00
    0    7    7     14.52      0.00
    0    7    8      8.39      0.00
    0    7    9     -4.16      0.00
    0    7   10      5.19      0.00
    0    7   11     -5.10      0.00
    0    7   12    -10.34      0.00
    0    8    0    219.53      0.00
    0    8    1     67.96      0.00
    0    8    2    -45.88      0.00
    0    8    3    -27.47      0.00
    0    8    4     34.32      0.00
    0    8    5     39.24      0.00
    0    8    6    -11.22      0.00
    0    8    7    -15.70      0.00
    0    8    8      2.92      0.00
    0    8    9     -5.61      0.00
    0    8   10      3.50      0.00
    0    8   11     -0.44      0.00
    0    8   12     -6.21      0.00
    0    9    1     84.60      0.00
    0    9    2    -38.47      0.00
    0    9    3    -15.92      0.00
    0    9    4      7.63      0.00
    0    9    5     -2.66      0.00
    0    9    6      3.41      0.00
    0    9    7      3.30      0.00
    0    9    8      7.14      0.00
    0    9    9     -5.02      0.00
    0    9   10     -2.25      0.00
    0    9   11      3.51      0.00
    0    9   12     -1.16      0.00
    0   10    0    -29.25      0.00
    0   10    1     27.51      0.00
    0   10    2     -7.04      0.00
    0   10    3     65.64      0.00
    0   10    4      2.50      0.00
    0   10    5    -64.22      0.00
    0   10    6     15.02      0.00
    0   10    7      7.95      0.00
    0   10    8      1.05      0.00
    0   10    9      7.02      0.00
    0   10   10     -7.98      0.00
    0   10   11     -9.42      0.00
    0   10   12     -0.58      0.00
    0   11    1     36.86      0.00
    0   11    2     13.20      0.00
    0   11    3      0.04      0.00
    0   11    4    -29.31      0.00
    0   11    5     -4.21      0.00
    0   11    6     13.82      0.00
    0   11    7      2.12      0.00
    0   11    8     -8.20      0.00
    0   11    9      6.87      0.00
    0   11   10      2.82      0.00
    0   11   11    -10.14      0.00
    0   11   12     -8.95      0.00
    0   12    0      9.54      0.00
    0   12    1     41.87      0.00
    0   12    2     -6.83      0.00
    0   12    3    -37.73      0.00
    0   12    4     -6.72      0.00
    0   12    5     40.98      0.00
    0   12    6      8.26      0.00
    0   12    7     -9.92      0.00
    0   12    8     -1.85      0.00
    0   12    9     -2.12      0.00
    0   12   10     -1.87      0.00
    0   12   11      0.57      0.00
    0   13    1     22.11      0.00
    0   13    2     17.38      0.00
    0   13    3    -18.70      0.00
    0   13    4     -1.21      0.00
    0   13    5     20.37      0.00
    0   13    6    -20.64      0.00
    0   13    7      3.35      0.00
    0   13    8     15.87      0.00
    0   13    9     -4.81      0.00
    0   13   10     -5.74      0.00
    0   13   11      0.97      0.00
    0   14    0    -56.17      0.00
    0   14    1      3.29      0.00
    0   14    2     29.81      0.00
    0   14    3     35.42      0.00
    0   14    4     -1.40      0.00
    0   14    5    -36.78      0.00
    0   14    6     -8.92      0.00
    0   14    7      2.75      0.00
    0   14    8     11.50      0.00
    0   14    9      3.95      0.00
    0   14   10      0.07      0.00
    0   14   11    -10.04      0.00
    0   15    1     -1.48      0.00
    0   15    2      1.30      0.00
    0   15    3    -15.77      0.00
    0   15    4    -14.10      0.00
    0   15    5      6.63      0.00
    0   15    6     13.09      0.00
    0   15    7      3.31      0.00
    0   15    8     -3.98      0.00
    0   15    9     -6.42      0.00
    0   15   10      1.67      0.00
    0   15   11     -6.04      0.00
    0   16    0      0.88      0.00
    0   16    1     18.94      0.00
    0   16    2     23.05      0.00
    0   16    3      0.74      0.00
    0   16    4    -14.03      0.00
    0   16    5      7.45      0.00
    0   16    6     17.21      0.00
    0   16    7     -2.57      0.00
    0   16    8     -0.84      0.00
    0   16    9     -1.61      0.00
    0   16   10      2.08      0.00
    0   16   11     -3.49      0.00
    0   17    1     14.77      0.00
    0   17    2     23.75      0.00
    0   17    3      6.94      0.00
    0   17    4     -3.44      0.00
    0   17    5      2.88      0.00
    0   17    6    -19.84      0.00
    0   17    7     -8.01      0.00
    0   17    8     10.92      0.00
    0   17    9      9.80      0.00
    0   17   10     -4.89      0.00
    0   17   11      5.75      0.00
    0   18    0     -1.29      0.00
    0   18    1      8.03      0.00
    0   18    2     22.81      0.00
    0   18    3      2.92      0.00
    0   18    4      4.11      0.00
    0   18    5     -4.73      0.00
    0   18    6     -0.82      0.00
    0   18    7      4.75      0.00
    0   18    8      2.29      0.00
    0   18    9     -1.08      0.00
    0   18   10     -7.64      0.00
    0   18   11      3.90      0.00
    0   19    1     20.92      0.00
    0   19    2     21.08      0.00
    0   19    3    -20.47      0.00
    0   19    4      1.26      0.00
    0   19    5     -4.61      0.00
    0   19    6      2.57      0.00
    0   19    7      9.63      0.00
    0   19    8     -9.40      0.00
    0   19    9     -2.01      0.00
    0   19   10      3.78      0.00
    0   19   11     -7.77      0.00
    0   20    0     -9.50      0.00
    0   20    1      2.58      0.00
    0   20    2     44.02      0.00
    0   20    3     -3.86      0.00
    0   20    4     -1.83      0.00
    0   20    5     -9.12      0.00
    0   20    6      2.91      0.00
    0   20    7      0.27      0.00
    0   20    8      0.33      0.00
    0   20    9      2.37      0.00
    0   20   10      9.34      0.00
    0   21    1      9.27      0.00
    0   21    2     22.71      0.00
    0   21    3      2.69      0.00
    0   21    4     -2.67      0.00
    0   21    5      6.73      0.00
    0   21    6      0.13      0.00
    0   21    7     -7.10      0.00
    0   21    8      3.74      0.00
    0   21    9      6.46      0.00
    0   21   10     -4.23      0.00
    0   22    0     31.03      0.00
    0   22    1     14.36      0.00
    0   22    2     14.25      0.00
    0   22    3      7.36      0.00
    0   22    4     -8.65      0.00
    0   22    5     -3.44      0.00
    0   22    6      0.36      0.00
    0   22    7     -1.80      0.00
    0   22    8      1.81      0.00
    0   22    9     -2.56      0.00
    0   22   10     -4.05      0.00
    0   23    1      8.98      0.00
    0   23    2      4.86      0.00
    0   23    3      4.75      0.00
    0   23    4     -2.23      0.00
    0   23    5     -9.64      0.00
    0   23    6     -0.24      0.00
    0   23    7      9.63      0.00
    0   23    8     -4.89      0.00
    0   23    9      0.27      0.00
    0   23   10      9.91      0.00
    0   24    0    -10.72      0.00
    0   24    1      5.22      0.00
    0   24    2     15.65      0.00
    0   24    3      0.04      0.00
    0   24    4      5.87      0.00
    0   24    5     -3.00      0.00
    0   24    6      1.91      0.00
    0   24    7     -1.83      0.00
    0   24    8     -0.45      0.00
    0   24    9     -3.72      0.00
    0   24   10      9.69      0.00
    0   25    1      7.64      0.00
    0   25    2     13.92      0.00
    0   25    3     -4.06      0.00
    0   25    4     -5.02      0.00
    0   25    5      4.63      0.00
    0   25    6      3.00      0.00
    0   25    7     -5.42      0.00
    0   25    8      0.45      0.00
    0   25    9      6.32      0.00
    0   25   10     -0.98      0.00
    0   26    0      8.57      0.00
    0   26    1      9.16      0.00
    0   26    2     14.34      0.00
    0   26    3      5.49      0.00
    0   26    4    -11.38      0.00
    0   26    5     -7.10      0.00
    0   26    6      2.95      0.00
    0   26    7      0.11      0.00
    0   26    8      2.02      0.00
    0   26    9      4.45      0.00
    0   27    1     -6.32      0.00
    0   27    2      1.90      0.00
    0   27    3      9.43      0.00
    0   27    4     -0.37      0.00
    0   27    5     -1.47      0.00
    0   27    6     -1.87      0.00
    0   27    7      2.09      0.00
    0   27    8     -2.08      0.00
    0   27    9      3.80      0.00
    0   28    0     -0.70      0.00
    0   28    1     -0.11      0.00
    0   28    2     -0.16      0.00
    0   28    3      1.93      0.00
    0   28    4      6.01      0.00
    0   28    5      5.45      0.00
    0   28    6     -3.44      0.00
    0   28    7     -0.10      0.00
    0   28    8     -0.50      0.00
    0   28    9      3.89      0.00
    0   29    1     -0.11      0.00
    0   29    2     12.95      0.00
    0   29    3      2.93      0.00
    0   29    4    -12.89      0.00
    0   29    5     -1.33      0.00
    0   29    6     -3.34      0.00
    0   29    7      4.07      0.00
    0   29    8      3.60      0.00
    0   29    9      0.56      0.00
    0   30    0     -0.80      0.00
    0   30    1      6.69      0.00
    0   30    2      7.70      0.00
    0   30    3      8.17      0.00
    0   30    4     -6.46      0.00
    0   30    5     -3.50      0.00
    0   30    6      3.85      0.00
    0   30    7      2.58      0.00
    0   30    8      4.26      0.00
    0   31    1      1.20      0.00
    0   31    2     -5.30      0.00
    0   31    3      1.92      0.00
    0   31    4      5.11      0.00
    0   31    5      0.85      0.00
    0   31    6      2.46      0.00
    0   31    7     -8.48      0.00
    0   31    8     -0.18      0.00
    0   32    0    -10.58      0.00
    0   32    1      6.59      0.00
    0   32    2      3.14      0.00
    0   32    3     -0.55      0.00
    0   32    4      7.98      0.00
    0   32    5      0.62      0.00
    0   32    6     -5.53      0.00
    0   32    7      2.05      0.00
    0   32    8      5.02      0.00
    0   33    1      1.51      0.00
    0   33    2     17.41      0.00
    0   33    3      4.27      0.00
    0   33    4     -6.03      0.00
    0   33    5     -2.57      0.00
    0   33    6     -3.27      0.00
    0   33    7     11.66      0.00
    0   34    0     10.10      0.00
    0   34    1     -4.89      0.00
    0   34    2     -2.62      0.00
    0   34    3      4.02      0.00
    0   34    4     -4.87      0.00
    0   34    5      5.57      0.00
    0   34    6     -1.54      0.00
    0   34    7     -1.20      0.00
    0   35    1     -0.09      0.00
    0   35    2     -4.07      0.00
    0   35    3     10.03      0.00
    0   35    4     -0.69      0.00
    0   35    5     -3.58      0.00
    0   35    6      2.35      0.00
    0   35    7     -2.29      0.00
    0   36    0     -9.13      0.00
    0   36    1     14.79      0.00
    0   36    2      8.00      0.00
    0   36    3      5.74      0.00
    0   36    4      0.72      0.00
    0   36    5      1.42      0.00
    0   36    6     -3.33      0.00
    0   37    1      2.04      0.00
    0   37    2      4.35      0.00
    0   37    3      0.60      0.00
    0   37    4      1.03      0.00
    0   37    5      0.42      0.00
    0   37    6     -3.55      0.00
    0   38    0      3.13      0.00
    0   38    1     -1.08      0.00
    0   38    2     -4.69      0.00
    0   38    3     -2.12      0.00
    0   38    4      4.69      0.00
    0   38    5      4.36      0.00
    0   39    1     -0.82      0.00
    0   39    2      5.36      0.00
    0   39    3     13.48      0.00
    0   39    4     -2.38      0.00
    0   40    0     -5.70      0.00
    0   40    1      3.61      0.00
    0   40    2      5.11      0.00
    0   40    3      2.26      0.00
    0   40    4      0.47      0.00
    0   41    1      1.25      0.00
    0   41    2     -4.30      0.00
    0   41    3     -1.32      0.00
    0   42    0      1.40      0.00
    0   42    1      2.49      0.00
   -1    0   12      3.71      0.00
   -1    0   10     -3.10      0.00
   -1    0    8      2.20      0.00
   -1    0    4     -7.22      0.00
   -1    0    2      8.43      0.00
    1    0    2    120.86      0.00
    1    0    4     12.83      0.00
    1    0    6      5.98      0.00
    1    0    8    -13.16      0.00
    1    0   10      5.53      0.00
    1    0   12      3.64      0.00
   -1    1   12     -2.48      0.00
   -1    1   11     -3.99      0.00
   -1    1   10      2.99      0.00
   -1    1    9     -4.42      0.00
   -1    1    8      2.61      0.00
   -1    1    7     17.17      0.00
   -1    1    6      9.89      0.00
   -1    1    5     17.78      0.00
   -1    1    4     28.73      0.00
   -1    1    3      3.10      0.00
   -1    1    2   -116.77      0.00
    1    1    1     33.50      0.00
    1    1    2      5.83      0.00
    1    1    3    -12.19      0.00
    1    1    4     -9.78      0.00
    1    1    5     12.85      0.00
    1    1    6     -6.88      0.00
    1    1    7      1.69      0.00
    1    1    8    -13.34      0.00
    1    1    9     -1.97      0.00
    1    1   10     -1.39      0.00
    1    1   11      0.55      0.00
    1    1   12     -0.12      0.00
   -1    2   12     -3.37      0.00
   -1    2   11     -5.14      0.00
   -1    2   10     24.36      0.00
   -1    2    9      5.61      0.00
   -1    2    8     -2.76      0.00
   -1    2    7     -8.83      0.00
   -1    2    6     41.80      0.00
   -1    2    5    -20.47      0.00
   -1    2    4     14.98      0.00
   -1    2    3      2.27      0.00
   -1    2    2     17.63      0.00
    1    2    0    -46.04      0.00
    1    2    1     66.35      0.00
    1    2    2    -30.79      0.00
    1    2    3     -2.98      0.00
    1    2    4     -0.30      0.00
    1    2    5      0.46      0.00
    1    2    6     -2.27      0.00
    1    2    7      9.21      0.00
    1    2    8     17.40      0.00
    1    2    9      8.02      0.00
    1    2   10    -12.00      0.00
    1    2   11     -2.49      0.00
    1    2   12      2.25      0.00
   -1    3   12     -7.54      0.00
   -1    3   11      0.73      0.00
   -1    3   10      2.84      0.00
   -1    3    9      3.25      0.00
   -1    3    8     -9.61      0.00
   -1    3    7    -14.99      0.00
   -1    3    6      4.51      0.00
   -1    3    5    -14.84      0.00
   -1    3    4     14.90      0.00
   -1    3    3     15.72      0.00
   -1    3    2    -43.53      0.00
   -1    3    1     -9.57      0.00
    1    3    1     34.80      0.00
    1    3    2   -149.27      0.00
    1    3    3     57.88      0.00
    1    3    4      5.01      0.00
    1    3    5      8.59      0.00
    1    3    6     -1.05      0.00
    1    3    7    -12.56      0.00
    1    3    8      0.96      0.00
    1    3    9      0.04      0.00
    1    3   10     -1.67      0.00
    1    3   11      0.69      0.00
    1    3   12      2.49      0.00
   -1    4   12      6.85      0.00
   -1    4   11      5.72      0.00
   -1    4   10     -7.88      0.00
   -1    4    9      5.58      0.00
   -1    4    8     12.14      0.00
   -1    4    7      0.41      0.00
   -1    4    6     11.67      0.00
   -1    4    5     14.54      0.00
   -1    4    4     -1.76      0.00
   -1    4    3     -3.17      0.00
   -1    4    2     -7.05      0.00
   -1    4    1    -84.96      0.00
    1    4    0      1.94      0.00
    1    4    1   -132.72      0.00
    1    4    2     53.62      0.00
    1    4    3     39.56      0.00
    1    4    4     -3.54      0.00
    1    4    5     -6.54      0.00
    1    4    6     20.64      0.00
    1    4    7    -12.77      0.00
    1    4    8     -8.14      0.00
    1    4    9    -13.00      0.00
    1    4   10      5.97      0.00
    1    4   11      3.39      0.00
    1    4   12      8.65      0.00
   -1    5   12     -8.47      0.00
   -1    5   11     -7.97      0.00
   -1    5   10     -3.74      0.00
   -1    5    9     -8.71      0.00
   -1    5    8      2.49      0.00
   -1    5    7     19.53      0.00
   -1    5    6     -0.35      0.00
   -1    5    5     18.50      0.00
   -1    5    4    -26.08      0.00
   -1    5    3     -1.87      0.00
   -1    5    2     67.44      0.00
   -1    5    1     25.36      0.00
    1    5    0     62.08      0.00
    1    5    1     29.20      0.00
    1    5    2      3.28      0.00
    1    5    3    -43.31      0.00
    1    5    4    -20.73      0.00
    1    5    5     13.59      0.00
    1    5    6      3.83      0.00
    1    5    7      8.75      0.00
    1    5    8      4.69      0.00
    1    5    9      2.82      0.00
    1    5   10      1.46      0.00
    1    5   11     -2.09      0.00
    1    5   12     -4.31      0.00
   -1    6   12      0.91      0.00
   -1    6   11      3.59      0.00
   -1    6   10     23.79      0.00
   -1    6    9      3.02      0.00
   -1    6    8      1.68      0.00
   -1    6    7     -3.58      0.00
   -1    6    6     -3.84      0.00
   -1    6    5      5.67      0.00
   -1    6    4     15.87      0.00
   -1    6    3    -44.34      0.00
   -1    6    2    -31.53      0.00
   -1    6    1    198.59      0.00
    1    6    0     22.58      0.00
    1    6    1    107.97      0.00
    1    6    2     56.23      0.00
    1    6    3    -51.07      0.00
    1    6    4     32.80      0.00
    1    6    5     -2.14      0.00
    1    6    6    -28.37      0.00
    1    6    7      6.31      0.00
    1    6    8     10.64      0.00
    1    6    9      3.16      0.00
    1    6   10     -9.47      0.00
    1    6   11      1.65      0.00
    1    6   12     -6.82      0.00
   -1    7   12     -3.93      0.00
   -1    7   11      1.77      0.00
   -1    7   10      7.99      0.00
   -1    7    9     -3.77      0.00
   -1    7    8     -5.93      0.00
   -1    7    7     11.30      0.00
   -1    7    6      2.34      0.00
   -1    7    5     -0.42      0.00
   -1    7    4     47.93      0.00
   -1    7    3     32.18      0.00
   -1    7    2    -94.45      0.00
   -1    7    1      0.54      0.00
    1    7    0    136.14      0.00
    1    7    1    -64.71      0.00
    1    7    2   -139.25      0.00
    1    7    3     -5.73      0.00
    1    7    4     44.32      0.00
    1    7    5     21.58      0.00
    1    7    6     -5.02      0.00
    1    7    7      3.09      0.00
    1    7    8    -19.24      0.00
    1    7    9      1.70      0.00
    1    7   10     -0.52      0.00
    1    7   11      5.95      0.00
    1    7   12      4.34      0.00
   -1    8   12      4.00      0.00
   -1    8   11     -8.07      0.00
   -1    8   10     -8.15      0.00
   -1    8    9     11.45      0.00
   -1    8    8      9.47      0.00
   -1    8    7     -2.14      0.00
   -1    8    6     20.35      0.00
   -1    8    5    -17.50      0.00
   -1    8    4    -25.38      0.00
   -1    8    3     14.27      0.00
   -1    8    2     10.08      0.00
   -1    8    1     61.12      0.00
    1    8    0     27.87      0.00
    1    8    1    -40.47      0.00
    1    8    2     30.34      0.00
    1    8    3     46.71      0.00
    1    8    4     -0.47      0.00
    1    8    5    -30.24      0.00
    1    8    6     12.74      0.00
    1    8    7     13.05      0.00
    1    8    8     -7.16      0.00
    1    8    9      0.55      0.00
    1    8   10      9.36      0.00
    1    8   11     -0.56      0.00
    1    8   12      6.47      0.00
   -1    9   12     -0.60      0.00
   -1    9   11     -4.87      0.00
   -1    9   10     -3.35      0.00
   -1    9    9      3.15      0.00
   -1    9    8      3.20      0.00
   -1    9    7     -7.77      0.00
   -1    9    6     15.69      0.00
   -1    9    5     14.82      0.00
   -1    9    4    -52.91      0.00
   -1    9    3    -10.84      0.00
   -1    9    2     51.52      0.00
   -1    9    1     14.34      0.00
    1    9    0     25.54      0.00
    1    9    1      6.42      0.00
    1    9    2     -9.25      0.00
    1    9    3     15.86      0.00
    1    9    4     -9.42      0.00
    1    9    5      0.11      0.00
    1    9    6     -0.71      0.00
    1    9    7      4.61      0.00
    1    9    8      6.06      0.00
    1    9    9      4.07      0.00
    1    9   10      3.49      0.00
    1    9   11     -9.05      0.00
    1    9   12     -5.15      0.00
   -1   10   12     14.76      0.00
   -1   10   11     13.57      0.00
   -1   10   10     -0.77      0.00
   -1   10    9     -0.53      0.00
   -1   10    8      6.61      0.00
   -1   10    7     -7.12      0.00
   -1   10    6      0.43      0.00
   -1   10    5     28.09      0.00
   -1   10    4     19.84      0.00
   -1   10    3    -30.77      0.00
   -1   10    2      0.37      0.00
   -1   10    1      8.95      0.00
    1   10    0      0.50      0.00
    1   10    1     43.13      0.00
    1   10    2     29.22      0.00
    1   10    3    -31.55      0.00
    1   10    4      2.33      0.00
    1   10    5     26.67      0.00
    1   10    6     -0.64      0.00
    1   10    7    -11.12      0.00
    1   10    8      9.55      0.00
    1   10    9     -8.38      0.00
    1   10   10     -1.69      0.00
    1   10   11      7.93      0.00
    1   10   12     -3.59      0.00
   -1   11   12      0.06      0.00
   -1   11   11     -3.03      0.00
   -1   11   10      1.68      0.00
   -1   11    9      0.90      0.00
   -1   11    8      6.92      0.00
   -1   11    7     18.31      0.00
   -1   11    6     -9.30      0.00
   -1   11    5    -11.34      0.00
   -1   11    4      7.01      0.00
   -1   11    3     -3.52      0.00
   -1   11    2     19.49      0.00
   -1   11    1     26.02      0.00
    1   11    0     15.34      0.00
    1   11    1     -5.19      0.00
    1   11    2    -22.21      0.00
    1   11    3     -8.80      0.00
    1   11    4     32.16      0.00
    1   11    5     20.54      0.00
    1   11    6     -5.65      0.00
    1   11    7     -8.93      0.00
    1   11    8     -1.71      0.00
    1   11    9     -3.95      0.00
    1   11   10      0.43      0.00
    1   11   11      6.04      0.00
   -1   12   11    -11.90      0.00
   -1   12   10     -0.65      0.00
   -1   12    9      4.54      0.00
   -1   12    8     -4.82      0.00
   -1   12    7      6.40      0.00
   -1   12    6    -12.14      0.00
   -1   12    5    -14.37      0.00
   -1   12    4     23.41      0.00
   -1   12    3    -11.91      0.00
   -1   12    2     12.41      0.00
   -1   12    1     28.53      0.00
    1   12    0     -0.87      0.00
    1   12    1     19.30      0.00
    1   12    2    -23.24      0.00
    1   12    3     17.05      0.00
    1   12    4     23.51      0.00
    1   12    5    -33.46      0.00
    1   12    6     -7.33      0.00
    1   12    7     18.47      0.00
    1   12    8     -0.81      0.00
    1   12    9     12.84      0.00
    1   12   10      6.31      0.00
    1   12   11     -1.41      0.00
   -1   13   11     -4.10      0.00
   -1   13   10      1.76      0.00
   -1   13    9     -4.57      0.00
   -1   13    8     -6.79      0.00
   -1   13    7      1.75      0.00
   -1   13    6      8.22      0.00
   -1   13    5     11.55      0.00
   -1   13    4    -11.88      0.00
   -1   13    3    -23.01      0.00
   -1   13    2     17.20      0.00
   -1   13    1      5.25      0.00
    1   13    0     -9.15      0.00
    1   13    1      6.99      0.00
    1   13    2    -17.98      0.00
    1   13    3     30.65      0.00
    1   13    4     24.42      0.00
    1   13    5    -21.10      0.00
    1   13    6      2.65      0.00
    1   13    7     22.80      0.00
    1   13    8     -7.52      0.00
    1   13    9      0.70      0.00
    1   13   10      4.90      0.00
    1   13   11     -2.99      0.00
   -1   14   11      7.26      0.00
   -1   14   10     -6.67      0.00
   -1   14    9     -2.65      0.00
   -1   14    8      5.55      0.00
   -1   14    7     -3.29      0.00
   -1   14    6      5.85      0.00
   -1   14    5     10.61      0.00
   -1   14    4    -17.98      0.00
   -1   14    3    -19.36      0.00
   -1   14    2     38.03      0.00
   -1   14    1      3.60      0.00
    1   14    0      7.92      0.00
    1   14    1     35.59      0.00
    1   14    2     28.28      0.00
    1   14    3    -33.96      0.00
    1   14    4    -19.92      0.00
    1   14    5     30.84      0.00
    1   14    6     12.40      0.00
    1   14    7    -11.57      0.00
    1   14    8     -5.39      0.00
    1   14    9     -8.82      0.00
    1   14   10     -0.49      0.00
    1   14   11      5.33      0.00
   -1   15   11     -6.50      0.00
   -1   15   10     -3.66      0.00
   -1   15    9     10.96      0.00
   -1   15    8      7.98      0.00
   -1   15    7     -9.98      0.00
   -1   15    6     -3.05      0.00
   -1   15    5      2.74      0.00
   -1   15    4     -4.53      0.00
   -1   15    3     11.07      0.00
   -1   15    2     26.86      0.00
   -1   15    1      0.30      0.00
    1   15    0      1.01      0.00
    1   15    1     -9.54      0.00
    1   15    2     -0.83      0.00
    1   15    3      7.96      0.00
    1   15    4     -7.02      0.00
    1   15    5      5.15      0.00
    1   15    6    -10.14      0.00
    1   15    7    -20.27      0.00
    1   15    8     18.41      0.00
    1   15    9      0.38      0.00
    1   15   10     -0.83      0.00
    1   15   11      4.44      0.00
   -1   16   11     -2.32      0.00
   -1   16   10      0.22      0.00
   -1   16    9     -0.25      0.00
   -1   16    8     -6.73      0.00
   -1   16    7     -0.73      0.00
   -1   16    6     -9.11      0.00
   -1   16    5     -9.28      0.00
   -1   16    4     24.93      0.00
   -1   16    3      9.18      0.00
   -1   16    2     -6.63      0.00
   -1   16    1      0.19      0.00
    1   16    0      5.66      0.00
    1   16    1    -14.16      0.00
    1   16    2    -16.50      0.00
    1   16    3     31.19      0.00
    1   16    4     13.24      0.00
    1   16    5     -3.29      0.00
    1   16    6     -5.93      0.00
    1   16    7     -3.22      0.00
    1   16    8      7.35      0.00
    1   16    9     10.28      0.00
    1   16   10      4.13      0.00
    1   16   11     -0.34      0.00
   -1   17   11     -9.55      0.00
   -1   17   10     -4.68      0.00
   -1   17    9     -6.96      0.00
   -1   17    8     -4.13      0.00
   -1   17    7     11.54      0.00
   -1   17    6      7.71      0.00
   -1   17    5     -0.81      0.00
   -1   17    4     -5.22      0.00
   -1   17    3    -21.77      0.00
   -1   17    2      3.11      0.00
   -1   17    1     22.31      0.00
    1   17    0      3.67      0.00
    1   17    1     24.92      0.00
    1   17    2    -20.63      0.00
    1   17    3     19.37      0.00
    1   17    4     -7.80      0.00
    1   17    5    -28.00      0.00
    1   17    6      5.90      0.00
    1   17    7     20.05      0.00
    1   17    8     -3.10      0.00
    1   17    9     -4.73      0.00
    1   17   10      7.01      0.00
    1   17   11     -2.69      0.00
   -1   18   11      1.25      0.00
   -1   18   10     -1.36      0.00
   -1   18    9      0.00      0.00
   -1   18    8      0.35      0.00
   -1   18    7      3.30      0.00
   -1   18    6      4.85      0.00
   -1   18    5      2.56      0.00
   -1   18    4      3.66      0.00
   -1   18    3     -3.28      0.00
   -1   18    2     31.34      0.00
   -1   18    1      9.27      0.00
    1   18    0    -20.82      0.00
    1   18    1     23.24      0.00
    1   18    2      2.67      0.00
    1   18    3    -45.37      0.00
    1   18    4     -7.07      0.00
    1   18    5     12.82      0.00
    1   18    6     -5.63      0.00
    1   18    7     -0.59      0.00
    1   18    8     -5.93      0.00
    1   18    9     -7.50      0.00
    1   18   10      2.93      0.00
    1   18   11      1.06      0.00
   -1   19   11    -10.87      0.00
   -1   19   10     -3.05      0.00
   -1   19    9     16.58      0.00
   -1   19    8     -1.39      0.00
   -1   19    7    -18.49      0.00
   -1   19    6     -4.32      0.00
   -1   19    5      3.86      0.00
   -1   19    4     -0.28      0.00
   -1   19    3     -4.12      0.00
   -1   19    2     15.66      0.00
   -1   19    1     -6.02      0.00
    1   19    0    -15.16      0.00
    1   19    1     11.70      0.00
    1   19    2      7.41      0.00
    1   19    3      0.55      0.00
    1   19    4     -1.31      0.00
    1   19    5      3.07      0.00
    1   19    6     -8.96      0.00
    1   19    7    -14.40      0.00
    1   19    8      8.42      0.00
    1   19    9      1.56      0.00
    1   19   10     -5.30      0.00
    1   19   11      5.60      0.00
   -1   20   10     -2.63      0.00
   -1   20    9      2.95      0.00
   -1   20    8      1.38      0.00
   -1   20    7      9.99      0.00
   -1   20    6     13.58      0.00
   -1   20    5     -0.40      0.00
   -1   20    4     -2.75      0.00
   -1   20    3      7.29      0.00
   -1   20    2     -9.46      0.00
   -1   20    1    -11.50      0.00
    1   20    0     18.65      0.00
    1   20    1    -14.83      0.00
    1   20    2      3.94      0.00
    1   20    3      4.05      0.00
    1   20    4     -0.52      0.00
    1   20    5     -4.48      0.00
    1   20    6     -3.37      0.00
    1   20    7     -9.32      0.00
    1   20    8      5.44      0.00
    1   20    9     19.05      0.00
    1   20   10     -0.89      0.00
   -1   21   10      3.45      0.00
   -1   21    9    -12.88      0.00
   -1   21    8      3.82      0.00
   -1   21    7     10.07      0.00
   -1   21    6     -2.42      0.00
   -1   21    5      5.42      0.00
   -1   21    4     -7.91      0.00
   -1   21    3      3.47      0.00
   -1   21    2     10.62      0.00
   -1   21    1     11.75      0.00
    1   21    0      9.37      0.00
    1   21    1     -2.26      0.00
    1   21    2    -10.61      0.00
    1   21    3      3.90      0.00
    1   21    4    -13.32      0.00
    1   21    5    -23.14      0.00
    1   21    6      5.80      0.00
    1   21    7     14.77      0.00
    1   21    8      2.77      0.00
    1   21    9     -8.18      0.00
    1   21   10     -2.92      0.00
   -1   22   10      6.98      0.00
   -1   22    9      0.01      0.00
   -1   22    8      5.12      0.00
   -1   22    7      2.19      0.00
   -1   22    6     -4.11      0.00
   -1   22    5      1.44      0.00
   -1   22    4      1.16      0.00
   -1   22    3     18.46      0.00
   -1   22    2      8.68      0.00
   -1   22    1     -1.20      0.00
    1   22    0    -22.30      0.00
    1   22    1     -1.14      0.00
    1   22    2      8.73      0.00
    1   22    3    -21.97      0.00
    1   22    4      2.84      0.00
    1   22    5      3.73      0.00
    1   22    6     -9.01      0.00
    1   22    7      3.87      0.00
    1   22    8     -6.86      0.00
    1   22    9     -7.01      0.00
    1   22   10      5.59      0.00
   -1   23   10     -1.02      0.00
   -1   23    9      9.76      0.00
   -1   23    8      4.98      0.00
   -1   23    7     -8.33      0.00
   -1   23    6      6.97      0.00
   -1   23    5     10.02      0.00
   -1   23    4    -14.53      0.00
   -1   23    3     -7.70      0.00
   -1   23    2     -0.51      0.00
   -1   23    1     -3.36      0.00
    1   23    0    -15.48      0.00
    1   23    1     14.14      0.00
    1   23    2     14.74      0.00
    1   23    3     -9.26      0.00
    1   23    4     -6.86      0.00
    1   23    5      8.20      0.00
    1   23    6     -7.04      0.00
    1   23    7    -14.74      0.00
    1   23    8      0.90      0.00
    1   23    9      1.38      0.00
    1   23   10      3.12      0.00
   -1   24   10     -4.91      0.00
   -1   24    9     14.22      0.00
   -1   24    8     -1.62      0.00
   -1   24    7      2.08      0.00
   -1   24    6     14.23      0.00
   -1   24    5     -1.40      0.00
   -1   24    4     -2.11      0.00
   -1   24    3     10.43      0.00
   -1   24    2    -11.37      0.00
   -1   24    1     -1.38      0.00
    1   24    0      9.67      0.00
    1   24    1      3.41      0.00
    1   24    2     -5.46      0.00
    1   24    3     -2.55      0.00
    1   24    4     -1.36      0.00
    1   24    5     -0.02      0.00
    1   24    6      2.27      0.00
    1   24    7     -5.11      0.00
    1   24    8      8.27      0.00
    1   24    9     11.44      0.00
    1   24   10      4.00      0.00
   -1   25   10     -4.79      0.00
   -1   25    9     -6.09      0.00
   -1   25    8      3.44      0.00
   -1   25    7      5.40      0.00
   -1   25    6     -9.45      0.00
   -1   25    5     -3.17      0.00
   -1   25    4      4.86      0.00
   -1   25    3      7.26      0.00
   -1   25    2      4.43      0.00
   -1   25    1     -0.77      0.00
    1   25    0      4.08      0.00
    1   25    1     -2.39      0.00
    1   25    2     -4.91      0.00
    1   25    3     10.31      0.00
    1   25    4      1.85      0.00
    1   25    5    -16.63      0.00
    1   25    6      4.56      0.00
    1   25    7      8.61      0.00
    1   25    8      6.61      0.00
    1   25    9    -14.78      0.00
    1   25   10     -9.02      0.00
   -1   26    9      4.91      0.00
   -1   26    8     -2.78      0.00
   -1   26    7      5.58      0.00
   -1   26    6     -4.23      0.00
   -1   26    5      0.26      0.00
   -1   26    4      1.36      0.00
   -1   26    3      6.66      0.00
   -1   26    2     11.03      0.00
   -1   26    1     -6.62      0.00
    1   26    0    -21.91      0.00
    1   26    1     -2.96      0.00
    1   26    2      4.00      0.00
    1   26    3     -5.76      0.00
    1   26    4      9.29      0.00
    1   26    5     -0.86      0.00
    1   26    6     -2.42      0.00
    1   26    7     -0.50      0.00
    1   26    8     -7.17      0.00
    1   26    9      1.52      0.00
   -1   27    9      1.10      0.00
   -1   27    8      2.19      0.00
   -1   27    7     -5.91      0.00
   -1   27    6      8.45      0.00
   -1   27    5     11.02      0.00
   -1   27    4    -12.48      0.00
   -1   27    3     -5.38      0.00
   -1   27    2      5.07      0.00
   -1   27    1     -0.55      0.00
    1   27    0     -7.47      0.00
    1   27    1      4.24      0.00
    1   27    2     19.78      0.00
    1   27    3    -11.83      0.00
    1   27    4     -7.89      0.00
    1   27    5      5.87      0.00
    1   27    6     -1.41      0.00
    1   27    7    -14.91      0.00
    1   27    8      0.75      0.00
    1   27    9      8.04      0.00
   -1   28    9     -1.77      0.00
   -1   28    8      2.25      0.00
   -1   28    7     -0.25      0.00
   -1   28    6     -0.02      0.00
   -1   28    5     -5.27      0.00
   -1   28    4     -0.62      0.00
   -1   28    3     10.71      0.00
   -1   28    2     -9.50      0.00
   -1   28    1     -4.22      0.00
    1   28    0      3.48      0.00
    1   28    1     -1.90      0.00
    1   28    2      5.45      0.00
    1   28    3      4.27      0.00
    1   28    4     -1.43      0.00
    1   28    5      6.27      0.00
    1   28    6      3.40      0.00
    1   28    7      2.32      0.00
    1   28    8     10.10      0.00
    1   28    9      1.19      0.00
   -1   29    9     -5.84      0.00
   -1   29    8      1.78      0.00
   -1   29    7     -4.35      0.00
   -1   29    6     -6.36      0.00
   -1   29    5     -2.36      0.00
   -1   29    4      9.40      0.00
   -1   29    3      9.25      0.00
   -1   29    2    -10.33      0.00
   -1   29    1     -3.16      0.00
    1   29    0      7.36      0.00
    1   29    1     -5.50      0.00
    1   29    2     -4.93      0.00
    1   29    3     13.57      0.00
    1   29    4      6.23      0.00
    1   29    5     -0.37      0.00
    1   29    6     -1.81      0.00
    1   29    7     -2.73      0.00
    1   29    8     -0.46      0.00
    1   29    9     -4.14      0.00
   -1   30    8    -11.08      0.00
   -1   30    7     -3.36      0.00
   -1   30    6     -6.32      0.00
   -1   30    5     -0.83      0.00
   -1   30    4      2.45      0.00
   -1   30    3     -1.64      0.00
   -1   30    2     14.03      0.00
   -1   30    1      8.50      0.00
    1   30    0    -12.49      0.00
    1   30    1      0.12      0.00
    1   30    2      0.27      0.00
    1   30    3      2.85      0.00
    1   30    4      1.82      0.00
    1   30    5     -1.91      0.00
    1   30    6     -5.93      0.00
    1   30    7     -2.87      0.00
    1   30    8     -7.44      0.00
   -1   31    8     -5.20      0.00
   -1   31    7     -2.31      0.00
   -1   31    6      5.97      0.00
   -1   31    5      1.60      0.00
   -1   31    4     -1.86      0.00
   -1   31    3     -4.76      0.00
   -1   31    2      0.03      0.00
   -1   31    1      1.90      0.00
    1   31    0     -2.15      0.00
    1   31    1      3.21      0.00
    1   31    2     12.88      0.00
    1   31    3     -1.52      0.00
    1   31    4     -7.24      0.00
    1   31    5     -1.73      0.00
    1   31    6      4.93      0.00
    1   31    7     -4.29      0.00
    1   31    8     -4.51      0.00
   -1   32    8     -0.28      0.00
   -1   32    7     -0.39      0.00
   -1   32    6     -4.21      0.00
   -1   32    5     -3.89      0.00
   -1   32    4      6.73      0.00
   -1   32    3      2.78      0.00
   -1   32    2     -1.03      0.00
   -1   32    1    -11.64      0.00
    1   32    0     -3.48      0.00
    1   32    1     -6.32      0.00
    1   32    2     13.57      0.00
    1   32    3      2.86      0.00
    1   32    4     -2.59      0.00
    1   32    5      2.11      0.00
    1   32    6      2.71      0.00
    1   32    7     -0.92      0.00
    1   32    8      6.58      0.00
   -1   33    7    -10.70      0.00
   -1   33    6     -2.31      0.00
   -1   33    5      2.02      0.00
   -1   33    4     -0.84      0.00
   -1   33    3      3.26      0.00
   -1   33    2     -5.02      0.00
   -1   33    1      2.07      0.00
    1   33    0     -0.93      0.00
    1   33    1     -5.88      0.00
    1   33    2     -1.95      0.00
    1   33    3      8.55      0.00
    1   33    4      2.73      0.00
    1   33    5      2.42      0.00
    1   33    6      7.62      0.00
   -1   34    6     -3.53      0.00
   -1   34    5      2.91      0.00
   -1   34    4     -3.78      0.00
   -1   34    3     -7.08      0.00
   -1   34    2     10.91      0.00
   -1   34    1      5.93      0.00
    1   34    0     -4.43      0.00
    1   34    1     -2.62      0.00
    1   34    2      3.00      0.00
    1   34    3     -0.11      0.00
    1   34    4     -4.26      0.00
    1   34    5     -6.34      0.00
    1   34    6     -4.38      0.00
    1   34    7     -3.08      0.00
   -1   35    7      0.97      0.00
   -1   35    6      0.87      0.00
   -1   35    5     -1.13      0.00
   -1   35    4     -3.90      0.00
   -1   35    3      2.29      0.00
   -1   35    2     -3.75      0.00
   -1   35    1     -3.95      0.00
    1   35    0     -1.60      0.00
    1   35    1      1.99      0.00
    1   35    2      1.86      0.00
    1   35    3      2.44      0.00
    1   35    4     -5.12      0.00
    1   35    5     -9.41      0.00
    1   35    6      2.36      0.00
   -1   36    6      2.28      0.00
   -1   36    5     -5.30      0.00
   -1   36    4     -0.26      0.00
   -1   36    3      5.02      0.00
   -1   36    2      0.48      0.00
   -1   36    1     -6.42      0.00
    1   36    0      6.18      0.00
    1   36    1     -3.85      0.00
    1   36    2      6.37      0.00
    1   36    3      0.99      0.00
    1   36    4     -2.24      0.00
    1   36    5      7.10      0.00
    1   36    6     -8.47      0.00
   -1   37    6      0.27      0.00
   -1   37    5     -0.74      0.00
   -1   37    4     -6.38      0.00
   -1   37    3     -1.87      0.00
   -1   37    2     -5.25      0.00
   -1   37    1      3.74      0.00
    1   37    0     -2.65      0.00
    1   37    1     -5.00      0.00
    1   37    2     -8.67      0.00
    1   37    3      6.58      0.00
    1   37    4     -8.18      0.00
    1   37    5     -0.98      0.00
   -1   38    5     -1.85      0.00
   -1   38    4      3.65      0.00
   -1   38    3     -8.47      0.00
   -1   38    2      5.75      0.00
   -1   38    1      2.42      0.00
    1   38    0     -5.91      0.00
    1   38    1     -1.43      0.00
    1   38    2      3.76      0.00
    1   38    3      1.19      0.00
    1   38    4     -9.42      0.00
    1   38    5     -7.80      0.00
   -1   39    4     -2.32      0.00
   -1   39    3     -1.28      0.00
   -1   39    2     -1.68      0.00
   -1   39    1     -4.23      0.00
    1   39    0    -11.42      0.00
    1   39    1      3.26      0.00
    1   39    2     -1.21      0.00
    1   39    3      0.79      0.00
    1   39    4      0.89      0.00
   -1   40    4    -13.16      0.00
   -1   40    3      1.77      0.00
   -1   40    2      1.26      0.00
   -1   40    1     -5.99      0.00
    1   40    0      3.96      0.00
    1   40    1     -0.24      0.00
    1   40    2      0.93      0.00
    1   40    3     -4.99      0.00
    1   40    4      2.08      0.00
   -1   41    3      3.27      0.00
   -1   41    2     -5.54      0.00
   -1   41    1      1.66      0.00
    1   41    0     -1.22      0.00
    1   41    1     -1.81      0.00
    1   41    2     -9.82      0.00
    1   41    3      2.99      0.00
   -1   42    1      6.19      0.00
    1   42    0      5.56      0.00
    1   42    1      1.50      0.00
   -2    0   12      2.70      0.00
   -2    0   10     11.97      0.00
   -2    0    8     -7.23      0.00
   -2    0    6     32.40      0.00
   -2    0    4    -18.33      0.00
   -2    0    2   -149.04      0.00
    2    0    2     22.13      0.00
    2    0    4    -11.63      0.00
    2    0    6     27.75      0.00
    2    0    8      9.41      0.00
    2    0   10     -3.50      0.00
    2    0   12     -0.73      0.00
   -2    1   12     -1.19      0.00
   -2    1   11     -1.81      0.00
   -2    1   10    -10.25      0.00
   -2    1    9      2.61      0.00
   -2    1    8     12.45      0.00
   -2    1    7     -8.09      0.00
   -2    1    6    -11.76      0.00
   -2    1    5     -7.51      0.00
   -2    1    4     32.69      0.00
   -2    1    3     40.15      0.00
   -2    1    2     24.31      0.00
   -2    1    1     62.10      0.00
    2    1    1    -58.45      0.00
    2    1    2     11.13      0.00
    2    1    3      2.93      0.00
    2    1    4     -8.01      0.00
    2    1    5      8.36      0.00
    2    1    6      9.05      0.00
    2    1    7    -11.35      0.00
    2    1    8      6.25      0.00
    2    1    9      1.70      0.00
    2    1   10    -13.94      0.00
    2    1   11      1.38      0.00
    2    1   12      5.77      0.00
   -2    2   12    -24.63      0.00
   -2    2   11      4.90      0.00
   -2    2   10     -2.55      0.00
   -2    2    9      3.53      0.00
   -2    2    8     12.23      0.00
   -2    2    7     -9.05      0.00
   -2    2    6    -14.61      0.00
   -2    2    4    -10.33      0.00
   -2    2    3    -12.70      0.00
   -2    2    2    -21.40      0.00
   -2    2    1     54.16      0.00
    2    2    0    -87.06      0.00
    2    2    1     -2.67      0.00
    2    2    2     16.60      0.00
    2    2    3     -1.24      0.00
    2    2    4      6.97      0.00
    2    2    5     -1.49      0.00
    2    2    6     -8.48      0.00
    2    2    7     -2.66      0.00
    2    2    8    -15.31      0.00
    2    2    9      1.65      0.00
    2    2   10      4.13      0.00
    2    2   11      3.54      0.00
    2    2   12    -17.19      0.00
   -2    3   12     -7.66      0.00
   -2    3   11      8.53      0.00
   -2    3   10      4.52      0.00
   -2    3    9     -4.49      0.00
   -2    3    8     -5.76      0.00
   -2    3    7      7.50      0.00
   -2    3    6     17.53      0.00
   -2    3    5     11.69      0.00
   -2    3    4    -20.80      0.00
   -2    3    3    -53.07      0.00
   -2    3    2    -46.63      0.00
   -2    3    1     46.96      0.00
    2    3    0    -63.87      0.00
    2    3    1     43.20      0.00
    2    3    2      9.62      0.00
    2    3    3      6.42      0.00
    2    3    4     -5.00      0.00
    2    3    5     12.58      0.00
    2    3    6      6.37      0.00
    2    3    7     18.83      0.00
    2    3    8     -6.12      0.00
    2    3    9     -1.12      0.00
    2    3   10     11.16      0.00
    2    3   11      3.99      0.00
    2    3   12     -2.92      0.00
   -2    4   12     -4.36      0.00
   -2    4   11     -7.88      0.00
   -2    4   10     10.31      0.00
   -2    4    9      4.60      0.00
   -2    4    8     -6.99      0.00
   -2    4    7     -3.97      0.00
   -2    4    6     10.73      0.00
   -2    4    4     12.60      0.00
   -2    4    3     53.36      0.00
   -2    4    2    -18.34      0.00
   -2    4    1    -22.53      0.00
    2    4    0     98.70      0.00
    2    4    1     54.65      0.00
    2    4    2    -13.47      0.00
    2    4    3    -14.97      0.00
    2    4    4    -15.75      0.00
    2    4    5     -2.02      0.00
    2    4    6      5.60      0.00
    2    4    7      1.44      0.00
    2    4    8      4.55      0.00
    2    4    9     -7.89      0.00
    2    4   10      2.99      0.00
    2    4   11     -3.43      0.00
    2    4   12      0.21      0.00
   -2    5   12      7.54      0.00
   -2    5   11     -5.81      0.00
   -2    5   10      1.37      0.00
   -2    5    9      0.10      0.00
   -2    5    8     -0.87      0.00
   -2    5    7     -1.54      0.00
   -2    5    6    -19.36      0.00
   -2    5    5    -19.87      0.00
   -2    5    4      6.57      0.00
   -2    5    3     23.26      0.00
   -2    5    2     29.11      0.00
   -2    5    1     14.41      0.00
    2    5    0      3.34      0.00
    2    5    1    -44.32      0.00
    2    5    2    -46.89      0.00
    2    5    3     12.71      0.00
    2    5    4      2.38      0.00
    2    5    5     25.41      0.00
    2    5    6     15.66      0.00
    2    5    7    -23.48      0.00
    2    5    8      5.72      0.00
    2    5    9      3.71      0.00
    2    5   10     -7.33      0.00
    2    5   11      2.80      0.00
    2    5   12      2.88      0.00
   -2    6   12     -4.58      0.00
   -2    6   11     -6.95      0.00
   -2    6   10     -4.25      0.00
   -2    6    9     10.16      0.00
   -2    6    8     11.64      0.00
   -2    6    7      0.33      0.00
   -2    6    6      3.95      0.00
   -2    6    5      9.79      0.00
   -2    6    4    -30.06      0.00
   -2    6    3    -42.00      0.00
   -2    6    2    -14.27      0.00
   -2    6    1     45.56      0.00
    2    6    0     72.44      0.00
    2    6    1     20.22      0.00
    2    6    2    -13.29      0.00
    2    6    3     13.17      0.00
    2    6    4      4.49      0.00
    2    6    5    -20.80      0.00
    2    6    6     18.34      0.00
    2    6    7     -4.34      0.00
    2    6    8     -1.33      0.00
    2    6    9      3.79      0.00
    2    6   10     -4.96      0.00
    2    6   11      7.59      0.00
    2    6   12      1.14      0.00
   -2    7   12    -15.51      0.00
   -2    7   11     -1.21      0.00
   -2    7   10     -2.53      0.00
   -2    7    9     -5.95      0.00
   -2    7    8      4.23      0.00
   -2    7    7      1.61      0.00
   -2    7    6     -2.10      0.00
   -2    7    5     11.45      0.00
   -2    7    4     10.32      0.00
   -2    7    3      6.48      0.00
   -2    7    2     -0.82      0.00
   -2    7    1    -10.26      0.00
    2    7    0    -39.26      0.00
    2    7    1    -11.04      0.00
    2    7    2     59.55      0.00
    2    7    3     26.08      0.00
    2    7    4    -18.94      0.00
    2    7    5    -20.66      0.00
    2    7    6     12.00      0.00
    2    7    7     19.07      0.00
    2    7    8     -5.75      0.00
    2    7    9     -0.60      0.00
    2    7   10      1.03      0.00
    2    7   11      6.80      0.00
    2    7   12     -3.91      0.00
   -2    8   12      2.73      0.00
   -2    8   11     10.36      0.00
   -2    8   10      5.15      0.00
   -2    8    9      5.00      0.00
   -2    8    8      4.51      0.00
   -2    8    7    -13.11      0.00
   -2    8    6     -1.01      0.00
   -2    8    5     -6.52      0.00
   -2    8    4     -0.13      0.00
   -2    8    3     18.08      0.00
   -2    8    2     28.23      0.00
   -2    8    1     -2.51      0.00
    2    8    0     24.61      0.00
    2    8    1      9.22      0.00
    2    8    2      2.12      0.00
    2    8    3    -54.57      0.00
    2    8    4      2.84      0.00
    2    8    5     28.06      0.00
    2    8    6     -4.66      0.00
    2    8    7     -0.55      0.00
    2    8    8     -3.64      0.00
    2    8    9     -2.67      0.00
    2    8   10      9.25      0.00
    2    8   11     -6.94      0.00
    2    8   12     -2.92      0.00
   -2    9   12      1.75      0.00
   -2    9   11     -5.48      0.00
   -2    9   10     -7.74      0.00
   -2    9    9     -2.29      0.00
   -2    9    8      2.30      0.00
   -2    9    7      7.31      0.00
   -2    9    6     -7.16      0.00
   -2    9    5     -2.27      0.00
   -2    9    4     18.95      0.00
   -2    9    3    -26.11      0.00
   -2    9    2     12.67      0.00
   -2    9    1     45.68      0.00
    2    9    0     37.49      0.00
    2    9    1     15.49      0.00
    2    9    2    -17.30      0.00
    2    9    3    -24.65      0.00
    2    9    4      0.95      0.00
    2    9    5     32.72      0.00
    2    9    6    -13.17      0.00
    2    9    7     -1.30      0.00
    2    9    8      4.19      0.00
    2    9    9     -1.66      0.00
    2    9   10     -0.89      0.00
    2    9   11      7.06      0.00
    2    9   12     -3.84      0.00
   -2   10   12      2.05      0.00
   -2   10   11     -7.36      0.00
   -2   10   10     -0.56      0.00
   -2   10    9     15.50      0.00
   -2   10    8     -1.47      0.00
   -2   10    7      5.77      0.00
   -2   10    6      2.13      0.00
   -2   10    5    -12.73      0.00
   -2   10    4      7.79      0.00
   -2   10    3     -9.12      0.00
   -2   10    2     18.49      0.00
   -2   10    1     34.28      0.00
    2   10    0     25.54      0.00
    2   10    1    -19.19      0.00
    2   10    2    -23.17      0.00
    2   10    3     34.99      0.00
    2   10    4     15.24      0.00
    2   10    5    -22.34      0.00
    2   10    6      0.01      0.00
    2   10    7      4.07      0.00
    2   10    8      6.22      0.00
    2   10    9      2.10      0.00
    2   10   10     -5.93      0.00
    2   10   11      3.06      0.00
   -2   11   11      0.29      0.00
   -2   11   10     13.27      0.00
   -2   11    9     -2.99      0.00
   -2   11    8     -7.58      0.00
   -2   11    7      7.44      0.00
   -2   11    6     -0.92      0.00
   -2   11    5     -5.47      0.00
   -2   11    4     15.44      0.00
   -2   11    3     20.03      0.00
   -2   11    2      1.26      0.00
   -2   11    1    -20.01      0.00
    2   11    0    -13.95      0.00
    2   11    1      3.23      0.00
    2   11    2     40.65      0.00
    2   11    3     44.26      0.00
    2   11    4    -33.22      0.00
    2   11    5    -39.56      0.00
    2   11    6     16.62      0.00
    2   11    7     16.93      0.00
    2   11    8     -6.76      0.00
    2   11    9      0.38      0.00
    2   11   10      1.33      0.00
    2   11   11     -7.72      0.00
   -2   12   11      4.44      0.00
   -2   12   10     -1.46      0.00
   -2   12    9     -2.42      0.00
   -2   12    8      3.77      0.00
   -2   12    7     -2.54      0.00
   -2   12    6      1.08      0.00
   -2   12    5     13.93      0.00
   -2   12    4      6.30      0.00
   -2   12    3     -2.52      0.00
   -2   12    2      6.66      0.00
   -2   12    1     -8.14      0.00
    2   12    0     41.21      0.00
    2   12    1     12.46      0.00
    2   12    2    -25.50      0.00
    2   12    3    -37.97      0.00
    2   12    4     16.79      0.00
    2   12    5     23.65      0.00
    2   12    6      5.28      0.00
    2   12    7     -4.47      0.00
    2   12    8    -15.67      0.00
    2   12    9      2.04      0.00
    2   12   10     10.05      0.00
    2   12   11     -5.28      0.00
   -2   13   11     -3.78      0.00
   -2   13   10     -5.73      0.00
   -2   13    9      3.17      0.00
   -2   13    8     20.20      0.00
   -2   13    7      2.12      0.00
   -2   13    6    -21.17      0.00
   -2   13    5     -5.31      0.00
   -2   13    4      3.35      0.00
   -2   13    3     -1.92      0.00
   -2   13    2     18.46      0.00
   -2   13    1     35.49      0.00
    2   13    0     12.35      0.00
    2   13    1      4.57      0.00
    2   13    2     10.77      0.00
    2   13    3    -37.20      0.00
    2   13    4     -7.19      0.00
    2   13    5     19.67      0.00
    2   13    6    -11.63      0.00
    2   13    7      2.32      0.00
    2   13    8      7.32      0.00
    2   13    9     -1.96      0.00
    2   13   10     -2.07      0.00
    2   13   11      8.81      0.00
   -2   14   11     -0.80      0.00
   -2   14   10      4.15      0.00
   -2   14    9      7.95      0.00
   -2   14    8     -2.40      0.00
   -2   14    7     -6.26      0.00
   -2   14    6      6.88      0.00
   -2   14    5      2.84      0.00
   -2   14    4     -1.39      0.00
   -2   14    3     17.86      0.00
   -2   14    2      2.71      0.00
   -2   14    1      1.26      0.00
    2   14    0    -11.92      0.00
    2   14    1    -10.15      0.00
    2   14    2     23.00      0.00
    2   14    3     23.34      0.00
    2   14    4     28.03      0.00
    2   14    5    -11.01      0.00
    2   14    6    -21.51      0.00
    2   14    7      4.76      0.00
    2   14    8     13.58      0.00
    2   14    9      1.59      0.00
    2   14   10     -5.85      0.00
    2   14   11      0.27      0.00
   -2   15   11      4.49      0.00
   -2   15   10     13.37      0.00
   -2   15    9     -5.89      0.00
   -2   15    8     -3.84      0.00
   -2   15    7      6.01      0.00
   -2   15    6     14.23      0.00
   -2   15    5      3.09      0.00
   -2   15    4      0.36      0.00
   -2   15    3      3.78      0.00
   -2   15    2     -5.79      0.00
   -2   15    1      8.54      0.00
    2   15    0     -8.40      0.00
    2   15    1     13.46      0.00
    2   15    2     22.20      0.00
    2   15    3      3.61      0.00
    2   15    4    -33.55      0.00
    2   15    5    -21.03      0.00
    2   15    6     13.15      0.00
    2   15    7     13.40      0.00
    2   15    8     -2.23      0.00
    2   15    9     -4.78      0.00
    2   15   10      3.08      0.00
    2   15   11     -7.84      0.00
   -2   16   11      1.29      0.00
   -2   16   10     -8.67      0.00
   -2   16    9      1.96      0.00
   -2   16    8      9.60      0.00
   -2   16    7      0.55      0.00
   -2   16    6    -10.12      0.00
   -2   16    5    -15.38      0.00
   -2   16    4      2.84      0.00
   -2   16    3     24.95      0.00
   -2   16    2      3.19      0.00
   -2   16    1      6.86      0.00
    2   16    0     19.27      0.00
    2   16    1      6.66      0.00
    2   16    2    -29.36      0.00
    2   16    3     -5.46      0.00
    2   16    4     20.10      0.00
    2   16    5      4.49      0.00
    2   16    6      9.11      0.00
    2   16    7      6.21      0.00
    2   16    8    -11.17      0.00
    2   16    9     -0.93      0.00
    2   16   10      5.09      0.00
    2   16   11     -3.18      0.00
   -2   17   11      7.56      0.00
   -2   17   10      0.98      0.00
   -2   17    9      8.24      0.00
   -2   17    8     14.40      0.00
   -2   17    7      0.40      0.00
   -2   17    6     -6.78      0.00
   -2   17    5    -10.87      0.00
   -2   17    4      5.30      0.00
   -2   17    3      5.42      0.00
   -2   17    2      0.54      0.00
   -2   17    1     -3.31      0.00
    2   17    0     20.44      0.00
    2   17    1     16.35      0.00
    2   17    2      5.62      0.00
    2   17    3    -10.40      0.00
    2   17    4     -9.13      0.00
    2   17    5     17.21      0.00
    2   17    6      1.87      0.00
    2   17    7     -6.69      0.00
    2   17    8      4.29      0.00
    2   17    9      3.65      0.00
    2   17   10     -3.33      0.00
    2   17   11      0.29      0.00
   -2   18   11     -0.64      0.00
   -2   18   10      0.85      0.00
   -2   18    9     -1.53      0.00
   -2   18    8     -6.75      0.00
   -2   18    7     -5.47      0.00
   -2   18    6      3.14      0.00
   -2   18    5      7.56      0.00
   -2   18    4     -8.34      0.00
   -2   18    3      6.42      0.00
   -2   18    2      4.33      0.00
   -2   18    1      9.99      0.00
    2   18    0      5.13      0.00
    2   18    1      0.49      0.00
    2   18    2     -4.84      0.00
    2   18    3     16.78      0.00
    2   18    4      8.28      0.00
    2   18    5     -7.60      0.00
    2   18    6    -11.24      0.00
    2   18    7     -0.01      0.00
    2   18    8     12.60      0.00
    2   18    9      6.66      0.00
    2   18   10     -1.00      0.00
    2   18   11     -0.54      0.00
   -2   19   11     -3.00      0.00
   -2   19   10      8.09      0.00
   -2   19    9      0.06      0.00
   -2   19    8      4.31      0.00
   -2   19    7      9.95      0.00
   -2   19    6     -3.54      0.00
   -2   19    5     -6.94      0.00
   -2   19    4     -5.16      0.00
   -2   19    3     -3.82      0.00
   -2   19    2      7.94      0.00
   -2   19    1      2.49      0.00
    2   19    0    -13.63      0.00
    2   19    1     16.39      0.00
    2   19    2      4.99      0.00
    2   19    3      8.99      0.00
    2   19    4    -17.95      0.00
    2   19    5     -4.47      0.00
    2   19    6     12.23      0.00
    2   19    7     13.23      0.00
    2   19    8      3.68      0.00
    2   19    9     -4.55      0.00
    2   19   10      0.87      0.00
   -2   20   10     -2.95      0.00
   -2   20    9      3.11      0.00
   -2   20    8     10.52      0.00
   -2   20    7      5.11      0.00
   -2   20    6     -9.90      0.00
   -2   20    5     -7.62      0.00
   -2   20    4     -1.22      0.00
   -2   20    3     28.80      0.00
   -2   20    2      9.63      0.00
   -2   20    1     -7.51      0.00
    2   20    0     -7.31      0.00
    2   20    1     14.10      0.00
    2   20    2     -0.77      0.00
    2   20    3     -6.95      0.00
    2   20    4      6.20      0.00
    2   20    5     -1.88      0.00
    2   20    6     10.50      0.00
    2   20    7      9.59      0.00
    2   20    8      1.08      0.00
    2   20    9     -5.85      0.00
    2   20   10      6.54      0.00
   -2   21   10      0.75      0.00
   -2   21    9      6.36      0.00
   -2   21    8     -0.40      0.00
   -2   21    7    -10.23      0.00
   -2   21    6      2.44      0.00
   -2   21    5     -0.31      0.00
   -2   21    4     -4.48      0.00
   -2   21    3      5.48      0.00
   -2   21    2      0.90      0.00
   -2   21    1     -4.28      0.00
    2   21    0     -0.01      0.00
    2   21    1     13.55      0.00
    2   21    2      2.19      0.00
    2   21    3    -15.91      0.00
    2   21    4     -2.47      0.00
    2   21    5     13.40      0.00
    2   21    6      2.23      0.00
    2   21    7     -7.71      0.00
    2   21    8      2.07      0.00
    2   21    9      6.65      0.00
    2   21   10      4.88      0.00
   -2   22   10     -9.44      0.00
   -2   22    9     -1.84      0.00
   -2   22    8      3.59      0.00
   -2   22    7     -1.74      0.00
   -2   22    6      1.39      0.00
   -2   22    5     -5.48      0.00
   -2   22    4     -7.70      0.00
   -2   22    3      4.52      0.00
   -2   22    2      5.06      0.00
   -2   22    1      8.85      0.00
    2   22    0     11.81      0.00
    2   22    1     -2.58      0.00
    2   22    2     -3.53      0.00
    2   22    3      7.60      0.00
    2   22    4      5.83      0.00
    2   22    5     -0.19      0.00
    2   22    6     -1.59      0.00
    2   22    7      3.64      0.00
    2   22    8      9.20      0.00
    2   22    9      6.98      0.00
    2   22   10     -1.00      0.00
   -2   23   10     -3.16      0.00
   -2   23    9      2.29      0.00
   -2   23    8      3.28      0.00
   -2   23    7      6.29      0.00
   -2   23    6     -3.80      0.00
   -2   23    5     -9.94      0.00
   -2   23    4      8.87      0.00
   -2   23    3     13.16      0.00
   -2   23    2      5.32      0.00
   -2   23    1    -13.03      0.00
    2   23    0      7.85      0.00
    2   23    1     14.05      0.00
    2   23    2     -1.22      0.00
    2   23    3     10.19      0.00
    2   23    4     -9.88      0.00
    2   23    5     -3.40      0.00
    2   23    6      5.42      0.00
    2   23    7     15.65      0.00
    2   23    8      1.92      0.00
    2   23    9      3.98      0.00
    2   23   10     -6.27      0.00
   -2   24   10      1.14      0.00
   -2   24    9      2.32      0.00
   -2   24    8      2.28      0.00
   -2   24    7     -0.06      0.00
   -2   24    6      2.65      0.00
   -2   24    5     -5.13      0.00
   -2   24    4     12.28      0.00
   -2   24    3      7.20      0.00
   -2   24    2      7.96      0.00
   -2   24    1      1.36      0.00
    2   24    0     -7.82      0.00
    2   24    1      1.38      0.00
    2   24    2      4.64      0.00
    2   24    3     -2.14      0.00
    2   24    4     -5.25      0.00
    2   24    5     -0.52      0.00
    2   24    6      5.72      0.00
    2   24    7      6.03      0.00
    2   24    8      1.25      0.00
    2   24    9     -3.00      0.00
    2   24   10      2.86      0.00
   -2   25    9     -0.19      0.00
   -2   25    8     -4.23      0.00
   -2   25    7     -6.62      0.00
   -2   25    6      7.13      0.00
   -2   25    5      5.33      0.00
   -2   25    4     -3.29      0.00
   -2   25    3     -3.14      0.00
   -2   25    2      0.68      0.00
   -2   25    1      4.12      0.00
    2   25    0     -8.66      0.00
    2   25    1     12.79      0.00
    2   25    2     -4.08      0.00
    2   25    3    -10.65      0.00
    2   25    4      2.39      0.00
    2   25    5      8.56      0.00
    2   25    6      6.91      0.00
    2   25    7     -4.01      0.00
    2   25    8      4.94      0.00
    2   25    9      6.49      0.00
   -2   26    9    -10.58      0.00
   -2   26    8     -0.15      0.00
   -2   26    7      0.53      0.00
   -2   26    6      6.77      0.00
   -2   26    5     -0.13      0.00
   -2   26    4      3.08      0.00
   -2   26    3      4.68      0.00
   -2   26    2      9.35      0.00
   -2   26    1     -5.40      0.00
    2   26    0     -6.18      0.00
    2   26    1     10.59      0.00
    2   26    2      7.53      0.00
    2   26    3     -3.63      0.00
    2   26    4      1.67      0.00
    2   26    5     -1.84      0.00
    2   26    6      9.44      0.00
    2   26    7      2.38      0.00
    2   26    8      0.14      0.00
    2   26    9      0.15      0.00
   -2   27    9     -2.87      0.00
   -2   27    8      0.47      0.00
   -2   27    7      0.20      0.00
   -2   27    6     -9.29      0.00
   -2   27    5     -0.60      0.00
   -2   27    4      6.41      0.00
   -2   27    3     15.63      0.00
   -2   27    2      5.30      0.00
   -2   27    1     -7.44      0.00
    2   27    0      8.18      0.00
    2   27    1      8.30      0.00
    2   27    2     -4.34      0.00
    2   27    3      0.32      0.00
    2   27    4      1.57      0.00
    2   27    5     -9.97      0.00
    2   27    6      2.57      0.00
    2   27    7     -2.08      0.00
    2   27    8      8.22      0.00
    2   27    9     -1.59      0.00
   -2   28    9     -1.97      0.00
   -2   28    8      7.70      0.00
   -2   28    7      3.68      0.00
   -2   28    6      3.16      0.00
   -2   28    5      4.24      0.00
   -2   28    4     11.06      0.00
   -2   28    3     -3.40      0.00
   -2   28    2     -4.85      0.00
   -2   28    1     -0.15      0.00
    2   28    0     -3.78      0.00
    2   28    1     -7.87      0.00
    2   28    2      4.08      0.00
    2   28    3      2.29      0.00
    2   28    4      0.89      0.00
    2   28    5      1.78      0.00
    2   28    6      1.09      0.00
    2   28    7      9.11      0.00
    2   28    8      9.02      0.00
    2   28    9      2.55      0.00
   -2   29    8     -5.13      0.00
   -2   29    7     -1.35      0.00
   -2   29    6      5.48      0.00
   -2   29    5      4.80      0.00
   -2   29    4     -1.50      0.00
   -2   29    3     -0.72      0.00
   -2   29    2      4.63      0.00
   -2   29    1      2.30      0.00
    2   29    0     -0.06      0.00
    2   29    1      3.70      0.00
    2   29    2      0.02      0.00
    2   29    3     -5.18      0.00
    2   29    4      0.66      0.00
    2   29    5     10.80      0.00
    2   29    6      3.99      0.00
    2   29    7     -6.25      0.00
    2   29    8      3.73      0.00
   -2   30    8      1.03      0.00
   -2   30    7    -11.12      0.00
   -2   30    6     -1.18      0.00
   -2   30    5     -2.56      0.00
   -2   30    4      4.02      0.00
   -2   30    3     -1.04      0.00
   -2   30    2      0.63      0.00
   -2   30    1      3.32      0.00
    2   30    0     -4.24      0.00
    2   30    1     15.10      0.00
    2   30    2      8.92      0.00
    2   30    3     -9.30      0.00
    2   30    4     -8.65      0.00
    2   30    5      1.48      0.00
    2   30    6      1.33      0.00
    2   30    7     -0.07      0.00
    2   30    8     -7.82      0.00
   -2   31    8     -0.04      0.00
   -2   31    7     -4.66      0.00
   -2   31    6     -5.32      0.00
   -2   31    5      3.59      0.00
   -2   31    4      7.63      0.00
   -2   31    3      0.00      0.00
   -2   31    2     -0.34      0.00
   -2   31    1     -4.78      0.00
    2   31    0      1.44      0.00
    2   31    1     -1.21      0.00
    2   31    2     -6.46      0.00
    2   31    3     -1.04      0.00
    2   31    4      6.54      0.00
    2   31    5      3.12      0.00
    2   31    6     -2.14      0.00
    2   31    7     -8.90      0.00
    2   31    8     12.51      0.00
   -2   32    8      2.42      0.00
   -2   32    7      1.10      0.00
   -2   32    6     -7.33      0.00
   -2   32    5      3.13      0.00
   -2   32    4      4.09      0.00
   -2   32    3      0.40      0.00
   -2   32    2     -2.62      0.00
   -2   32    1     -2.70      0.00
    2   32    0     -1.75      0.00
    2   32    1     -2.58      0.00
    2   32    2     -3.41      0.00
    2   32    3      7.42      0.00
    2   32    4      2.29      0.00
    2   32    5     -1.16      0.00
    2   32    6     -1.88      0.00
    2   32    7     19.40      0.00
   -2   33    7      0.06      0.00
   -2   33    6      0.38      0.00
   -2   33    5      3.31      0.00
   -2   33    4     -8.51      0.00
   -2   33    3     -3.86      0.00
   -2   33    2     12.82      0.00
   -2   33    1     -5.78      0.00
    2   33    0      1.73      0.00
    2   33    1      1.78      0.00
    2   33    2      3.19      0.00
    2   33    3      5.75      0.00
    2   33    4     -2.26      0.00
    2   33    5     -0.07      0.00
    2   33    6     -3.36      0.00
    2   33    7     -1.35      0.00
   -2   34    7    -22.54      0.00
   -2   34    6     -5.62      0.00
   -2   34    5      3.38      0.00
   -2   34    4     -4.75      0.00
   -2   34    3     -3.76      0.00
   -2   34    2     -5.34      0.00
   -2   34    1      3.71      0.00
    2   34    0      0.43      0.00
    2   34    1      1.85      0.00
    2   34    2      6.83      0.00
    2   34    3     -9.40      0.00
    2   34    4     -3.05      0.00
    2   34    5      0.78      0.00
    2   34    6     -5.34      0.00
    2   34    7      6.81      0.00
   -2   35    6     -6.38      0.00
   -2   35    5     -4.12      0.00
   -2   35    4      2.62      0.00
   -2   35    3     -1.00      0.00
   -2   35    2      1.67      0.00
   -2   35    1     -1.06      0.00
    2   35    0      2.88      0.00
    2   35    1     -7.05      0.00
    2   35    2     -4.38      0.00
    2   35    3     -8.73      0.00
    2   35    4      4.15      0.00
    2   35    5     11.04      0.00
    2   35    6     -5.74      0.00
   -2   36    6     -2.27      0.00
   -2   36    5     -5.41      0.00
   -2   36    4      1.74      0.00
   -2   36    3      3.32      0.00
   -2   36    2     -2.91      0.00
   -2   36    1      4.32      0.00
    2   36    0      6.29      0.00
    2   36    1      3.56      0.00
    2   36    2     -2.00      0.00
    2   36    3      8.13      0.00
    2   36    4      6.08      0.00
    2   36    5     -1.11      0.00
    2   36    6      0.05      0.00
   -2   37    5      1.94      0.00
   -2   37    4     -5.49      0.00
   -2   37    3     -1.90      0.00
   -2   37    2      3.59      0.00
   -2   37    1     -9.70      0.00
    2   37    0      1.10      0.00
    2   37    1      5.99      0.00
    2   37    2     -1.37      0.00
    2   37    3     10.10      0.00
    2   37    4     -4.39      0.00
    2   37    5    -11.66      0.00
   -2   38    5      5.85      0.00
   -2   38    4      3.32      0.00
   -2   38    3      1.85      0.00
   -2   38    2     -5.32      0.00
   -2   38    1      9.12      0.00
    2   38    0      3.18      0.00
    2   38    1     -1.15      0.00
    2   38    2      1.85      0.00
    2   38    3     -9.96      0.00
    2   38    4      7.89      0.00
    2   38    5     -1.39      0.00
   -2   39    4     -8.92      0.00
   -2   39    3      2.18      0.00
   -2   39    2      0.59      0.00
   -2   39    1      3.85      0.00
    2   39    0      2.80      0.00
    2   39    1     -3.85      0.00
    2   39    2     -0.09      0.00
    2   39    3     -6.89      0.00
    2   39    4      6.84      0.00
   -2   40    3     -2.79      0.00
   -2   40    2     -0.86      0.00
   -2   40    1     -2.99      0.00
    2   40    0      6.33      0.00
    2   40    1     -0.19      0.00
    2   40    2     -4.32      0.00
    2   40    3      2.21      0.00
   -2   41    2      0.38      0.00
   -2   41    1     -0.29      0.00
    2   41    0     -7.53      0.00
    2   41    1     11.52      0.00
    2   41    2     -3.33      0.00
    2   42    0      2.74      0.00
   -3    0   10     -9.07      0.00
   -3    0    8      4.51      0.00
   -3    0    6     -3.38      0.00
   -3    0    4      6.11      0.00
   -3    0    2    -71.90      0.00
    3    0    0     35.96      0.00
    3    0    2      9.39      0.00
    3    0    4    -15.42      0.00
    3    0    6      6.78      0.00
    3    0    8      8.22      0.00
    3    0   10     -2.86      0.00
    3    0   12      7.91      0.00
   -3    1   12    -20.07      0.00
   -3    1   11    -12.94      0.00
   -3    1   10     -2.25      0.00
   -3    1    9      0.95      0.00
   -3    1    8     -4.80      0.00
   -3    1    7    -14.96      0.00
   -3    1    6      2.28      0.00
   -3    1    5    -11.88      0.00
   -3    1    4      9.27      0.00
   -3    1    3      4.72      0.00
   -3    1    2     40.18      0.00
   -3    1    1     -4.69      0.00
    3    1    0     38.54      0.00
    3    1    1     16.53      0.00
    3    1    2     16.37      0.00
    3    1    3     -4.42      0.00
    3    1    4     -6.32      0.00
    3    1    5     21.94      0.00
    3    1    6     28.15      0.00
    3    1    7     -1.72      0.00
    3    1    8    -21.40      0.00
    3    1    9      0.21      0.00
    3    1   10      6.01      0.00
    3    1   11      0.36      0.00
    3    1   12     -3.09      0.00
   -3    2   12     -9.90      0.00
   -3    2   11      2.53      0.00
   -3    2   10      1.85      0.00
   -3    2    9     -0.98      0.00
   -3    2    8      6.20      0.00
   -3    2    7     11.60      0.00
   -3    2    6    -10.52      0.00
   -3    2    5    -16.99      0.00
   -3    2    4    -43.94      0.00
   -3    2    3    -16.71      0.00
   -3    2    2     50.69      0.00
   -3    2    1     15.61      0.00
    3    2    0    -41.55      0.00
    3    2    1      2.08      0.00
    3    2    2     19.71      0.00
    3    2    3     -3.90      0.00
    3    2    4     24.09      0.00
    3    2    5    -11.96      0.00
    3    2    6      4.65      0.00
    3    2    7      1.11      0.00
    3    2    8     -4.87      0.00
    3    2    9      5.07      0.00
    3    2   10      3.57      0.00
    3    2   11     -1.43      0.00
    3    2   12     -4.13      0.00
   -3    3   12     14.93      0.00
   -3    3   11    -12.07      0.00
   -3    3   10     -6.12      0.00
   -3    3    9      3.07      0.00
   -3    3    8     10.06      0.00
   -3    3    7    -11.76      0.00
   -3    3    6     -4.61      0.00
   -3    3    5     26.14      0.00
   -3    3    4     18.66      0.00
   -3    3    3    -24.88      0.00
   -3    3    2    -25.65      0.00
   -3    3    1    -10.39      0.00
    3    3    0    -34.06      0.00
    3    3    1     18.16      0.00
    3    3    2     -7.80      0.00
    3    3    3     -0.62      0.00
    3    3    4     13.18      0.00
    3    3    5      8.05      0.00
    3    3    6    -19.43      0.00
    3    3    7     10.50      0.00
    3    3    8     13.25      0.00
    3    3    9      8.58      0.00
    3    3   10     -4.99      0.00
    3    3   11     -0.40      0.00
    3    3   12      0.40      0.00
   -3    4   12      3.39      0.00
   -3    4   11     -4.83      0.00
   -3    4   10     -6.18      0.00
   -3    4    9      2.53      0.00
   -3    4    8      8.97      0.00
   -3    4    7    -18.78      0.00
   -3    4    6    -20.44      0.00
   -3    4    5      5.96      0.00
   -3    4    4      9.15      0.00
   -3    4    3     30.05      0.00
   -3    4    2    -21.05      0.00
   -3    4    1     20.82      0.00
    3    4    0     16.41      0.00
    3    4    1      7.54      0.00
    3    4    2     -1.30      0.00
    3    4    3      8.20      0.00
    3    4    4    -11.02      0.00
    3    4    5     12.64      0.00
    3    4    6      6.15      0.00
    3    4    7     -1.52      0.00
    3    4    8     -3.10      0.00
    3    4    9     -2.65      0.00
    3    4   10     -4.49      0.00
    3    4   11      1.25      0.00
    3    4   12      3.10      0.00
   -3    5   12     -0.71      0.00
   -3    5   11    -14.97      0.00
   -3    5   10      1.64      0.00
   -3    5    9    -10.11      0.00
   -3    5    8     21.83      0.00
   -3    5    7      8.94      0.00
   -3    5    6     10.95      0.00
   -3    5    5    -28.69      0.00
   -3    5    4    -44.88      0.00
   -3    5    3     -6.89      0.00
   -3    5    2     40.74      0.00
   -3    5    1      7.34      0.00
    3    5    0      9.95      0.00
    3    5    1     17.27      0.00
    3    5    2     13.46      0.00
    3    5    3     -0.99      0.00
    3    5    4    -24.48      0.00
    3    5    5     17.69      0.00
    3    5    6     12.11      0.00
    3    5    7     -3.17      0.00
    3    5    8    -14.62      0.00
    3    5    9     -7.21      0.00
    3    5   10      8.62      0.00
    3    5   11     -5.57      0.00
    3    5   12      3.00      0.00
   -3    6   12     -6.96      0.00
   -3    6   11      0.51      0.00
   -3    6   10     -5.29      0.00
   -3    6    9     -9.46      0.00
   -3    6    8      1.02      0.00
   -3    6    7      1.78      0.00
   -3    6    6     11.18      0.00
   -3    6    5     -0.79      0.00
   -3    6    4     12.90      0.00
   -3    6    3      6.28      0.00
   -3    6    2      4.34      0.00
   -3    6    1    -13.30      0.00
    3    6    0    -15.34      0.00
    3    6    1      0.61      0.00
    3    6    2     12.11      0.00
    3    6    3      9.40      0.00
    3    6    4     17.25      0.00
    3    6    5     -8.74      0.00
    3    6    6      2.22      0.00
    3    6    7      0.05      0.00
    3    6    8     10.61      0.00
    3    6    9      5.55      0.00
    3    6   10      3.10      0.00
    3    6   11     -2.61      0.00
    3    6   12     -3.81      0.00
   -3    7   12      9.20      0.00
   -3    7   11      0.38      0.00
   -3    7   10     -7.85      0.00
   -3    7    9      1.31      0.00
   -3    7    8      5.48      0.00
   -3    7    7     -5.78      0.00
   -3    7    6    -10.05      0.00
   -3    7    5      6.43      0.00
   -3    7    4     39.00      0.00
   -3    7    3    -11.11      0.00
   -3    7    2    -31.76      0.00
   -3    7    1     27.49      0.00
    3    7    0    -24.62      0.00
    3    7    1      8.30      0.00
    3    7    2     -3.10      0.00
    3    7    3    -24.27      0.00
    3    7    4      5.90      0.00
    3    7    5      1.64      0.00
    3    7    6      3.28      0.00
    3    7    7     -3.16      0.00
    3    7    8      5.43      0.00
    3    7    9      0.24      0.00
    3    7   10     -3.15      0.00
    3    7   11     -3.79      0.00
   -3    8   12     -3.67      0.00
   -3    8   11      0.57      0.00
   -3    8   10     -8.93      0.00
   -3    8    9     12.20      0.00
   -3    8    8     13.85      0.00
   -3    8    7      3.03      0.00
   -3    8    6     -4.20      0.00
   -3    8    5    -11.06      0.00
   -3    8    4    -17.01      0.00
   -3    8    3      7.87      0.00
   -3    8    2      1.73      0.00
   -3    8    1     25.74      0.00
    3    8    0     -8.24      0.00
    3    8    1      9.16      0.00
    3    8    2      5.73      0.00
    3    8    3     10.26      0.00
    3    8    4     15.69      0.00
    3    8    5      4.25      0.00
    3    8    6      8.39      0.00
    3    8    7     -3.63      0.00
    3    8    8     -7.58      0.00
    3    8    9     -1.57      0.00
    3    8   10     -5.55      0.00
    3    8   11      8.73      0.00
   -3    9   12      8.32      0.00
   -3    9   11     -5.18      0.00
   -3    9   10      5.20      0.00
   -3    9    9     -9.73      0.00
   -3    9    8     -0.53      0.00
   -3    9    7     10.56      0.00
   -3    9    6     15.15      0.00
   -3    9    5      6.92      0.00
   -3    9    4    -19.36      0.00
   -3    9    3      6.33      0.00
   -3    9    2      1.27      0.00
   -3    9    1     -1.24      0.00
    3    9    0     27.74      0.00
    3    9    1      1.79      0.00
    3    9    2     -7.88      0.00
    3    9    3      4.10      0.00
    3    9    4    -20.92      0.00
    3    9    5    -11.44      0.00
    3    9    6      9.89      0.00
    3    9    7      6.51      0.00
    3    9    8     -9.01      0.00
    3    9    9      2.46      0.00
    3    9   10     -0.16      0.00
    3    9   11     -5.45      0.00
   -3   10   11      1.01      0.00
   -3   10   10     -7.53      0.00
   -3   10    9      3.23      0.00
   -3   10    8     -3.26      0.00
   -3   10    7     -3.40      0.00
   -3   10    6      5.25      0.00
   -3   10    5     -3.85      0.00
   -3   10    4     16.21      0.00
   -3   10    3     15.90      0.00
   -3   10    2     -6.76      0.00
   -3   10    1     -7.46      0.00
    3   10    0      8.10      0.00
    3   10    1    -17.76      0.00
    3   10    2     10.49      0.00
    3   10    3     26.13      0.00
    3   10    4     -3.72      0.00
    3   10    5     -4.85      0.00
    3   10    6      2.45      0.00
    3   10    7      3.03      0.00
    3   10    8      3.77      0.00
    3   10    9      2.78      0.00
    3   10   10      2.49      0.00
    3   10   11     -0.11      0.00
   -3   11   11     -8.13      0.00
   -3   11   10     -2.60      0.00
   -3   11    9     -6.07      0.00
   -3   11    8      7.33      0.00
   -3   11    7      7.83      0.00
   -3   11    6      3.83      0.00
   -3   11    5     -2.21      0.00
   -3   11    4     14.96      0.00
   -3   11    3     -8.10      0.00
   -3   11    2    -24.96      0.00
   -3   11    1     17.73      0.00
    3   11    0     -1.18      0.00
    3   11    1     -8.92      0.00
    3   11    2     -2.31      0.00
    3   11    3    -17.23      0.00
    3   11    4     -9.86      0.00
    3   11    5     27.86      0.00
    3   11    6      2.62      0.00
    3   11    7    -13.72      0.00
    3   11    8      7.52      0.00
    3   11    9     -2.61      0.00
    3   11   10     -1.55      0.00
    3   11   11     -3.00      0.00
   -3   12   11      3.54      0.00
   -3   12   10      1.60      0.00
   -3   12    9      0.11      0.00
   -3   12    8      1.95      0.00
   -3   12    7      3.65      0.00
   -3   12    6      4.11      0.00
   -3   12    5      3.49      0.00
   -3   12    4     -7.06      0.00
   -3   12    3    -10.42      0.00
   -3   12    2      5.20      0.00
   -3   12    1    -22.21      0.00
    3   12    0      6.45      0.00
    3   12    1     -8.85      0.00
    3   12    2     -2.28      0.00
    3   12    3      7.64      0.00
    3   12    4     10.55      0.00
    3   12    5      1.20      0.00
    3   12    6     -2.61      0.00
    3   12    7      1.92      0.00
    3   12    8      5.45      0.00
    3   12    9     -3.02      0.00
    3   12   10     -3.90      0.00
    3   12   11      4.14      0.00
   -3   13   11      8.65      0.00
   -3   13   10      2.57      0.00
   -3   13    9     -6.15      0.00
   -3   13    8     -2.38      0.00
   -3   13    7      0.21      0.00
   -3   13    6      1.56      0.00
   -3   13    5     14.38      0.00
   -3   13    4      2.98      0.00
   -3   13    3      8.42      0.00
   -3   13    2     10.52      0.00
   -3   13    1    -16.03      0.00
    3   13    0      3.54      0.00
    3   13    1     -2.87      0.00
    3   13    2    -23.20      0.00
    3   13    3     12.26      0.00
    3   13    4      1.28      0.00
    3   13    5    -21.00      0.00
    3   13    6      6.26      0.00
    3   13    7      9.12      0.00
    3   13    8     -6.00      0.00
    3   13    9     -0.03      0.00
    3   13   10      0.09      0.00
    3   13   11     -1.55      0.00
   -3   14   11      4.53      0.00
   -3   14   10    -11.04      0.00
   -3   14    9      2.46      0.00
   -3   14    8      1.65      0.00
   -3   14    7      7.08      0.00
   -3   14    6     10.32      0.00
   -3   14    5     -2.21      0.00
   -3   14    4    -12.81      0.00
   -3   14    3     -2.69      0.00
   -3   14    2      1.04      0.00
   -3   14    1      8.25      0.00
    3   14    0    -11.54      0.00
    3   14    1      4.72      0.00
    3   14    2     14.82      0.00
    3   14    3      7.48      0.00
    3   14    4     -6.53      0.00
    3   14    5    -13.38      0.00
    3   14    6     12.53      0.00
    3   14    7     16.51      0.00
    3   14    8     -8.76      0.00
    3   14    9     -3.03      0.00
    3   14   10     11.68      0.00
    3   14   11     -3.48      0.00
   -3   15   11      0.67      0.00
   -3   15   10      1.93      0.00
   -3   15    9      1.61      0.00
   -3   15    8     -1.65      0.00
   -3   15    7     -8.42      0.00
   -3   15    6      3.84      0.00
   -3   15    5     -1.10      0.00
   -3   15    4     11.67      0.00
   -3   15    3      0.68      0.00
   -3   15    2     -6.02      0.00
   -3   15    1     20.51      0.00
    3   15    0     10.67      0.00
    3   15    1    -12.26      0.00
    3   15    2     -6.67      0.00
    3   15    3     -8.49      0.00
    3   15    4      2.00      0.00
    3   15    5     18.84      0.00
    3   15    6     -5.42      0.00
    3   15    7     -4.59      0.00
    3   15    8      6.50      0.00
    3   15    9     -0.06      0.00
    3   15   10     -1.85      0.00
    3   15   11      3.17      0.00
   -3   16   11      0.66      0.00
   -3   16   10      2.67      0.00
   -3   16    9     -3.60      0.00
   -3   16    8    -11.49      0.00
   -3   16    7      0.53      0.00
   -3   16    6      9.59      0.00
   -3   16    5     -4.94      0.00
   -3   16    4      5.10      0.00
   -3   16    3      1.00      0.00
   -3   16    2    -10.26      0.00
   -3   16    1    -14.99      0.00
    3   16    0      5.56      0.00
    3   16    1    -46.54      0.00
    3   16    2      7.02      0.00
    3   16    3      1.42      0.00
    3   16    4     -8.95      0.00
    3   16    5      4.87      0.00
    3   16    6     -0.97      0.00
    3   16    7     -5.47      0.00
    3   16    8     10.67      0.00
    3   16    9     -0.25      0.00
    3   16   10     -7.18      0.00
    3   16   11      7.93      0.00
   -3   17   11      5.62      0.00
   -3   17   10     -2.90      0.00
   -3   17    9     -4.61      0.00
   -3   17    8      3.08      0.00
   -3   17    7      8.45      0.00
   -3   17    6      1.69      0.00
   -3   17    5     -2.28      0.00
   -3   17    4      2.54      0.00
   -3   17    3     -1.22      0.00
   -3   17    2     28.44      0.00
   -3   17    1    -11.11      0.00
    3   17    0      3.46      0.00
    3   17    1     -8.49      0.00
    3   17    2      1.13      0.00
    3   17    3     23.43      0.00
    3   17    4      3.74      0.00
    3   17    5     -4.32      0.00
    3   17    6     -1.92      0.00
    3   17    7      2.24      0.00
    3   17    8      6.12      0.00
    3   17    9      2.05      0.00
    3   17   10     -3.75      0.00
    3   17   11      1.22      0.00
   -3   18   11      2.31      0.00
   -3   18   10      0.83      0.00
   -3   18    9      3.40      0.00
   -3   18    8     -0.66      0.00
   -3   18    7     -1.68      0.00
   -3   18    6     -6.38      0.00
   -3   18    5      2.21      0.00
   -3   18    4      0.00      0.00
   -3   18    3     -0.17      0.00
   -3   18    2     18.26      0.00
   -3   18    1     11.72      0.00
    3   18    0     -6.41      0.00
    3   18    1     13.45      0.00
    3   18    2     -2.18      0.00
    3   18    3    -12.76      0.00
    3   18    4    -14.07      0.00
    3   18    5    -11.96      0.00
    3   18    6     13.62      0.00
    3   18    7     19.31      0.00
    3   18    8    -13.40      0.00
    3   18    9     -6.73      0.00
    3   18   10      3.46      0.00
   -3   19   10      0.45      0.00
   -3   19    9      6.47      0.00
   -3   19    8     -2.78      0.00
   -3   19    7     -9.27      0.00
   -3   19    6     -5.18      0.00
   -3   19    5      6.79      0.00
   -3   19    4      7.20      0.00
   -3   19    3    -11.96      0.00
   -3   19    2      2.85      0.00
   -3   19    1      5.63      0.00
    3   19    0    -18.06      0.00
    3   19    1      5.62      0.00
    3   19    2    -10.49      0.00
    3   19    3      1.52      0.00
    3   19    4      8.25      0.00
    3   19    5      2.86      0.00
    3   19    6     -4.35      0.00
    3   19    7      8.61      0.00
    3   19    8     -2.76      0.00
    3   19    9      5.20      0.00
    3   19   10      2.52      0.00
   -3   20   10    -12.71      0.00
   -3   20    9     -8.46      0.00
   -3   20    8     -6.77      0.00
   -3   20    7      7.93      0.00
   -3   20    6     10.64      0.00
   -3   20    5     -8.45      0.00
   -3   20    4     -1.75      0.00
   -3   20    3     16.50      0.00
   -3   20    2      4.49      0.00
   -3   20    1     -0.20      0.00
    3   20    0     -7.38      0.00
    3   20    1    -15.15      0.00
    3   20    2      6.27      0.00
    3   20    3      2.24      0.00
    3   20    4      0.25      0.00
    3   20    5      3.65      0.00
    3   20    6      2.14      0.00
    3   20    7     -7.20      0.00
    3   20    8      4.85      0.00
    3   20    9      5.74      0.00
    3   20   10      1.02      0.00
   -3   21   10      8.37      0.00
   -3   21    9     -0.87      0.00
   -3   21    8      2.48      0.00
   -3   21    7     -0.36      0.00
   -3   21    6     -4.31      0.00
   -3   21    5    -10.06      0.00
   -3   21    4      0.75      0.00
   -3   21    3      6.43      0.00
   -3   21    2     21.28      0.00
   -3   21    1     11.09      0.00
    3   21    0     12.28      0.00
    3   21    1     -3.24      0.00
    3   21    2      0.79      0.00
    3   21    3     14.16      0.00
    3   21    4     -1.40      0.00
    3   21    5     -6.87      0.00
    3   21    6     -4.01      0.00
    3   21    7     -6.29      0.00
    3   21    8      8.78      0.00
    3   21    9     -4.44      0.00
    3   21   10     -1.76      0.00
   -3   22   10      7.97      0.00
   -3   22    9      9.08      0.00
   -3   22    8      6.37      0.00
   -3   22    7    -12.39      0.00
   -3   22    6     -1.00      0.00
   -3   22    5     -0.91      0.00
   -3   22    4      4.61      0.00
   -3   22    3      7.10      0.00
   -3   22    2      5.19      0.00
   -3   22    1      7.41      0.00
    3   22    0      3.59      0.00
    3   22    1      0.61      0.00
    3   22    2     -0.31      0.00
    3   22    3     -5.02      0.00
    3   22    4    -16.13      0.00
    3   22    5     -9.56      0.00
    3   22    6     13.90      0.00
    3   22    7     14.27      0.00
    3   22    8     -4.20      0.00
    3   22    9     -9.34      0.00
    3   22   10     -2.86      0.00
   -3   23   10     -6.80      0.00
   -3   23    9      3.50      0.00
   -3   23    8      5.60      0.00
   -3   23    7     -2.29      0.00
   -3   23    6      5.49      0.00
   -3   23    5      4.34      0.00
   -3   23    4     -0.65      0.00
   -3   23    3     -2.20      0.00
   -3   23    2      1.77      0.00
   -3   23    1     -1.71      0.00
    3   23    0    -14.84      0.00
    3   23    1     -2.39      0.00
    3   23    2      4.74      0.00
    3   23    3     12.30      0.00
    3   23    4      5.12      0.00
    3   23    5      7.68      0.00
    3   23    6     -3.01      0.00
    3   23    7      6.63      0.00
    3   23    8     -1.53      0.00
    3   23    9      4.70      0.00
    3   23   10     15.68      0.00
   -3   24   10    -11.29      0.00
   -3   24    9      0.66      0.00
   -3   24    8     -4.88      0.00
   -3   24    7      1.49      0.00
   -3   24    6     -1.27      0.00
   -3   24    5     -9.16      0.00
   -3   24    4     -1.85      0.00
   -3   24    3     10.47      0.00
   -3   24    2     16.49      0.00
   -3   24    1     -0.80      0.00
    3   24    0      1.39      0.00
    3   24    1     10.39      0.00
    3   24    2      1.22      0.00
    3   24    3     -7.19      0.00
    3   24    4      1.07      0.00
    3   24    5      9.41      0.00
    3   24    6     -7.04      0.00
    3   24    7     -8.41      0.00
    3   24    8     -5.06      0.00
    3   24    9      5.13      0.00
   -3   25    9      0.97      0.00
   -3   25    8      5.37      0.00
   -3   25    7      3.94      0.00
   -3   25    6    -12.18      0.00
   -3   25    5      0.35      0.00
   -3   25    4      2.33      0.00
   -3   25    3     -0.45      0.00
   -3   25    2      4.38      0.00
   -3   25    1      6.22      0.00
    3   25    0     11.30      0.00
    3   25    1      1.60      0.00
    3   25    2     -3.95      0.00
    3   25    3      6.01      0.00
    3   25    4     -8.61      0.00
    3   25    5     -8.76      0.00
    3   25    6     -3.93      0.00
    3   25    7      0.16      0.00
    3   25    8      3.78      0.00
    3   25    9    -13.07      0.00
   -3   26    9      3.50      0.00
   -3   26    8      7.28      0.00
   -3   26    7      3.43      0.00
   -3   26    6     -2.30      0.00
   -3   26    5      6.40      0.00
   -3   26    4     -0.03      0.00
   -3   26    3      2.47      0.00
   -3   26    2     10.37      0.00
   -3   26    1     -0.89      0.00
    3   26    0      0.81      0.00
    3   26    1      2.34      0.00
    3   26    2     -0.06      0.00
    3   26    3      6.44      0.00
    3   26    4     -2.58      0.00
    3   26    5     -1.86      0.00
    3   26    6     19.05      0.00
    3   26    7     15.23      0.00
    3   26    8     -4.53      0.00
    3   26    9      4.17      0.00
   -3   27    9      2.12      0.00
   -3   27    8      8.79      0.00
   -3   27    7     -4.66      0.00
   -3   27    6      1.72      0.00
   -3   27    5      4.78      0.00
   -3   27    4     -6.98      0.00
   -3   27    3      4.55      0.00
   -3   27    2      0.54      0.00
   -3   27    1      1.44      0.00
    3   27    0     -2.04      0.00
    3   27    1     -5.03      0.00
    3   27    2      1.10      0.00
    3   27    3      7.45      0.00
    3   27    4      7.95      0.00
    3   27    5      1.28      0.00
    3   27    6     -7.77      0.00
    3   27    7    -15.11      0.00
    3   27    8     -0.93      0.00
    3   27    9      5.23      0.00
   -3   28    9      1.04      0.00
   -3   28    8      3.84      0.00
   -3   28    7      0.10      0.00
   -3   28    6      3.11      0.00
   -3   28    5     -6.86      0.00
   -3   28    4     -0.18      0.00
   -3   28    3      7.99      0.00
   -3   28    2     -3.92      0.00
   -3   28    1     -9.53      0.00
    3   28    0      9.70      0.00
    3   28    1     10.22      0.00
    3   28    2     -3.54      0.00
    3   28    3    -16.43      0.00
    3   28    4      1.14      0.00
    3   28    5      0.71      0.00
    3   28    6     -4.79      0.00
    3   28    7     -3.87      0.00
    3   28    8     -8.57      0.00
   -3   29    8      8.52      0.00
   -3   29    7      0.97      0.00
   -3   29    6     -5.77      0.00
   -3   29    5     -3.06      0.00
   -3   29    4      6.90      0.00
   -3   29    3      1.23      0.00
   -3   29    2     -4.21      0.00
   -3   29    1     -0.94      0.00
    3   29    0      1.24      0.00
    3   29    1     -0.78      0.00
    3   29    2      0.69      0.00
    3   29    3     -0.13      0.00
    3   29    4      3.25      0.00
    3   29    5     -1.86      0.00
    3   29    6      7.44      0.00
    3   29    7      3.54      0.00
    3   29    8      5.55      0.00
   -3   30    8     -1.03      0.00
   -3   30    7      3.81      0.00
   -3   30    6      1.04      0.00
   -3   30    5      6.47      0.00
   -3   30    4     -3.73      0.00
   -3   30    3     -5.48      0.00
   -3   30    2      9.57      0.00
   -3   30    1      0.29      0.00
    3   30    0      2.77      0.00
    3   30    1     -2.77      0.00
    3   30    2     -1.69      0.00
    3   30    3      2.41      0.00
    3   30    4      2.79      0.00
    3   30    5      1.30      0.00
    3   30    6     14.33      0.00
    3   30    7     -2.33      0.00
    3   30    8     -2.98      0.00
   -3   31    8     -2.49      0.00
   -3   31    7     -0.31      0.00
   -3   31    6     -3.74      0.00
   -3   31    5     11.42      0.00
   -3   31    4      0.96      0.00
   -3   31    3     -0.40      0.00
   -3   31    2      6.18      0.00
   -3   31    1     -4.43      0.00
    3   31    0      6.76      0.00
    3   31    1      0.78      0.00
    3   31    2     -4.26      0.00
    3   31    3      1.02      0.00
    3   31    4     -0.81      0.00
    3   31    5     -4.82      0.00
    3   31    6     -4.51      0.00
    3   31    7    -45.45      0.00
    3   31    8      1.87      0.00
   -3   32    7     -0.34      0.00
   -3   32    6     -1.76      0.00
   -3   32    5      2.07      0.00
   -3   32    4      2.22      0.00
   -3   32    3      1.11      0.00
   -3   32    2     -6.23      0.00
   -3   32    1     -1.44      0.00
    3   32    0      1.15      0.00
    3   32    1      6.81      0.00
    3   32    2     -3.98      0.00
    3   32    3     -7.74      0.00
    3   32    4     -0.19      0.00
    3   32    5      6.01      0.00
    3   32    6      4.87      0.00
    3   32    7      1.59      0.00
   -3   33    7     -1.73      0.00
   -3   33    6      5.38      0.00
   -3   33    5     -3.64      0.00
   -3   33    4      3.51      0.00
   -3   33    3     -0.93      0.00
   -3   33    2      1.07      0.00
   -3   33    1      0.79      0.00
    3   33    0     -7.17      0.00
    3   33    1     -0.80      0.00
    3   33    2     -4.44      0.00
    3   33    3     -2.49      0.00
    3   33    4      2.20      0.00
    3   33    5      5.45      0.00
    3   33    6      5.85      0.00
    3   33    7      4.17      0.00
   -3   34    7    -10.33      0.00
   -3   34    6      6.64      0.00
   -3   34    5      1.65      0.00
   -3   34    4     -2.54      0.00
   -3   34    3     -0.46      0.00
   -3   34    2     -3.52      0.00
   -3   34    1      3.84      0.00
    3   34    0      3.20      0.00
    3   34    1     -6.59      0.00
    3   34    2      1.15      0.00
    3   34    3      3.29      0.00
    3   34    4      0.03      0.00
    3   34    5      0.75      0.00
    3   34    6    -15.36      0.00
   -3   35    6      0.15      0.00
   -3   35    5      7.28      0.00
   -3   35    4      5.21      0.00
   -3   35    3      3.79      0.00
   -3   35    2      7.34      0.00
   -3   35    1     -8.07      0.00
    3   35    0      7.72      0.00
    3   35    1      2.10      0.00
    3   35    2      0.01      0.00
    3   35    3      4.39      0.00
    3   35    4     -6.95      0.00
    3   35    5     -8.24      0.00
    3   35    6      0.10      0.00
   -3   36    6     -2.53      0.00
   -3   36    5      2.09      0.00
   -3   36    4     -2.34      0.00
   -3   36    3      4.48      0.00
   -3   36    2     -3.51      0.00
   -3   36    1     11.33      0.00
    3   36    0      2.72      0.00
    3   36    1      0.47      0.00
    3   36    2     -3.42      0.00
    3   36    3     -3.39      0.00
    3   36    4      1.18      0.00
    3   36    5     14.37      0.00
    3   36    6     -2.78      0.00
   -3   37    5      0.75      0.00
   -3   37    4      4.17      0.00
   -3   37    3     -0.66      0.00
   -3   37    2      3.24      0.00
   -3   37    1      0.16      0.00
    3   37    0     -8.79      0.00
    3   37    1     -0.71      0.00
    3   37    2     -2.44      0.00
    3   37    3      0.20      0.00
    3   37    4     -4.83      0.00
    3   37    5      4.75      0.00
   -3   38    5     -2.43      0.00
   -3   38    4      6.01      0.00
   -3   38    3      0.11      0.00
   -3   38    2     -4.68      0.00
   -3   38    1      4.00      0.00
    3   38    0      3.82      0.00
    3   38    1     -0.98      0.00
    3   38    2      2.76      0.00
    3   38    3      0.55      0.00
    3   38    4     -7.16      0.00
   -3   39    4     10.92      0.00
   -3   39    3     -2.22      0.00
   -3   39    2      9.59      0.00
   -3   39    1     -7.93      0.00
    3   39    0     -1.79      0.00
    3   39    1      2.17      0.00
    3   39    2      2.88      0.00
    3   39    3      4.78      0.00
    3   39    4      2.16      0.00
   -3   40    3      5.15      0.00
   -3   40    2      2.85      0.00
   -3   40    1      5.67      0.00
    3   40    0      4.49      0.00
    3   40    1     -7.44      0.00
    3   40    2      4.22      0.00
    3   40    3    -11.81      0.00
   -3   41    2      1.88      0.00
   -3   41    1     -0.46      0.00
    3   41    0      1.11      0.00
    3   41    1     -0.21      0.00
    3   41    2     -0.89      0.00
   -4    0   12     -3.10      0.00
   -4    0   10    -12.33      0.00
   -4    0    8     -9.91      0.00
   -4    0    6     -2.66      0.00
   -4    0    4      7.72      0.00
   -4    0    2    -22.40      0.00
    4    0    0     17.68      0.00
    4    0    2      0.11      0.00
    4    0    4     14.12      0.00
    4    0    6     -2.01      0.00
    4    0    8    -20.36      0.00
    4    0   10      1.06      0.00
   -4    1   12     -6.18      0.00
   -4    1   11      1.50      0.00
   -4    1   10     -3.56      0.00
   -4    1    9     19.40      0.00
   -4    1    8     -6.27      0.00
   -4    1    7     11.02      0.00
   -4    1    6    -15.44      0.00
   -4    1    5    -16.08      0.00
   -4    1    4     20.38      0.00
   -4    1    3     24.02      0.00
   -4    1    2     13.34      0.00
   -4    1    1     -8.66      0.00
    4    1    0    -24.93      0.00
    4    1    1     17.77      0.00
    4    1    2      4.25      0.00
    4    1    3    -12.49      0.00
    4    1    4    -16.79      0.00
    4    1    5     10.49      0.00
    4    1    6     14.13      0.00
    4    1    7     -4.86      0.00
    4    1    8      6.67      0.00
    4    1    9     -8.55      0.00
    4    1   10     -1.58      0.00
    4    1   11     -0.91      0.00
   -4    2   12     -2.90      0.00
   -4    2   11      0.47      0.00
   -4    2   10      7.83      0.00
   -4    2    9      7.06      0.00
   -4    2    8    139.76      0.00
   -4    2    7     16.49      0.00
   -4    2    6    -13.50      0.00
   -4    2    5     -9.84      0.00
   -4    2    4    -41.50      0.00
   -4    2    3    -26.37      0.00
   -4    2    2     -1.30      0.00
   -4    2    1      1.13      0.00
    4    2    0     24.09      0.00
    4    2    1      9.83      0.00
    4    2    2     -3.15      0.00
    4    2    3     11.09      0.00
    4    2    4    -12.44      0.00
    4    2    5     -6.49      0.00
    4    2    6     15.55      0.00
    4    2    7     -6.86      0.00
    4    2    8      2.76      0.00
    4    2    9      0.12      0.00
    4    2   10    -11.25      0.00
    4    2   11      1.44      0.00
   -4    3   12      7.90      0.00
   -4    3   11     -0.30      0.00
   -4    3   10      6.11      0.00
   -4    3    9     -8.36      0.00
   -4    3    8    -15.31      0.00
   -4    3    7     -8.75      0.00
   -4    3    6      4.51      0.00
   -4    3    5     12.35      0.00
   -4    3    4     -0.12      0.00
   -4    3    3     24.69      0.00
   -4    3    2     -5.88      0.00
   -4    3    1    -12.56      0.00
    4    3    0      7.96      0.00
    4    3    1     -4.95      0.00
    4    3    2     -1.82      0.00
    4    3    3      9.15      0.00
    4    3    4      8.37      0.00
    4    3    5      1.57      0.00
    4    3    6      2.71      0.00
    4    3    7     -3.10      0.00
    4    3    8     -8.39      0.00
    4    3    9     -4.20      0.00
    4    3   10      1.31      0.00
    4    3   11      4.80      0.00
   -4    4   12     -3.15      0.00
   -4    4   11      0.37      0.00
   -4    4   10     -4.55      0.00
   -4    4    9     -0.39      0.00
   -4    4    8      4.61      0.00
   -4    4    7    -15.29      0.00
   -4    4    6    -12.10      0.00
   -4    4    5    -17.50      0.00
   -4    4    4    -10.36      0.00
   -4    4    3     44.24      0.00
   -4    4    2     -0.54      0.00
   -4    4    1    -10.63      0.00
    4    4    0      1.34      0.00
    4    4    1    -11.26      0.00
    4    4    2     -0.44      0.00
    4    4    3     -7.28      0.00
    4    4    4      9.10      0.00
    4    4    5     10.43      0.00
    4    4    6     -0.05      0.00
    4    4    7     13.07      0.00
    4    4    8    -15.94      0.00
    4    4    9      5.70      0.00
    4    4   10      2.48      0.00
    4    4   11     -1.44      0.00
   -4    5   12      0.33      0.00
   -4    5   11     -4.03      0.00
   -4    5   10     -1.61      0.00
   -4    5    9     21.66      0.00
   -4    5    8      8.97      0.00
   -4    5    7     17.17      0.00
   -4    5    6      6.96      0.00
   -4    5    5    -18.04      0.00
   -4    5    4    -17.89      0.00
   -4    5    3     -4.58      0.00
   -4    5    2     -2.08      0.00
   -4    5    1     -7.83      0.00
    4    5    0    -19.00      0.00
    4    5    1     40.22      0.00
    4    5    2      9.69      0.00
    4    5    3    -34.80      0.00
    4    5    4    -11.41      0.00
    4    5    5     22.67      0.00
    4    5    6     -4.20      0.00
    4    5    7      2.72      0.00
    4    5    8     -0.33      0.00
    4    5    9     -1.16      0.00
    4    5   10     -2.72      0.00
    4    5   11     -8.90      0.00
   -4    6   12    -10.75      0.00
   -4    6   11      6.04      0.00
   -4    6   10      5.39      0.00
   -4    6    9      2.44      0.00
   -4    6    8     33.21      0.00
   -4    6    7      2.15      0.00
   -4    6    6      6.70      0.00
   -4    6    5     -1.32      0.00
   -4    6    4      1.30      0.00
   -4    6    3    -19.96      0.00
   -4    6    2      8.34      0.00
   -4    6    1      2.55      0.00
    4    6    0     -4.63      0.00
    4    6    1     13.78      0.00
    4    6    2     -1.35      0.00
    4    6    3     15.05      0.00
    4    6    4      5.78      0.00
    4    6    5      0.82      0.00
    4    6    6      1.57      0.00
    4    6    7     -6.52      0.00
    4    6    8      1.92      0.00
    4    6    9     -0.84      0.00
    4    6   10     -3.69      0.00
    4    6   11      4.51      0.00
   -4    7   11      4.55      0.00
   -4    7   10      0.94      0.00
   -4    7    9      1.49      0.00
   -4    7    8    -14.92      0.00
   -4    7    7     -5.13      0.00
   -4    7    6    -15.69      0.00
   -4    7    5    -18.68      0.00
   -4    7    4     16.50      0.00
   -4    7    3     25.39      0.00
   -4    7    2      7.53      0.00
   -4    7    1    -21.74      0.00
    4    7    0     -6.80      0.00
    4    7    1    -22.28      0.00
    4    7    2     -9.06      0.00
    4    7    3     14.76      0.00
    4    7    4    -10.35      0.00
    4    7    5      0.29      0.00
    4    7    6     14.46      0.00
    4    7    7     -4.43      0.00
    4    7    8      1.72      0.00
    4    7    9      7.22      0.00
    4    7   10     -2.92      0.00
    4    7   11      1.32      0.00
   -4    8   11      2.88      0.00
   -4    8   10    -13.48      0.00
   -4    8    9      8.72      0.00
   -4    8    8      7.25      0.00
   -4    8    7      8.35      0.00
   -4    8    6     -4.83      0.00
   -4    8    5     -6.67      0.00
   -4    8    4    -13.38      0.00
   -4    8    3     16.02      0.00
   -4    8    2     -6.47      0.00
   -4    8    1    -21.11      0.00
    4    8    0     14.36      0.00
    4    8    1      2.61      0.00
    4    8    2      1.35      0.00
    4    8    3    -22.32      0.00
    4    8    4     -1.91      0.00
    4    8    5     11.41      0.00
    4    8    6     10.61      0.00
    4    8    7      1.69      0.00
    4    8    8     -3.39      0.00
    4    8    9     -0.62      0.00
    4    8   10      3.16      0.00
    4    8   11     -2.89      0.00
   -4    9   11     -6.89      0.00
   -4    9   10     -2.32      0.00
   -4    9    9      8.54      0.00
   -4    9    8     -7.67      0.00
   -4    9    7     -6.23      0.00
   -4    9    6     10.40      0.00
   -4    9    5      8.16      0.00
   -4    9    4    -21.45      0.00
   -4    9    3    -27.44      0.00
   -4    9    2     11.03      0.00
   -4    9    1     11.96      0.00
    4    9    0    -10.87      0.00
    4    9    1     11.83      0.00
    4    9    2     30.07      0.00
    4    9    3    -22.46      0.00
    4    9    4      1.39      0.00
    4    9    5     19.76      0.00
    4    9    6     -9.51      0.00
    4    9    7      2.87      0.00
    4    9    8      0.52      0.00
    4    9    9      1.87      0.00
    4    9   10      2.35      0.00
    4    9   11     -2.85      0.00
   -4   10   11     -0.50      0.00
   -4   10   10     15.85      0.00
   -4   10    9      6.68      0.00
   -4   10    8    -12.63      0.00
   -4   10    7     -9.97      0.00
   -4   10    6      0.81      0.00
   -4   10    5      0.68      0.00
   -4   10    4      3.79      0.00
   -4   10    3      6.34      0.00
   -4   10    2     37.57      0.00
   -4   10    1    -10.40      0.00
    4   10    0    -44.58      0.00
    4   10    1    -15.99      0.00
    4   10    2      3.29      0.00
    4   10    3    -11.34      0.00
    4   10    4     12.15      0.00
    4   10    5      7.88      0.00
    4   10    6     -4.63      0.00
    4   10    7      0.89      0.00
    4   10    8      4.90      0.00
    4   10    9     -3.66      0.00
    4   10   10     -1.56      0.00
    4   10   11      4.60      0.00
   -4   11   11      6.64      0.00
   -4   11   10      1.24      0.00
   -4   11    9     -6.07      0.00
   -4   11    8      4.39      0.00
   -4   11    7      8.09      0.00
   -4   11    6     -2.50      0.00
   -4   11    5    -20.12      0.00
   -4   11    4     16.93      0.00
   -4   11    3      0.26      0.00
   -4   11    2      0.33      0.00
   -4   11    1    -17.77      0.00
    4   11    0      9.63      0.00
    4   11    1      8.13      0.00
    4   11    2     -2.49      0.00
    4   11    3     16.90      0.00
    4   11    4    -11.84      0.00
    4   11    5     -4.12      0.00
    4   11    6      0.81      0.00
    4   11    7      3.06      0.00
    4   11    8      2.26      0.00
    4   11    9     10.50      0.00
    4   11   10    -10.30      0.00
    4   11   11      0.03      0.00
   -4   12   11      2.56      0.00
   -4   12   10     -7.12      0.00
   -4   12    9     -2.16      0.00
   -4   12    8      1.40      0.00
   -4   12    7      8.35      0.00
   -4   12    6     -5.59      0.00
   -4   12    5      0.38      0.00
   -4   12    4     10.51      0.00
   -4   12    3     -4.56      0.00
   -4   12    2    -12.55      0.00
   -4   12    1     13.73      0.00
    4   12    0     23.61      0.00
    4   12    1     13.99      0.00
    4   12    2    -22.83      0.00
    4   12    3     -9.39      0.00
    4   12    4      2.83      0.00
    4   12    5      4.76      0.00
    4   12    6     16.10      0.00
    4   12    7     -9.14      0.00
    4   12    8     -7.67      0.00
    4   12    9     10.93      0.00
    4   12   10     -1.20      0.00
    4   12   11     -5.48      0.00
   -4   13   11     -2.15      0.00
   -4   13   10      0.75      0.00
   -4   13    9     12.32      0.00
   -4   13    8     -8.90      0.00
   -4   13    7    -13.90      0.00
   -4   13    6     10.83      0.00
   -4   13    5      2.63      0.00
   -4   13    4     -5.32      0.00
   -4   13    3    -14.57      0.00
   -4   13    2      0.03      0.00
   -4   13    1     13.03      0.00
    4   13    0      3.31      0.00
    4   13    1    -15.76      0.00
    4   13    2     14.74      0.00
    4   13    3     19.23      0.00
    4   13    4    -12.69      0.00
    4   13    5      5.59      0.00
    4   13    6     10.14      0.00
    4   13    7     -4.29      0.00
    4   13    8     -3.67      0.00
    4   13    9      4.89      0.00
    4   13   10      3.11      0.00
    4   13   11     -0.74      0.00
   -4   14   11     -4.55      0.00
   -4   14   10      7.61      0.00
   -4   14    9      3.61      0.00
   -4   14    8    -10.59      0.00
   -4   14    7     -6.26      0.00
   -4   14    6     10.29      0.00
   -4   14    5      4.67      0.00
   -4   14    4    -13.02      0.00
   -4   14    3     15.15      0.00
   -4   14    2     28.92      0.00
   -4   14    1     -6.12      0.00
    4   14    0    -27.89      0.00
    4   14    1     -6.17      0.00
    4   14    2     18.06      0.00
    4   14    3    -16.15      0.00
    4   14    4      0.12      0.00
    4   14    5     12.33      0.00
    4   14    6     -3.37      0.00
    4   14    7     -0.11      0.00
    4   14    8     13.64      0.00
    4   14    9     -4.05      0.00
    4   14   10      0.04      0.00
    4   14   11      0.56      0.00
   -4   15   11      3.93      0.00
   -4   15   10      1.31      0.00
   -4   15    9     -2.65      0.00
   -4   15    8      5.52      0.00
   -4   15    7      2.81      0.00
   -4   15    6     -0.79      0.00
   -4   15    5     -1.74      0.00
   -4   15    4      9.59      0.00
   -4   15    3     -1.24      0.00
   -4   15    2      4.10      0.00
   -4   15    1     -3.43      0.00
    4   15    0     -6.74      0.00
    4   15    1     22.36      0.00
    4   15    2     21.85      0.00
    4   15    3     11.86      0.00
    4   15    4     -0.29      0.00
    4   15    5      0.92      0.00
    4   15    6    -17.53      0.00
    4   15    7      4.11      0.00
    4   15    8     17.80      0.00
    4   15    9     -4.46      0.00
    4   15   10     -4.80      0.00
    4   15   11     -4.58      0.00
   -4   16   11     -5.69      0.00
   -4   16   10     -4.38      0.00
   -4   16    9     -0.02      0.00
   -4   16    8      5.87      0.00
   -4   16    7      6.88      0.00
   -4   16    6     -8.66      0.00
   -4   16    5      3.88      0.00
   -4   16    4      9.44      0.00
   -4   16    3     -9.82      0.00
   -4   16    2    -13.27      0.00
   -4   16    1     13.65      0.00
    4   16    0     14.07      0.00
    4   16    1     -1.63      0.00
    4   16    2    -15.87      0.00
    4   16    3     -8.37      0.00
    4   16    4     11.42      0.00
    4   16    5      5.23      0.00
    4   16    6      5.80      0.00
    4   16    7     -8.93      0.00
    4   16    8     -6.91      0.00
    4   16    9     -0.85      0.00
    4   16   10      3.88      0.00
   -4   17   11     -7.48      0.00
   -4   17   10      4.41      0.00
   -4   17    9      6.58      0.00
   -4   17    8     -6.12      0.00
   -4   17    7      0.59      0.00
   -4   17    6     10.79      0.00
   -4   17    5      6.42      0.00
   -4   17    4      6.23      0.00
   -4   17    3      3.92      0.00
   -4   17    2      4.31      0.00
   -4   17    1     -1.34      0.00
    4   17    0     19.06      0.00
    4   17    1    -12.41      0.00
    4   17    2     -2.81      0.00
    4   17    3     26.96      0.00
    4   17    4    -12.28      0.00
    4   17    5     -2.28      0.00
    4   17    6     21.09      0.00
    4   17    7      2.63      0.00
    4   17    8     -6.53      0.00
    4   17    9      2.61      0.00
    4   17   10      1.37      0.00
   -4   18   10      6.78      0.00
   -4   18    9     -6.75      0.00
   -4   18    8    -10.77      0.00
   -4   18    7      1.68      0.00
   -4   18    6      6.25      0.00
   -4   18    5     -2.41      0.00
   -4   18    4     -7.05      0.00
   -4   18    3     11.50      0.00
   -4   18    2      2.93      0.00
   -4   18    1      9.74      0.00
    4   18    0      8.31      0.00
    4   18    1      0.24      0.00
    4   18    2     20.22      0.00
    4   18    3     11.39      0.00
    4   18    4      5.75      0.00
    4   18    5     -2.38      0.00
    4   18    6     -1.38      0.00
    4   18    7     -1.20      0.00
    4   18    8      3.98      0.00
    4   18    9     13.14      0.00
    4   18   10     -2.86      0.00
   -4   19   10      3.48      0.00
   -4   19    9      1.18      0.00
   -4   19    8      6.50      0.00
   -4   19    7      2.69      0.00
   -4   19    6     -4.77      0.00
   -4   19    5     -0.51      0.00
   -4   19    4      3.23      0.00
   -4   19    3      8.59      0.00
   -4   19    2     -6.51      0.00
   -4   19    1     -2.13      0.00
    4   19    0    -18.69      0.00
    4   19    1      5.23      0.00
    4   19    2     11.69      0.00
    4   19    3      5.20      0.00
    4   19    4     -1.44      0.00
    4   19    5      4.57      0.00
    4   19    6     -6.85      0.00
    4   19    7     -2.11      0.00
    4   19    8     12.12      0.00
    4   19    9     -0.97      0.00
    4   19   10     -0.97      0.00
   -4   20   10    -12.89      0.00
   -4   20    9      8.43      0.00
   -4   20    8      7.43      0.00
   -4   20    7     -3.29      0.00
   -4   20    6     -1.03      0.00
   -4   20    5     18.89      0.00
   -4   20    4      2.88      0.00
   -4   20    3     -3.98      0.00
   -4   20    2     -6.36      0.00
   -4   20    1      2.42      0.00
    4   20    0      0.79      0.00
    4   20    1      0.58      0.00
    4   20    2      0.04      0.00
    4   20    3    -15.39      0.00
    4   20    4      3.36      0.00
    4   20    5     11.64      0.00
    4   20    6      2.57      0.00
    4   20    7      5.61      0.00
    4   20    8      3.04      0.00
    4   20    9     -5.84      0.00
    4   20   10      3.20      0.00
   -4   21   10     -0.15      0.00
   -4   21    9      4.41      0.00
   -4   21    8      0.96      0.00
   -4   21    7     -6.60      0.00
   -4   21    6      6.32      0.00
   -4   21    5      9.54      0.00
   -4   21    4     -4.49      0.00
   -4   21    3     -3.18      0.00
   -4   21    2     15.80      0.00
   -4   21    1     -1.80      0.00
    4   21    0      4.53      0.00
    4   21    1      2.41      0.00
    4   21    2     -5.68      0.00
    4   21    3     13.93      0.00
    4   21    4     -0.70      0.00
    4   21    5     -7.02      0.00
    4   21    6      2.28      0.00
    4   21    7      6.52      0.00
    4   21    8     -5.53      0.00
    4   21    9     -5.68      0.00
    4   21   10      0.37      0.00
   -4   22   10     -4.99      0.00
   -4   22    9      3.96      0.00
   -4   22    8      0.04      0.00
   -4   22    7      7.42      0.00
   -4   22    6     -1.20      0.00
   -4   22    5    -10.01      0.00
   -4   22    4      5.03      0.00
   -4   22    3      8.73      0.00
   -4   22    2     -2.52      0.00
   -4   22    1     -9.75      0.00
    4   22    0      2.70      0.00
    4   22    1     -4.67      0.00
    4   22    2     -1.43      0.00
    4   22    3     12.34      0.00
    4   22    4     19.08      0.00
    4   22    5     -2.06      0.00
    4   22    6     -7.07      0.00
    4   22    7     -0.98      0.00
    4   22    8      1.03      0.00
    4   22    9     14.97      0.00
    4   22   10     -4.54      0.00
   -4   23   10      4.25      0.00
   -4   23    9     -1.91      0.00
   -4   23    8     -3.77      0.00
   -4   23    7      6.54      0.00
   -4   23    6     -6.08      0.00
   -4   23    5     -7.82      0.00
   -4   23    4     10.07      0.00
   -4   23    3      7.01      0.00
   -4   23    2     -2.28      0.00
   -4   23    1    -11.41      0.00
    4   23    0    -12.54      0.00
    4   23    1      0.26      0.00
    4   23    2     -2.63      0.00
    4   23    3    -11.34      0.00
    4   23    4     -7.64      0.00
    4   23    5      3.69      0.00
    4   23    6      6.55      0.00
    4   23    7      4.05      0.00
    4   23    8      4.72      0.00
    4   23    9      4.90      0.00
   -4   24    9      6.12      0.00
   -4   24    8     -7.29      0.00
   -4   24    7     -1.82      0.00
   -4   24    6     -4.95      0.00
   -4   24    5     10.90      0.00
   -4   24    4      0.50      0.00
   -4   24    3     -8.43      0.00
   -4   24    2     -1.03      0.00
   -4   24    1      8.34      0.00
    4   24    0      2.33      0.00
    4   24    1      8.09      0.00
    4   24    2      5.66      0.00
    4   24    3     -1.91      0.00
    4   24    4     -6.69      0.00
    4   24    5     -2.94      0.00
    4   24    6      0.73      0.00
    4   24    7      4.55      0.00
    4   24    8      2.44      0.00
    4   24    9     -2.52      0.00
   -4   25    9      0.40      0.00
   -4   25    8     10.01      0.00
   -4   25    7     -1.12      0.00
   -4   25    6     -0.58      0.00
   -4   25    5     10.75      0.00
   -4   25    4     -5.54      0.00
   -4   25    3     -4.78      0.00
   -4   25    2      2.73      0.00
   -4   25    1     -4.96      0.00
    4   25    0      0.34      0.00
    4   25    1     -8.77      0.00
    4   25    2    -13.60      0.00
    4   25    3      2.49      0.00
    4   25    4      2.15      0.00
    4   25    5     -3.62      0.00
    4   25    6      0.46      0.00
    4   25    7      4.56      0.00
    4   25    8     -3.21      0.00
    4   25    9     -6.27      0.00
   -4   26    9      4.10      0.00
   -4   26    8      2.48      0.00
   -4   26    7     -0.89      0.00
   -4   26    6     -7.94      0.00
   -4   26    5     -7.31      0.00
   -4   26    4      3.81      0.00
   -4   26    3     16.75      0.00
   -4   26    2     -1.98      0.00
   -4   26    1    -13.93      0.00
    4   26    0     -1.14      0.00
    4   26    1     -5.74      0.00
    4   26    2    -20.31      0.00
    4   26    3      0.50      0.00
    4   26    4     14.83      0.00
    4   26    5      3.18      0.00
    4   26    6     -7.15      0.00
    4   26    7      2.68      0.00
    4   26    8      3.08      0.00
    4   26    9      2.33      0.00
   -4   27    9     -1.76      0.00
   -4   27    8     -9.18      0.00
   -4   27    7      0.51      0.00
   -4   27    6      1.61      0.00
   -4   27    5     -8.38      0.00
   -4   27    4      0.26      0.00
   -4   27    3      2.99      0.00
   -4   27    2      0.34      0.00
   -4   27    1    -10.46      0.00
    4   27    0     -4.40      0.00
    4   27    1     12.57      0.00
    4   27    2     10.78      0.00
    4   27    3     -2.67      0.00
    4   27    4    -13.29      0.00
    4   27    5     -4.60      0.00
    4   27    6      0.12      0.00
    4   27    7      6.32      0.00
    4   27    8     -5.30      0.00
   -4   28    8     -4.59      0.00
   -4   28    7      1.28      0.00
   -4   28    6      2.79      0.00
   -4   28    5      0.48      0.00
   -4   28    4      2.70      0.00
   -4   28    3     -5.30      0.00
   -4   28    2     -2.67      0.00
   -4   28    1      0.49      0.00
    4   28    0     -5.90      0.00
    4   28    1      1.89      0.00
    4   28    2      3.18      0.00
    4   28    3      4.52      0.00
    4   28    4     -9.24      0.00
    4   28    5     -6.70      0.00
    4   28    6     -2.49      0.00
    4   28    7      6.69      0.00
    4   28    8      2.10      0.00
   -4   29    8      2.45      0.00
   -4   29    7     -2.79      0.00
   -4   29    6     -8.33      0.00
   -4   29    5     -0.27      0.00
   -4   29    4      2.38      0.00
   -4   29    3      0.37      0.00
   -4   29    2      5.31      0.00
   -4   29    1      1.91      0.00
    4   29    0      4.34      0.00
    4   29    1    -12.65      0.00
    4   29    2    -15.96      0.00
    4   29    3     -3.96      0.00
    4   29    4      5.63      0.00
    4   29    5      4.99      0.00
    4   29    6      7.08      0.00
    4   29    7      2.34      0.00
    4   29    8     -9.49      0.00
   -4   30    8      3.57      0.00
   -4   30    7     -3.37      0.00
   -4   30    6     -1.11      0.00
   -4   30    5     -7.88      0.00
   -4   30    4      7.59      0.00
   -4   30    3      7.61      0.00
   -4   30    2     -9.87      0.00
   -4   30    1      1.92      0.00
    4   30    0      6.60      0.00
    4   30    1      3.81      0.00
    4   30    2     -6.06      0.00
    4   30    3     -1.80      0.00
    4   30    4     15.22      0.00
    4   30    5     -5.86      0.00
    4   30    6     -5.41      0.00
    4   30    7     -1.84      0.00
    4   30    8     -2.80      0.00
   -4   31    7     -2.75      0.00
   -4   31    6      4.69      0.00
   -4   31    5      4.57      0.00
   -4   31    4      1.63      0.00
   -4   31    3     -2.17      0.00
   -4   31    2     -7.32      0.00
   -4   31    1      0.81      0.00
    4   31    0     -2.39      0.00
    4   31    1      8.36      0.00
    4   31    2     15.79      0.00
    4   31    3      4.33      0.00
    4   31    4     -3.18      0.00
    4   31    5     -8.14      0.00
    4   31    6      5.45      0.00
    4   31    7      5.27      0.00
   -4   32    7     -6.52      0.00
   -4   32    6      1.25      0.00
   -4   32    5     -2.96      0.00
   -4   32    4     -1.97      0.00
   -4   32    3      7.37      0.00
   -4   32    2      4.73      0.00
   -4   32    1     -4.72      0.00
    4   32    0    -11.64      0.00
    4   32    1     -4.73      0.00
    4   32    2      2.63      0.00
    4   32    3     -0.14      0.00
    4   32    4      2.61      0.00
    4   32    5     -2.58      0.00
    4   32    6     -4.01      0.00
    4   32    7     -2.85      0.00
   -4   33    7     -3.70      0.00
   -4   33    6     -4.31      0.00
   -4   33    5      0.77      0.00
   -4   33    4     -3.38      0.00
   -4   33    3      1.64      0.00
   -4   33    2      9.05      0.00
   -4   33    1      4.36      0.00
    4   33    0      4.79      0.00
    4   33    1      4.28      0.00
    4   33    2     -4.79      0.00
    4   33    3      4.05      0.00
    4   33    4      4.43      0.00
    4   33    5      5.39      0.00
    4   33    7      3.15      0.00
   -4   34    6     11.17      0.00
   -4   34    5      4.67      0.00
   -4   34    4      4.38      0.00
   -4   34    3      0.03      0.00
   -4   34    2     -7.07      0.00
   -4   34    1      2.04      0.00
    4   34    0     10.40      0.00
    4   34    1      1.68      0.00
    4   34    2     -4.07      0.00
    4   34    3      5.00      0.00
    4   34    4     11.27      0.00
    4   34    5    -11.19      0.00
    4   34    6      1.09      0.00
   -4   35    6     -2.34      0.00
   -4   35    5     -1.29      0.00
   -4   35    4     10.47      0.00
   -4   35    3     -2.61      0.00
   -4   35    2     -5.64      0.00
   -4   35    1      1.06      0.00
    4   35    0     -2.84      0.00
    4   35    1     -1.78      0.00
    4   35    2      7.55      0.00
    4   35    3      5.01      0.00
    4   35    4      3.55      0.00
    4   35    5     -3.91      0.00
    4   35    6      0.14      0.00
   -4   36    5     -5.31      0.00
   -4   36    4      0.26      0.00
   -4   36    3      1.44      0.00
   -4   36    2      5.48      0.00
   -4   36    1     -0.98      0.00
    4   36    0     -2.36      0.00
    4   36    1     -6.18      0.00
    4   36    2      3.40      0.00
    4   36    3      5.11      0.00
    4   36    4      9.99      0.00
   -4   37    5      3.57      0.00
   -4   37    4     -0.29      0.00
   -4   37    3     -1.41      0.00
   -4   37    2      7.28      0.00
   -4   37    1     -0.22      0.00
    4   37    0     11.03      0.00
    4   37    1      7.03      0.00
    4   37    2     -0.48      0.00
    4   37    3      3.21      0.00
    4   37    4      8.75      0.00
    4   37    5      3.13      0.00
   -4   38    4     -2.76      0.00
   -4   38    3      0.11      0.00
   -4   38    2      0.85      0.00
   -4   38    1      0.53      0.00
    4   38    0      4.37      0.00
    4   38    1     -1.34      0.00
    4   38    2    -12.56      0.00
    4   38    3      9.18      0.00
    4   38    4     -1.59      0.00
   -4   39    3     -2.78      0.00
   -4   39    2     -3.92      0.00
   -4   39    1     -2.20      0.00
    4   39    0     -1.78      0.00
    4   39    1     -3.49      0.00
    4   39    2     -1.43      0.00
    4   39    3     -0.06      0.00
   -4   40    2     -0.90      0.00
   -4   40    1     -0.93      0.00
    4   40    0      2.54      0.00
    4   40    1      0.06      0.00
    4   40    2      1.06      0.00
    4   41    0     13.81      0.00
   -5    0   10      4.86      0.00
   -5    0    8    -15.21      0.00
   -5    0    6     -7.67      0.00
   -5    0    4     -7.53      0.00
   -5    0    2     10.43      0.00
    5    0    0     -2.54      0.00
    5    0    2     20.34      0.00
    5    0    4    -16.29      0.00
    5    0    6     -2.59      0.00
    5    0    8      4.85      0.00
    5    0   10     -3.92      0.00
   -5    1   11     -6.22      0.00
   -5    1   10     -0.52      0.00
   -5    1    9     17.59      0.00
   -5    1    8     -0.51      0.00
   -5    1    7      1.77      0.00
   -5    1    6      5.03      0.00
   -5    1    5    -11.49      0.00
   -5    1    4    -11.14      0.00
   -5    1    3      3.57      0.00
   -5    1    2     14.39      0.00
   -5    1    1    -24.19      0.00
    5    1    0    -22.97      0.00
    5    1    1     -3.01      0.00
    5    1    2     30.97      0.00
    5    1    3      0.92      0.00
    5    1    4    -33.50      0.00
    5    1    5      8.10      0.00
    5    1    6     13.96      0.00
    5    1    7     -1.47      0.00
    5    1    8      2.59      0.00
    5    1    9      0.07      0.00
    5    1   10     -2.76      0.00
    5    1   11     -4.26      0.00
   -5    2   11      6.74      0.00
   -5    2   10     -1.77      0.00
   -5    2    9     -1.92      0.00
   -5    2    8     12.55      0.00
   -5    2    7      6.25      0.00
   -5    2    6      4.23      0.00
   -5    2    5      8.21      0.00
   -5    2    4    -18.35      0.00
   -5    2    3    -17.89      0.00
   -5    2    2     11.45      0.00
   -5    2    1     -8.81      0.00
    5    2    0      0.30      0.00
    5    2    1    -11.22      0.00
    5    2    2     -8.36      0.00
    5    2    3      6.60      0.00
    5    2    4     17.12      0.00
    5    2    5      4.70      0.00
    5    2    6      3.94      0.00
    5    2    7     -5.20      0.00
    5    2    8      7.05      0.00
    5    2    9      0.21      0.00
    5    2   10     -6.08      0.00
    5    2   11      1.29      0.00
   -5    3   11      7.32      0.00
   -5    3   10      1.10      0.00
   -5    3    9      5.44      0.00
   -5    3    8     -7.05      0.00
   -5    3    7    -11.64      0.00
   -5    3    6    -10.74      0.00
   -5    3    5     -1.40      0.00
   -5    3    4     27.78      0.00
   -5    3    3     -6.02      0.00
   -5    3    2     -5.08      0.00
   -5    3    1      0.36      0.00
    5    3    0     19.08      0.00
    5    3    1      9.10      0.00
    5    3    2    -31.67      0.00
    5    3    3      2.45      0.00
    5    3    4     29.51      0.00
    5    3    5     -8.98      0.00
    5    3    6     -5.98      0.00
    5    3    7     -0.21      0.00
    5    3    8      0.51      0.00
    5    3    9     -1.97      0.00
    5    3   10      5.75      0.00
    5    3   11      3.40      0.00
   -5    4   11     -2.20      0.00
   -5    4   10      3.48      0.00
   -5    4    9     13.17      0.00
   -5    4    8      7.51      0.00
   -5    4    7     -2.62      0.00
   -5    4    6     -6.31      0.00
   -5    4    5    -23.56      0.00
   -5    4    4     -8.90      0.00
   -5    4    3      0.44      0.00
   -5    4    2     12.74      0.00
   -5    4    1     19.14      0.00
    5    4    0    -21.34      0.00
    5    4    1     22.15      0.00
    5    4    2      8.22      0.00
    5    4    3    -14.27      0.00
    5    4    4     -4.40      0.00
    5    4    5    -17.19      0.00
    5    4    6      2.03      0.00
    5    4    7      7.36      0.00
    5    4    8      2.06      0.00
    5    4    9      1.56      0.00
    5    4   10     -0.53      0.00
    5    4   11      4.01      0.00
   -5    5   11     -2.06      0.00
   -5    5   10     -3.33      0.00
   -5    5    9      2.14      0.00
   -5    5    8     -3.63      0.00
   -5    5    7      5.76      0.00
   -5    5    6     20.02      0.00
   -5    5    5    -18.62      0.00
   -5    5    4     -2.36      0.00
   -5    5    3    -10.23      0.00
   -5    5    2     16.40      0.00
   -5    5    1     -1.37      0.00
    5    5    0     -9.72      0.00
    5    5    1    -12.96      0.00
    5    5    2     13.65      0.00
    5    5    3     10.64      0.00
    5    5    4     -3.83      0.00
    5    5    5      1.30      0.00
    5    5    6      6.57      0.00
    5    5    7      8.05      0.00
    5    5    8      1.48      0.00
    5    5    9     -3.36      0.00
    5    5   10     -2.38      0.00
    5    5   11     -8.79      0.00
   -5    6   11     17.40      0.00
   -5    6   10     -2.78      0.00
   -5    6    9      1.55      0.00
   -5    6    8     -4.91      0.00
   -5    6    7    -10.75      0.00
   -5    6    6     -7.99      0.00
   -5    6    5      9.74      0.00
   -5    6    4     13.54      0.00
   -5    6    3      0.21      0.00
   -5    6    2    -14.27      0.00
   -5    6    1    -35.36      0.00
    5    6    0     24.72      0.00
    5    6    1    -28.41      0.00
    5    6    2     -5.95      0.00
    5    6    3      2.46      0.00
    5    6    4      3.18      0.00
    5    6    5      5.80      0.00
    5    6    6     -1.03      0.00
    5    6    7      0.44      0.00
    5    6    8     -0.07      0.00
    5    6    9      0.74      0.00
    5    6   10     -0.50      0.00
    5    6   11     -1.40      0.00
   -5    7   11      8.79      0.00
   -5    7   10     -9.94      0.00
   -5    7    9     16.15      0.00
   -5    7    8     10.01      0.00
   -5    7    7     -4.97      0.00
   -5    7    6    -21.95      0.00
   -5    7    5     -2.66      0.00
   -5    7    4     13.68      0.00
   -5    7    3     -4.11      0.00
   -5    7    2     -6.79      0.00
   -5    7    1      9.75      0.00
    5    7    0     -3.64      0.00
    5    7    1      5.95      0.00
    5    7    2      6.55      0.00
    5    7    3      6.92      0.00
    5    7    4      0.74      0.00
    5    7    5     -2.47      0.00
    5    7    6     -6.40      0.00
    5    7    7     -2.45      0.00
    5    7    8     -0.86      0.00
    5    7    9      0.90      0.00
    5    7   10      9.24      0.00
    5    7   11     -2.74      0.00
   -5    8   11     -3.65      0.00
   -5    8   10     -8.96      0.00
   -5    8    9      2.98      0.00
   -5    8    8      8.11      0.00
   -5    8    7     10.58      0.00
   -5    8    6     -2.02      0.00
   -5    8    5     -3.49      0.00
   -5    8    4    -27.17      0.00
   -5    8    3    -16.24      0.00
   -5    8    2     18.38      0.00
   -5    8    1     41.10      0.00
    5    8    0    -39.71      0.00
    5    8    1     20.82      0.00
    5    8    2      4.80      0.00
    5    8    3     -7.02      0.00
    5    8    4      3.53      0.00
    5    8    5     -0.66      0.00
    5    8    6      4.57      0.00
    5    8    7      1.99      0.00
    5    8    8      0.57      0.00
    5    8    9     -1.41      0.00
    5    8   10      2.58      0.00
    5    8   11     -0.95      0.00
   -5    9   11      0.18      0.00
   -5    9   10      6.01      0.00
   -5    9    9     -5.38      0.00
   -5    9    8     -8.68      0.00
   -5    9    7     -5.22      0.00
   -5    9    6     -5.22      0.00
   -5    9    5     -3.25      0.00
   -5    9    4     21.87      0.00
   -5    9    3     -9.30      0.00
   -5    9    2     -4.72      0.00
   -5    9    1     35.91      0.00
    5    9    0     10.16      0.00
    5    9    1    -12.12      0.00
    5    9    2     -6.84      0.00
    5    9    3      1.94      0.00
    5    9    4      0.74      0.00
    5    9    5     -6.24      0.00
    5    9    6      3.93      0.00
    5    9    7     11.94      0.00
    5    9    8     -2.02      0.00
    5    9    9     -7.90      0.00
    5    9   10     -3.34      0.00
    5    9   11      7.77      0.00
   -5   10   11     -1.59      0.00
   -5   10   10      5.86      0.00
   -5   10    9     13.06      0.00
   -5   10    8     -4.67      0.00
   -5   10    7     -8.57      0.00
   -5   10    6     -7.01      0.00
   -5   10    5     -8.03      0.00
   -5   10    4     17.44      0.00
   -5   10    3     16.91      0.00
   -5   10    2    -40.49      0.00
   -5   10    1    -16.95      0.00
    5   10    0     26.54      0.00
    5   10    1    -14.09      0.00
    5   10    2      4.02      0.00
    5   10    3      6.16      0.00
    5   10    4      1.37      0.00
    5   10    5     -2.06      0.00
    5   10    6     -5.42      0.00
    5   10    7      0.27      0.00
    5   10    8      1.88      0.00
    5   10    9      5.62      0.00
    5   10   10     -2.59      0.00
    5   10   11     -4.07      0.00
   -5   11   11     -7.38      0.00
   -5   11   10     -9.31      0.00
   -5   11    9      4.74      0.00
   -5   11    8     10.10      0.00
   -5   11    7     -5.96      0.00
   -5   11    6      1.18      0.00
   -5   11    5     -9.90      0.00
   -5   11    4     -8.35      0.00
   -5   11    3      6.90      0.00
   -5   11    2     -6.42      0.00
   -5   11    1     19.35      0.00
    5   11    0    -10.61      0.00
    5   11    1    -23.13      0.00
    5   11    2     24.73      0.00
    5   11    3      8.02      0.00
    5   11    4     -7.43      0.00
    5   11    5     12.61      0.00
    5   11    6    -10.50      0.00
    5   11    7     -5.01      0.00
    5   11    8      0.00      0.00
    5   11    9      2.48      0.00
    5   11   10      3.57      0.00
    5   11   11     -1.22      0.00
   -5   12   11      3.39      0.00
   -5   12   10     -2.66      0.00
   -5   12    9     -9.90      0.00
   -5   12    8      0.13      0.00
   -5   12    7     -2.08      0.00
   -5   12    6     -2.17      0.00
   -5   12    5     12.62      0.00
   -5   12    4    -13.70      0.00
   -5   12    3      2.96      0.00
   -5   12    2     18.07      0.00
   -5   12    1      2.81      0.00
    5   12    0    -24.88      0.00
    5   12    1     -9.26      0.00
    5   12    2     11.37      0.00
    5   12    3     -7.41      0.00
    5   12    4     -2.41      0.00
    5   12    5      7.56      0.00
    5   12    6      8.58      0.00
    5   12    7      6.27      0.00
    5   12    8      0.34      0.00
    5   12    9     -6.82      0.00
    5   12   10      0.55      0.00
    5   12   11     -0.23      0.00
   -5   13   11      0.14      0.00
   -5   13   10     -1.62      0.00
   -5   13    9     -4.53      0.00
   -5   13    8     10.01      0.00
   -5   13    7      0.54      0.00
   -5   13    6    -14.94      0.00
   -5   13    5      8.92      0.00
   -5   13    4      9.29      0.00
   -5   13    3    -15.89      0.00
   -5   13    2    -10.49      0.00
   -5   13    1     15.62      0.00
    5   13    0     -3.51      0.00
    5   13    1      0.04      0.00
    5   13    2      2.87      0.00
    5   13    3     -8.26      0.00
    5   13    4     -4.00      0.00
    5   13    5     -8.89      0.00
    5   13    6      1.17      0.00
    5   13    7      3.20      0.00
    5   13    8     -5.14      0.00
    5   13    9     -3.79      0.00
    5   13   10     -9.13      0.00
    5   13   11      8.10      0.00
   -5   14   11    -10.05      0.00
   -5   14   10      1.81      0.00
   -5   14    9     10.80      0.00
   -5   14    8    -10.57      0.00
   -5   14    7      0.02      0.00
   -5   14    6    -11.56      0.00
   -5   14    5     -0.51      0.00
   -5   14    4      8.41      0.00
   -5   14    3      0.44      0.00
   -5   14    2     -9.75      0.00
   -5   14    1      6.52      0.00
    5   14    0      9.46      0.00
    5   14    1     18.71      0.00
    5   14    2     -4.59      0.00
    5   14    3      0.51      0.00
    5   14    4     12.01      0.00
    5   14    5     -8.68      0.00
    5   14    6     -5.23      0.00
    5   14    7      1.22      0.00
    5   14    8     -2.30      0.00
    5   14    9     13.27      0.00
    5   14   10      3.96      0.00
   -5   15   11    -13.22      0.00
   -5   15   10      4.66      0.00
   -5   15    9      2.06      0.00
   -5   15    8    -12.27      0.00
   -5   15    7     -5.72      0.00
   -5   15    6      7.83      0.00
   -5   15    5     -1.46      0.00
   -5   15    4      5.17      0.00
   -5   15    3     -1.85      0.00
   -5   15    2    -13.88      0.00
   -5   15    1     16.35      0.00
    5   15    0     -9.77      0.00
    5   15    1    -21.69      0.00
    5   15    2     -7.22      0.00
    5   15    3     15.60      0.00
    5   15    4     -1.48      0.00
    5   15    5     -7.78      0.00
    5   15    6      3.30      0.00
    5   15    7      3.85      0.00
    5   15    8     -1.92      0.00
    5   15    9      0.11      0.00
    5   15   10     -0.84      0.00
   -5   16   10      3.91      0.00
   -5   16    9     -7.31      0.00
   -5   16    8     -4.30      0.00
   -5   16    7      6.08      0.00
   -5   16    6      1.72      0.00
   -5   16    5     -4.30      0.00
   -5   16    4     -6.11      0.00
   -5   16    3     19.89      0.00
   -5   16    2      6.94      0.00
   -5   16    1    -22.51      0.00
    5   16    0     -9.95      0.00
    5   16    1    -12.48      0.00
    5   16    2     17.40      0.00
    5   16    3      4.92      0.00
    5   16    4    -21.53      0.00
    5   16    5      0.00      0.00
    5   16    6      0.99      0.00
    5   16    7     -1.15      0.00
    5   16    8      3.68      0.00
    5   16    9     -3.87      0.00
    5   16   10     -7.38      0.00
   -5   17   10      0.58      0.00
   -5   17    9     -6.96      0.00
   -5   17    8      7.19      0.00
   -5   17    7      2.10      0.00
   -5   17    6     -4.66      0.00
   -5   17    5      6.45      0.00
   -5   17    4     -7.12      0.00
   -5   17    3      2.15      0.00
   -5   17    2     -1.66      0.00
   -5   17    1     -3.50      0.00
    5   17    0    -12.95      0.00
    5   17    1    -10.81      0.00
    5   17    2     14.10      0.00
    5   17    3     -1.76      0.00
    5   17    4    -14.51      0.00
    5   17    5     12.98      0.00
    5   17    6     -1.35      0.00
    5   17    7    -18.13      0.00
    5   17    8      7.03      0.00
    5   17    9      4.93      0.00
    5   17   10     -7.35      0.00
   -5   18   10      2.73      0.00
   -5   18    9      5.72      0.00
   -5   18    8    -10.88      0.00
   -5   18    7    -10.78      0.00
   -5   18    6    -17.70      0.00
   -5   18    5     10.91      0.00
   -5   18    4      4.25      0.00
   -5   18    3     -8.79      0.00
   -5   18    2     -0.65      0.00
   -5   18    1     12.35      0.00
    5   18    0      8.85      0.00
    5   18    1     13.76      0.00
    5   18    2     -2.05      0.00
    5   18    3     -9.34      0.00
    5   18    4      1.93      0.00
    5   18    5      3.57      0.00
    5   18    6      4.03      0.00
    5   18    7      2.13      0.00
    5   18    8     -2.20      0.00
    5   18    9      6.00      0.00
    5   18   10     -2.36      0.00
   -5   19   10     -0.71      0.00
   -5   19    9      1.50      0.00
   -5   19    8     -2.41      0.00
   -5   19    7      7.37      0.00
   -5   19    6     -0.79      0.00
   -5   19    5      1.59      0.00
   -5   19    4     16.31      0.00
   -5   19    3    -12.09      0.00
   -5   19    2    -10.87      0.00
   -5   19    1     -0.51      0.00
    5   19    0      6.98      0.00
    5   19    1      0.78      0.00
    5   19    2     -7.58      0.00
    5   19    3      9.59      0.00
    5   19    4     -6.87      0.00
    5   19    5    -47.52      0.00
    5   19    6      8.51      0.00
    5   19    7      7.93      0.00
    5   19    8     -7.10      0.00
    5   19    9     -5.70      0.00
    5   19   10     -0.09      0.00
   -5   20   10    -14.41      0.00
   -5   20    9     -6.07      0.00
   -5   20    8     -5.84      0.00
   -5   20    7      7.31      0.00
   -5   20    6      0.87      0.00
   -5   20    5    -17.51      0.00
   -5   20    4      3.43      0.00
   -5   20    3      8.86      0.00
   -5   20    2     12.57      0.00
   -5   20    1    -10.17      0.00
    5   20    0     -8.40      0.00
    5   20    1    -13.27      0.00
    5   20    2      2.35      0.00
    5   20    3     11.21      0.00
    5   20    4      2.66      0.00
    5   20    5     -7.50      0.00
    5   20    6      3.44      0.00
    5   20    7      3.93      0.00
    5   20    8     -5.36      0.00
    5   20    9      6.13      0.00
    5   20   10      1.52      0.00
   -5   21   10      5.92      0.00
   -5   21    9      5.11      0.00
   -5   21    8     -1.52      0.00
   -5   21    7     -4.05      0.00
   -5   21    6      0.82      0.00
   -5   21    5     -2.43      0.00
   -5   21    4     -2.45      0.00
   -5   21    3     -0.65      0.00
   -5   21    2      7.13      0.00
   -5   21    1     -0.15      0.00
    5   21    0     -8.25      0.00
    5   21    1     -4.53      0.00
    5   21    2      6.54      0.00
    5   21    3      4.23      0.00
    5   21    4      0.00      0.00
    5   21    5     18.93      0.00
    5   21    6      2.00      0.00
    5   21    7    -14.48      0.00
    5   21    8      0.64      0.00
    5   21    9      5.13      0.00
   -5   22   10      4.90      0.00
   -5   22    9     10.49      0.00
   -5   22    8     -4.25      0.00
   -5   22    7    -11.37      0.00
   -5   22    6      0.35      0.00
   -5   22    5     11.66      0.00
   -5   22    4     -2.74      0.00
   -5   22    3     -2.02      0.00
   -5   22    2     -8.47      0.00
   -5   22    1      2.77      0.00
    5   22    0     10.03      0.00
    5   22    1     14.78      0.00
    5   22    2     11.50      0.00
    5   22    3    -12.64      0.00
    5   22    5      7.61      0.00
    5   22    6      1.87      0.00
    5   22    7     -4.39      0.00
    5   22    8      1.03      0.00
    5   22    9     -9.20      0.00
   -5   23    9     -4.70      0.00
   -5   23    8      1.17      0.00
   -5   23    7      8.84      0.00
   -5   23    6     -8.40      0.00
   -5   23    5     -4.31      0.00
   -5   23    4      0.41      0.00
   -5   23    3      6.14      0.00
   -5   23    2      0.91      0.00
   -5   23    1     -3.16      0.00
    5   23    0      0.48      0.00
    5   23    1     -7.99      0.00
    5   23    2      1.71      0.00
    5   23    3      5.39      0.00
    5   23    4     -3.54      0.00
    5   23    5    -15.95      0.00
    5   23    6      0.29      0.00
    5   23    7      8.56      0.00
    5   23    8      0.92      0.00
    5   23    9     -0.43      0.00
   -5   24    9      2.99      0.00
   -5   24    8      2.31      0.00
   -5   24    7      7.47      0.00
   -5   24    6     -5.39      0.00
   -5   24    5    -12.15      0.00
   -5   24    4      2.39      0.00
   -5   24    3     10.00      0.00
   -5   24    2      4.22      0.00
   -5   24    1     -2.29      0.00
    5   24    0     -0.36      0.00
    5   24    1    -16.49      0.00
    5   24    2     -4.00      0.00
    5   24    3     13.73      0.00
    5   24    4     19.47      0.00
    5   24    5     -2.21      0.00
    5   24    6      6.94      0.00
    5   24    7     -1.69      0.00
    5   24    8    -15.99      0.00
    5   24    9      9.46      0.00
   -5   25    9      8.17      0.00
   -5   25    8      6.67      0.00
   -5   25    7     -1.19      0.00
   -5   25    6      0.75      0.00
   -5   25    5      7.88      0.00
   -5   25    4      1.38      0.00
   -5   25    3     -7.00      0.00
   -5   25    2      1.75      0.00
   -5   25    1      2.23      0.00
    5   25    0      0.51      0.00
    5   25    1     14.48      0.00
    5   25    2      7.37      0.00
    5   25    3     -3.94      0.00
    5   25    4      4.75      0.00
    5   25    5      4.06      0.00
    5   25    6      3.46      0.00
    5   25    7     -5.30      0.00
    5   25    8     -7.49      0.00
    5   25    9      4.26      0.00
   -5   26    9      2.59      0.00
   -5   26    8      1.46      0.00
   -5   26    7     -8.36      0.00
   -5   26    6      7.71      0.00
   -5   26    5      7.93      0.00
   -5   26    4     -4.13      0.00
   -5   26    3     -2.36      0.00
   -5   26    2      5.75      0.00
   -5   26    1      5.24      0.00
    5   26    0     -4.77      0.00
    5   26    1      7.10      0.00
    5   26    2      1.56      0.00
    5   26    3    -11.53      0.00
    5   26    4    -16.07      0.00
    5   26    5      3.46      0.00
    5   26    6     14.78      0.00
    5   26    7      2.05      0.00
    5   26    8     14.07      0.00
   -5   27    8     11.88      0.00
   -5   27    7      1.53      0.00
   -5   27    6      1.11      0.00
   -5   27    5     -6.55      0.00
   -5   27    4     -7.32      0.00
   -5   27    3     11.91      0.00
   -5   27    2      1.10      0.00
   -5   27    1     -4.31      0.00
    5   27    0      1.32      0.00
    5   27    1     -9.35      0.00
    5   27    2     -3.47      0.00
    5   27    3      7.42      0.00
    5   27    4      9.00      0.00
    5   27    5      8.33      0.00
    5   27    6    -15.23      0.00
    5   27    7      1.55      0.00
    5   27    8      0.96      0.00
   -5   28    8      8.77      0.00
   -5   28    7      2.40      0.00
   -5   28    6      5.05      0.00
   -5   28    5     -2.70      0.00
   -5   28    4      7.11      0.00
   -5   28    3     17.22      0.00
   -5   28    2     -7.26      0.00
   -5   28    1      5.64      0.00
    5   28    0      9.81      0.00
    5   28    1     -1.78      0.00
    5   28    2     -3.55      0.00
    5   28    3      6.35      0.00
    5   28    4      4.90      0.00
    5   28    5     -1.99      0.00
    5   28    6     -1.64      0.00
    5   28    7     -7.57      0.00
    5   28    8     -5.73      0.00
   -5   29    8      9.74      0.00
   -5   29    7     -1.64      0.00
   -5   29    6      1.81      0.00
   -5   29    5      8.09      0.00
   -5   29    4     -0.81      0.00
   -5   29    3     -2.81      0.00
   -5   29    2     -4.06      0.00
   -5   29    1      1.77      0.00
    5   29    0     -1.48      0.00
    5   29    1      8.24      0.00
    5   29    2      2.44      0.00
    5   29    3     -3.99      0.00
    5   29    4     -2.11      0.00
    5   29    5      7.61      0.00
    5   29    6      5.78      0.00
    5   29    7      5.89      0.00
    5   29    8     -2.60      0.00
   -5   30    7      1.25      0.00
   -5   30    6      3.29      0.00
   -5   30    5      4.72      0.00
   -5   30    4     -2.77      0.00
   -5   30    3     -6.90      0.00
   -5   30    2      7.15      0.00
   -5   30    1      3.32      0.00
    5   30    0    -11.99      0.00
    5   30    1     -4.21      0.00
    5   30    2     -4.56      0.00
    5   30    3      3.19      0.00
    5   30    4      5.95      0.00
    5   30    5     -7.06      0.00
    5   30    6     13.99      0.00
    5   30    7     -1.18      0.00
   -5   31    7      0.23      0.00
   -5   31    6     -2.26      0.00
   -5   31    5      8.37      0.00
   -5   31    4      4.13      0.00
   -5   31    3     13.49      0.00
   -5   31    2      7.01      0.00
   -5   31    1     -9.93      0.00
    5   31    0      7.96      0.00
    5   31    1     -0.39      0.00
    5   31    2     -8.20      0.00
    5   31    3     -1.19      0.00
    5   31    4      1.91      0.00
    5   31    5     -1.96      0.00
    5   31    7     -4.52      0.00
   -5   32    7      2.52      0.00
   -5   32    6     -0.08      0.00
   -5   32    5      6.13      0.00
   -5   32    4      7.70      0.00
   -5   32    3      6.28      0.00
   -5   32    2     -6.95      0.00
   -5   32    1      6.75      0.00
    5   32    0      8.10      0.00
    5   32    1      6.34      0.00
    5   32    2    -10.67      0.00
    5   32    3     -5.49      0.00
    5   32    4      1.03      0.00
    5   32    5      1.69      0.00
    5   32    6     -7.89      0.00
    5   32    7      2.55      0.00
   -5   33    6      5.16      0.00
   -5   33    5      3.67      0.00
   -5   33    4     -5.93      0.00
   -5   33    3     -6.09      0.00
   -5   33    2      1.02      0.00
   -5   33    1     -0.72      0.00
    5   33    0     -3.65      0.00
    5   33    1     -2.01      0.00
    5   33    2      0.92      0.00
    5   33    3      4.97      0.00
    5   33    4     -3.64      0.00
    5   33    5      9.38      0.00
    5   33    6    -11.68      0.00
   -5   34    6      1.17      0.00
   -5   34    5     -1.58      0.00
   -5   34    4      5.37      0.00
   -5   34    3      5.63      0.00
   -5   34    2      5.19      0.00
   -5   34    1     -5.44      0.00
    5   34    0    -11.53      0.00
    5   34    1     -6.44      0.00
    5   34    2      2.68      0.00
    5   34    3      4.28      0.00
    5   34    4      4.70      0.00
    5   34    5     -2.79      0.00
    5   34    6      7.89      0.00
   -5   35    5      1.16      0.00
   -5   35    4      7.95      0.00
   -5   35    3      1.48      0.00
   -5   35    2      7.97      0.00
   -5   35    1     -5.96      0.00
    5   35    0      1.83      0.00
    5   35    1     -1.36      0.00
    5   35    2     -1.53      0.00
    5   35    3    -11.52      0.00
    5   35    4     -3.79      0.00
    5   35    5    -17.56      0.00
   -5   36    5      4.24      0.00
   -5   36    4      5.29      0.00
   -5   36    3     -1.72      0.00
   -5   36    2     -8.95      0.00
   -5   36    1      4.18      0.00
    5   36    0      1.31      0.00
    5   36    1      7.27      0.00
    5   36    2     -6.04      0.00
    5   36    3     -5.98      0.00
    5   36    4      6.30      0.00
    5   36    5     -2.32      0.00
   -5   37    4     -2.10      0.00
   -5   37    3      1.19      0.00
   -5   37    2      5.01      0.00
   -5   37    1      1.24      0.00
    5   37    0      2.61      0.00
    5   37    1     -8.80      0.00
    5   37    2     -6.24      0.00
    5   37    3     12.91      0.00
   -5   38    4     -5.93      0.00
   -5   38    3      8.57      0.00
   -5   38    2     -0.87      0.00
   -5   38    1     -6.19      0.00
    5   38    0      0.39      0.00
    5   38    1     -4.95      0.00
    5   38    2      0.02      0.00
    5   38    3      5.46      0.00
   -5   39    3     -0.70      0.00
   -5   39    2      1.11      0.00
   -5   39    1     -2.63      0.00
    5   39    0     -7.46      0.00
    5   39    1     -1.54      0.00
    5   39    2      0.84      0.00
   -5   40    1     -5.10      0.00
    5   40    0     -2.12      0.00
    5   40    1     11.20      0.00
   -6    0   10     -1.93      0.00
   -6    0    8      0.46      0.00
   -6    0    6    -13.57      0.00
   -6    0    4     15.35      0.00
   -6    0    2      9.24      0.00
    6    0    0    -16.24      0.00
    6    0    2     29.33      0.00
    6    0    4      7.12      0.00
    6    0    6     -3.44      0.00
    6    0    8     -7.81      0.00
    6    0   10      4.73      0.00
   -6    1   11      4.48      0.00
   -6    1   10     -1.25      0.00
   -6    1    9     -4.75      0.00
   -6    1    8     -7.00      0.00
   -6    1    7     -4.05      0.00
   -6    1    6      6.78      0.00
   -6    1    5      0.00      0.00
   -6    1    4     24.24      0.00
   -6    1    3      0.77      0.00
   -6    1    2      2.07      0.00
   -6    1    1    -14.80      0.00
    6    1    0     10.31      0.00
    6    1    1     14.63      0.00
    6    1    2     -4.78      0.00
    6    1    3    -15.42      0.00
    6    1    4      1.66      0.00
    6    1    5      3.94      0.00
    6    1    6     -6.25      0.00
    6    1    7      4.08      0.00
    6    1    8      0.60      0.00
    6    1    9      3.60      0.00
    6    1   10     -2.71      0.00
    6    1   11     -2.59      0.00
   -6    2   11     10.50      0.00
   -6    2   10      5.27      0.00
   -6    2    9     -8.15      0.00
   -6    2    8     -1.14      0.00
   -6    2    7      9.15      0.00
   -6    2    6      9.69      0.00
   -6    2    5    -22.47      0.00
   -6    2    4      4.43      0.00
   -6    2    3    -14.21      0.00
   -6    2    2      8.65      0.00
   -6    2    1     20.03      0.00
    6    2    0     -8.80      0.00
    6    2    1      3.54      0.00
    6    2    2    -17.09      0.00
    6    2    3     -2.14      0.00
    6    2    4    -38.17      0.00
    6    2    5     -2.41      0.00
    6    2    6      8.38      0.00
    6    2    7      5.77      0.00
    6    2    8     16.85      0.00
    6    2    9     -2.11      0.00
    6    2   10     -1.30      0.00
    6    2   11     -3.88      0.00
   -6    3   11     11.60      0.00
   -6    3   10      6.89      0.00
   -6    3    9      1.54      0.00
   -6    3    8      0.13      0.00
   -6    3    7    -12.57      0.00
   -6    3    6      0.44      0.00
   -6    3    5     -8.43      0.00
   -6    3    4      4.72      0.00
   -6    3    3      6.29      0.00
   -6    3    2    -19.92      0.00
   -6    3    1     -7.39      0.00
    6    3    0    -17.02      0.00
    6    3    1      6.74      0.00
    6    3    2     13.27      0.00
    6    3    3     24.69      0.00
    6    3    4     -4.64      0.00
    6    3    5      1.03      0.00
    6    3    6      3.63      0.00
    6    3    7     -3.81      0.00
    6    3    8     -6.01      0.00
    6    3    9     -1.58      0.00
    6    3   10     -1.88      0.00
    6    3   11      5.89      0.00
   -6    4   11      7.24      0.00
   -6    4   10     -7.86      0.00
   -6    4    9     -4.60      0.00
   -6    4    8     11.15      0.00
   -6    4    7     -1.69      0.00
   -6    4    6     -7.66      0.00
   -6    4    5     16.45      0.00
   -6    4    4      2.10      0.00
   -6    4    3     18.52      0.00
   -6    4    2     14.38      0.00
   -6    4    1      3.03      0.00
    6    4    0    -17.21      0.00
    6    4    1      1.51      0.00
    6    4    2     -0.46      0.00
    6    4    3     -7.45      0.00
    6    4    4      5.56      0.00
    6    4    5      3.61      0.00
    6    4    6      7.08      0.00
    6    4    7     -2.08      0.00
    6    4    8     -2.66      0.00
    6    4    9      2.31      0.00
    6    4   10     -1.75      0.00
    6    4   11     -2.05      0.00
   -6    5   11      1.47      0.00
   -6    5   10     -2.28      0.00
   -6    5    9     -7.60      0.00
   -6    5    8    -10.00      0.00
   -6    5    7     -4.87      0.00
   -6    5    6      2.91      0.00
   -6    5    5     12.25      0.00
   -6    5    4    -17.50      0.00
   -6    5    3      0.13      0.00
   -6    5    2     19.74      0.00
   -6    5    1    -10.60      0.00
    6    5    0     17.04      0.00
    6    5    1     37.72      0.00
    6    5    2      0.87      0.00
    6    5    3    -35.69      0.00
    6    5    4      1.71      0.00
    6    5    5     -3.75      0.00
    6    5    6     -7.77      0.00
    6    5    7     -2.19      0.00
    6    5    8      4.98      0.00
    6    5    9      9.96      0.00
    6    5   10     -9.06      0.00
    6    5   11     -7.92      0.00
   -6    6   11     10.80      0.00
   -6    6   10      5.29      0.00
   -6    6    9      1.29      0.00
   -6    6    8     -6.92      0.00
   -6    6    7      5.26      0.00
   -6    6    6     -7.01      0.00
   -6    6    5     -4.55      0.00
   -6    6    4      5.93      0.00
   -6    6    3     -9.43      0.00
   -6    6    2    -13.48      0.00
   -6    6    1     23.45      0.00
    6    6    0     -6.78      0.00
    6    6    1      6.71      0.00
    6    6    2     12.37      0.00
    6    6    3     -3.53      0.00
    6    6    4      2.32      0.00
    6    6    5     -9.48      0.00
    6    6    6     -0.88      0.00
    6    6    7      8.26      0.00
    6    6    8      2.28      0.00
    6    6    9     -5.58      0.00
    6    6   10     -0.78      0.00
    6    6   11     -5.51      0.00
   -6    7   11      5.30      0.00
   -6    7   10      4.81      0.00
   -6    7    9      8.29      0.00
   -6    7    8      1.76      0.00
   -6    7    7      2.53      0.00
   -6    7    6     -0.45      0.00
   -6    7    5    -14.47      0.00
   -6    7    4     19.45      0.00
   -6    7    3     22.56      0.00
   -6    7    2    -27.17      0.00
   -6    7    1      1.63      0.00
    6    7    0    -20.07      0.00
    6    7    1    -18.41      0.00
    6    7    2      0.61      0.00
    6    7    3     14.52      0.00
    6    7    4      1.10      0.00
    6    7    5      0.30      0.00
    6    7    6      0.43      0.00
    6    7    7      0.26      0.00
    6    7    8     -0.08      0.00
    6    7    9     -3.91      0.00
    6    7   10      0.45      0.00
    6    7   11      8.40      0.00
   -6    8   11      5.43      0.00
   -6    8   10    -13.98      0.00
   -6    8    9     -1.91      0.00
   -6    8    8      3.34      0.00
   -6    8    7      3.59      0.00
   -6    8    6      8.46      0.00
   -6    8    5      6.83      0.00
   -6    8    4     -8.51      0.00
   -6    8    3     11.47      0.00
   -6    8    2    -17.96      0.00
   -6    8    1      1.27      0.00
    6    8    0     28.20      0.00
    6    8    1      7.18      0.00
    6    8    2     -7.22      0.00
    6    8    3     -6.51      0.00
    6    8    4      0.50      0.00
    6    8    5      3.43      0.00
    6    8    6     -5.31      0.00
    6    8    7      3.35      0.00
    6    8    8      8.64      0.00
    6    8    9     -5.07      0.00
    6    8   10     -8.09      0.00
    6    8   11      0.25      0.00
   -6    9   11      5.13      0.00
   -6    9   10      3.22      0.00
   -6    9    9      2.60      0.00
   -6    9    8     -8.15      0.00
   -6    9    7    -12.36      0.00
   -6    9    6      3.89      0.00
   -6    9    5      9.60      0.00
   -6    9    4    -20.87      0.00
   -6    9    3      3.79      0.00
   -6    9    2     27.74      0.00
   -6    9    1     -8.09      0.00
    6    9    0      4.88      0.00
    6    9    1     25.48      0.00
    6    9    2      5.35      0.00
    6    9    3    -10.96      0.00
    6    9    4     -1.48      0.00
    6    9    5      0.63      0.00
    6    9    6     -7.50      0.00
    6    9    7     -4.45      0.00
    6    9    8      4.78      0.00
    6    9    9      2.07      0.00
    6    9   10      1.15      0.00
    6    9   11     -4.81      0.00
   -6   10   11     -0.87      0.00
   -6   10   10      8.69      0.00
   -6   10    9      4.84      0.00
   -6   10    8      2.73      0.00
   -6   10    7     -1.30      0.00
   -6   10    6    -10.17      0.00
   -6   10    5     10.92      0.00
   -6   10    4     -7.65      0.00
   -6   10    3     -3.83      0.00
   -6   10    2     18.75      0.00
   -6   10    1     -7.75      0.00
    6   10    0    -20.47      0.00
    6   10    1     -3.97      0.00
    6   10    2     11.79      0.00
    6   10    3     -0.65      0.00
    6   10    4      4.05      0.00
    6   10    5      4.76      0.00
    6   10    6      5.44      0.00
    6   10    7      3.00      0.00
    6   10    8     -9.34      0.00
    6   10    9     -5.03      0.00
    6   10   10      3.53      0.00
   -6   11   11     -1.22      0.00
   -6   11   10     11.96      0.00
   -6   11    9    -10.40      0.00
   -6   11    8      5.46      0.00
   -6   11    7      8.90      0.00
   -6   11    6     -6.95      0.00
   -6   11    5      0.97      0.00
   -6   11    4     11.51      0.00
   -6   11    3     -9.62      0.00
   -6   11    2     -2.80      0.00
   -6   11    1     -1.35      0.00
    6   11    0      1.88      0.00
    6   11    1      7.62      0.00
    6   11    2     -1.52      0.00
    6   11    3      2.65      0.00
    6   11    4     -4.24      0.00
    6   11    5     -8.13      0.00
    6   11    6    -11.24      0.00
    6   11    7      4.99      0.00
    6   11    8      5.88      0.00
    6   11    9     -4.28      0.00
    6   11   10     -4.25      0.00
   -6   12   11     -4.50      0.00
   -6   12   10     -7.86      0.00
   -6   12    9      2.94      0.00
   -6   12    8      3.59      0.00
   -6   12    7      8.58      0.00
   -6   12    6      4.81      0.00
   -6   12    5      1.67      0.00
   -6   12    4      9.44      0.00
   -6   12    3     -2.63      0.00
   -6   12    2    -29.35      0.00
   -6   12    1      4.54      0.00
    6   12    0     38.93      0.00
    6   12    1     -5.63      0.00
    6   12    2     -5.93      0.00
    6   12    3     -1.25      0.00
    6   12    4      2.22      0.00
    6   12    5      3.02      0.00
    6   12    6     -8.35      0.00
    6   12    7      2.83      0.00
    6   12    8     12.32      0.00
    6   12    9      0.18      0.00
    6   12   10     -4.52      0.00
   -6   13   11     17.84      0.00
   -6   13   10      0.60      0.00
   -6   13    9     15.87      0.00
   -6   13    8    -11.03      0.00
   -6   13    7     -5.66      0.00
   -6   13    6      2.40      0.00
   -6   13    5    -10.24      0.00
   -6   13    4      1.93      0.00
   -6   13    3     15.49      0.00
   -6   13    2      6.90      0.00
   -6   13    1     -6.70      0.00
    6   13    0      3.31      0.00
    6   13    1     -4.61      0.00
    6   13    2      4.79      0.00
    6   13    3      7.07      0.00
    6   13    4     -2.71      0.00
    6   13    5      6.82      0.00
    6   13    6     10.91      0.00
    6   13    7     -6.79      0.00
    6   13    8     -8.84      0.00
    6   13    9     -4.68      0.00
    6   13   10      4.98      0.00
   -6   14   10     -1.08      0.00
   -6   14    9     -1.69      0.00
   -6   14    8     -1.17      0.00
   -6   14    7      4.22      0.00
   -6   14    6      9.83      0.00
   -6   14    5      1.60      0.00
   -6   14    4    -11.58      0.00
   -6   14    3     -0.70      0.00
   -6   14    2     13.57      0.00
   -6   14    1    -28.27      0.00
    6   14    0      0.23      0.00
    6   14    1     -9.45      0.00
    6   14    2     11.60      0.00
    6   14    3     -0.99      0.00
    6   14    4    -10.16      0.00
    6   14    5     -1.25      0.00
    6   14    6     -0.10      0.00
    6   14    7      1.77      0.00
    6   14    8     -3.04      0.00
    6   14    9     -4.11      0.00
    6   14   10      1.34      0.00
   -6   15   10      6.44      0.00
   -6   15    9     -2.08      0.00
   -6   15    8      9.40      0.00
   -6   15    7     -1.93      0.00
   -6   15    6     -6.21      0.00
   -6   15    5      9.93      0.00
   -6   15    4     -8.93      0.00
   -6   15    3    -18.77      0.00
   -6   15    2      9.35      0.00
   -6   15    1     -2.13      0.00
    6   15    0    -10.71      0.00
    6   15    1     12.52      0.00
    6   15    2     14.38      0.00
    6   15    3     -2.78      0.00
    6   15    4      5.27      0.00
    6   15    5    -11.92      0.00
    6   15    6    -23.68      0.00
    6   15    7     16.09      0.00
    6   15    8     10.82      0.00
    6   15    9     -6.51      0.00
    6   15   10     -7.23      0.00
   -6   16   10      4.42      0.00
   -6   16    9      5.70      0.00
   -6   16    8      5.66      0.00
   -6   16    7      0.20      0.00
   -6   16    6     -8.63      0.00
   -6   16    5      6.85      0.00
   -6   16    4     12.45      0.00
   -6   16    3      6.13      0.00
   -6   16    2     -6.05      0.00
   -6   16    1     -2.81      0.00
    6   16    0      8.95      0.00
    6   16    1     -7.36      0.00
    6   16    2      0.38      0.00
    6   16    3     -4.97      0.00
    6   16    4     12.48      0.00
    6   16    5     16.81      0.00
    6   16    6     -6.78      0.00
    6   16    7     -5.75      0.00
    6   16    8      3.17      0.00
    6   16    9      1.37      0.00
    6   16   10      5.16      0.00
   -6   17   10     -3.19      0.00
   -6   17    9     15.18      0.00
   -6   17    8    -12.86      0.00
   -6   17    7      5.65      0.00
   -6   17    6      7.91      0.00
   -6   17    5     -2.80      0.00
   -6   17    4      0.60      0.00
   -6   17    3      6.57      0.00
   -6   17    2     -3.56      0.00
   -6   17    1      5.02      0.00
    6   17    0     16.73      0.00
    6   17    1      4.83      0.00
    6   17    2     -7.24      0.00
    6   17    3     -2.18      0.00
    6   17    4    -13.15      0.00
    6   17    5      2.06      0.00
    6   17    6     11.23      0.00
    6   17    7     -4.11      0.00
    6   17    8     -6.09      0.00
    6   17    9     -1.19      0.00
    6   17   10     -0.27      0.00
   -6   18   10     -2.93      0.00
   -6   18    9     -4.94      0.00
   -6   18    8      0.91      0.00
   -6   18    7      6.91      0.00
   -6   18    6      3.92      0.00
   -6   18    5    -17.68      0.00
   -6   18    4     -2.13      0.00
   -6   18    3     -1.58      0.00
   -6   18    2     -1.76      0.00
   -6   18    1     -5.21      0.00
    6   18    0     -4.94      0.00
    6   18    1    -14.22      0.00
    6   18    2      3.53      0.00
    6   18    3     23.75      0.00
    6   18    4    -10.06      0.00
    6   18    5    -15.10      0.00
    6   18    6      5.47      0.00
    6   18    7      4.53      0.00
    6   18    8      1.55      0.00
    6   18    9      3.69      0.00
    6   18   10     -4.12      0.00
   -6   19   10     -3.31      0.00
   -6   19    9      2.33      0.00
   -6   19    8      9.52      0.00
   -6   19    7    -11.11      0.00
   -6   19    6      2.21      0.00
   -6   19    5      8.50      0.00
   -6   19    4     -0.28      0.00
   -6   19    3     -3.05      0.00
   -6   19    2      0.47      0.00
   -6   19    1      1.90      0.00
    6   19    0    -12.38      0.00
    6   19    1      1.92      0.00
    6   19    2      9.98      0.00
    6   19    3      8.80      0.00
    6   19    4     10.52      0.00
    6   19    5    -10.18      0.00
    6   19    6     -6.49      0.00
    6   19    7     -0.05      0.00
    6   19    8      3.35      0.00
    6   19    9      2.49      0.00
   -6   20   10      7.38      0.00
   -6   20    9      0.85      0.00
   -6   20    8      3.74      0.00
   -6   20    7    -12.98      0.00
   -6   20    6     -5.64      0.00
   -6   20    5     15.51      0.00
   -6   20    4      0.59      0.00
   -6   20    3      3.25      0.00
   -6   20    2      9.89      0.00
   -6   20    1     -4.86      0.00
    6   20    0      3.44      0.00
    6   20    1      4.67      0.00
    6   20    2      1.92      0.00
    6   20    3    -20.66      0.00
    6   20    4      5.64      0.00
    6   20    5      9.94      0.00
    6   20    6     -4.05      0.00
    6   20    7     -6.70      0.00
    6   20    8      1.77      0.00
    6   20    9      6.18      0.00
   -6   21    9     21.45      0.00
   -6   21    8      0.38      0.00
   -6   21    7     -0.17      0.00
   -6   21    6      7.35      0.00
   -6   21    5      3.42      0.00
   -6   21    4    -15.10      0.00
   -6   21    3     -1.43      0.00
   -6   21    2     10.01      0.00
   -6   21    1     -5.17      0.00
    6   21    0      2.15      0.00
    6   21    1      7.36      0.00
    6   21    2     -3.67      0.00
    6   21    3     -4.89      0.00
    6   21    4      5.19      0.00
    6   21    5     -4.16      0.00
    6   21    6     -0.58      0.00
    6   21    7      7.44      0.00
    6   21    8     11.06      0.00
    6   21    9      2.78      0.00
   -6   22    9     -2.10      0.00
   -6   22    8     -3.91      0.00
   -6   22    7      2.29      0.00
   -6   22    6     -6.18      0.00
   -6   22    5     -6.57      0.00
   -6   22    4     -0.09      0.00
   -6   22    3      4.52      0.00
   -6   22    2      5.34      0.00
   -6   22    1     -1.79      0.00
    6   22    0     -3.91      0.00
    6   22    1     -7.79      0.00
    6   22    2      1.69      0.00
    6   22    3     24.24      0.00
    6   22    4     -0.37      0.00
    6   22    5    -17.26      0.00
    6   22    6     -3.71      0.00
    6   22    7      3.34      0.00
    6   22    8     -4.15      0.00
    6   22    9     -0.49      0.00
   -6   23    9     -1.02      0.00
   -6   23    8     -0.01      0.00
   -6   23    7     -1.39      0.00
   -6   23    6      2.59      0.00
   -6   23    5      7.73      0.00
   -6   23    4      6.87      0.00
   -6   23    3     -0.84      0.00
   -6   23    2     -3.59      0.00
   -6   23    1      3.59      0.00
    6   23    0     -3.97      0.00
    6   23    1      2.18      0.00
    6   23    2     -5.90      0.00
    6   23    3      5.97      0.00
    6   23    4     -2.07      0.00
    6   23    5     -3.54      0.00
    6   23    6      6.68      0.00
    6   23    7     -0.24      0.00
    6   23    8     -0.10      0.00
    6   23    9      1.26      0.00
   -6   24    9     -3.26      0.00
   -6   24    8      2.88      0.00
   -6   24    7     -5.08      0.00
   -6   24    6     -5.18      0.00
   -6   24    5      9.33      0.00
   -6   24    4     -7.48      0.00
   -6   24    3     -0.33      0.00
   -6   24    2     -1.08      0.00
   -6   24    1      7.64      0.00
    6   24    0     -7.91      0.00
    6   24    1      6.27      0.00
    6   24    2      6.77      0.00
    6   24    3     -5.23      0.00
    6   24    4     -6.96      0.00
    6   24    5      4.81      0.00
    6   24    6      2.39      0.00
    6   24    7      0.73      0.00
    6   24    8     -1.26      0.00
   -6   25    9     -4.19      0.00
   -6   25    8      2.69      0.00
   -6   25    7    -10.54      0.00
   -6   25    6      4.65      0.00
   -6   25    5      1.99      0.00
   -6   25    4     -4.83      0.00
   -6   25    3      2.38      0.00
   -6   25    2      7.48      0.00
   -6   25    1     -4.10      0.00
    6   25    0     -1.03      0.00
    6   25    1      4.46      0.00
    6   25    2     -0.79      0.00
    6   25    3      1.82      0.00
    6   25    4      6.79      0.00
    6   25    5     -4.57      0.00
    6   25    6     -6.60      0.00
    6   25    7     -4.78      0.00
    6   25    8     -1.74      0.00
   -6   26    8      0.77      0.00
   -6   26    7     -6.31      0.00
   -6   26    6     -3.58      0.00
   -6   26    5      5.76      0.00
   -6   26    4      1.39      0.00
   -6   26    3      3.94      0.00
   -6   26    2      3.80      0.00
   -6   26    1     -7.36      0.00
    6   26    0      7.34      0.00
    6   26    1     -7.26      0.00
    6   26    2     -3.12      0.00
    6   26    3      1.23      0.00
    6   26    4      7.41      0.00
    6   26    5     -5.98      0.00
    6   26    6     -1.69      0.00
    6   26    7      8.54      0.00
    6   26    8     -0.84      0.00
   -6   27    8     -2.82      0.00
   -6   27    7      4.49      0.00
   -6   27    6      4.29      0.00
   -6   27    5      8.58      0.00
   -6   27    4      0.53      0.00
   -6   27    3    -12.44      0.00
   -6   27    2     -5.04      0.00
   -6   27    1     -4.02      0.00
    6   27    0     -5.84      0.00
    6   27    1      2.31      0.00
    6   27    2     -1.03      0.00
    6   27    3      3.42      0.00
    6   27    4     -2.13      0.00
    6   27    5     -5.63      0.00
    6   27    6      2.89      0.00
    6   27    7      3.76      0.00
    6   27    8     -2.53      0.00
   -6   28    8    -10.51      0.00
   -6   28    7      3.54      0.00
   -6   28    6     -9.21      0.00
   -6   28    5      3.01      0.00
   -6   28    4     -4.87      0.00
   -6   28    3      5.88      0.00
   -6   28    2      1.37      0.00
   -6   28    1      7.02      0.00
    6   28    0     -8.96      0.00
    6   28    1      6.24      0.00
    6   28    2     14.41      0.00
    6   28    3      3.15      0.00
    6   28    4    -10.22      0.00
    6   28    5     -1.82      0.00
    6   28    6      1.93      0.00
    6   28    7    -11.53      0.00
   -6   29    7     -1.28      0.00
   -6   29    6     -1.20      0.00
   -6   29    5     -6.15      0.00
   -6   29    4      2.35      0.00
   -6   29    3      1.23      0.00
   -6   29    2     -4.87      0.00
   -6   29    1     -0.94      0.00
    6   29    0     -3.39      0.00
    6   29    1     -0.50      0.00
    6   29    2     -6.86      0.00
    6   29    3     -1.31      0.00
    6   29    4     -1.46      0.00
    6   29    5      4.69      0.00
    6   29    6     -1.44      0.00
    6   29    7     -6.74      0.00
   -6   30    7     -0.53      0.00
   -6   30    6      3.10      0.00
   -6   30    5     -0.93      0.00
   -6   30    4      5.77      0.00
   -6   30    3     -4.51      0.00
   -6   30    2     -9.44      0.00
   -6   30    1     -1.71      0.00
    6   30    0      7.87      0.00
    6   30    1     -4.63      0.00
    6   30    2     -3.39      0.00
    6   30    3      0.18      0.00
    6   30    4     13.02      0.00
    6   30    5     -2.74      0.00
    6   30    6      6.05      0.00
    6   30    7      1.52      0.00
   -6   31    7      1.03      0.00
   -6   31    6      0.64      0.00
   -6   31    5      1.75      0.00
   -6   31    4      0.22      0.00
   -6   31    3     -7.87      0.00
   -6   31    2     -0.32      0.00
   -6   31    1      3.87      0.00
    6   31    0     -6.79      0.00
    6   31    1     -0.93      0.00
    6   31    2      2.93      0.00
    6   31    3      8.71      0.00
    6   31    4      0.69      0.00
    6   31    5    -12.57      0.00
    6   31    6      2.17      0.00
   -6   32    6    -12.33      0.00
   -6   32    5      0.89      0.00
   -6   32    4     -1.92      0.00
   -6   32    3     -2.91      0.00
   -6   32    2     14.77      0.00
   -6   32    1      3.37      0.00
    6   32    0     -6.61      0.00
    6   32    1      4.56      0.00
    6   32    2      1.48      0.00
    6   32    3     -6.07      0.00
    6   32    4     -3.29      0.00
    6   32    5     -9.16      0.00
    6   32    6      3.90      0.00
   -6   33    6     -1.81      0.00
   -6   33    5     -3.60      0.00
   -6   33    4      0.89      0.00
   -6   33    3     -8.31      0.00
   -6   33    2    -11.12      0.00
   -6   33    1     -0.02      0.00
    6   33    0      0.16      0.00
    6   33    1      5.44      0.00
    6   33    2     -4.45      0.00
    6   33    3      1.27      0.00
    6   33    4     -2.45      0.00
    6   33    5      9.32      0.00
    6   33    6     -3.37      0.00
   -6   34    5     -7.69      0.00
   -6   34    4     -2.21      0.00
   -6   34    3     -2.29      0.00
   -6   34    2     -0.47      0.00
   -6   34    1      3.14      0.00
    6   34    0      5.88      0.00
    6   34    1     -4.48      0.00
    6   34    2     -9.21      0.00
    6   34    3      4.65      0.00
    6   34    4      8.81      0.00
    6   34    5      1.96      0.00
   -6   35    5    -12.00      0.00
   -6   35    4     -2.70      0.00
   -6   35    3      2.15      0.00
   -6   35    2      0.09      0.00
   -6   35    1     10.65      0.00
    6   35    0     -5.06      0.00
    6   35    1     -5.41      0.00
    6   35    2     -3.65      0.00
    6   35    3      8.72      0.00
    6   35    5      3.59      0.00
   -6   36    4      5.65      0.00
   -6   36    3     -0.67      0.00
   -6   36    2      9.15      0.00
   -6   36    1      0.15      0.00
    6   36    0     -2.86      0.00
    6   36    1     11.24      0.00
    6   36    2      4.03      0.00
    6   36    3     -9.79      0.00
    6   36    4     -3.57      0.00
   -6   37    3     -6.03      0.00
   -6   37    2    -11.27      0.00
   -6   37    1      2.12      0.00
    6   37    0      7.77      0.00
    6   37    1     -3.86      0.00
    6   37    2     -2.42      0.00
    6   37    3      1.73      0.00
   -6   38    3     -3.54      0.00
   -6   38    2      9.64      0.00
   -6   38    1      1.62      0.00
    6   38    0      7.34      0.00
    6   38    1    -10.46      0.00
    6   38    2     -8.06      0.00
   -6   39    1      2.91      0.00
    6   39    0      0.21      0.00
    6   39    1      2.75      0.00
   -7    0   10      2.49      0.00
   -7    0    8    -10.94      0.00
   -7    0    6     21.38      0.00
   -7    0    4     -9.55      0.00
   -7    0    2     -4.88      0.00
    7    0    0     -5.62      0.00
    7    0    2     -9.28      0.00
    7    0    4      8.53      0.00
    7    0    6     11.80      0.00
    7    0    8     -5.61      0.00
    7    0   10     -0.48      0.00
   -7    1   11      0.73      0.00
   -7    1   10     -0.13      0.00
   -7    1    9     -4.63      0.00
   -7    1    8      2.10      0.00
   -7    1    7      2.92      0.00
   -7    1    6      4.15      0.00
   -7    1    5    -11.85      0.00
   -7    1    4     -5.35      0.00
   -7    1    3      2.27      0.00
   -7    1    2     -0.87      0.00
   -7    1    1      7.27      0.00
    7    1    0    -13.97      0.00
    7    1    1      1.60      0.00
    7    1    2     35.47      0.00
    7    1    3      7.98      0.00
    7    1    4    -21.08      0.00
    7    1    5     -6.77      0.00
    7    1    6     -5.97      0.00
    7    1    7     -0.29      0.00
    7    1    8      2.47      0.00
    7    1    9      3.23      0.00
    7    1   10      7.74      0.00
   -7    2   11      5.81      0.00
   -7    2   10    -20.43      0.00
   -7    2    9     12.85      0.00
   -7    2    8     28.07      0.00
   -7    2    7     -4.31      0.00
   -7    2    6    -21.00      0.00
   -7    2    5      0.52      0.00
   -7    2    4     18.97      0.00
   -7    2    3     -3.83      0.00
   -7    2    2     15.13      0.00
   -7    2    1      2.53      0.00
    7    2    0    -10.91      0.00
    7    2    1    -14.69      0.00
    7    2    2     10.40      0.00
    7    2    3      7.18      0.00
    7    2    4    -12.94      0.00
    7    2    5      9.24      0.00
    7    2    6      0.14      0.00
    7    2    7      4.93      0.00
    7    2    8     11.13      0.00
    7    2    9     -5.93      0.00
    7    2   10      1.32      0.00
   -7    3   11      1.70      0.00
   -7    3   10     -1.96      0.00
   -7    3    9     -0.19      0.00
   -7    3    8     -4.07      0.00
   -7    3    7     -0.63      0.00
   -7    3    6     -5.34      0.00
   -7    3    5      8.06      0.00
   -7    3    4      3.58      0.00
   -7    3    3    -16.43      0.00
   -7    3    2     -5.99      0.00
   -7    3    1      9.52      0.00
    7    3    0     10.28      0.00
    7    3    1     -8.90      0.00
    7    3    2    -23.69      0.00
    7    3    3      3.95      0.00
    7    3    4      5.82      0.00
    7    3    5      5.87      0.00
    7    3    6      2.25      0.00
    7    3    7      0.20      0.00
    7    3    8      3.00      0.00
    7    3    9     -3.21      0.00
    7    3   10    -10.48      0.00
   -7    4   11      4.54      0.00
   -7    4   10    -12.40      0.00
   -7    4    9      0.23      0.00
   -7    4    8     -1.99      0.00
   -7    4    7     -0.62      0.00
   -7    4    6     -0.84      0.00
   -7    4    5     -1.32      0.00
   -7    4    4     -6.90      0.00
   -7    4    3     14.27      0.00
   -7    4    2     12.17      0.00
   -7    4    1     13.27      0.00
    7    4    0     -4.11      0.00
    7    4    1     28.64      0.00
    7    4    2     -2.16      0.00
    7    4    3     -2.84      0.00
    7    4    4      4.89      0.00
    7    4    5     -6.04      0.00
    7    4    6      1.48      0.00
    7    4    7     -3.30      0.00
    7    4    8     -2.72      0.00
    7    4    9     -2.68      0.00
    7    4   10      2.35      0.00
   -7    5   11     -1.48      0.00
   -7    5   10      4.51      0.00
   -7    5    9     -0.94      0.00
   -7    5    8      1.30      0.00
   -7    5    7     -0.35      0.00
   -7    5    6     -1.62      0.00
   -7    5    5     -5.42      0.00
   -7    5    4     -8.44      0.00
   -7    5    3      4.40      0.00
   -7    5    2    -10.92      0.00
   -7    5    1     -0.61      0.00
    7    5    0    -38.16      0.00
    7    5    1      0.18      0.00
    7    5    2     19.01      0.00
    7    5    3      4.79      0.00
    7    5    4     -4.08      0.00
    7    5    5    -12.71      0.00
    7    5    6      7.39      0.00
    7    5    7     10.23      0.00
    7    5    8      3.33      0.00
    7    5    9     -0.91      0.00
    7    5   10     10.33      0.00
   -7    6   11      5.22      0.00
   -7    6   10    -12.94      0.00
   -7    6    9     14.12      0.00
   -7    6    8      8.92      0.00
   -7    6    7    -11.88      0.00
   -7    6    6     -2.84      0.00
   -7    6    5      9.26      0.00
   -7    6    4      6.19      0.00
   -7    6    3      7.35      0.00
   -7    6    2      3.96      0.00
   -7    6    1    -24.90      0.00
    7    6    0     -5.00      0.00
    7    6    1     -7.67      0.00
    7    6    2      7.17      0.00
    7    6    3     -3.48      0.00
    7    6    4     -0.96      0.00
    7    6    5     -0.74      0.00
    7    6    6      5.40      0.00
    7    6    7      1.39      0.00
    7    6    8     -7.20      0.00
    7    6    9     -7.51      0.00
    7    6   10      5.74      0.00
   -7    7   11     -2.93      0.00
   -7    7   10     -5.01      0.00
   -7    7    9     -3.14      0.00
   -7    7    8      4.86      0.00
   -7    7    7      1.07      0.00
   -7    7    6     -0.81      0.00
   -7    7    5     10.81      0.00
   -7    7    4     -7.52      0.00
   -7    7    3     -1.75      0.00
   -7    7    2     10.09      0.00
   -7    7    1     -5.11      0.00
    7    7    0      3.83      0.00
    7    7    1      1.93      0.00
    7    7    2      2.95      0.00
    7    7    3     -3.78      0.00
    7    7    4      1.02      0.00
    7    7    5      7.91      0.00
    7    7    6      2.85      0.00
    7    7    7     -1.18      0.00
    7    7    8      2.43      0.00
    7    7    9     -1.12      0.00
    7    7   10     -2.45      0.00
   -7    8   11      0.70      0.00
   -7    8   10     -7.63      0.00
   -7    8    9     -5.24      0.00
   -7    8    8     -7.22      0.00
   -7    8    7      2.66      0.00
   -7    8    6    -14.47      0.00
   -7    8    5     -5.56      0.00
   -7    8    4      0.85      0.00
   -7    8    3    -12.15      0.00
   -7    8    2      9.99      0.00
   -7    8    1     24.33      0.00
    7    8    0     -7.29      0.00
    7    8    1     12.84      0.00
    7    8    2      5.00      0.00
    7    8    3     -1.20      0.00
    7    8    4      7.03      0.00
    7    8    5      3.33      0.00
    7    8    6    -11.40      0.00
    7    8    7     -6.09      0.00
    7    8    8      3.09      0.00
    7    8    9      9.00      0.00
    7    8   10      0.11      0.00
   -7    9   11    -11.65      0.00
   -7    9   10      2.10      0.00
   -7    9    9      4.47      0.00
   -7    9    8      0.26      0.00
   -7    9    7      5.39      0.00
   -7    9    6     -2.57      0.00
   -7    9    5      4.28      0.00
   -7    9    4     17.03      0.00
   -7    9    3     -7.36      0.00
   -7    9    2    -12.52      0.00
   -7    9    1     12.39      0.00
    7    9    0     -5.68      0.00
    7    9    1     -8.07      0.00
    7    9    2     -0.50      0.00
    7    9    3     -1.12      0.00
    7    9    4     -3.00      0.00
    7    9    5     -4.22      0.00
    7    9    6      1.57      0.00
    7    9    7     11.04      0.00
    7    9    8     -4.25      0.00
    7    9    9     -8.29      0.00
    7    9   10     -3.90      0.00
   -7   10   10     -4.06      0.00
   -7   10    9      7.12      0.00
   -7   10    8      1.29      0.00
   -7   10    7      0.46      0.00
   -7   10    6     -2.72      0.00
   -7   10    5     -5.02      0.00
   -7   10    4      5.71      0.00
   -7   10    3      5.42      0.00
   -7   10    2     -3.97      0.00
   -7   10    1     -9.66      0.00
    7   10    0     -2.71      0.00
    7   10    1      3.62      0.00
    7   10    2      6.26      0.00
    7   10    3     -5.91      0.00
    7   10    4      0.08      0.00
    7   10    5      3.92      0.00
    7   10    6      4.75      0.00
    7   10    7      0.04      0.00
    7   10    8     -1.70      0.00
    7   10    9      4.56      0.00
    7   10   10     -4.14      0.00
   -7   11   10    -11.33      0.00
   -7   11    9     -1.60      0.00
   -7   11    8      1.69      0.00
   -7   11    7     -1.51      0.00
   -7   11    6      1.19      0.00
   -7   11    5     -1.06      0.00
   -7   11    4    -14.38      0.00
   -7   11    3     14.13      0.00
   -7   11    2     12.69      0.00
   -7   11    1    -13.19      0.00
    7   11    0      1.03      0.00
    7   11    1      5.27      0.00
    7   11    2      5.87      0.00
    7   11    3      3.08      0.00
    7   11    4      6.87      0.00
    7   11    5     13.30      0.00
    7   11    6     -7.25      0.00
    7   11    7    -12.04      0.00
    7   11    8      4.83      0.00
    7   11    9      3.15      0.00
    7   11   10      4.60      0.00
   -7   12   10      0.45      0.00
   -7   12    9     -5.68      0.00
   -7   12    8     -9.49      0.00
   -7   12    7     -3.81      0.00
   -7   12    6      5.74      0.00
   -7   12    5      6.04      0.00
   -7   12    4      0.22      0.00
   -7   12    3     -6.00      0.00
   -7   12    2      3.19      0.00
   -7   12    1     -7.58      0.00
    7   12    0     -1.14      0.00
    7   12    1     -2.42      0.00
    7   12    2     -2.82      0.00
    7   12    3     -5.40      0.00
    7   12    4      4.58      0.00
    7   12    5     -3.10      0.00
    7   12    6     -3.33      0.00
    7   12    7     -0.20      0.00
    7   12    8      2.86      0.00
    7   12    9      3.60      0.00
    7   12   10      0.18      0.00
   -7   13   10     -1.74      0.00
   -7   13    9      6.78      0.00
   -7   13    8      8.93      0.00
   -7   13    7      0.82      0.00
   -7   13    6     -0.76      0.00
   -7   13    5      4.14      0.00
   -7   13    4      5.02      0.00
   -7   13    3     -5.96      0.00
   -7   13    2      0.05      0.00
   -7   13    1      2.03      0.00
    7   13    0      2.81      0.00
    7   13    1      0.11      0.00
    7   13    2     -1.14      0.00
    7   13    3      0.45      0.00
    7   13    4     -7.20      0.00
    7   13    5     -3.53      0.00
    7   13    6     11.27      0.00
    7   13    7      5.98      0.00
    7   13    8     -3.75      0.00
    7   13    9     -8.95      0.00
    7   13   10     -3.28      0.00
   -7   14   10      5.28      0.00
   -7   14    9      5.84      0.00
   -7   14    8      6.85      0.00
   -7   14    7      0.08      0.00
   -7   14    6    -11.01      0.00
   -7   14    5     -0.56      0.00
   -7   14    4      2.83      0.00
   -7   14    3     -4.39      0.00
   -7   14    2      2.06      0.00
   -7   14    1     11.55      0.00
    7   14    0     -6.54      0.00
    7   14    1      4.44      0.00
    7   14    2      3.68      0.00
    7   14    3      2.34      0.00
    7   14    4      2.98      0.00
    7   14    5      1.83      0.00
    7   14    6     -6.88      0.00
    7   14    7     -7.13      0.00
    7   14    8      5.79      0.00
    7   14    9      4.77      0.00
    7   14   10     -6.08      0.00
   -7   15   10     -6.56      0.00
   -7   15    9      4.68      0.00
   -7   15    8    -13.08      0.00
   -7   15    7     -3.83      0.00
   -7   15    6     -6.12      0.00
   -7   15    5      5.26      0.00
   -7   15    4     -4.87      0.00
   -7   15    3      8.40      0.00
   -7   15    2     -1.14      0.00
   -7   15    1      7.51      0.00
    7   15    0      8.80      0.00
    7   15    1     -9.58      0.00
    7   15    2    -13.40      0.00
    7   15    3      2.92      0.00
    7   15    4      5.13      0.00
    7   15    5      6.07      0.00
    7   15    6     -8.06      0.00
    7   15    7     -1.42      0.00
    7   15    8      5.88      0.00
    7   15    9      3.71      0.00
    7   15   10     -2.07      0.00
   -7   16   10      0.62      0.00
   -7   16    9      1.83      0.00
   -7   16    8      7.31      0.00
   -7   16    7      2.53      0.00
   -7   16    6      4.09      0.00
   -7   16    5      0.68      0.00
   -7   16    4     -7.43      0.00
   -7   16    3      5.83      0.00
   -7   16    2     -6.39      0.00
   -7   16    1     -4.75      0.00
    7   16    0      4.78      0.00
    7   16    1      4.62      0.00
    7   16    2      3.24      0.00
    7   16    3     -4.62      0.00
    7   16    4     -1.57      0.00
    7   16    5      2.05      0.00
    7   16    6      2.81      0.00
    7   16    7      8.52      0.00
    7   16    8     -3.37      0.00
    7   16    9     -0.15      0.00
   -7   17   10      2.16      0.00
   -7   17    9      3.02      0.00
   -7   17    8     11.56      0.00
   -7   17    7     -9.11      0.00
   -7   17    6      5.33      0.00
   -7   17    5      6.87      0.00
   -7   17    4     -5.51      0.00
   -7   17    3      5.51      0.00
   -7   17    2      3.18      0.00
   -7   17    1     -1.88      0.00
    7   17    0      0.24      0.00
    7   17    1     -4.15      0.00
    7   17    2      7.46      0.00
    7   17    3      6.06      0.00
    7   17    4     -7.40      0.00
    7   17    5      1.08      0.00
    7   17    6     -7.21      0.00
    7   17    7     -5.53      0.00
    7   17    8      0.79      0.00
    7   17    9     -1.31      0.00
   -7   18   10     19.40      0.00
   -7   18    9     -2.84      0.00
   -7   18    8      2.30      0.00
   -7   18    7    -11.83      0.00
   -7   18    6    -11.97      0.00
   -7   18    5      8.88      0.00
   -7   18    4      5.38      0.00
   -7   18    3     -9.56      0.00
   -7   18    2      5.28      0.00
   -7   18    1      7.14      0.00
    7   18    0     -5.07      0.00
    7   18    1     -8.47      0.00
    7   18    2     -6.03      0.00
    7   18    3     -1.06      0.00
    7   18    4     -6.14      0.00
    7   18    5      1.09      0.00
    7   18    6     -6.40      0.00
    7   18    7     -3.20      0.00
    7   18    8      5.68      0.00
    7   18    9     -1.45      0.00
   -7   19    9      4.76      0.00
   -7   19    8     -4.44      0.00
   -7   19    7      6.18      0.00
   -7   19    6    -10.75      0.00
   -7   19    5      2.65      0.00
   -7   19    4      1.25      0.00
   -7   19    3     -8.15      0.00
   -7   19    2      8.82      0.00
   -7   19    1      4.05      0.00
    7   19    0      9.22      0.00
    7   19    1     -0.38      0.00
    7   19    2     -7.52      0.00
    7   19    3      5.89      0.00
    7   19    4     -0.24      0.00
    7   19    5     -6.27      0.00
    7   19    6      6.55      0.00
    7   19    7      3.56      0.00
    7   19    8      3.97      0.00
    7   19    9     -0.38      0.00
   -7   20    9     -0.40      0.00
   -7   20    8      6.93      0.00
   -7   20    7      8.38      0.00
   -7   20    6     -8.72      0.00
   -7   20    5     -6.17      0.00
   -7   20    4      1.96      0.00
   -7   20    3      1.45      0.00
   -7   20    2      2.17      0.00
   -7   20    1     -2.06      0.00
    7   20    0      8.17      0.00
    7   20    1     10.63      0.00
    7   20    2     -1.52      0.00
    7   20    3     -1.36      0.00
    7   20    4      1.42      0.00
    7   20    5     -8.42      0.00
    7   20    6     -2.79      0.00
    7   20    7     -0.40      0.00
    7   20    8     -4.65      0.00
    7   20    9      0.21      0.00
   -7   21    9      2.52      0.00
   -7   21    8      8.86      0.00
   -7   21    7     -9.67      0.00
   -7   21    6      8.99      0.00
   -7   21    5     13.96      0.00
   -7   21    4     -1.98      0.00
   -7   21    3      0.74      0.00
   -7   21    2     -9.45      0.00
   -7   21    1      2.09      0.00
    7   21    0     -9.60      0.00
    7   21    1     -8.63      0.00
    7   21    2      0.06      0.00
    7   21    3      3.90      0.00
    7   21    4      4.84      0.00
    7   21    5     -4.80      0.00
    7   21    6     -7.42      0.00
    7   21    7      1.15      0.00
    7   21    8      0.14      0.00
    7   21    9      2.54      0.00
   -7   22    9     -5.49      0.00
   -7   22    8     -6.27      0.00
   -7   22    7    -11.31      0.00
   -7   22    6     -0.65      0.00
   -7   22    5      8.03      0.00
   -7   22    4     -2.46      0.00
   -7   22    3      1.07      0.00
   -7   22    2     -6.26      0.00
   -7   22    1      5.27      0.00
    7   22    0      2.55      0.00
    7   22    1      2.28      0.00
    7   22    2      5.62      0.00
    7   22    3     -6.57      0.00
    7   22    4     -7.78      0.00
    7   22    5      4.21      0.00
    7   22    6      1.43      0.00
    7   22    7     -1.32      0.00
    7   22    8     -4.90      0.00
   -7   23    9      6.39      0.00
   -7   23    8      5.34      0.00
   -7   23    7      3.25      0.00
   -7   23    6     -6.54      0.00
   -7   23    5     -6.67      0.00
   -7   23    4     -0.41      0.00
   -7   23    3      3.77      0.00
   -7   23    2      6.22      0.00
   -7   23    1     -1.12      0.00
    7   23    0      6.22      0.00
    7   23    1      4.55      0.00
    7   23    2      2.33      0.00
    7   23    3      1.44      0.00
    7   23    4     -5.16      0.00
    7   23    5     -3.48      0.00
    7   23    6     -4.59      0.00
    7   23    7     -7.83      0.00
    7   23    8      8.56      0.00
   -7   24    8     -3.98      0.00
   -7   24    7      4.47      0.00
   -7   24    6     -6.67      0.00
   -7   24    5     -1.63      0.00
   -7   24    4     10.64      0.00
   -7   24    3     -9.34      0.00
   -7   24    2      1.89      0.00
   -7   24    1     -2.37      0.00
    7   24    0      0.49      0.00
    7   24    1     -5.40      0.00
    7   24    2     -9.18      0.00
    7   24    3      1.16      0.00
    7   24    4      4.47      0.00
    7   24    5     -1.78      0.00
    7   24    6     -2.65      0.00
    7   24    7     -2.11      0.00
    7   24    8      3.78      0.00
   -7   25    8      6.67      0.00
   -7   25    7     -3.03      0.00
   -7   25    6     -0.66      0.00
   -7   25    5     13.98      0.00
   -7   25    4      5.02      0.00
   -7   25    3     -9.91      0.00
   -7   25    2     -4.57      0.00
   -7   25    1      4.92      0.00
    7   25    0     -5.19      0.00
    7   25    1     -1.95      0.00
    7   25    2      0.41      0.00
    7   25    3     10.18      0.00
    7   25    4      1.47      0.00
    7   25    5    -11.69      0.00
    7   25    6     -0.38      0.00
    7   25    7     10.03      0.00
    7   25    8      2.51      0.00
   -7   26    8     -5.16      0.00
   -7   26    7      2.06      0.00
   -7   26    6     -2.83      0.00
   -7   26    5      5.38      0.00
   -7   26    4     -3.48      0.00
   -7   26    3     -0.31      0.00
   -7   26    2      0.54      0.00
   -7   26    1     -0.48      0.00
    7   26    0      3.05      0.00
    7   26    1      7.63      0.00
    7   26    2      5.20      0.00
    7   26    3     -9.42      0.00
    7   26    4     -1.36      0.00
    7   26    5      7.19      0.00
    7   26    6      3.07      0.00
    7   26    7      2.61      0.00
   -7   27    8      2.75      0.00
   -7   27    7     -4.07      0.00
   -7   27    6     -3.60      0.00
   -7   27    5     -7.65      0.00
   -7   27    4      2.64      0.00
   -7   27    3     10.92      0.00
   -7   27    2     -7.24      0.00
   -7   27    1     -4.09      0.00
    7   27    0     -4.44      0.00
    7   27    1     -3.34      0.00
    7   27    2     -2.33      0.00
    7   27    3      0.57      0.00
    7   27    4     -0.66      0.00
    7   27    5      0.61      0.00
    7   27    6     -2.41      0.00
    7   27    7     -2.32      0.00
   -7   28    7     -7.41      0.00
   -7   28    6      5.71      0.00
   -7   28    5     -0.22      0.00
   -7   28    4      6.63      0.00
   -7   28    3     -0.69      0.00
   -7   28    2     -1.01      0.00
   -7   28    1      0.88      0.00
    7   28    0      2.78      0.00
    7   28    1     -3.14      0.00
    7   28    2     -4.15      0.00
    7   28    3     -2.40      0.00
    7   28    4     -1.96      0.00
    7   28    5     -0.48      0.00
    7   28    6      2.39      0.00
    7   28    7     -6.58      0.00
   -7   29    7     -5.33      0.00
   -7   29    6      2.27      0.00
   -7   29    5      4.34      0.00
   -7   29    4     -1.79      0.00
   -7   29    3     -9.57      0.00
   -7   29    2     -2.06      0.00
   -7   29    1      7.77      0.00
    7   29    0      3.11      0.00
    7   29    1     -5.75      0.00
    7   29    2      1.79      0.00
    7   29    3      9.71      0.00
    7   29    4     -6.22      0.00
    7   29    5     -0.12      0.00
    7   29    6      6.56      0.00
    7   29    7     12.11      0.00
   -7   30    7      6.30      0.00
   -7   30    6     -9.45      0.00
   -7   30    5      3.40      0.00
   -7   30    4      2.06      0.00
   -7   30    3      1.54      0.00
   -7   30    2      2.11      0.00
   -7   30    1      3.32      0.00
    7   30    0     -6.74      0.00
    7   30    1     -5.61      0.00
    7   30    2     -4.09      0.00
    7   30    3     -0.71      0.00
    7   30    4      2.98      0.00
    7   30    6     -8.00      0.00
   -7   31    6    -12.03      0.00
   -7   31    5     -1.80      0.00
   -7   31    4     11.88      0.00
   -7   31    3      8.29      0.00
   -7   31    2    -10.20      0.00
   -7   31    1     -0.81      0.00
    7   31    0     -0.92      0.00
    7   31    1      1.85      0.00
    7   31    2      0.14      0.00
    7   31    3     -1.19      0.00
    7   31    4     -2.49      0.00
    7   31    5      7.73      0.00
    7   31    6      4.39      0.00
   -7   32    6     -2.00      0.00
   -7   32    5      1.07      0.00
   -7   32    4     -3.45      0.00
   -7   32    3     -5.38      0.00
   -7   32    2      0.59      0.00
   -7   32    1      4.02      0.00
    7   32    0      1.84      0.00
    7   32    1      0.89      0.00
    7   32    2      0.12      0.00
    7   32    3     -8.76      0.00
    7   32    4     -4.62      0.00
    7   32    5     -4.25      0.00
   -7   33    5      8.71      0.00
   -7   33    4     -4.09      0.00
   -7   33    3     -2.38      0.00
   -7   33    2      3.57      0.00
   -7   33    1      0.48      0.00
    7   33    0     -1.14      0.00
    7   33    1    -11.35      0.00
    7   33    2      1.79      0.00
    7   33    3      8.37      0.00
    7   33    5      0.54      0.00
   -7   34    5      6.30      0.00
   -7   34    4     -4.25      0.00
   -7   34    3     11.22      0.00
   -7   34    2     -2.98      0.00
   -7   34    1     -8.00      0.00
    7   34    0      0.06      0.00
    7   34    1     -4.47      0.00
    7   34    2     -3.75      0.00
    7   34    3      2.20      0.00
    7   34    4     -4.15      0.00
   -7   35    4      0.30      0.00
   -7   35    3     -2.07      0.00
   -7   35    2     -5.70      0.00
   -7   35    1      3.06      0.00
    7   35    0     -5.93      0.00
    7   35    1      2.53      0.00
    7   35    2      4.76      0.00
    7   35    3      0.05      0.00
    7   35    4     -1.34      0.00
   -7   36    3     -1.89      0.00
   -7   36    2     -4.41      0.00
   -7   36    1      6.04      0.00
    7   36    0     -3.47      0.00
    7   36    1      8.37      0.00
    7   36    2      9.98      0.00
    7   36    3     -8.13      0.00
   -7   37    2     -2.27      0.00
   -7   37    1     -3.86      0.00
    7   37    0     -4.98      0.00
    7   37    1     -8.98      0.00
    7   37    2     -1.34      0.00
   -8    0   10     -8.04      0.00
   -8    0    8      8.21      0.00
   -8    0    6     -7.21      0.00
   -8    0    4      4.00      0.00
   -8    0    2    -10.24      0.00
    8    0    0     -2.27      0.00
    8    0    2     16.90      0.00
    8    0    4     -6.93      0.00
    8    0    6     12.28      0.00
    8    0    8      1.21      0.00
    8    0   10     20.22      0.00
   -8    1   10    -18.81      0.00
   -8    1    9      8.44      0.00
   -8    1    8      7.32      0.00
   -8    1    7     -2.75      0.00
   -8    1    6     -7.86      0.00
   -8    1    5      3.34      0.00
   -8    1    4      7.27      0.00
   -8    1    3      0.03      0.00
   -8    1    2     -2.88      0.00
   -8    1    1      2.12      0.00
    8    1    0     -7.23      0.00
    8    1    1      2.18      0.00
    8    1    2      3.32      0.00
    8    1    3     -1.05      0.00
    8    1    4      5.05      0.00
    8    1    5     -0.17      0.00
    8    1    6     -4.42      0.00
    8    1    7     -2.77      0.00
    8    1    8     -4.51      0.00
    8    1    9      7.08      0.00
    8    1   10     -8.92      0.00
   -8    2   10      8.66      0.00
   -8    2    9     -0.72      0.00
   -8    2    8    -24.52      0.00
   -8    2    7     12.93      0.00
   -8    2    6      2.65      0.00
   -8    2    5     -9.16      0.00
   -8    2    4     -8.47      0.00
   -8    2    3      1.19      0.00
   -8    2    2      1.81      0.00
   -8    2    1     -8.98      0.00
    8    2    0      7.79      0.00
    8    2    1     -6.75      0.00
    8    2    2    -15.15      0.00
    8    2    3     -3.59      0.00
    8    2    4     12.62      0.00
    8    2    5     -5.42      0.00
    8    2    6      2.40      0.00
    8    2    7      5.04      0.00
    8    2    8      0.33      0.00
    8    2    9      5.34      0.00
    8    2   10    -14.70      0.00
   -8    3   10      7.89      0.00
   -8    3    9      5.40      0.00
   -8    3    8    -19.06      0.00
   -8    3    7      1.10      0.00
   -8    3    6      2.84      0.00
   -8    3    5      4.92      0.00
   -8    3    4     -2.83      0.00
   -8    3    3      3.71      0.00
   -8    3    2      4.62      0.00
   -8    3    1     -4.81      0.00
    8    3    0     -5.93      0.00
    8    3    1      4.45      0.00
    8    3    2     -0.08      0.00
    8    3    3      7.10      0.00
    8    3    4     -8.20      0.00
    8    3    5      6.81      0.00
    8    3    6      7.45      0.00
    8    3    7     -6.30      0.00
    8    3    8      4.05      0.00
    8    3    9     23.76      0.00
    8    3   10     -4.69      0.00
   -8    4   10     -0.21      0.00
   -8    4    9      6.26      0.00
   -8    4    8     12.14      0.00
   -8    4    7     -0.45      0.00
   -8    4    6    -10.61      0.00
   -8    4    5     14.20      0.00
   -8    4    4      1.06      0.00
   -8    4    3     -8.40      0.00
   -8    4    2      7.29      0.00
   -8    4    1     -2.29      0.00
    8    4    0      3.30      0.00
    8    4    1      1.47      0.00
    8    4    2     -2.36      0.00
    8    4    3     11.22      0.00
    8    4    4     -8.84      0.00
    8    4    5     -1.04      0.00
    8    4    6      4.14      0.00
    8    4    7     -4.98      0.00
    8    4    8      2.42      0.00
    8    4    9      8.57      0.00
    8    4   10      0.80      0.00
   -8    5   10      0.07      0.00
   -8    5    9     -2.23      0.00
   -8    5    8    -16.06      0.00
   -8    5    7     -4.20      0.00
   -8    5    6    -14.50      0.00
   -8    5    5      4.05      0.00
   -8    5    4     -4.14      0.00
   -8    5    3    -11.72      0.00
   -8    5    2      2.36      0.00
   -8    5    1     -3.52      0.00
    8    5    0     -4.67      0.00
    8    5    1      9.76      0.00
    8    5    2    -10.47      0.00
    8    5    3     -0.97      0.00
    8    5    4     -5.23      0.00
    8    5    5     -1.13      0.00
    8    5    6      7.94      0.00
    8    5    7      1.95      0.00
    8    5    8      4.42      0.00
    8    5    9     -8.02      0.00
    8    5   10     -9.85      0.00
   -8    6   10      5.07      0.00
   -8    6    9     -8.36      0.00
   -8    6    8     -7.99      0.00
   -8    6    7     24.04      0.00
   -8    6    6      7.45      0.00
   -8    6    5     -5.62      0.00
   -8    6    4      7.58      0.00
   -8    6    3     15.95      0.00
   -8    6    2     -0.11      0.00
   -8    6    1    -11.87      0.00
    8    6    0     -1.97      0.00
    8    6    1     -3.55      0.00
    8    6    2      3.24      0.00
    8    6    3     -6.46      0.00
    8    6    4      5.63      0.00
    8    6    5    -13.89      0.00
    8    6    6      3.03      0.00
    8    6    7      2.98      0.00
    8    6    8      9.95      0.00
    8    6    9      2.44      0.00
    8    6   10     -1.49      0.00
   -8    7   10      2.13      0.00
   -8    7    9      2.64      0.00
   -8    7    8     -7.37      0.00
   -8    7    7      4.67      0.00
   -8    7    6     -7.21      0.00
   -8    7    5     -3.78      0.00
   -8    7    4     -2.55      0.00
   -8    7    3      5.29      0.00
   -8    7    2     -7.93      0.00
   -8    7    1     10.81      0.00
    8    7    0    -10.93      0.00
    8    7    1     -2.96      0.00
    8    7    2      6.77      0.00
    8    7    3     -9.05      0.00
    8    7    4      6.06      0.00
    8    7    5      1.04      0.00
    8    7    6     -1.93      0.00
    8    7    7     -9.39      0.00
    8    7    8      5.89      0.00
    8    7    9     -0.99      0.00
    8    7   10      1.17      0.00
   -8    8   10     -9.31      0.00
   -8    8    9      6.31      0.00
   -8    8    8      3.06      0.00
   -8    8    7     -7.53      0.00
   -8    8    6      3.07      0.00
   -8    8    5     -1.51      0.00
   -8    8    4     -6.33      0.00
   -8    8    3     -6.43      0.00
   -8    8    2     -0.87      0.00
   -8    8    1     -1.78      0.00
    8    8    0      6.04      0.00
    8    8    1     -6.99      0.00
    8    8    2     -1.56      0.00
    8    8    3      4.13      0.00
    8    8    4     -3.03      0.00
    8    8    5     -1.50      0.00
    8    8    6      3.00      0.00
    8    8    7     11.64      0.00
    8    8    8      8.41      0.00
    8    8    9     -6.31      0.00
    8    8   10      1.96      0.00
   -8    9   10     -0.14      0.00
   -8    9    9      2.36      0.00
   -8    9    8    -14.20      0.00
   -8    9    7     -3.60      0.00
   -8    9    6      1.38      0.00
   -8    9    5      9.68      0.00
   -8    9    4      1.46      0.00
   -8    9    3     -0.49      0.00
   -8    9    2      8.36      0.00
   -8    9    1     -7.99      0.00
    8    9    0      3.37      0.00
    8    9    1     10.17      0.00
    8    9    2      0.55      0.00
    8    9    3      3.28      0.00
    8    9    4    -12.55      0.00
    8    9    5     -8.02      0.00
    8    9    6     -0.48      0.00
    8    9    7      3.57      0.00
    8    9    8      2.81      0.00
    8    9    9     -3.52      0.00
    8    9   10     -2.84      0.00
   -8   10   10      3.71      0.00
   -8   10    9     -6.38      0.00
   -8   10    8     -1.18      0.00
   -8   10    7      1.68      0.00
   -8   10    6     -1.59      0.00
   -8   10    5    -13.06      0.00
   -8   10    4      5.55      0.00
   -8   10    3      8.00      0.00
   -8   10    2      6.13      0.00
   -8   10    1     -7.14      0.00
    8   10    0      0.12      0.00
    8   10    1     -2.37      0.00
    8   10    2     -8.89      0.00
    8   10    3     -1.88      0.00
    8   10    4     -3.69      0.00
    8   10    5      0.71      0.00
    8   10    6      2.54      0.00
    8   10    7     -2.89      0.00
    8   10    8     -0.46      0.00
    8   10    9      3.30      0.00
    8   10   10     -2.54      0.00
   -8   11   10      6.22      0.00
   -8   11    9     -9.15      0.00
   -8   11    8     11.40      0.00
   -8   11    7      9.48      0.00
   -8   11    6    -18.41      0.00
   -8   11    5      7.09      0.00
   -8   11    4      3.22      0.00
   -8   11    3     -8.30      0.00
   -8   11    2     -0.08      0.00
   -8   11    1      8.56      0.00
    8   11    0      5.94      0.00
    8   11    1      3.62      0.00
    8   11    2     -5.30      0.00
    8   11    3    -12.76      0.00
    8   11    4      6.49      0.00
    8   11    5      4.89      0.00
    8   11    6     -8.87      0.00
    8   11    7     -2.14      0.00
    8   11    8      2.66      0.00
    8   11    9      1.17      0.00
    8   11   10      1.40      0.00
   -8   12   10     -6.05      0.00
   -8   12    9      2.45      0.00
   -8   12    8     -1.83      0.00
   -8   12    7    -10.19      0.00
   -8   12    6      2.21      0.00
   -8   12    5      1.31      0.00
   -8   12    4      3.13      0.00
   -8   12    3     -0.96      0.00
   -8   12    2     -1.83      0.00
   -8   12    1     -2.64      0.00
    8   12    0     -2.71      0.00
    8   12    1      1.73      0.00
    8   12    2     11.46      0.00
    8   12    3      1.70      0.00
    8   12    4     -6.30      0.00
    8   12    5    -12.24      0.00
    8   12    6     -2.01      0.00
    8   12    7     10.41      0.00
    8   12    8      4.75      0.00
    8   12    9     -6.60      0.00
   -8   13   10    -12.96      0.00
   -8   13    9      8.45      0.00
   -8   13    8      0.35      0.00
   -8   13    7    -10.25      0.00
   -8   13    6     -9.23      0.00
   -8   13    5      5.78      0.00
   -8   13    4     -3.36      0.00
   -8   13    3      9.42      0.00
   -8   13    2     -1.95      0.00
   -8   13    1     -7.02      0.00
    8   13    0     -2.09      0.00
    8   13    1     -2.10      0.00
    8   13    2      5.32      0.00
    8   13    3     -2.93      0.00
    8   13    4     -6.95      0.00
    8   13    5     -5.58      0.00
    8   13    6      5.92      0.00
    8   13    7     -1.86      0.00
    8   13    8      2.22      0.00
    8   13    9     -2.07      0.00
   -8   14   10     -6.51      0.00
   -8   14    9     -3.62      0.00
   -8   14    8      1.87      0.00
   -8   14    7      1.57      0.00
   -8   14    6      7.42      0.00
   -8   14    5     -3.83      0.00
   -8   14    4     -9.70      0.00
   -8   14    3      4.59      0.00
   -8   14    2     -7.27      0.00
   -8   14    1     -0.26      0.00
    8   14    0     17.79      0.00
    8   14    1     -0.68      0.00
    8   14    2    -11.16      0.00
    8   14    3     -2.82      0.00
    8   14    4      4.31      0.00
    8   14    5      2.90      0.00
    8   14    6      1.31      0.00
    8   14    7    -11.18      0.00
    8   14    8      5.91      0.00
    8   14    9      0.92      0.00
   -8   15    9     -8.88      0.00
   -8   15    8     11.36      0.00
   -8   15    7     -3.27      0.00
   -8   15    6    -24.48      0.00
   -8   15    5     12.65      0.00
   -8   15    4      1.93      0.00
   -8   15    3     -2.16      0.00
   -8   15    2      4.38      0.00
   -8   15    1      1.41      0.00
    8   15    0     11.47      0.00
    8   15    1      4.78      0.00
    8   15    2     -2.28      0.00
    8   15    3     -4.42      0.00
    8   15    4     -2.01      0.00
    8   15    5     -8.91      0.00
    8   15    6    -13.82      0.00
    8   15    7      5.49      0.00
    8   15    8      5.85      0.00
    8   15    9     -3.96      0.00
   -8   16    9      5.66      0.00
   -8   16    8     -3.26      0.00
   -8   16    7     -4.89      0.00
   -8   16    6     -2.24      0.00
   -8   16    5     -2.31      0.00
   -8   16    4      9.88      0.00
   -8   16    3     -6.21      0.00
   -8   16    2      1.25      0.00
   -8   16    1     -2.30      0.00
    8   16    0    -10.90      0.00
    8   16    1     -2.37      0.00
    8   16    2     12.70      0.00
    8   16    3      0.53      0.00
    8   16    4     -2.43      0.00
    8   16    5     -1.15      0.00
    8   16    6     -3.18      0.00
    8   16    7      0.69      0.00
    8   16    8      2.25      0.00
    8   16    9      0.59      0.00
   -8   17    9     -1.68      0.00
   -8   17    8     -4.26      0.00
   -8   17    7      2.10      0.00
   -8   17    6      5.27      0.00
   -8   17    5     -7.53      0.00
   -8   17    4      3.83      0.00
   -8   17    3      1.81      0.00
   -8   17    2     -0.47      0.00
   -8   17    1      2.42      0.00
    8   17    0      5.75      0.00
    8   17    1      3.09      0.00
    8   17    2      3.30      0.00
    8   17    3     -6.83      0.00
    8   17    4     -2.09      0.00
    8   17    5     10.33      0.00
    8   17    6     -0.32      0.00
    8   17    7      0.01      0.00
    8   17    8      0.64      0.00
    8   17    9     -2.66      0.00
   -8   18    9      6.17      0.00
   -8   18    8     -3.30      0.00
   -8   18    7      1.03      0.00
   -8   18    6      1.09      0.00
   -8   18    5     -8.04      0.00
   -8   18    4     -1.06      0.00
   -8   18    3     -1.72      0.00
   -8   18    2     -9.39      0.00
   -8   18    1      4.80      0.00
    8   18    0     11.67      0.00
    8   18    1     -7.29      0.00
    8   18    2      1.79      0.00
    8   18    3      1.15      0.00
    8   18    4     -2.08      0.00
    8   18    5     -3.41      0.00
    8   18    6     -4.73      0.00
    8   18    7     -0.80      0.00
    8   18    8      8.58      0.00
    8   18    9      1.13      0.00
   -8   19    9      3.52      0.00
   -8   19    8      1.60      0.00
   -8   19    7    -13.31      0.00
   -8   19    6     -8.31      0.00
   -8   19    5      8.85      0.00
   -8   19    4     -4.62      0.00
   -8   19    3      2.73      0.00
   -8   19    2     -4.60      0.00
   -8   19    1     -7.48      0.00
    8   19    0     -0.36      0.00
    8   19    1      0.25      0.00
    8   19    2      3.77      0.00
    8   19    3      8.84      0.00
    8   19    4     -6.10      0.00
    8   19    5     -9.02      0.00
    8   19    6     -0.89      0.00
    8   19    7      3.30      0.00
    8   19    8      1.57      0.00
   -8   20    9     -0.88      0.00
   -8   20    8      5.32      0.00
   -8   20    7     -4.60      0.00
   -8   20    6      3.08      0.00
   -8   20    5      6.63      0.00
   -8   20    4     -6.01      0.00
   -8   20    3      0.10      0.00
   -8   20    2      9.05      0.00
   -8   20    1     -4.60      0.00
    8   20    0      5.51      0.00
    8   20    1     -1.21      0.00
    8   20    2      3.87      0.00
    8   20    3      0.31      0.00
    8   20    4      3.07      0.00
    8   20    5      1.01      0.00
    8   20    6     -2.24      0.00
    8   20    7     -9.11      0.00
    8   20    8     -2.72      0.00
   -8   21    8      0.98      0.00
   -8   21    7     -4.18      0.00
   -8   21    6      8.24      0.00
   -8   21    5     -2.73      0.00
   -8   21    4     -4.78      0.00
   -8   21    3      2.67      0.00
   -8   21    2      3.48      0.00
   -8   21    1     -0.74      0.00
    8   21    0      3.70      0.00
    8   21    1      7.98      0.00
    8   21    2     -2.44      0.00
    8   21    3     -7.74      0.00
    8   21    4      1.75      0.00
    8   21    5      1.72      0.00
    8   21    6     -5.41      0.00
    8   21    7     12.68      0.00
    8   21    8      2.44      0.00
   -8   22    8     -5.11      0.00
   -8   22    7     -3.64      0.00
   -8   22    6     -9.01      0.00
   -8   22    5     -6.38      0.00
   -8   22    4      6.59      0.00
   -8   22    3     -7.06      0.00
   -8   22    2     -3.97      0.00
   -8   22    1      7.68      0.00
    8   22    0     -5.79      0.00
    8   22    1     -1.85      0.00
    8   22    2     10.98      0.00
    8   22    3      2.54      0.00
    8   22    4     -0.72      0.00
    8   22    5     -0.66      0.00
    8   22    6     -4.12      0.00
    8   22    7      2.44      0.00
    8   22    8      1.57      0.00
   -8   23    8     -4.93      0.00
   -8   23    7      2.40      0.00
   -8   23    6      0.58      0.00
   -8   23    5      1.51      0.00
   -8   23    4      1.32      0.00
   -8   23    3     -8.56      0.00
   -8   23    2     -0.80      0.00
   -8   23    1      5.32      0.00
    8   23    0      2.55      0.00
    8   23    1      5.04      0.00
    8   23    2      6.20      0.00
    8   23    3      8.15      0.00
    8   23    4     -3.65      0.00
    8   23    5     -3.49      0.00
    8   23    6      0.09      0.00
    8   23    7      1.89      0.00
    8   23    8      1.08      0.00
   -8   24    8     -5.75      0.00
   -8   24    7     -3.74      0.00
   -8   24    6     -7.32      0.00
   -8   24    5     -5.94      0.00
   -8   24    4     -3.96      0.00
   -8   24    3      2.94      0.00
   -8   24    2      9.10      0.00
   -8   24    1     -1.04      0.00
    8   24    0      3.42      0.00
    8   24    1     -3.38      0.00
    8   24    2     -4.89      0.00
    8   24    3      1.08      0.00
    8   24    4     -2.11      0.00
    8   24    5    -14.53      0.00
    8   24    6     -1.45      0.00
    8   24    7      1.01      0.00
   -8   25    8      5.67      0.00
   -8   25    7      1.36      0.00
   -8   25    6     -1.34      0.00
   -8   25    5     -1.30      0.00
   -8   25    4     -8.71      0.00
   -8   25    3      6.09      0.00
   -8   25    2      2.96      0.00
   -8   25    1     -9.89      0.00
    8   25    0     -1.94      0.00
    8   25    1      5.30      0.00
    8   25    2      1.15      0.00
    8   25    3     -4.56      0.00
    8   25    4     -6.77      0.00
    8   25    5      2.48      0.00
    8   25    6    -12.54      0.00
    8   25    7      3.50      0.00
   -8   26    7    -10.47      0.00
   -8   26    6     -5.96      0.00
   -8   26    5      4.21      0.00
   -8   26    4     -6.57      0.00
   -8   26    3      2.74      0.00
   -8   26    2      4.69      0.00
   -8   26    1      1.01      0.00
    8   26    0     -0.07      0.00
    8   26    1      6.18      0.00
    8   26    2     12.87      0.00
    8   26    3      1.97      0.00
    8   26    4     -2.34      0.00
    8   26    5      8.15      0.00
    8   26    6      1.98      0.00
    8   26    7     -2.78      0.00
   -8   27    7      2.28      0.00
   -8   27    6    -12.54      0.00
   -8   27    5      0.34      0.00
   -8   27    4     -1.73      0.00
   -8   27    3     -3.45      0.00
   -8   27    2      1.57      0.00
   -8   27    1      6.97      0.00
    8   27    0      1.66      0.00
    8   27    1     -0.93      0.00
    8   27    2      0.61      0.00
    8   27    3      0.80      0.00
    8   27    4      0.31      0.00
    8   27    5      0.96      0.00
    8   27    6     -5.67      0.00
   -8   28    7     -5.68      0.00
   -8   28    6    -14.01      0.00
   -8   28    5    -16.60      0.00
   -8   28    4     -1.26      0.00
   -8   28    3     10.14      0.00
   -8   28    2     -3.59      0.00
   -8   28    1      0.92      0.00
    8   28    0     -7.27      0.00
    8   28    1     -5.09      0.00
    8   28    2      2.06      0.00
    8   28    3      8.38      0.00
    8   28    4      1.67      0.00
    8   28    5    -57.53      0.00
    8   28    6      1.32      0.00
   -8   29    6     -1.63      0.00
   -8   29    5     -6.83      0.00
   -8   29    4     -6.70      0.00
   -8   29    3      7.18      0.00
   -8   29    2      1.37      0.00
   -8   29    1     -3.05      0.00
    8   29    0     -1.54      0.00
    8   29    1      8.06      0.00
    8   29    2      0.83      0.00
    8   29    3     -6.96      0.00
    8   29    4     -0.23      0.00
    8   29    5      5.06      0.00
    8   29    6     -5.87      0.00
   -8   30    6     -1.94      0.00
   -8   30    5     -0.60      0.00
   -8   30    4     -9.00      0.00
   -8   30    3      9.08      0.00
   -8   30    2      6.75      0.00
   -8   30    1     -2.10      0.00
    8   30    0      1.00      0.00
    8   30    1      0.24      0.00
    8   30    2      5.74      0.00
    8   30    3      5.38      0.00
    8   30    4      3.80      0.00
    8   30    5      1.38      0.00
   -8   31    5     -2.11      0.00
   -8   31    4     -4.45      0.00
   -8   31    3     -3.26      0.00
   -8   31    2      6.93      0.00
   -8   31    1     -7.85      0.00
    8   31    0     -3.41      0.00
    8   31    1     -2.64      0.00
    8   31    2     -4.10      0.00
    8   31    3     10.46      0.00
    8   31    4     -9.38      0.00
    8   31    5      2.10      0.00
   -8   32    5     -5.43      0.00
   -8   32    4      2.62      0.00
   -8   32    3      3.77      0.00
   -8   32    2      6.17      0.00
   -8   32    1     -1.73      0.00
    8   32    0     -4.17      0.00
    8   32    1     -5.25      0.00
    8   32    2      4.04      0.00
    8   32    3      7.10      0.00
    8   32    4     -1.45      0.00
   -8   33    4      0.57      0.00
   -8   33    3      4.01      0.00
   -8   33    2     -5.20      0.00
   -8   33    1     -3.70      0.00
    8   33    0     -6.03      0.00
    8   33    1      7.52      0.00
    8   33    2     -0.34      0.00
    8   33    3      3.86      0.00
    8   33    4      1.79      0.00
   -8   34    4     -6.45      0.00
   -8   34    3     10.66      0.00
   -8   34    2      2.70      0.00
   -8   34    1     -0.41      0.00
    8   34    0      0.96      0.00
    8   34    1     -3.35      0.00
    8   34    2      1.65      0.00
    8   34    3      4.33      0.00
   -8   35    3     -2.11      0.00
   -8   35    2      5.92      0.00
   -8   35    1     -3.98      0.00
    8   35    0      0.80      0.00
    8   35    1     -3.09      0.00
    8   35    2    -12.55      0.00
   -8   36    2      1.87      0.00
   -8   36    1     -0.48      0.00
    8   36    0     -2.51      0.00
    8   36    1     -5.51      0.00
   -9    0   10      0.78      0.00
   -9    0    8    -17.23      0.00
   -9    0    6      9.22      0.00
   -9    0    4     -3.58      0.00
   -9    0    2     27.68      0.00
    9    0    0     -6.74      0.00
    9    0    2     -7.25      0.00
    9    0    4      5.95      0.00
    9    0    6     -0.61      0.00
    9    0    8      4.01      0.00
   -9    1   10      8.75      0.00
   -9    1    9      3.23      0.00
   -9    1    8      2.05      0.00
   -9    1    7      5.25      0.00
   -9    1    6     -5.38      0.00
   -9    1    5     -1.82      0.00
   -9    1    4      9.72      0.00
   -9    1    3    -11.50      0.00
   -9    1    2      2.81      0.00
   -9    1    1     -8.10      0.00
    9    1    0      5.12      0.00
    9    1    1     10.48      0.00
    9    1    2    -10.42      0.00
    9    1    3     -2.34      0.00
    9    1    4     13.26      0.00
    9    1    5     -1.87      0.00
    9    1    6     -6.67      0.00
    9    1    7     -0.71      0.00
    9    1    8      3.08      0.00
    9    1    9     -0.31      0.00
   -9    2   10     -4.34      0.00
   -9    2    9     -0.04      0.00
   -9    2    8     -4.81      0.00
   -9    2    7      1.86      0.00
   -9    2    6    -12.49      0.00
   -9    2    5      0.11      0.00
   -9    2    4      5.71      0.00
   -9    2    3     -8.74      0.00
   -9    2    2    -23.50      0.00
   -9    2    1      4.73      0.00
    9    2    0     12.80      0.00
    9    2    1     -4.34      0.00
    9    2    2     11.00      0.00
    9    2    3      5.43      0.00
    9    2    4    -13.54      0.00
    9    2    5     -5.42      0.00
    9    2    6     20.25      0.00
    9    2    7      2.40      0.00
    9    2    8     -7.51      0.00
    9    2    9     -0.48      0.00
   -9    3   10      4.09      0.00
   -9    3    9     -7.66      0.00
   -9    3    8     -1.46      0.00
   -9    3    7      6.27      0.00
   -9    3    6      9.71      0.00
   -9    3    5     -1.87      0.00
   -9    3    4      4.99      0.00
   -9    3    3      3.33      0.00
   -9    3    2     -0.75      0.00
   -9    3    1      3.84      0.00
    9    3    0      4.43      0.00
    9    3    1    -13.98      0.00
    9    3    2      7.20      0.00
    9    3    3     -0.09      0.00
    9    3    4     -7.16      0.00
    9    3    5     11.85      0.00
    9    3    6      5.92      0.00
    9    3    7      1.62      0.00
    9    3    8     -9.99      0.00
    9    3    9     -1.23      0.00
   -9    4   10      8.87      0.00
   -9    4    9      0.91      0.00
   -9    4    8     -5.46      0.00
   -9    4    7     -3.85      0.00
   -9    4    6      3.46      0.00
   -9    4    5     -6.42      0.00
   -9    4    4     -8.58      0.00
   -9    4    3     11.34      0.00
   -9    4    2      9.13      0.00
   -9    4    1     -3.89      0.00
    9    4    0      3.24      0.00
    9    4    1     -1.25      0.00
    9    4    2     -1.60      0.00
    9    4    3     -3.37      0.00
    9    4    4      1.59      0.00
    9    4    5     -2.11      0.00
    9    4    6     -4.72      0.00
    9    4    7      5.75      0.00
    9    4    8     -0.05      0.00
    9    4    9      0.12      0.00
   -9    5   10     10.93      0.00
   -9    5    9     -3.81      0.00
   -9    5    8     -1.89      0.00
   -9    5    7     -2.17      0.00
   -9    5    6     11.22      0.00
   -9    5    5      6.21      0.00
   -9    5    4     -2.84      0.00
   -9    5    3    -10.51      0.00
   -9    5    2     -5.76      0.00
   -9    5    1    -11.44      0.00
    9    5    0    -10.75      0.00
    9    5    1     11.81      0.00
    9    5    2     -3.49      0.00
    9    5    3      3.28      0.00
    9    5    4     11.42      0.00
    9    5    5     -4.86      0.00
    9    5    6     -6.39      0.00
    9    5    7      4.33      0.00
    9    5    8     -3.48      0.00
    9    5    9     12.73      0.00
   -9    6   10     -9.41      0.00
   -9    6    9      3.87      0.00
   -9    6    8     10.52      0.00
   -9    6    7     -2.88      0.00
   -9    6    6     -4.14      0.00
   -9    6    5      9.96      0.00
   -9    6    4      0.61      0.00
   -9    6    3      0.47      0.00
   -9    6    2     -6.77      0.00
   -9    6    1      5.00      0.00
    9    6    0     -8.43      0.00
    9    6    1     10.72      0.00
    9    6    2      2.41      0.00
    9    6    3     -5.46      0.00
    9    6    4     -0.46      0.00
    9    6    5     -2.83      0.00
    9    6    6     22.72      0.00
    9    6    7     -2.37      0.00
    9    6    8     -5.29      0.00
    9    6    9     -2.84      0.00
   -9    7   10      9.79      0.00
   -9    7    9     -9.81      0.00
   -9    7    8     -3.34      0.00
   -9    7    7     -4.31      0.00
   -9    7    6      1.69      0.00
   -9    7    5     -5.10      0.00
   -9    7    4      2.38      0.00
   -9    7    3      8.37      0.00
   -9    7    2      2.71      0.00
   -9    7    1      9.40      0.00
    9    7    0     10.89      0.00
    9    7    1     -5.36      0.00
    9    7    2      0.14      0.00
    9    7    3     -0.74      0.00
    9    7    4     -3.54      0.00
    9    7    5     -0.38      0.00
    9    7    6      8.18      0.00
    9    7    7     -1.92      0.00
    9    7    8     -5.27      0.00
    9    7    9     -9.20      0.00
   -9    8   10      2.05      0.00
   -9    8    9     -3.95      0.00
   -9    8    8     12.45      0.00
   -9    8    7     10.07      0.00
   -9    8    6      7.61      0.00
   -9    8    5     -9.95      0.00
   -9    8    4      1.54      0.00
   -9    8    3      6.80      0.00
   -9    8    2    -14.22      0.00
   -9    8    1     -0.28      0.00
    9    8    0     -3.32      0.00
    9    8    1    -14.40      0.00
    9    8    2      5.18      0.00
    9    8    3      7.98      0.00
    9    8    4      6.00      0.00
    9    8    5     -2.80      0.00
    9    8    6     -1.02      0.00
    9    8    7     -1.12      0.00
    9    8    8      5.93      0.00
    9    8    9      1.31      0.00
   -9    9   10     18.86      0.00
   -9    9    9     -3.62      0.00
   -9    9    8    -11.95      0.00
   -9    9    7     -5.30      0.00
   -9    9    6     10.41      0.00
   -9    9    5     -2.44      0.00
   -9    9    4     -2.04      0.00
   -9    9    3     -1.59      0.00
   -9    9    2     -0.89      0.00
   -9    9    1     -4.68      0.00
    9    9    0     -4.97      0.00
    9    9    1     -7.46      0.00
    9    9    2      4.12      0.00
    9    9    3      3.83      0.00
    9    9    4     -0.64      0.00
    9    9    5      7.46      0.00
    9    9    6    -12.48      0.00
    9    9    7     -1.09      0.00
    9    9    8      0.86      0.00
    9    9    9      5.73      0.00
   -9   10   10     -0.97      0.00
   -9   10    9     13.90      0.00
   -9   10    8     10.24      0.00
   -9   10    7     -2.85      0.00
   -9   10    6     -4.85      0.00
   -9   10    5     -1.01      0.00
   -9   10    4      3.93      0.00
   -9   10    3      4.51      0.00
   -9   10    2      5.25      0.00
   -9   10    1      3.38      0.00
    9   10    0     -1.83      0.00
    9   10    1     20.77      0.00
    9   10    2      1.67      0.00
    9   10    3    -17.57      0.00
    9   10    4     -7.10      0.00
    9   10    5      8.02      0.00
    9   10    6      8.18      0.00
    9   10    7     -1.33      0.00
    9   10    8      4.79      0.00
    9   10    9    -12.08      0.00
   -9   11    9      0.36      0.00
   -9   11    8     -3.98      0.00
   -9   11    7      3.45      0.00
   -9   11    6      1.73      0.00
   -9   11    5      7.87      0.00
   -9   11    4     -6.54      0.00
   -9   11    3      1.85      0.00
   -9   11    2     13.88      0.00
   -9   11    1     -6.79      0.00
    9   11    0      2.62      0.00
    9   11    1     -5.58      0.00
    9   11    2     -3.99      0.00
    9   11    3     10.08      0.00
    9   11    4      5.61      0.00
    9   11    5     -4.13      0.00
    9   11    6      1.66      0.00
    9   11    7      0.65      0.00
    9   11    8     -3.63      0.00
    9   11    9    -14.08      0.00
   -9   12    9    -12.72      0.00
   -9   12    8      4.44      0.00
   -9   12    7      8.83      0.00
   -9   12    6     -6.71      0.00
   -9   12    5     -0.95      0.00
   -9   12    4      6.43      0.00
   -9   12    3     -0.78      0.00
   -9   12    2     -6.96      0.00
   -9   12    1     -6.39      0.00
    9   12    0     -6.23      0.00
    9   12    1     -6.96      0.00
    9   12    2     -1.36      0.00
    9   12    3      9.50      0.00
    9   12    4      6.29      0.00
    9   12    5    -11.85      0.00
    9   12    6     -1.44      0.00
    9   12    7     -3.09      0.00
    9   12    8     -1.09      0.00
    9   12    9      2.35      0.00
   -9   13    9      0.73      0.00
   -9   13    8     -0.93      0.00
   -9   13    7      6.65      0.00
   -9   13    6     -5.92      0.00
   -9   13    5     -3.27      0.00
   -9   13    4     -3.50      0.00
   -9   13    3     -2.89      0.00
   -9   13    2      8.26      0.00
   -9   13    1     -0.08      0.00
    9   13    0      0.51      0.00
    9   13    1     -0.99      0.00
    9   13    2      5.37      0.00
    9   13    3     -5.16      0.00
    9   13    4     -7.21      0.00
    9   13    5      6.23      0.00
    9   13    6      1.29      0.00
    9   13    7      2.74      0.00
    9   13    8     -4.31      0.00
    9   13    9      1.82      0.00
   -9   14    9      9.86      0.00
   -9   14    8     -0.95      0.00
   -9   14    7     -1.87      0.00
   -9   14    6      7.11      0.00
   -9   14    5     -1.36      0.00
   -9   14    4      0.43      0.00
   -9   14    3      9.14      0.00
   -9   14    2      0.88      0.00
   -9   14    1      0.27      0.00
    9   14    0     -7.91      0.00
    9   14    1      7.35      0.00
    9   14    2      2.04      0.00
    9   14    3     -4.48      0.00
    9   14    4     -1.89      0.00
    9   14    5      1.09      0.00
    9   14    6     -2.87      0.00
    9   14    7     -3.83      0.00
    9   14    8      2.74      0.00
    9   14    9     -7.26      0.00
   -9   15    9      5.50      0.00
   -9   15    8    -17.05      0.00
   -9   15    7     -7.00      0.00
   -9   15    6      6.71      0.00
   -9   15    5      2.56      0.00
   -9   15    4     -4.35      0.00
   -9   15    3      1.66      0.00
   -9   15    2      7.03      0.00
   -9   15    1      0.93      0.00
    9   15    0      2.38      0.00
    9   15    1     -4.79      0.00
    9   15    2     -4.99      0.00
    9   15    3     12.26      0.00
    9   15    4      8.61      0.00
    9   15    5     -6.76      0.00
    9   15    6     -4.32      0.00
    9   15    7      0.40      0.00
    9   15    8     -1.05      0.00
   -9   16    9     14.20      0.00
   -9   16    8     -1.98      0.00
   -9   16    7      2.34      0.00
   -9   16    6      2.34      0.00
   -9   16    5    -12.59      0.00
   -9   16    4     -0.53      0.00
   -9   16    3     -3.49      0.00
   -9   16    2     -8.56      0.00
   -9   16    1      3.27      0.00
    9   16    0      0.13      0.00
    9   16    1      6.53      0.00
    9   16    2     -8.50      0.00
    9   16    3     -3.18      0.00
    9   16    4      4.58      0.00
    9   16    5     -4.42      0.00
    9   16    6      3.14      0.00
    9   16    7     -0.44      0.00
    9   16    8      3.68      0.00
   -9   17    9     -6.75      0.00
   -9   17    8      8.10      0.00
   -9   17    7      4.41      0.00
   -9   17    6     -4.15      0.00
   -9   17    5      5.43      0.00
   -9   17    4      4.25      0.00
   -9   17    3     -0.16      0.00
   -9   17    2      8.85      0.00
   -9   17    1     -6.68      0.00
    9   17    0     -3.30      0.00
    9   17    1      3.47      0.00
    9   17    2      9.96      0.00
    9   17    3     -2.98      0.00
    9   17    4     -0.14      0.00
    9   17    5      6.56      0.00
    9   17    6      3.59      0.00
    9   17    7     -0.88      0.00
    9   17    8      2.61      0.00
   -9   18    8     -1.93      0.00
   -9   18    7     -8.22      0.00
   -9   18    6     -6.66      0.00
   -9   18    5     11.60      0.00
   -9   18    4    -11.92      0.00
   -9   18    3     -3.32      0.00
   -9   18    2      5.81      0.00
   -9   18    1     -6.43      0.00
    9   18    0     -5.29      0.00
    9   18    1     -7.26      0.00
    9   18    2      4.96      0.00
    9   18    3      3.93      0.00
    9   18    4     -2.43      0.00
    9   18    5     -6.58      0.00
    9   18    6     -1.29      0.00
    9   18    7     -4.71      0.00
    9   18    8     12.45      0.00
   -9   19    8      5.56      0.00
   -9   19    7     -4.70      0.00
   -9   19    6     -9.83      0.00
   -9   19    5      1.08      0.00
   -9   19    4     -1.18      0.00
   -9   19    3     -7.29      0.00
   -9   19    2      5.42      0.00
   -9   19    1     -0.53      0.00
    9   19    0      0.66      0.00
    9   19    1     -5.15      0.00
    9   19    2     -2.74      0.00
    9   19    3      7.01      0.00
    9   19    4     -3.98      0.00
    9   19    5      0.66      0.00
    9   19    6      2.86      0.00
    9   19    7      2.77      0.00
    9   19    8      4.56      0.00
   -9   20    8      1.42      0.00
   -9   20    7     -1.29      0.00
   -9   20    6      4.46      0.00
   -9   20    5     -3.58      0.00
   -9   20    4      8.43      0.00
   -9   20    3     -3.48      0.00
   -9   20    2     -6.75      0.00
   -9   20    1     11.26      0.00
    9   20    0      5.66      0.00
    9   20    1      3.84      0.00
    9   20    2     -3.40      0.00
    9   20    3     -1.08      0.00
    9   20    4      7.07      0.00
    9   20    5      3.76      0.00
    9   20    6     -2.31      0.00
    9   20    7      3.66      0.00
    9   20    8      2.91      0.00
   -9   21    8     -1.81      0.00
   -9   21    7     -3.65      0.00
   -9   21    6     -2.49      0.00
   -9   21    5     -0.24      0.00
   -9   21    4      6.50      0.00
   -9   21    3     -6.75      0.00
   -9   21    2     -1.98      0.00
   -9   21    1      0.62      0.00
    9   21    0     -1.93      0.00
    9   21    1      1.99      0.00
    9   21    2      8.97      0.00
    9   21    3      0.41      0.00
    9   21    4      5.05      0.00
    9   21    5      0.19      0.00
    9   21    6      0.99      0.00
    9   21    7      8.33      0.00
   -9   22    8     -6.63      0.00
   -9   22    7      3.94      0.00
   -9   22    6    -10.54      0.00
   -9   22    5     -1.84      0.00
   -9   22    4     -8.70      0.00
   -9   22    3     -3.20      0.00
   -9   22    2      2.99      0.00
   -9   22    1      0.26      0.00
    9   22    0     -5.08      0.00
    9   22    1     -8.51      0.00
    9   22    2      5.29      0.00
    9   22    3     -3.37      0.00
    9   22    4      3.41      0.00
    9   22    5     -5.68      0.00
    9   22    7      4.85      0.00
   -9   23    7     -1.54      0.00
   -9   23    6     -7.45      0.00
   -9   23    5      2.57      0.00
   -9   23    4      2.64      0.00
   -9   23    3      2.02      0.00
   -9   23    2      6.37      0.00
   -9   23    1     -5.10      0.00
    9   23    0     -4.57      0.00
    9   23    1     -3.08      0.00
    9   23    2      2.51      0.00
    9   23    3      0.81      0.00
    9   23    4     -3.11      0.00
    9   23    5     -2.48      0.00
    9   23    6      1.25      0.00
    9   23    7     -0.54      0.00
   -9   24    7      0.48      0.00
   -9   24    6     -3.47      0.00
   -9   24    5      2.34      0.00
   -9   24    4      2.18      0.00
   -9   24    3     -9.15      0.00
   -9   24    2     -3.92      0.00
   -9   24    1      4.10      0.00
    9   24    0      6.52      0.00
    9   24    1      1.55      0.00
    9   24    2      3.02      0.00
    9   24    3     -0.12      0.00
    9   24    4      3.29      0.00
    9   24    5      3.14      0.00
    9   24    6     -1.17      0.00
    9   24    7      4.63      0.00
   -9   25    7     -4.47      0.00
   -9   25    6     -9.05      0.00
   -9   25    5      1.46      0.00
   -9   25    4     -1.82      0.00
   -9   25    3     -0.26      0.00
   -9   25    2      3.38      0.00
   -9   25    1     -3.95      0.00
    9   25    0     -2.92      0.00
    9   25    1     -2.95      0.00
    9   25    2     -1.65      0.00
    9   25    3      0.10      0.00
    9   25    4     -2.67      0.00
    9   25    5      8.99      0.00
    9   25    6     -0.85      0.00
   -9   26    7      6.60      0.00
   -9   26    6     -3.79      0.00
   -9   26    5     -1.06      0.00
   -9   26    4      3.38      0.00
   -9   26    3      8.31      0.00
   -9   26    2      4.76      0.00
   -9   26    1      4.31      0.00
    9   26    0     -1.94      0.00
    9   26    1      0.38      0.00
    9   26    2      3.38      0.00
    9   26    3      0.90      0.00
    9   26    4     -6.38      0.00
    9   26    5      4.24      0.00
    9   26    6      6.00      0.00
   -9   27    6      3.55      0.00
   -9   27    5     -7.71      0.00
   -9   27    4     -7.67      0.00
   -9   27    3     -2.79      0.00
   -9   27    2     -4.03      0.00
   -9   27    1     -4.00      0.00
    9   27    0      0.87      0.00
    9   27    1     -2.93      0.00
    9   27    2      0.46      0.00
    9   27    3      0.50      0.00
    9   27    4     -3.32      0.00
    9   27    5      1.01      0.00
    9   27    6     -1.98      0.00
   -9   28    6     11.76      0.00
   -9   28    5      0.36      0.00
   -9   28    4     -0.47      0.00
   -9   28    3     -5.21      0.00
   -9   28    2     -2.05      0.00
   -9   28    1      2.94      0.00
    9   28    0     -0.96      0.00
    9   28    1     -3.23      0.00
    9   28    2      1.74      0.00
    9   28    3     -8.73      0.00
    9   28    4     -3.15      0.00
    9   28    5     -0.95      0.00
   -9   29    5      5.73      0.00
   -9   29    4      1.49      0.00
   -9   29    3      4.44      0.00
   -9   29    2      7.14      0.00
   -9   29    1     -4.00      0.00
    9   29    0      0.89      0.00
    9   29    1     -3.30      0.00
    9   29    2      3.58      0.00
    9   29    3     -3.90      0.00
    9   29    4     -8.24      0.00
    9   29    5      2.46      0.00
   -9   30    5     -0.11      0.00
   -9   30    4     -2.02      0.00
   -9   30    3     -6.01      0.00
   -9   30    2     -0.98      0.00
   -9   30    1     -3.21      0.00
    9   30    0     -1.61      0.00
    9   30    1      0.64      0.00
    9   30    2     -2.71      0.00
    9   30    3     -1.44      0.00
    9   30    4      5.17      0.00
   -9   31    4     -1.75      0.00
   -9   31    3     -7.20      0.00
   -9   31    2     -1.31      0.00
   -9   31    1     -3.30      0.00
    9   31    0      1.44      0.00
    9   31    1     -2.79      0.00
    9   31    2     -3.48      0.00
    9   31    3     -0.41      0.00
    9   31    4      1.85      0.00
   -9   32    4      6.90      0.00
   -9   32    3      1.77      0.00
   -9   32    2     -5.00      0.00
   -9   32    1      1.41      0.00
    9   32    0      0.08      0.00
    9   32    1     -1.63      0.00
    9   32    2     -4.07      0.00
    9   32    3    -17.53      0.00
   -9   33    3      4.42      0.00
   -9   33    2    -10.32      0.00
   -9   33    1     -1.63      0.00
    9   33    0      1.56      0.00
    9   33    1     -4.42      0.00
    9   33    2      4.80      0.00
   -9   34    2     -8.96      0.00
   -9   34    1     -4.01      0.00
    9   34    0     -3.20      0.00
    9   34    1     -3.06      0.00
  -10    0    8      1.13      0.00
  -10    0    6     11.43      0.00
  -10    0    4      1.67      0.00
  -10    0    2    -17.42      0.00
   10    0    0     18.37      0.00
   10    0    2      5.44      0.00
   10    0    4    -14.99      0.00
   10    0    6     14.09      0.00
   10    0    8      7.56      0.00
  -10    1    9      6.96      0.00
  -10    1    8      5.45      0.00
  -10    1    7     -1.55      0.00
  -10    1    6      4.51      0.00
  -10    1    5     -0.70      0.00
  -10    1    4      1.81      0.00
  -10    1    3      0.02      0.00
  -10    1    2     -5.26      0.00
  -10    1    1      4.57      0.00
   10    1    0    -16.30      0.00
   10    1    1      2.09      0.00
   10    1    2      6.17      0.00
   10    1    3     -4.13      0.00
   10    1    4      2.48      0.00
   10    1    5    -13.85      0.00
   10    1    6      8.01      0.00
   10    1    7     -2.54      0.00
   10    1    8     -3.83      0.00
   10    1    9    -16.09      0.00
  -10    2    9     -6.23      0.00
  -10    2    8      0.06      0.00
  -10    2    7    -11.03      0.00
  -10    2    6      9.26      0.00
  -10    2    5     -2.57      0.00
  -10    2    4     21.54      0.00
  -10    2    3      5.76      0.00
  -10    2    2    -33.45      0.00
  -10    2    1     -8.21      0.00
   10    2    0    -14.25      0.00
   10    2    1     -0.19      0.00
   10    2    2     -3.06      0.00
   10    2    3     -4.30      0.00
   10    2    4    -25.54      0.00
   10    2    5     -3.59      0.00
   10    2    6      2.92      0.00
   10    2    7     -2.80      0.00
   10    2    8     -8.82      0.00
   10    2    9     -4.03      0.00
  -10    3    9     -0.32      0.00
  -10    3    8     -1.54      0.00
  -10    3    7      2.79      0.00
  -10    3    6     -2.53      0.00
  -10    3    5     13.68      0.00
  -10    3    4     -1.35      0.00
  -10    3    3     -6.20      0.00
  -10    3    2      3.86      0.00
  -10    3    1     -5.19      0.00
   10    3    0      5.08      0.00
   10    3    1     21.22      0.00
   10    3    2      1.13      0.00
   10    3    3     -6.56      0.00
   10    3    4     -1.50      0.00
   10    3    5     -2.59      0.00
   10    3    6     -4.98      0.00
   10    3    8      3.82      0.00
   10    3    9     -3.53      0.00
  -10    4    9     -3.34      0.00
  -10    4    8      0.86      0.00
  -10    4    7      2.70      0.00
  -10    4    6      0.08      0.00
  -10    4    5     14.51      0.00
  -10    4    4     -7.63      0.00
  -10    4    3    -15.64      0.00
  -10    4    2     -5.27      0.00
  -10    4    1     16.00      0.00
   10    4    0     14.68      0.00
   10    4    1     12.20      0.00
   10    4    2     -7.99      0.00
   10    4    3     -3.66      0.00
   10    4    4      0.97      0.00
   10    4    5      0.06      0.00
   10    4    6     -0.25      0.00
   10    4    7      4.27      0.00
   10    4    8     -2.57      0.00
   10    4    9      3.58      0.00
  -10    5    9      3.72      0.00
  -10    5    8     -1.54      0.00
  -10    5    7      1.55      0.00
  -10    5    6     -7.44      0.00
  -10    5    5      3.48      0.00
  -10    5    4      1.58      0.00
  -10    5    3     -0.93      0.00
  -10    5    2      0.56      0.00
  -10    5    1     -5.10      0.00
   10    5    0      0.76      0.00
   10    5    1    -13.03      0.00
   10    5    2     -6.44      0.00
   10    5    3      3.32      0.00
   10    5    4     -6.27      0.00
   10    5    5    -13.33      0.00
   10    5    6      9.55      0.00
   10    5    7     -0.34      0.00
   10    5    8     -9.74      0.00
   10    5    9     -8.74      0.00
  -10    6    9    -19.97      0.00
  -10    6    8     -8.32      0.00
  -10    6    7     -7.94      0.00
  -10    6    6      9.53      0.00
  -10    6    5    -11.78      0.00
  -10    6    4      1.95      0.00
  -10    6    3      2.88      0.00
  -10    6    2    -18.72      0.00
  -10    6    1     -6.66      0.00
   10    6    0     -9.08      0.00
   10    6    1      2.99      0.00
   10    6    2      9.43      0.00
   10    6    3      1.85      0.00
   10    6    4    -12.17      0.00
   10    6    5     -4.90      0.00
   10    6    6      5.89      0.00
   10    6    7     -1.38      0.00
   10    6    8     -0.88      0.00
   10    6    9      2.82      0.00
  -10    7    9     -2.57      0.00
  -10    7    8     -1.15      0.00
  -10    7    7     10.60      0.00
  -10    7    6     10.41      0.00
  -10    7    5      5.40      0.00
  -10    7    4      4.70      0.00
  -10    7    3    -15.33      0.00
  -10    7    2     -1.67      0.00
  -10    7    1      1.32      0.00
   10    7    0     -6.87      0.00
   10    7    1      9.68      0.00
   10    7    2      5.78      0.00
   10    7    3     -2.60      0.00
   10    7    4      5.17      0.00
   10    7    5     -0.92      0.00
   10    7    6     -9.49      0.00
   10    7    7      1.04      0.00
   10    7    8      4.99      0.00
   10    7    9     -8.35      0.00
  -10    8    9     11.24      0.00
  -10    8    8      4.74      0.00
  -10    8    7    -12.33      0.00
  -10    8    6     -1.53      0.00
  -10    8    5     10.32      0.00
  -10    8    4     -3.94      0.00
  -10    8    3    -12.20      0.00
  -10    8    2      9.27      0.00
  -10    8    1     -3.24      0.00
   10    8    0     -2.16      0.00
   10    8    1      8.83      0.00
   10    8    2     -6.90      0.00
   10    8    3    -18.66      0.00
   10    8    4     11.15      0.00
   10    8    5      3.38      0.00
   10    8    6      3.90      0.00
   10    8    7      5.85      0.00
   10    8    8      4.66      0.00
   10    8    9     -1.48      0.00
  -10    9    9     -9.00      0.00
  -10    9    8    -11.44      0.00
  -10    9    7      1.58      0.00
  -10    9    6    -11.88      0.00
  -10    9    5      3.04      0.00
  -10    9    4      0.00      0.00
  -10    9    3    -19.58      0.00
  -10    9    2     13.31      0.00
  -10    9    1    -16.21      0.00
   10    9    0      7.81      0.00
   10    9    1    -10.25      0.00
   10    9    2      2.18      0.00
   10    9    3      9.43      0.00
   10    9    4     -3.87      0.00
   10    9    5     -5.98      0.00
   10    9    6      7.60      0.00
   10    9    7     -0.84      0.00
   10    9    8     -4.93      0.00
  -10   10    9    -13.60      0.00
  -10   10    8     -3.92      0.00
  -10   10    7     16.04      0.00
  -10   10    6      2.49      0.00
  -10   10    5    -12.55      0.00
  -10   10    4     -3.54      0.00
  -10   10    3    -17.49      0.00
  -10   10    2     -6.92      0.00
  -10   10    1      3.85      0.00
   10   10    0      5.39      0.00
   10   10    1      0.44      0.00
   10   10    2      5.48      0.00
   10   10    3      6.20      0.00
   10   10    4     -2.96      0.00
   10   10    5     -6.56      0.00
   10   10    6      3.89      0.00
   10   10    7     -4.73      0.00
   10   10    8     -9.33      0.00
  -10   11    9     -9.23      0.00
  -10   11    8     -7.69      0.00
  -10   11    7      7.99      0.00
  -10   11    6     -1.75      0.00
  -10   11    5     -3.35      0.00
  -10   11    4      8.66      0.00
  -10   11    3     -8.42      0.00
  -10   11    2     -5.08      0.00
  -10   11    1      9.10      0.00
   10   11    0      5.68      0.00
   10   11    1      0.97      0.00
   10   11    2     -5.73      0.00
   10   11    3     -1.07      0.00
   10   11    4      3.83      0.00
   10   11    5      9.76      0.00
   10   11    6      2.56      0.00
   10   11    7     -3.78      0.00
   10   11    8     14.11      0.00
  -10   12    9      5.78      0.00
  -10   12    8     14.47      0.00
  -10   12    7     -9.33      0.00
  -10   12    6      1.08      0.00
  -10   12    5      7.58      0.00
  -10   12    4     -3.71      0.00
  -10   12    3     -1.42      0.00
  -10   12    2      0.34      0.00
  -10   12    1     -0.99      0.00
   10   12    0    -12.81      0.00
   10   12    1      7.97      0.00
   10   12    2      6.03      0.00
   10   12    3     -9.09      0.00
   10   12    4     -2.36      0.00
   10   12    5      3.93      0.00
   10   12    6     -3.03      0.00
   10   12    7     -1.52      0.00
   10   12    8      8.54      0.00
  -10   13    9      4.41      0.00
  -10   13    8      2.44      0.00
  -10   13    7     -2.88      0.00
  -10   13    6     -0.42      0.00
  -10   13    5     -5.07      0.00
  -10   13    4    -20.16      0.00
  -10   13    3    -13.87      0.00
  -10   13    2      6.81      0.00
  -10   13    1     -4.24      0.00
   10   13    0      2.80      0.00
   10   13    1      1.79      0.00
   10   13    2      6.43      0.00
   10   13    3      1.80      0.00
   10   13    4     -6.12      0.00
   10   13    5     -0.43      0.00
   10   13    6     -0.47      0.00
   10   13    7      5.26      0.00
   10   13    8      1.57      0.00
  -10   14    8     -2.94      0.00
  -10   14    7      5.07      0.00
  -10   14    6     -2.90      0.00
  -10   14    5     -2.70      0.00
  -10   14    4      4.99      0.00
  -10   14    3      1.41      0.00
  -10   14    2     -8.80      0.00
  -10   14    1     -1.83      0.00
   10   14    0     18.11      0.00
   10   14    1     -4.05      0.00
   10   14    2     -9.13      0.00
   10   14    3      6.51      0.00
   10   14    4     14.30      0.00
   10   14    5     -4.96      0.00
   10   14    6     -3.17      0.00
   10   14    7      4.54      0.00
   10   14    8     -3.48      0.00
  -10   15    8      5.81      0.00
  -10   15    7     -4.94      0.00
  -10   15    6    -18.65      0.00
  -10   15    5      0.41      0.00
  -10   15    4     -2.70      0.00
  -10   15    3     -6.32      0.00
  -10   15    2      0.04      0.00
  -10   15    1      5.40      0.00
   10   15    0      8.13      0.00
   10   15    1      0.08      0.00
   10   15    2     -5.13      0.00
   10   15    3     -0.21      0.00
   10   15    4      5.87      0.00
   10   15    5     -6.57      0.00
   10   15    6      4.96      0.00
   10   15    7      0.67      0.00
   10   15    8      0.86      0.00
  -10   16    8     34.05      0.00
  -10   16    7     12.48      0.00
  -10   16    6      0.52      0.00
  -10   16    5      1.00      0.00
  -10   16    4     -1.70      0.00
  -10   16    3     -8.55      0.00
  -10   16    2    -10.07      0.00
  -10   16    1      5.53      0.00
   10   16    0      8.44      0.00
   10   16    1      7.26      0.00
   10   16    2      6.28      0.00
   10   16    3     -1.69      0.00
   10   16    4     -8.72      0.00
   10   16    5      2.28      0.00
   10   16    6     -1.31      0.00
   10   16    7      2.33      0.00
   10   16    8      0.44      0.00
  -10   17    8      4.55      0.00
  -10   17    7     -7.64      0.00
  -10   17    6     -1.06      0.00
  -10   17    5     -6.46      0.00
  -10   17    4      2.12      0.00
  -10   17    3      7.53      0.00
  -10   17    2      5.86      0.00
  -10   17    1      3.31      0.00
   10   17    0     -1.93      0.00
   10   17    1      6.78      0.00
   10   17    2      1.85      0.00
   10   17    3     -8.15      0.00
   10   17    4     -3.45      0.00
   10   17    5      3.13      0.00
   10   17    6     -5.46      0.00
   10   17    7      8.30      0.00
  -10   18    8     -3.64      0.00
  -10   18    7    -14.36      0.00
  -10   18    6     -8.79      0.00
  -10   18    5     -8.68      0.00
  -10   18    4      8.59      0.00
  -10   18    3     -0.87      0.00
  -10   18    2     -8.16      0.00
  -10   18    1     -4.29      0.00
   10   18    0      5.60      0.00
   10   18    1     -3.51      0.00
   10   18    2     -9.33      0.00
   10   18    3     10.70      0.00
   10   18    4     12.39      0.00
   10   18    5     -0.12      0.00
   10   18    6     -1.13      0.00
   10   18    7      3.59      0.00
  -10   19    8     13.18      0.00
  -10   19    7     -5.61      0.00
  -10   19    6     -7.11      0.00
  -10   19    5      1.90      0.00
  -10   19    4     -4.45      0.00
  -10   19    3     -8.00      0.00
  -10   19    2     -1.19      0.00
  -10   19    1      9.16      0.00
   10   19    0      2.92      0.00
   10   19    1      1.55      0.00
   10   19    2     -0.80      0.00
   10   19    3      1.63      0.00
   10   19    4     -2.81      0.00
   10   19    5    -14.48      0.00
   10   19    6      2.37      0.00
   10   19    7      2.62      0.00
  -10   20    7      2.58      0.00
  -10   20    6      4.89      0.00
  -10   20    5      5.20      0.00
  -10   20    4     -2.46      0.00
  -10   20    3      5.51      0.00
  -10   20    2     -4.96      0.00
  -10   20    1      6.95      0.00
   10   20    0     14.64      0.00
   10   20    1      1.21      0.00
   10   20    2     -3.82      0.00
   10   20    3      1.19      0.00
   10   20    4      1.63      0.00
   10   20    5      3.04      0.00
   10   20    6     -1.29      0.00
   10   20    7     -3.08      0.00
  -10   21    7     -0.50      0.00
  -10   21    6    -12.71      0.00
  -10   21    5     -4.45      0.00
  -10   21    4     -0.60      0.00
  -10   21    3     11.74      0.00
  -10   21    2     -2.60      0.00
  -10   21    1     -3.76      0.00
   10   21    0     -0.92      0.00
   10   21    1      2.62      0.00
   10   21    2      3.23      0.00
   10   21    3     -4.04      0.00
   10   21    4      6.67      0.00
   10   21    5     -1.47      0.00
   10   21    6     -4.48      0.00
   10   21    7     12.55      0.00
  -10   22    7    -13.20      0.00
  -10   22    6     -1.20      0.00
  -10   22    5      2.69      0.00
  -10   22    4      5.19      0.00
  -10   22    3     -7.90      0.00
  -10   22    2     -2.59      0.00
  -10   22    1      1.64      0.00
   10   22    0     -4.15      0.00
   10   22    1      0.04      0.00
   10   22    2     -1.66      0.00
   10   22    3      0.13      0.00
   10   22    4      1.62      0.00
   10   22    6      6.62      0.00
  -10   23    7     -6.30      0.00
  -10   23    6      6.29      0.00
  -10   23    5      5.12      0.00
  -10   23    4      0.68      0.00
  -10   23    3     -5.70      0.00
  -10   23    2     10.54      0.00
  -10   23    1      6.71      0.00
   10   23    0     -2.38      0.00
   10   23    1     -4.81      0.00
   10   23    2      3.50      0.00
   10   23    3      0.79      0.00
   10   23    4      0.55      0.00
   10   23    5      1.63      0.00
   10   23    6    -11.41      0.00
  -10   24    6      8.98      0.00
  -10   24    5    -10.75      0.00
  -10   24    4    -18.08      0.00
  -10   24    3      1.87      0.00
  -10   24    2     -1.00      0.00
  -10   24    1     -3.51      0.00
   10   24    0      3.20      0.00
   10   24    1     -4.67      0.00
   10   24    2     -3.86      0.00
   10   24    3      1.61      0.00
   10   24    4      9.81      0.00
   10   24    5     -2.70      0.00
   10   24    6     -7.88      0.00
  -10   25    6      6.28      0.00
  -10   25    5      8.30      0.00
  -10   25    4     -1.71      0.00
  -10   25    3     11.37      0.00
  -10   25    2     -3.92      0.00
  -10   25    1     -3.06      0.00
   10   25    0      1.08      0.00
   10   25    1     -3.07      0.00
   10   25    2      5.77      0.00
   10   25    3      1.38      0.00
   10   25    4     11.85      0.00
   10   25    5     -9.74      0.00
  -10   26    6      2.59      0.00
  -10   26    5      6.26      0.00
  -10   26    4      0.14      0.00
  -10   26    3     -0.01      0.00
  -10   26    2     -4.41      0.00
  -10   26    1     14.21      0.00
   10   26    0     -2.36      0.00
   10   26    1     -0.41      0.00
   10   26    2     -2.77      0.00
   10   26    3     -6.12      0.00
   10   26    4      1.39      0.00
   10   26    5     -0.51      0.00
  -10   27    5      2.44      0.00
  -10   27    4     -5.32      0.00
  -10   27    3     -3.61      0.00
  -10   27    2      6.23      0.00
  -10   27    1     -1.69      0.00
   10   27    0      4.48      0.00
   10   27    1      0.34      0.00
   10   27    2     -0.68      0.00
   10   27    3      2.34      0.00
   10   27    4      1.82      0.00
   10   27    5     15.14      0.00
  -10   28    5      5.12      0.00
  -10   28    4     -7.73      0.00
  -10   28    3     -2.97      0.00
  -10   28    2      1.27      0.00
  -10   28    1     -3.53      0.00
   10   28    0     -1.94      0.00
   10   28    1     -3.24      0.00
   10   28    2     -3.21      0.00
   10   28    3     10.28      0.00
   10   28    4      2.27      0.00
  -10   29    4     -4.19      0.00
  -10   29    3      3.77      0.00
  -10   29    2      0.78      0.00
  -10   29    1     -3.27      0.00
   10   29    0     -2.13      0.00
   10   29    1      1.83      0.00
   10   29    2      7.02      0.00
   10   29    3     -2.68      0.00
   10   29    4     -0.76      0.00
  -10   30    4     -1.03      0.00
  -10   30    3     10.60      0.00
  -10   30    2      3.26      0.00
  -10   30    1      5.08      0.00
   10   30    0      2.13      0.00
   10   30    1     -3.64      0.00
   10   30    2      1.86      0.00
   10   30    3     -4.59      0.00
  -10   31    3      4.59      0.00
  -10   31    2      1.07      0.00
  -10   31    1     -8.43      0.00
   10   31    0      1.88      0.00
   10   31    1      5.12      0.00
   10   31    2     -1.17      0.00
  -10   32    2      5.36      0.00
  -10   32    1     -3.43      0.00
   10   32    0      0.16      0.00
   10   32    1     -1.60      0.00
  -11    0    8      3.62      0.00
  -11    0    6      2.39      0.00
  -11    0    4     16.13      0.00
  -11    0    2     17.27      0.00
   11    0    0     -2.15      0.00
   11    0    2      0.05      0.00
   11    0    4     -0.31      0.00
   11    0    6      3.43      0.00
   11    0    8     -7.89      0.00
  -11    1    9      1.27      0.00
  -11    1    8     -4.60      0.00
  -11    1    7      6.19      0.00
  -11    1    6     -4.59      0.00
  -11    1    5     -7.93      0.00
  -11    1    4      4.14      0.00
  -11    1    3     -0.14      0.00
  -11    1    2      4.10      0.00
  -11    1    1     -3.12      0.00
   11    1    0     17.91      0.00
   11    1    1     -3.19      0.00
   11    1    2    -16.49      0.00
   11    1    3      9.67      0.00
   11    1    4      1.92      0.00
   11    1    5      2.53      0.00
   11    1    6      5.21      0.00
   11    1    7     -2.66      0.00
   11    1    8     -3.26      0.00
  -11    2    9      2.31      0.00
  -11    2    8      6.22      0.00
  -11    2    7      6.58      0.00
  -11    2    6     20.51      0.00
  -11    2    5      4.52      0.00
  -11    2    4     15.72      0.00
  -11    2    3     -5.04      0.00
  -11    2    2    -15.87      0.00
  -11    2    1      7.59      0.00
   11    2    0      5.12      0.00
   11    2    1     -4.01      0.00
   11    2    2     -5.56      0.00
   11    2    3      9.81      0.00
   11    2    4     -2.60      0.00
   11    2    5     -6.37      0.00
   11    2    6     -2.67      0.00
   11    2    7      8.68      0.00
   11    2    8      4.62      0.00
  -11    3    9    -10.53      0.00
  -11    3    8     -1.67      0.00
  -11    3    7      8.86      0.00
  -11    3    6     -6.87      0.00
  -11    3    5     -5.42      0.00
  -11    3    4     -6.81      0.00
  -11    3    3      7.73      0.00
  -11    3    2      2.98      0.00
  -11    3    1     10.81      0.00
   11    3    0      0.58      0.00
   11    3    1    -15.43      0.00
   11    3    2      8.80      0.00
   11    3    3      5.67      0.00
   11    3    4     -7.29      0.00
   11    3    5      4.82      0.00
   11    3    6      1.76      0.00
   11    3    7     -0.75      0.00
   11    3    8      0.72      0.00
  -11    4    9     -9.51      0.00
  -11    4    8     -9.41      0.00
  -11    4    7      6.83      0.00
  -11    4    6      4.71      0.00
  -11    4    5      1.47      0.00
  -11    4    4      9.27      0.00
  -11    4    3    -10.92      0.00
  -11    4    2      0.78      0.00
  -11    4    1    -18.51      0.00
   11    4    0     -0.65      0.00
   11    4    1      0.28      0.00
   11    4    2      5.58      0.00
   11    4    3    -15.42      0.00
   11    4    4     -1.93      0.00
   11    4    5     -3.45      0.00
   11    4    6      3.75      0.00
   11    4    7      7.46      0.00
   11    4    8     -6.34      0.00
  -11    5    9      4.75      0.00
  -11    5    8     -0.83      0.00
  -11    5    7      3.06      0.00
  -11    5    6     -7.94      0.00
  -11    5    5     -6.49      0.00
  -11    5    4      0.88      0.00
  -11    5    3     -5.83      0.00
  -11    5    2      2.09      0.00
  -11    5    1     -5.69      0.00
   11    5    0     -9.50      0.00
   11    5    1      5.83      0.00
   11    5    2     -6.99      0.00
   11    5    3      2.78      0.00
   11    5    4      4.23      0.00
   11    5    5     -6.13      0.00
   11    5    6     -4.95      0.00
   11    5    7     -1.08      0.00
   11    5    8      0.52      0.00
  -11    6    9     -8.87      0.00
  -11    6    8      3.63      0.00
  -11    6    7      4.25      0.00
  -11    6    6      6.51      0.00
  -11    6    5      4.18      0.00
  -11    6    4      9.08      0.00
  -11    6    3     -8.10      0.00
  -11    6    2     10.81      0.00
  -11    6    1     13.29      0.00
   11    6    0     -4.67      0.00
   11    6    1     14.33      0.00
   11    6    2     -8.39      0.00
   11    6    3      0.02      0.00
   11    6    4      1.37      0.00
   11    6    5      1.13      0.00
   11    6    6     -5.54      0.00
   11    6    7     26.88      0.00
   11    6    8     -0.45      0.00
  -11    7    8      4.55      0.00
  -11    7    7      7.99      0.00
  -11    7    6     -1.04      0.00
  -11    7    5     -3.75      0.00
  -11    7    4      1.81      0.00
  -11    7    3      0.47      0.00
  -11    7    2      3.43      0.00
  -11    7    1      6.68      0.00
   11    7    0     14.57      0.00
   11    7    1      1.55      0.00
   11    7    2    -10.39      0.00
   11    7    3      0.54      0.00
   11    7    4     -5.69      0.00
   11    7    5      0.80      0.00
   11    7    6     -9.68      0.00
   11    7    7      3.90      0.00
   11    7    8    -11.11      0.00
  -11    8    8    -10.62      0.00
  -11    8    7      0.07      0.00
  -11    8    6     -1.58      0.00
  -11    8    5    -14.78      0.00
  -11    8    4      3.53      0.00
  -11    8    3      5.00      0.00
  -11    8    2    -13.00      0.00
  -11    8    1    -12.60      0.00
   11    8    0     -0.88      0.00
   11    8    1    -10.76      0.00
   11    8    2     -2.68      0.00
   11    8    3     -1.43      0.00
   11    8    4     -3.68      0.00
   11    8    5     -6.54      0.00
   11    8    6     -0.77      0.00
   11    8    7     -2.61      0.00
   11    8    8    -10.58      0.00
  -11    9    8      0.56      0.00
  -11    9    7     -3.41      0.00
  -11    9    6     -0.64      0.00
  -11    9    5     -0.46      0.00
  -11    9    4      5.83      0.00
  -11    9    3      5.87      0.00
  -11    9    2     -1.68      0.00
  -11    9    1      6.74      0.00
   11    9    0     -9.81      0.00
   11    9    1     -4.00      0.00
   11    9    2     -0.89      0.00
   11    9    3     -1.85      0.00
   11    9    4      1.15      0.00
   11    9    5      0.35      0.00
   11    9    6      1.72      0.00
   11    9    7     -3.74      0.00
   11    9    8      4.53      0.00
  -11   10    8      0.21      0.00
  -11   10    7      1.91      0.00
  -11   10    6     -2.08      0.00
  -11   10    5     -1.24      0.00
  -11   10    4    -11.30      0.00
  -11   10    3     -1.96      0.00
  -11   10    2      1.56      0.00
  -11   10    1     16.79      0.00
   11   10    0     -0.52      0.00
   11   10    1     13.98      0.00
   11   10    2      0.27      0.00
   11   10    3    -13.00      0.00
   11   10    4      1.46      0.00
   11   10    5      2.29      0.00
   11   10    6     -5.22      0.00
   11   10    7      2.48      0.00
   11   10    8      8.76      0.00
  -11   11    8      0.54      0.00
  -11   11    7      3.20      0.00
  -11   11    6     -2.12      0.00
  -11   11    5      6.27      0.00
  -11   11    4      2.04      0.00
  -11   11    3      3.89      0.00
  -11   11    2     -2.55      0.00
  -11   11    1     -4.25      0.00
   11   11    0      5.71      0.00
   11   11    1      4.39      0.00
   11   11    2    -10.72      0.00
   11   11    3     -5.67      0.00
   11   11    4      4.59      0.00
   11   11    5     -0.94      0.00
   11   11    6     -4.20      0.00
   11   11    7      7.47      0.00
  -11   12    8      5.21      0.00
  -11   12    7     -3.02      0.00
  -11   12    6     -9.90      0.00
  -11   12    5     -5.82      0.00
  -11   12    4     -0.01      0.00
  -11   12    3     18.74      0.00
  -11   12    2      4.35      0.00
  -11   12    1     -2.69      0.00
   11   12    0      1.17      0.00
   11   12    1    -11.80      0.00
   11   12    2     -6.35      0.00
   11   12    3     10.89      0.00
   11   12    4      1.62      0.00
   11   12    5    -11.35      0.00
   11   12    6     -0.39      0.00
   11   12    7     -1.13      0.00
  -11   13    8     -0.08      0.00
  -11   13    7     -5.04      0.00
  -11   13    6     -6.64      0.00
  -11   13    5    -10.28      0.00
  -11   13    4      3.47      0.00
  -11   13    3      2.27      0.00
  -11   13    2      1.53      0.00
  -11   13    1      0.76      0.00
   11   13    0     -3.57      0.00
   11   13    1     -3.37      0.00
   11   13    2      2.09      0.00
   11   13    3     -1.72      0.00
   11   13    4    -13.49      0.00
   11   13    5      1.38      0.00
   11   13    6      0.20      0.00
   11   13    7     -5.48      0.00
  -11   14    8     -3.50      0.00
  -11   14    7     -6.57      0.00
  -11   14    6      3.92      0.00
  -11   14    5      1.75      0.00
  -11   14    4     -7.12      0.00
  -11   14    3      3.43      0.00
  -11   14    2     -9.46      0.00
  -11   14    1      1.48      0.00
   11   14    0      0.14      0.00
   11   14    1      1.25      0.00
   11   14    2      0.16      0.00
   11   14    3     -6.43      0.00
   11   14    4      0.45      0.00
   11   14    5      7.16      0.00
   11   14    6      6.41      0.00
   11   14    7    -12.25      0.00
  -11   15    8     -3.38      0.00
  -11   15    7      0.00      0.00
  -11   15    6      3.43      0.00
  -11   15    5      0.43      0.00
  -11   15    4     -1.04      0.00
  -11   15    3      5.84      0.00
  -11   15    2      3.21      0.00
  -11   15    1     -6.32      0.00
   11   15    0     -1.08      0.00
   11   15    1      8.48      0.00
   11   15    2     -5.68      0.00
   11   15    3     -2.26      0.00
   11   15    4     10.63      0.00
   11   15    5      1.59      0.00
   11   15    6     -1.74      0.00
   11   15    7     -2.30      0.00
  -11   16    7     -4.74      0.00
  -11   16    6     -7.87      0.00
  -11   16    5     -2.09      0.00
  -11   16    4      2.24      0.00
  -11   16    3      5.36      0.00
  -11   16    2      2.23      0.00
  -11   16    1      7.89      0.00
   11   16    0      2.67      0.00
   11   16    1     -1.35      0.00
   11   16    2     -2.35      0.00
   11   16    3      1.74      0.00
   11   16    4      4.33      0.00
   11   16    5     -7.94      0.00
   11   16    6     -0.53      0.00
   11   16    7     -0.36      0.00
  -11   17    7    -12.84      0.00
  -11   17    6     -5.05      0.00
  -11   17    5     -5.37      0.00
  -11   17    4      0.72      0.00
  -11   17    3      0.47      0.00
  -11   17    2      2.37      0.00
  -11   17    1     -1.12      0.00
   11   17    0      2.59      0.00
   11   17    1     -0.51      0.00
   11   17    2      0.95      0.00
   11   17    3      1.28      0.00
   11   17    4     -4.82      0.00
   11   17    5     -5.33      0.00
   11   17    6     -2.43      0.00
   11   17    7      8.83      0.00
  -11   18    7      2.27      0.00
  -11   18    6      7.21      0.00
  -11   18    5     -0.94      0.00
  -11   18    4    -12.64      0.00
  -11   18    3      2.66      0.00
  -11   18    2     -6.96      0.00
  -11   18    1     -1.47      0.00
   11   18    0     -1.63      0.00
   11   18    1     -2.59      0.00
   11   18    2     -2.91      0.00
   11   18    3      2.79      0.00
   11   18    4     -0.92      0.00
   11   18    5     -2.10      0.00
   11   18    6     11.93      0.00
  -11   19    7     -3.18      0.00
  -11   19    6      1.20      0.00
  -11   19    5      0.97      0.00
  -11   19    4     -3.40      0.00
  -11   19    3      2.27      0.00
  -11   19    2      4.54      0.00
  -11   19    1     -2.97      0.00
   11   19    0      1.80      0.00
   11   19    1      7.13      0.00
   11   19    2     -5.39      0.00
   11   19    3      6.20      0.00
   11   19    4      5.12      0.00
   11   19    5      2.63      0.00
   11   19    6     -0.48      0.00
  -11   20    6     -2.93      0.00
  -11   20    5     -0.81      0.00
  -11   20    4      1.24      0.00
  -11   20    3     -0.51      0.00
  -11   20    2     -1.73      0.00
  -11   20    1      7.63      0.00
   11   20    0      4.94      0.00
   11   20    1      2.82      0.00
   11   20    2     -7.17      0.00
   11   20    3     -1.11      0.00
   11   20    4      3.85      0.00
   11   20    5     -0.86      0.00
   11   20    6      0.65      0.00
  -11   21    6      2.09      0.00
  -11   21    5     -1.85      0.00
  -11   21    4     -4.25      0.00
  -11   21    3     -6.55      0.00
  -11   21    2      3.11      0.00
  -11   21    1     -0.69      0.00
   11   21    0      6.25      0.00
   11   21    1      4.25      0.00
   11   21    2     -2.04      0.00
   11   21    3      6.29      0.00
   11   21    4      7.92      0.00
   11   21    5    -11.90      0.00
   11   21    6      1.77      0.00
  -11   22    6      9.34      0.00
  -11   22    5     -1.47      0.00
  -11   22    4     -4.70      0.00
  -11   22    3     -0.81      0.00
  -11   22    2      6.52      0.00
  -11   22    1     -0.14      0.00
   11   22    0     -7.23      0.00
   11   22    1      0.30      0.00
   11   22    2     -1.92      0.00
   11   22    3     -4.92      0.00
   11   22    4     -1.26      0.00
   11   22    5     -6.54      0.00
  -11   23    6     -5.36      0.00
  -11   23    5     -2.19      0.00
  -11   23    4     -3.25      0.00
  -11   23    3     -3.13      0.00
  -11   23    2      2.66      0.00
  -11   23    1      1.89      0.00
   11   23    0     -1.21      0.00
   11   23    1      1.29      0.00
   11   23    2      0.29      0.00
   11   23    3      0.22      0.00
   11   23    4      7.78      0.00
   11   23    5     11.74      0.00
  -11   24    5      0.15      0.00
  -11   24    4    -10.03      0.00
  -11   24    3      1.46      0.00
  -11   24    2     -7.51      0.00
  -11   24    1     -2.87      0.00
   11   24    0      4.84      0.00
   11   24    1     -1.69      0.00
   11   24    2     -2.45      0.00
   11   24    3      0.08      0.00
   11   24    4     -1.74      0.00
   11   24    5      2.74      0.00
  -11   25    5      4.69      0.00
  -11   25    4     -0.86      0.00
  -11   25    3      6.79      0.00
  -11   25    2      5.75      0.00
  -11   25    1      2.75      0.00
   11   25    0      3.65      0.00
   11   25    1     -0.98      0.00
   11   25    2     -2.04      0.00
   11   25    3      3.22      0.00
   11   25    4      3.02      0.00
  -11   26    4      3.75      0.00
  -11   26    3     -1.84      0.00
  -11   26    2      9.32      0.00
  -11   26    1     -4.99      0.00
   11   26    0     -1.80      0.00
   11   26    1      2.80      0.00
   11   26    2      0.99      0.00
   11   26    3     -6.68      0.00
   11   26    4      1.88      0.00
  -11   27    4      6.80      0.00
  -11   27    3    -14.33      0.00
  -11   27    2      4.43      0.00
  -11   27    1     -1.05      0.00
   11   27    0      8.43      0.00
   11   27    1      3.16      0.00
   11   27    2     -2.98      0.00
   11   27    3     -4.77      0.00
  -11   28    3     -5.39      0.00
  -11   28    2     -0.20      0.00
  -11   28    1      7.09      0.00
   11   28    0      0.72      0.00
   11   28    1     -1.88      0.00
   11   28    2      2.70      0.00
   11   28    3      3.92      0.00
  -11   29    2      6.83      0.00
  -11   29    1     -1.51      0.00
   11   29    0      7.33      0.00
   11   29    1      3.54      0.00
   11   29    2     -5.91      0.00
  -11   30    1    -11.98      0.00
   11   30    0      1.86      0.00
   11   30    1      7.77      0.00
  -12    0    8    -15.60      0.00
  -12    0    6     -2.74      0.00
  -12    0    4     11.69      0.00
  -12    0    2    -12.00      0.00
   12    0    0      1.25      0.00
   12    0    2      9.50      0.00
   12    0    4     14.74      0.00
   12    0    6      1.41      0.00
  -12    1    8     -4.10      0.00
  -12    1    7      2.71      0.00
  -12    1    6      8.34      0.00
  -12    1    5     -7.23      0.00
  -12    1    4      8.56      0.00
  -12    1    3     -6.90      0.00
  -12    1    2      6.91      0.00
  -12    1    1      4.94      0.00
   12    1    0      3.46      0.00
   12    1    1     -1.13      0.00
   12    1    2     -2.95      0.00
   12    1    3     -4.24      0.00
   12    1    4      0.90      0.00
   12    1    5     -0.71      0.00
   12    1    6      2.65      0.00
   12    1    7     -6.77      0.00
  -12    2    8      2.02      0.00
  -12    2    7     -2.28      0.00
  -12    2    6    -28.83      0.00
  -12    2    5      1.89      0.00
  -12    2    4    -24.21      0.00
  -12    2    3      3.31      0.00
  -12    2    2      8.49      0.00
  -12    2    1     -3.42      0.00
   12    2    0      0.46      0.00
   12    2    1     -7.04      0.00
   12    2    2    -22.14      0.00
   12    2    3      2.33      0.00
   12    2    4      4.85      0.00
   12    2    5     -0.97      0.00
   12    2    6     10.00      0.00
   12    2    7     -6.05      0.00
  -12    3    8     -4.71      0.00
  -12    3    7     -2.28      0.00
  -12    3    6      0.92      0.00
  -12    3    5     13.02      0.00
  -12    3    4     -5.84      0.00
  -12    3    3     -5.08      0.00
  -12    3    2     -0.31      0.00
  -12    3    1    -19.13      0.00
   12    3    0      2.98      0.00
   12    3    1     14.56      0.00
   12    3    2     -2.85      0.00
   12    3    3      6.65      0.00
   12    3    4      1.41      0.00
   12    3    5     -4.26      0.00
   12    3    6     -2.60      0.00
   12    3    7     12.85      0.00
  -12    4    8      5.24      0.00
  -12    4    7     13.05      0.00
  -12    4    6     -3.00      0.00
  -12    4    5     21.27      0.00
  -12    4    4      3.49      0.00
  -12    4    3      1.78      0.00
  -12    4    2     -4.23      0.00
  -12    4    1      8.29      0.00
   12    4    0     10.42      0.00
   12    4    1      2.83      0.00
   12    4    2     -8.79      0.00
   12    4    3     -0.74      0.00
   12    4    4     13.48      0.00
   12    4    5      6.95      0.00
   12    4    6      0.88      0.00
   12    4    7     -8.59      0.00
  -12    5    8    -11.51      0.00
  -12    5    7     -5.89      0.00
  -12    5    6      0.34      0.00
  -12    5    5    -19.10      0.00
  -12    5    4     -5.46      0.00
  -12    5    3     -1.30      0.00
  -12    5    2      7.83      0.00
  -12    5    1      6.38      0.00
   12    5    0     13.66      0.00
   12    5    1    -10.65      0.00
   12    5    2     -8.53      0.00
   12    5    3    -10.30      0.00
   12    5    4     -0.02      0.00
   12    5    5     -6.75      0.00
   12    5    6     -5.22      0.00
   12    5    7     -9.25      0.00
  -12    6    8      0.17      0.00
  -12    6    7      0.35      0.00
  -12    6    6      2.90      0.00
  -12    6    5      2.55      0.00
  -12    6    4     -6.00      0.00
  -12    6    3      7.77      0.00
  -12    6    2      3.26      0.00
  -12    6    1     -2.43      0.00
   12    6    0     -0.22      0.00
   12    6    1    -15.15      0.00
   12    6    2      9.66      0.00
   12    6    3      0.96      0.00
   12    6    4     -3.94      0.00
   12    6    5     -1.59      0.00
   12    6    6      8.14      0.00
   12    6    7     -3.37      0.00
  -12    7    8      4.23      0.00
  -12    7    7     -0.78      0.00
  -12    7    6      9.35      0.00
  -12    7    5      2.69      0.00
  -12    7    4     -3.07      0.00
  -12    7    3     -0.57      0.00
  -12    7    2      0.59      0.00
  -12    7    1     -4.41      0.00
   12    7    0      0.64      0.00
   12    7    1      8.07      0.00
   12    7    2      1.74      0.00
   12    7    3     -2.57      0.00
   12    7    4      5.32      0.00
   12    7    5      0.77      0.00
   12    7    6     -0.05      0.00
   12    7    7      2.12      0.00
  -12    8    8      2.48      0.00
  -12    8    7     -6.66      0.00
  -12    8    6     -0.02      0.00
  -12    8    5     22.57      0.00
  -12    8    4     -0.29      0.00
  -12    8    3      3.99      0.00
  -12    8    2     -0.56      0.00
  -12    8    1     -3.68      0.00
   12    8    0     -0.10      0.00
   12    8    1      4.44      0.00
   12    8    2    -13.19      0.00
   12    8    3     -5.22      0.00
   12    8    4      3.67      0.00
   12    8    5      1.96      0.00
   12    8    6     -6.85      0.00
   12    8    7     -3.72      0.00
  -12    9    7     -0.50      0.00
  -12    9    6     -1.13      0.00
  -12    9    5     -2.79      0.00
  -12    9    4    -18.65      0.00
  -12    9    3     -0.42      0.00
  -12    9    2      6.96      0.00
  -12    9    1     -1.74      0.00
   12    9    0      2.17      0.00
   12    9    1      8.96      0.00
   12    9    2     -7.45      0.00
   12    9    3     -5.54      0.00
   12    9    4     -3.19      0.00
   12    9    5     -0.59      0.00
   12    9    6      2.99      0.00
   12    9    7      3.65      0.00
  -12   10    7      6.66      0.00
  -12   10    6      2.12      0.00
  -12   10    5     -7.62      0.00
  -12   10    4     -2.18      0.00
  -12   10    3      1.26      0.00
  -12   10    2     -1.51      0.00
  -12   10    1     -1.11      0.00
   12   10    0      4.09      0.00
   12   10    1     -6.37      0.00
   12   10    2     12.33      0.00
   12   10    3      3.62      0.00
   12   10    4     -7.71      0.00
   12   10    5      1.29      0.00
   12   10    6     -5.44      0.00
   12   10    7     -2.75      0.00
  -12   11    7      4.44      0.00
  -12   11    6     14.80      0.00
  -12   11    5      4.75      0.00
  -12   11    4      2.48      0.00
  -12   11    3      0.98      0.00
  -12   11    2     -2.54      0.00
  -12   11    1      8.14      0.00
   12   11    0      4.57      0.00
   12   11    1     -3.41      0.00
   12   11    2     -1.87      0.00
   12   11    3     -3.61      0.00
   12   11    4      2.48      0.00
   12   11    5      5.96      0.00
   12   11    6      1.05      0.00
   12   11    7    -13.19      0.00
  -12   12    7     -7.48      0.00
  -12   12    6     -1.59      0.00
  -12   12    5      5.39      0.00
  -12   12    4      2.28      0.00
  -12   12    3     -2.22      0.00
  -12   12    2     10.26      0.00
  -12   12    1     -2.51      0.00
   12   12    0     -8.05      0.00
   12   12    1     -3.79      0.00
   12   12    2      3.64      0.00
   12   12    3     -1.19      0.00
   12   12    4     -2.70      0.00
   12   12    5      1.27      0.00
   12   12    6      3.67      0.00
  -12   13    7     -4.24      0.00
  -12   13    6      3.76      0.00
  -12   13    5     -1.15      0.00
  -12   13    4    -15.33      0.00
  -12   13    3    -14.00      0.00
  -12   13    2      7.20      0.00
  -12   13    1     -2.29      0.00
   12   13    0      3.43      0.00
   12   13    1     15.97      0.00
   12   13    2     -2.41      0.00
   12   13    3      0.01      0.00
   12   13    4      2.50      0.00
   12   13    5      1.31      0.00
   12   13    6     -2.62      0.00
  -12   14    7      8.28      0.00
  -12   14    6      4.91      0.00
  -12   14    5      0.34      0.00
  -12   14    4      3.43      0.00
  -12   14    3      5.12      0.00
  -12   14    2      0.95      0.00
  -12   14    1     -3.74      0.00
   12   14    0      0.72      0.00
   12   14    1      1.03      0.00
   12   14    2     -2.55      0.00
   12   14    3      0.99      0.00
   12   14    4      0.35      0.00
   12   14    5      0.99      0.00
   12   14    6    -14.39      0.00
  -12   15    7      5.53      0.00
  -12   15    6      5.12      0.00
  -12   15    5      3.16      0.00
  -12   15    4     -5.83      0.00
  -12   15    3      0.74      0.00
  -12   15    2     -2.83      0.00
  -12   15    1     -1.85      0.00
   12   15    0     -2.93      0.00
   12   15    1     -7.93      0.00
   12   15    2      0.88      0.00
   12   15    3     13.99      0.00
   12   15    4     -0.99      0.00
   12   15    5      5.52      0.00
   12   15    6      2.94      0.00
  -12   16    6     -7.54      0.00
  -12   16    5     13.73      0.00
  -12   16    4     -0.94      0.00
  -12   16    3     -4.79      0.00
  -12   16    2      7.15      0.00
  -12   16    1      0.24      0.00
   12   16    0     -1.37      0.00
   12   16    1     -1.96      0.00
   12   16    2     11.93      0.00
   12   16    3     -2.22      0.00
   12   16    4     -4.32      0.00
   12   16    5      5.03      0.00
   12   16    6      1.29      0.00
  -12   17    6      5.08      0.00
  -12   17    5     -3.97      0.00
  -12   17    4      1.65      0.00
  -12   17    3     -6.04      0.00
  -12   17    2      6.89      0.00
  -12   17    1      0.07      0.00
   12   17    0      3.35      0.00
   12   17    1      5.74      0.00
   12   17    2      3.07      0.00
   12   17    3     -2.76      0.00
   12   17    4      2.52      0.00
   12   17    5      1.85      0.00
  -12   18    6      4.94      0.00
  -12   18    5     -0.87      0.00
  -12   18    4      0.64      0.00
  -12   18    3     -0.90      0.00
  -12   18    2      2.96      0.00
  -12   18    1      3.03      0.00
   12   18    0    -11.14      0.00
   12   18    1      0.53      0.00
   12   18    2     -7.22      0.00
   12   18    3     -0.41      0.00
   12   18    4      4.61      0.00
   12   18    5     -2.80      0.00
  -12   19    6      2.14      0.00
  -12   19    5     -1.80      0.00
  -12   19    4      0.02      0.00
  -12   19    3      0.21      0.00
  -12   19    2      4.53      0.00
  -12   19    1    -11.36      0.00
   12   19    0      3.82      0.00
   12   19    1     -4.86      0.00
   12   19    2      2.04      0.00
   12   19    3     20.25      0.00
   12   19    4     -9.70      0.00
   12   19    5     -5.14      0.00
  -12   20    5     18.35      0.00
  -12   20    4      1.83      0.00
  -12   20    3      1.05      0.00
  -12   20    2      2.98      0.00
  -12   20    1     -0.58      0.00
   12   20    0     -1.02      0.00
   12   20    1     -0.46      0.00
   12   20    2      7.00      0.00
   12   20    3      1.31      0.00
   12   20    4     -5.58      0.00
   12   20    5     -1.92      0.00
  -12   21    5      0.82      0.00
  -12   21    4      1.45      0.00
  -12   21    3     -0.19      0.00
  -12   21    2      6.00      0.00
  -12   21    1     -2.85      0.00
   12   21    0      0.15      0.00
   12   21    1      4.36      0.00
   12   21    2      1.98      0.00
   12   21    3     -4.36      0.00
   12   21    4      0.84      0.00
  -12   22    5      5.19      0.00
  -12   22    4     -1.95      0.00
  -12   22    3     -0.20      0.00
  -12   22    2      5.28      0.00
  -12   22    1      3.57      0.00
   12   22    0    -12.66      0.00
   12   22    1      3.12      0.00
   12   22    2     -5.96      0.00
   12   22    3     -3.64      0.00
   12   22    4      0.24      0.00
  -12   23    4     -3.53      0.00
  -12   23    3     -1.81      0.00
  -12   23    2      5.26      0.00
  -12   23    1    -12.11      0.00
   12   23    0     -0.55      0.00
   12   23    1     -2.55      0.00
   12   23    2      3.14      0.00
   12   23    3     12.71      0.00
   12   23    4     -3.16      0.00
  -12   24    4      4.16      0.00
  -12   24    3     -0.23      0.00
  -12   24    2      1.81      0.00
  -12   24    1     -5.78      0.00
   12   24    0      0.16      0.00
   12   24    1     -2.35      0.00
   12   24    2      4.83      0.00
   12   24    3      1.84      0.00
  -12   25    3      3.09      0.00
  -12   25    2      9.90      0.00
  -12   25    1      4.86      0.00
   12   25    0     -0.74      0.00
   12   25    1     -3.28      0.00
   12   25    2      4.29      0.00
  -12   26    2     -4.63      0.00
  -12   26    1      3.27      0.00
   12   26    0     -6.48      0.00
   12   26    1      1.87      0.00
   12   26    2      5.28      0.00
  -12   27    1      3.73      0.00
   12   27    0      1.45      0.00
   12   27    1     -3.80      0.00
  -13    0    6    -12.13      0.00
  -13    0    4     -1.29      0.00
  -13    0    2      9.91      0.00
   13    0    0     -6.30      0.00
   13    0    2      6.56      0.00
   13    0    4      0.86      0.00
   13    0    6     -4.84      0.00
  -13    1    7     -7.23      0.00
  -13    1    6     -5.73      0.00
  -13    1    5     -1.95      0.00
  -13    1    4      2.15      0.00
  -13    1    3     -2.91      0.00
  -13    1    2     -3.43      0.00
  -13    1    1      2.93      0.00
   13    1    0      9.41      0.00
   13    1    1     -1.67      0.00
   13    1    2      0.97      0.00
   13    1    3      4.01      0.00
   13    1    4     -8.36      0.00
   13    1    5     -2.71      0.00
   13    1    6      2.62      0.00
  -13    2    7     -2.30      0.00
  -13    2    6     -7.47      0.00
  -13    2    5     -0.22      0.00
  -13    2    4    -21.36      0.00
  -13    2    3      1.88      0.00
  -13    2    2     -7.27      0.00
  -13    2    1     -1.66      0.00
   13    2    0    -17.12      0.00
   13    2    1     -2.13      0.00
   13    2    2     -1.62      0.00
   13    2    3     -0.38      0.00
   13    2    4     -1.32      0.00
   13    2    5      0.77      0.00
   13    2    6      7.46      0.00
  -13    3    7     -0.82      0.00
  -13    3    6      4.00      0.00
  -13    3    5     -6.11      0.00
  -13    3    4      7.43      0.00
  -13    3    3      3.44      0.00
  -13    3    2      6.47      0.00
  -13    3    1      5.78      0.00
   13    3    0     -1.21      0.00
   13    3    1     -6.73      0.00
   13    3    2      2.25      0.00
   13    3    3      2.98      0.00
   13    3    4      5.33      0.00
   13    3    5     -8.15      0.00
   13    3    6     -5.78      0.00
  -13    4    7    -11.40      0.00
  -13    4    6     -3.50      0.00
  -13    4    5     -0.82      0.00
  -13    4    4     -1.07      0.00
  -13    4    3      4.38      0.00
  -13    4    2     -1.45      0.00
  -13    4    1     -6.76      0.00
   13    4    0     -0.17      0.00
   13    4    1     10.95      0.00
   13    4    2      0.89      0.00
   13    4    3    -10.67      0.00
   13    4    4     -0.11      0.00
   13    4    5     -2.99      0.00
   13    4    6      4.60      0.00
  -13    5    7     -9.24      0.00
  -13    5    6     -7.87      0.00
  -13    5    5     -1.62      0.00
  -13    5    4     -1.49      0.00
  -13    5    3     -1.44      0.00
  -13    5    2     -0.97      0.00
  -13    5    1      5.50      0.00
   13    5    0     -2.65      0.00
   13    5    1      0.08      0.00
   13    5    2      0.71      0.00
   13    5    3      7.34      0.00
   13    5    4      0.72      0.00
   13    5    5      0.40      0.00
   13    5    6    -17.00      0.00
  -13    6    7     -2.34      0.00
  -13    6    6     -5.95      0.00
  -13    6    5      1.93      0.00
  -13    6    4      0.24      0.00
  -13    6    3      5.14      0.00
  -13    6    2      1.94      0.00
  -13    6    1      0.57      0.00
   13    6    0     -6.11      0.00
   13    6    1      7.08      0.00
   13    6    2     -5.65      0.00
   13    6    3    -11.15      0.00
   13    6    4      4.27      0.00
   13    6    5      1.32      0.00
   13    6    6     -8.22      0.00
  -13    7    7      9.81      0.00
  -13    7    6      1.64      0.00
  -13    7    5     -3.77      0.00
  -13    7    4      9.91      0.00
  -13    7    3      0.85      0.00
  -13    7    2     -3.63      0.00
  -13    7    1      2.36      0.00
   13    7    0     11.65      0.00
   13    7    1     -2.54      0.00
   13    7    2      2.84      0.00
   13    7    3     -2.52      0.00
   13    7    4      3.24      0.00
   13    7    5      1.72      0.00
   13    7    6      5.14      0.00
  -13    8    6      3.03      0.00
  -13    8    5      1.38      0.00
  -13    8    4     -1.56      0.00
  -13    8    3      3.65      0.00
  -13    8    2     -3.92      0.00
  -13    8    1     -4.83      0.00
   13    8    0      7.68      0.00
   13    8    1     -1.62      0.00
   13    8    2      0.74      0.00
   13    8    3    -15.23      0.00
   13    8    4     -0.42      0.00
   13    8    5    -11.41      0.00
   13    8    6      5.05      0.00
  -13    9    6    -12.46      0.00
  -13    9    5     -9.02      0.00
  -13    9    4     -1.66      0.00
  -13    9    3      2.03      0.00
  -13    9    2     -1.45      0.00
  -13    9    1     -1.29      0.00
   13    9    0     -1.85      0.00
   13    9    1     -9.69      0.00
   13    9    2     -0.88      0.00
   13    9    3      3.13      0.00
   13    9    4      6.00      0.00
   13    9    5     -3.72      0.00
   13    9    6     -3.11      0.00
  -13   10    6      5.87      0.00
  -13   10    5      2.49      0.00
  -13   10    4      5.68      0.00
  -13   10    3    -14.78      0.00
  -13   10    2      1.55      0.00
  -13   10    1      6.15      0.00
   13   10    0      8.99      0.00
   13   10    1      8.40      0.00
   13   10    2      2.19      0.00
   13   10    3    -13.74      0.00
   13   10    4      3.70      0.00
   13   10    5      2.91      0.00
   13   10    6      0.79      0.00
  -13   11    6     -5.58      0.00
  -13   11    5     -1.26      0.00
  -13   11    4     11.14      0.00
  -13   11    3     -2.53      0.00
  -13   11    2      1.27      0.00
  -13   11    1     -1.00      0.00
   13   11    0     10.02      0.00
   13   11    1      0.24      0.00
   13   11    2     -2.85      0.00
   13   11    3      0.32      0.00
   13   11    4      4.12      0.00
   13   11    5      1.59      0.00
  -13   12    6     -5.59      0.00
  -13   12    5      4.41      0.00
  -13   12    4     -6.28      0.00
  -13   12    3     -3.42      0.00
  -13   12    2      1.70      0.00
  -13   12    1     -2.52      0.00
   13   12    0      3.30      0.00
   13   12    1     -5.23      0.00
   13   12    2     -5.91      0.00
   13   12    3    -17.34      0.00
   13   12    4      0.53      0.00
   13   12    5      0.47      0.00
  -13   13    6      1.67      0.00
  -13   13    5     -9.64      0.00
  -13   13    4     -8.36      0.00
  -13   13    3     -0.52      0.00
  -13   13    2     -2.13      0.00
  -13   13    1     -3.61      0.00
   13   13    0      4.23      0.00
   13   13    1     -4.32      0.00
   13   13    2      1.73      0.00
   13   13    3      0.99      0.00
   13   13    4     -1.73      0.00
   13   13    5     -5.86      0.00
  -13   14    6     -0.91      0.00
  -13   14    5      5.12      0.00
  -13   14    4     -2.00      0.00
  -13   14    3     -5.00      0.00
  -13   14    2     -2.37      0.00
  -13   14    1     -2.72      0.00
   13   14    0      5.09      0.00
   13   14    1     -6.21      0.00
   13   14    2      7.95      0.00
   13   14    3     -2.22      0.00
   13   14    4      4.03      0.00
   13   14    5      0.95      0.00
  -13   15    5      1.93      0.00
  -13   15    4      6.62      0.00
  -13   15    3      0.14      0.00
  -13   15    2      4.67      0.00
  -13   15    1     -8.26      0.00
   13   15    0     -0.71      0.00
   13   15    1      1.65      0.00
   13   15    2      1.21      0.00
   13   15    3      0.29      0.00
   13   15    4     10.36      0.00
   13   15    5      2.85      0.00
  -13   16    5      6.72      0.00
  -13   16    4     -5.15      0.00
  -13   16    3     -4.88      0.00
  -13   16    2      0.20      0.00
  -13   16    1      1.35      0.00
   13   16    0      1.15      0.00
   13   16    1      4.20      0.00
   13   16    2     -4.34      0.00
   13   16    3    -13.29      0.00
   13   16    4      6.89      0.00
  -13   17    5    -17.27      0.00
  -13   17    4      0.62      0.00
  -13   17    3      1.53      0.00
  -13   17    2     -3.09      0.00
  -13   17    1      3.72      0.00
   13   17    0      4.79      0.00
   13   17    1     -1.64      0.00
   13   17    2      1.01      0.00
   13   17    3      2.18      0.00
   13   17    4      2.78      0.00
  -13   18    4    -10.57      0.00
  -13   18    3      5.61      0.00
  -13   18    2      0.27      0.00
  -13   18    1     -3.00      0.00
   13   18    0     -6.05      0.00
   13   18    1     -6.23      0.00
   13   18    2     10.95      0.00
   13   18    3     10.09      0.00
   13   18    4      4.91      0.00
  -13   19    4      3.12      0.00
  -13   19    3      2.55      0.00
  -13   19    2     -1.24      0.00
  -13   19    1     -6.77      0.00
   13   19    0      0.76      0.00
   13   19    1      3.99      0.00
   13   19    2      4.39      0.00
   13   19    3     -3.65      0.00
  -13   20    4     -2.18      0.00
  -13   20    3     10.16      0.00
  -13   20    2      1.32      0.00
  -13   20    1      6.10      0.00
   13   20    0     -1.15      0.00
   13   20    1     13.13      0.00
   13   20    2      0.83      0.00
   13   20    3      2.13      0.00
  -13   21    3     -1.86      0.00
  -13   21    2    -14.69      0.00
  -13   21    1      0.04      0.00
   13   21    0     -4.49      0.00
   13   21    1      4.72      0.00
   13   21    2      5.53      0.00
  -13   22    3      0.45      0.00
  -13   22    2      6.36      0.00
  -13   22    1     -9.89      0.00
   13   22    0      4.99      0.00
   13   22    1     -0.28      0.00
   13   22    2     -1.57      0.00
  -13   23    2      1.59      0.00
  -13   23    1     -1.56      0.00
   13   23    0     -4.75      0.00
   13   23    1     -1.47      0.00
  -14    0    6     -3.37      0.00
  -14    0    4     12.95      0.00
  -14    0    2     13.48      0.00
   14    0    0     -1.27      0.00
   14    0    2      1.38      0.00
   14    0    4      4.10      0.00
  -14    1    6     11.80      0.00
  -14    1    5     -5.83      0.00
  -14    1    4      5.40      0.00
  -14    1    3     -1.68      0.00
  -14    1    2      4.27      0.00
  -14    1    1      1.53      0.00
   14    1    0      0.06      0.00
   14    1    1     -3.44      0.00
   14    1    2      2.02      0.00
   14    1    3      9.03      0.00
   14    1    4     -2.05      0.00
   14    1    5    -21.99      0.00
  -14    2    6    -15.08      0.00
  -14    2    5     -8.44      0.00
  -14    2    4    -30.11      0.00
  -14    2    3     -2.57      0.00
  -14    2    2     11.27      0.00
  -14    2    1     -4.33      0.00
   14    2    0      8.87      0.00
   14    2    1     -0.81      0.00
   14    2    2    -10.76      0.00
   14    2    3     -2.35      0.00
   14    2    4      9.01      0.00
   14    2    5      1.16      0.00
  -14    3    5      0.23      0.00
  -14    3    4     -2.72      0.00
  -14    3    3      2.13      0.00
  -14    3    2     -6.63      0.00
  -14    3    1     -3.39      0.00
   14    3    0     -6.42      0.00
   14    3    1     -0.26      0.00
   14    3    2     -1.79      0.00
   14    3    3      1.63      0.00
   14    3    4     -1.06      0.00
   14    3    5    -27.39      0.00
  -14    4    5    -11.51      0.00
  -14    4    4     -3.67      0.00
  -14    4    3      4.94      0.00
  -14    4    2      7.58      0.00
  -14    4    1     12.70      0.00
   14    4    0      2.58      0.00
   14    4    1     -3.65      0.00
   14    4    2      0.05      0.00
   14    4    3      1.90      0.00
   14    4    4     -0.61      0.00
   14    4    5    -23.16      0.00
  -14    5    5     -3.16      0.00
  -14    5    4      1.51      0.00
  -14    5    3      4.21      0.00
  -14    5    2      1.29      0.00
  -14    5    1     10.07      0.00
   14    5    0     -1.92      0.00
   14    5    1      3.03      0.00
   14    5    2    -10.93      0.00
   14    5    3     13.73      0.00
   14    5    4      0.23      0.00
   14    5    5      7.02      0.00
  -14    6    5     -7.51      0.00
  -14    6    4     -5.07      0.00
  -14    6    3     -9.49      0.00
  -14    6    2      8.43      0.00
  -14    6    1     -4.96      0.00
   14    6    0      0.25      0.00
   14    6    1      2.34      0.00
   14    6    2     -4.17      0.00
   14    6    3      0.63      0.00
   14    6    4     -0.96      0.00
   14    6    5     -2.14      0.00
  -14    7    5    -10.93      0.00
  -14    7    4     -2.72      0.00
  -14    7    3     -0.02      0.00
  -14    7    2     11.72      0.00
  -14    7    1      2.80      0.00
   14    7    0     -8.43      0.00
   14    7    1     -3.10      0.00
   14    7    2      1.26      0.00
   14    7    3     -6.42      0.00
   14    7    4     -2.24      0.00
  -14    8    5      0.09      0.00
  -14    8    4     -0.74      0.00
  -14    8    3     -1.16      0.00
  -14    8    2      2.17      0.00
  -14    8    1      0.19      0.00
   14    8    0      5.91      0.00
   14    8    1     -4.52      0.00
   14    8    2     17.12      0.00
   14    8    3     -3.01      0.00
   14    8    4     -4.78      0.00
  -14    9    5      7.45      0.00
  -14    9    4     -1.09      0.00
  -14    9    3     -1.20      0.00
  -14    9    2      6.14      0.00
  -14    9    1     12.38      0.00
   14    9    0     -6.38      0.00
   14    9    1     -0.29      0.00
   14    9    2    -10.00      0.00
   14    9    3      2.40      0.00
   14    9    4     -0.91      0.00
  -14   10    5     -3.48      0.00
  -14   10    4      3.50      0.00
  -14   10    3     -2.82      0.00
  -14   10    2      2.33      0.00
  -14   10    1      3.88      0.00
   14   10    0     -4.41      0.00
   14   10    1     -1.69      0.00
   14   10    2     -1.50      0.00
   14   10    3      4.93      0.00
   14   10    4      6.19      0.00
  -14   11    5      0.77      0.00
  -14   11    4     -0.76      0.00
  -14   11    3      2.14      0.00
  -14   11    2      5.39      0.00
  -14   11    1      6.17      0.00
   14   11    0      5.99      0.00
   14   11    1      0.46      0.00
   14   11    2      1.85      0.00
   14   11    3    -11.16      0.00
   14   11    4     -0.91      0.00
  -14   12    4      0.65      0.00
  -14   12    3      2.18      0.00
  -14   12    2      4.65      0.00
  -14   12    1      7.01      0.00
   14   12    0      0.43      0.00
   14   12    1     -4.48      0.00
   14   12    2     11.97      0.00
   14   12    3      1.35      0.00
   14   12    4     -5.80      0.00
  -14   13    4     -1.23      0.00
  -14   13    3     -0.92      0.00
  -14   13    2     -1.41      0.00
  -14   13    1     -4.07      0.00
   14   13    0     -3.20      0.00
   14   13    1      2.10      0.00
   14   13    2     -9.86      0.00
   14   13    3      0.34      0.00
  -14   14    4      1.47      0.00
  -14   14    3     10.86      0.00
  -14   14    2     -4.52      0.00
  -14   14    1     -1.96      0.00
   14   14    0     -1.74      0.00
   14   14    1      0.98      0.00
   14   14    2     -3.67      0.00
   14   14    3      3.60      0.00
  -14   15    4      0.60      0.00
  -14   15    3      0.13      0.00
  -14   15    2     11.54      0.00
  -14   15    1     10.15      0.00
   14   15    0      3.37      0.00
   14   15    1     -9.29      0.00
   14   15    2      4.18      0.00
   14   15    3     -7.47      0.00
  -14   16    3     -5.20      0.00
  -14   16    2    -15.47      0.00
  -14   16    1     -1.65      0.00
   14   16    0      5.12      0.00
   14   16    1    -14.00      0.00
   14   16    2      6.72      0.00
  -14   17    3      0.15      0.00
  -14   17    2     -3.72      0.00
  -14   17    1     -3.07      0.00
   14   17    0      1.14      0.00
   14   17    1     -7.56      0.00
   14   17    2     -6.21      0.00
  -14   18    2      0.79      0.00
  -14   18    1      7.82      0.00
   14   18    0      2.80      0.00
   14   18    1      0.00      0.00
  -14   19    1     -1.54      0.00
   14   19    0      4.96      0.00
  -15    0    4     18.17      0.00
  -15    0    2      1.37      0.00
   15    0    0     -1.95      0.00
   15    0    2      2.10      0.00
  -15    1    4    -13.67      0.00
  -15    1    3      4.87      0.00
  -15    1    2      3.30      0.00
  -15    1    1      3.94      0.00
   15    1    0      8.21      0.00
   15    1    1      4.59      0.00
   15    1    2      2.67      0.00
   15    1    3      4.00      0.00
  -15    2    4    -11.07      0.00
  -15    2    3      1.27      0.00
  -15    2    2     -5.66      0.00
  -15    2    1     -2.64      0.00
   15    2    0      5.40      0.00
   15    2    1     -4.66      0.00
   15    2    2      2.89      0.00
   15    2    3     -4.21      0.00
  -15    3    4     -6.27      0.00
  -15    3    3     -0.49      0.00
  -15    3    2     -0.93      0.00
  -15    3    1     -3.74      0.00
   15    3    0     -2.77      0.00
   15    3    1     -2.28      0.00
   15    3    2    -10.11      0.00
   15    3    3      2.51      0.00
  -15    4    3      2.86      0.00
  -15    4    2      4.81      0.00
  -15    4    1     -7.31      0.00
   15    4    0      4.06      0.00
   15    4    1      2.25      0.00
   15    4    2      2.91      0.00
   15    4    3    -13.51      0.00
  -15    5    3     -6.44      0.00
  -15    5    2      0.91      0.00
  -15    5    1      4.69      0.00
   15    5    0     -4.23      0.00
   15    5    1      2.52      0.00
   15    5    2      1.41      0.00
   15    5    3      7.32      0.00
  -15    6    3      2.16      0.00
  -15    6    2      1.06      0.00
  -15    6    1     -0.49      0.00
   15    6    0     -6.62      0.00
   15    6    1      2.02      0.00
   15    6    2     -3.76      0.00
  -15    7    3      1.20      0.00
  -15    7    2      1.76      0.00
  -15    7    1     -1.18      0.00
   15    7    0     -4.40      0.00
   15    7    1      2.60      0.00
   15    7    2    -17.40      0.00
  -15    8    3     -4.32      0.00
  -15    8    2     -2.63      0.00
  -15    8    1     -6.66      0.00
   15    8    0      3.93      0.00
   15    8    1      4.03      0.00
   15    8    2     -4.41      0.00
  -15    9    3     -6.35      0.00
  -15    9    2      4.67      0.00
  -15    9    1      0.69      0.00
   15    9    0    -10.71      0.00
   15    9    1     -4.38      0.00
   15    9    2      5.11      0.00
  -15   10    2      0.66      0.00
  -15   10    1     10.04      0.00
   15   10    0     -1.35      0.00
   15   10    1     -6.94      0.00
  -15   11    2      6.54      0.00
  -15   11    1     -0.78      0.00
   15   11    0      0.39      0.00
   15   11    1     -4.91      0.00
  -15   12    1      8.73      0.00
   15   12    0      7.43      0.00
    1    0    0     56.85      0.00
    2    0    0    222.81      0.00
   16    0    0      4.29      0.00
    1    1    0    114.51      0.00
    2    1    0     67.24      0.00
   16    1    0     -3.61      0.00
    0    2    0   -102.94      0.00
   16    2    0      4.22      0.00
    1    3    0    145.79      0.00
   16    3    0     -2.00      0.00
   16    4    0      7.55      0.00
   16    5    0      1.83      0.00
   16    6    0      0.48      0.00
   16    7    0     -5.40      0.00
   16    8    0     -2.18      0.00
   16    9    0     -7.43      0.00
   16   10    0     -6.57      0.00
   16   11    0      3.28      0.00
   16   12    0      1.76      0.00
   15   13    0    -16.73      0.00
   16   13    0     -2.26      0.00
   15   14    0     -8.48      0.00
   16   14    0     -3.56      0.00
   15   15    0     -9.49      0.00
   16   15    0     -3.10      0.00
   15   16    0      9.30      0.00
   15   17    0     -5.10      0.00
   15   18    0     -7.58      0.00
   15   19    0     -1.89      0.00
   14   20    0      7.86      0.00
   15   20    0      8.50      0.00
   14   21    0     -9.86      0.00
   15   21    0     -0.35      0.00
   14   22    0      5.67      0.00
   14   23    0      1.47      0.00
   13   24    0      0.84      0.00
   14   24    0      0.74      0.00
   13   25    0     -6.53      0.00
   14   25    0     -2.46      0.00
   13   26    0      6.73      0.00
   14   26    0      1.19      0.00
   13   27    0      1.59      0.00
   12   28    0     -0.31      0.00
   13   28    0      4.66      0.00
   12   29    0     -2.76      0.00
   13   29    0     -5.99      0.00
   12   30    0      6.80      0.00
   11   31    0     -0.31      0.00
   12   31    0     -1.52      0.00
   11   32    0      1.04      0.00
   12   32    0     -2.18      0.00
   10   33    0      4.84      0.00
   11   33    0     10.66      0.00
   10   34    0      3.44      0.00
   11   34    0      3.48      0.00
    9   35    0      1.31      0.00
   10   35    0     -3.35      0.00
   11   35    0     -5.62      0.00
    9   36    0     -3.23      0.00
   10   36    0      0.76      0.00
    8   37    0      0.21      0.00
    9   37    0     -4.48      0.00
   10   37    0      1.29      0.00
    7   38    0      5.81      0.00
    8   38    0      0.16      0.00
    9   38    0      1.50      0.00
    7   39    0     -2.67      0.00
    8   39    0      8.23      0.00
    9   39    0      2.41      0.00
    6   40    0     -5.16      0.00
    7   40    0     -9.76      0.00
    8   40    0     -5.17      0.00
    5   41    0      3.23      0.00
    6   41    0      6.14      0.00
    7   41    0     -3.62      0.00
    3   42    0      5.41      0.00
    4   42    0      3.96      0.00
    5   42    0      9.23      0.00
    6   42    0      0.43      0.00
    1   43    0    -10.43      0.00
    2   43    0     -0.17      0.00
    3   43    0     -6.70      0.00
    4   43    0      1.77      0.00
    5   43    0      2.37      0.00
    6   43    0      5.62      0.00
  -16    1    1      1.40      0.00
   -1    1    1    -30.85      0.00
    0    1    1    112.15      0.00
   16    1    1      1.49      0.00
  -16    2    1     -2.84      0.00
   -1    2    1    284.66      0.00
    0    2    1     31.18      0.00
   16    2    1      3.06      0.00
  -16    3    1     -9.26      0.00
   16    3    1      1.80      0.00
  -16    4    1     10.18      0.00
   16    4    1     -4.76      0.00
  -16    5    1      5.93      0.00
   16    5    1     -5.96      0.00
  -16    6    1      0.30      0.00
   16    6    1     -0.38      0.00
  -16    7    1     -6.97      0.00
   16    7    1     -2.76      0.00
  -16    8    1     -2.32      0.00
   16    8    1      3.76      0.00
  -16    9    1      6.51      0.00
   16    9    1     -2.27      0.00
  -16   10    1      0.43      0.00
   16   10    1     -2.02      0.00
  -16   11    1     -3.05      0.00
   16   11    1     -2.50      0.00
  -16   12    1      1.58      0.00
   15   12    1      5.01      0.00
   16   12    1      1.12      0.00
  -16   13    1     -4.78      0.00
  -15   13    1      2.72      0.00
   15   13    1      0.61      0.00
   16   13    1     -4.51      0.00
  -16   14    1     -0.92      0.00
  -15   14    1      5.52      0.00
   15   14    1      1.06      0.00
   16   14    1      2.65      0.00
  -16   15    1      6.95      0.00
  -15   15    1     -3.83      0.00
   15   15    1      2.51      0.00
   16   15    1      2.25      0.00
  -15   16    1     16.62      0.00
   15   16    1     10.16      0.00
  -15   17    1     11.22      0.00
   15   17    1     -1.87      0.00
  -15   18    1      3.01      0.00
   15   18    1     -0.87      0.00
  -15   19    1     -6.42      0.00
   14   19    1     -7.83      0.00
   15   19    1      6.18      0.00
  -15   20    1     10.19      0.00
  -14   20    1    -14.10      0.00
   14   20    1    -22.16      0.00
   15   20    1      4.78      0.00
  -15   21    1      1.93      0.00
  -14   21    1      1.22      0.00
   14   21    1     -7.01      0.00
   15   21    1     -4.23      0.00
  -14   22    1      3.31      0.00
   14   22    1      3.93      0.00
  -14   23    1     -2.42      0.00
   14   23    1     -1.37      0.00
  -14   24    1     -5.11      0.00
  -13   24    1      3.12      0.00
   13   24    1     21.58      0.00
   14   24    1    -12.06      0.00
  -14   25    1      4.43      0.00
  -13   25    1      8.61      0.00
   13   25    1      4.13      0.00
   14   25    1     -2.17      0.00
  -14   26    1     -2.50      0.00
  -13   26    1     -6.02      0.00
   13   26    1     -0.50      0.00
  -13   27    1     -2.87      0.00
   13   27    1     -1.45      0.00
  -13   28    1     -5.17      0.00
  -12   28    1     -0.52      0.00
   12   28    1     -0.72      0.00
   13   28    1     10.13      0.00
  -13   29    1      6.22      0.00
  -12   29    1     -5.44      0.00
   12   29    1     -2.23      0.00
   13   29    1      1.21      0.00
  -12   30    1     -4.24      0.00
   12   30    1      0.79      0.00
  -12   31    1      6.63      0.00
  -11   31    1      1.70      0.00
   11   31    1      0.65      0.00
   12   31    1     -1.71      0.00
  -12   32    1      0.71      0.00
  -11   32    1      8.47      0.00
   11   32    1     -1.11      0.00
   12   32    1      0.99      0.00
  -11   33    1     -2.12      0.00
  -10   33    1      1.73      0.00
   10   33    1      4.45      0.00
   11   33    1      4.63      0.00
  -11   34    1      0.47      0.00
  -10   34    1      2.09      0.00
   10   34    1     -3.00      0.00
   11   34    1      7.01      0.00
  -11   35    1      1.01      0.00
  -10   35    1     -5.47      0.00
   -9   35    1     -0.35      0.00
    9   35    1      2.75      0.00
   10   35    1      2.07      0.00
  -10   36    1     -5.00      0.00
   -9   36    1      0.60      0.00
    9   36    1      2.91      0.00
   10   36    1      3.90      0.00
  -10   37    1      3.67      0.00
   -9   37    1     -0.82      0.00
   -8   37    1     -4.30      0.00
    8   37    1      3.41      0.00
    9   37    1     -3.50      0.00
   -9   38    1      1.12      0.00
   -8   38    1     -0.01      0.00
   -7   38    1    -10.37      0.00
    7   38    1     -3.62      0.00
    8   38    1    -11.12      0.00
    9   38    1     -4.40      0.00
   -8   39    1      4.90      0.00
   -7   39    1      0.02      0.00
    7   39    1      5.80      0.00
    8   39    1     -1.11      0.00
   -8   40    1      0.68      0.00
   -7   40    1      4.88      0.00
   -6   40    1     -9.57      0.00
    6   40    1     16.19      0.00
    7   40    1      7.83      0.00
    8   40    1     -2.30      0.00
   -7   41    1      1.32      0.00
   -6   41    1      5.11      0.00
   -5   41    1      3.06      0.00
   -4   41    1     -1.25      0.00
    4   41    1     -5.52      0.00
    5   41    1     -5.21      0.00
    6   41    1     -3.45      0.00
    7   41    1      1.86      0.00
   -6   42    1      1.87      0.00
   -5   42    1     -0.13      0.00
   -4   42    1      2.24      0.00
   -3   42    1      6.54      0.00
   -2   42    1      5.86      0.00
    2   42    1      2.35      0.00
    3   42    1      3.80      0.00
    4   42    1     -5.95      0.00
    5   42    1     -7.78      0.00
    6   42    1    -11.14      0.00
   -5   43    1     -3.29      0.00
   -4   43    1     -2.96      0.00
   -3   43    1      0.75      0.00
   -2   43    1      0.68      0.00
   -1   43    1     -4.80      0.00
    0   43    1     -2.10      0.00
    1   43    1     -0.61      0.00
    2   43    1      1.45      0.00
    3   43    1      3.54      0.00
    4   43    1     -4.50      0.00
    5   43    1     -4.31      0.00
  -16    0    2      9.45      0.00
   16    0    2      4.51      0.00
  -16    1    2      3.58      0.00
   16    1    2     -5.71      0.00
  -16    2    2      9.11      0.00
   16    2    2     -0.49      0.00
  -16    3    2     -1.50      0.00
   16    3    2      2.05      0.00
  -16    4    2      1.91      0.00
   16    4    2      1.00      0.00
  -16    5    2     -2.54      0.00
   16    5    2     -0.18      0.00
  -16    6    2     -3.44      0.00
   16    6    2     -5.04      0.00
  -16    7    2     -2.94      0.00
   16    7    2     -3.53      0.00
  -16    8    2     -2.89      0.00
   16    8    2     -1.90      0.00
  -16    9    2     -1.29      0.00
   16    9    2      3.09      0.00
  -16   10    2    -16.79      0.00
   15   10    2     -3.22      0.00
   16   10    2     -7.00      0.00
  -16   11    2     -5.38      0.00
   15   11    2     -0.74      0.00
   16   11    2     -0.72      0.00
  -16   12    2      4.89      0.00
  -15   12    2     -4.35      0.00
   15   12    2    -11.04      0.00
   16   12    2      0.14      0.00
  -16   13    2     -2.61      0.00
  -15   13    2      1.69      0.00
   15   13    2      4.13      0.00
   16   13    2      1.03      0.00
  -16   14    2     -9.05      0.00
  -15   14    2     13.34      0.00
   15   14    2    -10.03      0.00
  -15   15    2      8.06      0.00
   15   15    2      2.73      0.00
  -15   16    2     -6.31      0.00
   15   16    2     -8.15      0.00
  -15   17    2      8.52      0.00
   15   17    2      2.41      0.00
  -15   18    2     10.42      0.00
   14   18    2     -4.14      0.00
   15   18    2     -9.12      0.00
  -15   19    2      0.38      0.00
  -14   19    2      7.14      0.00
   14   19    2      9.53      0.00
   15   19    2      1.71      0.00
  -15   20    2      4.42      0.00
  -14   20    2    -16.73      0.00
   14   20    2      1.38      0.00
   15   20    2     -3.10      0.00
  -15   21    2      1.89      0.00
  -14   21    2      5.72      0.00
   14   21    2      1.87      0.00
  -14   22    2     -0.19      0.00
   14   22    2     -6.01      0.00
  -14   23    2     -1.57      0.00
   13   23    2      8.95      0.00
   14   23    2      3.01      0.00
  -14   24    2     -7.94      0.00
  -13   24    2     -8.66      0.00
   13   24    2      7.53      0.00
   14   24    2      0.53      0.00
  -14   25    2      6.75      0.00
  -13   25    2    -28.12      0.00
   13   25    2      1.72      0.00
  -13   26    2      3.40      0.00
   13   26    2     -3.40      0.00
  -13   27    2      7.37      0.00
  -12   27    2     -3.30      0.00
   12   27    2     -1.58      0.00
   13   27    2     10.78      0.00
  -13   28    2     -5.62      0.00
  -12   28    2      3.67      0.00
   12   28    2      3.46      0.00
   13   28    2      3.10      0.00
  -13   29    2    -15.26      0.00
  -12   29    2      8.34      0.00
   12   29    2      5.32      0.00
  -12   30    2      2.55      0.00
  -11   30    2      6.52      0.00
   11   30    2      7.43      0.00
   12   30    2      0.92      0.00
  -12   31    2     -2.84      0.00
  -11   31    2      8.53      0.00
   11   31    2      1.47      0.00
   12   31    2      0.61      0.00
  -12   32    2     -6.45      0.00
  -11   32    2     -0.84      0.00
   10   32    2     -1.63      0.00
   11   32    2      1.39      0.00
  -11   33    2     -4.56      0.00
  -10   33    2     -0.91      0.00
   10   33    2      3.60      0.00
   11   33    2      0.11      0.00
  -11   34    2      5.01      0.00
  -10   34    2      3.67      0.00
    9   34    2     -2.99      0.00
   10   34    2      2.60      0.00
   11   34    2      9.91      0.00
  -10   35    2     -1.22      0.00
   -9   35    2      4.28      0.00
    9   35    2     -9.36      0.00
   10   35    2     -3.10      0.00
  -10   36    2      6.15      0.00
   -9   36    2     -5.44      0.00
    8   36    2      8.44      0.00
    9   36    2     -2.62      0.00
   10   36    2     -2.18      0.00
   -9   37    2    -11.69      0.00
   -8   37    2     -3.10      0.00
    8   37    2     -1.12      0.00
    9   37    2      3.15      0.00
   -9   38    2     -7.37      0.00
   -8   38    2      3.33      0.00
   -7   38    2      1.80      0.00
    7   38    2      1.04      0.00
    8   38    2      0.82      0.00
    9   38    2     -2.48      0.00
   -8   39    2      2.62      0.00
   -7   39    2     -1.03      0.00
   -6   39    2      5.04      0.00
    6   39    2     -7.22      0.00
    7   39    2      7.85      0.00
    8   39    2     -3.26      0.00
   -8   40    2     -3.72      0.00
   -7   40    2     -4.48      0.00
   -6   40    2     -1.01      0.00
   -5   40    2     -5.83      0.00
    5   40    2     -0.53      0.00
    6   40    2     -3.08      0.00
    7   40    2      2.33      0.00
   -7   41    2     -6.01      0.00
   -6   41    2     -5.41      0.00
   -5   41    2      4.78      0.00
   -4   41    2      1.92      0.00
    4   41    2      3.45      0.00
    5   41    2     -6.52      0.00
    6   41    2     -4.15      0.00
    7   41    2     -2.23      0.00
   -6   42    2      3.12      0.00
   -5   42    2     -3.33      0.00
   -4   42    2     -2.04      0.00
   -3   42    2     -7.75      0.00
   -2   42    2     -4.08      0.00
   -1   42    2     -2.91      0.00
    0   42    2     -0.17      0.00
    1   42    2      0.12      0.00
    2   42    2     -3.81      0.00
    3   42    2      1.87      0.00
    4   42    2     -4.87      0.00
    5   42    2     -0.41      0.00
    6   42    2      0.79      0.00
   -5   43    2     -3.57      0.00
   -4   43    2     -6.70      0.00
   -3   43    2      4.25      0.00
   -2   43    2     -9.35      0.00
   -1   43    2      1.85      0.00
    0   43    2      3.92      0.00
    1   43    2      6.80      0.00
    2   43    2     -0.45      0.00
    3   43    2    -10.32      0.00
    4   43    2     -1.29      0.00
    5   43    2      5.93      0.00
  -16    1    3     -3.22      0.00
   16    1    3     12.19      0.00
  -16    2    3     -8.20      0.00
   16    2    3      0.80      0.00
  -16    3    3      3.04      0.00
   16    3    3     -2.85      0.00
  -16    4    3      0.83      0.00
   16    4    3     -3.44      0.00
  -16    5    3     -1.24      0.00
   16    5    3      9.17      0.00
  -16    6    3     -3.58      0.00
   15    6    3    -10.21      0.00
   16    6    3      1.54      0.00
  -16    7    3     -4.84      0.00
   15    7    3      2.70      0.00
   16    7    3     -7.79      0.00
  -16    8    3      3.47      0.00
   15    8    3     -6.95      0.00
   16    8    3     -1.26      0.00
  -16    9    3      6.79      0.00
   15    9    3      5.24      0.00
   16    9    3     -0.88      0.00
  -16   10    3     -0.07      0.00
  -15   10    3      5.54      0.00
   15   10    3    -13.49      0.00
   16   10    3     -0.84      0.00
  -16   11    3     -1.53      0.00
  -15   11    3     12.64      0.00
   15   11    3     -3.22      0.00
  -16   12    3      3.54      0.00
  -15   12    3     -2.10      0.00
   15   12    3     -7.25      0.00
  -16   13    3      0.24      0.00
  -15   13    3     -9.42      0.00
   15   13    3      3.17      0.00
  -15   14    3     16.63      0.00
   15   14    3     -4.42      0.00
  -15   15    3      5.95      0.00
   15   15    3     -6.47      0.00
  -15   16    3     -8.87      0.00
   14   16    3      3.94      0.00
   15   16    3     -8.27      0.00
  -15   17    3      3.33      0.00
   14   17    3     -5.49      0.00
   15   17    3     -4.82      0.00
  -15   18    3      9.68      0.00
  -14   18    3     14.03      0.00
   14   18    3      0.57      0.00
   15   18    3     -0.52      0.00
  -15   19    3     -5.27      0.00
  -14   19    3     -7.14      0.00
   14   19    3     -2.51      0.00
  -14   20    3     -1.89      0.00
   14   20    3      0.18      0.00
  -14   21    3     -2.34      0.00
   13   21    3     14.33      0.00
   14   21    3     -4.62      0.00
  -14   22    3      7.62      0.00
   13   22    3      7.50      0.00
   14   22    3     -1.90      0.00
  -14   23    3     -6.05      0.00
  -13   23    3      1.01      0.00
   13   23    3      1.44      0.00
   14   23    3     -2.43      0.00
  -14   24    3      3.09      0.00
  -13   24    3     15.31      0.00
   13   24    3      5.19      0.00
  -13   25    3      0.35      0.00
   12   25    3     -6.52      0.00
   13   25    3      7.33      0.00
  -13   26    3     -1.13      0.00
  -12   26    3     -3.66      0.00
   12   26    3      0.72      0.00
   13   26    3      4.35      0.00
  -13   27    3     -4.26      0.00
  -12   27    3     -1.71      0.00
   12   27    3      2.19      0.00
   13   27    3      6.74      0.00
  -13   28    3      1.84      0.00
  -12   28    3      2.64      0.00
   12   28    3      3.56      0.00
  -12   29    3      1.56      0.00
  -11   29    3     13.51      0.00
   11   29    3     -3.39      0.00
   12   29    3     -1.93      0.00
  -12   30    3     -1.61      0.00
  -11   30    3     -2.94      0.00
   11   30    3     -1.76      0.00
   12   30    3     -0.95      0.00
  -12   31    3      5.38      0.00
  -11   31    3     -6.26      0.00
   10   31    3     -3.15      0.00
   11   31    3      2.57      0.00
  -11   32    3     -1.35      0.00
  -10   32    3      0.25      0.00
   10   32    3      6.99      0.00
   11   32    3     -4.07      0.00
  -11   33    3      6.50      0.00
  -10   33    3      2.85      0.00
    9   33    3      2.24      0.00
   10   33    3     -4.92      0.00
   11   33    3     -1.79      0.00
  -10   34    3     11.27      0.00
   -9   34    3     -2.37      0.00
    9   34    3      5.39      0.00
   10   34    3      0.59      0.00
  -10   35    3      4.68      0.00
   -9   35    3     -5.97      0.00
    8   35    3     11.04      0.00
    9   35    3     -3.22      0.00
   10   35    3     -3.90      0.00
  -10   36    3      1.07      0.00
   -9   36    3      1.25      0.00
   -8   36    3     -2.52      0.00
    8   36    3      8.85      0.00
    9   36    3    -11.13      0.00
   -9   37    3      4.75      0.00
   -8   37    3      5.55      0.00
   -7   37    3     -1.88      0.00
    7   37    3     -3.44      0.00
    8   37    3      0.23      0.00
    9   37    3      1.54      0.00
   -8   38    3      5.80      0.00
   -7   38    3      3.07      0.00
    6   38    3      2.92      0.00
    7   38    3      3.06      0.00
    8   38    3      0.34      0.00
   -8   39    3     -4.81      0.00
   -7   39    3     -5.42      0.00
   -6   39    3      5.72      0.00
    5   39    3     -6.88      0.00
    6   39    3      4.00      0.00
    7   39    3      0.84      0.00
    8   39    3      6.70      0.00
   -7   40    3      0.22      0.00
   -6   40    3     -0.54      0.00
   -5   40    3      3.91      0.00
   -4   40    3     -1.72      0.00
    4   40    3      8.08      0.00
    5   40    3      0.68      0.00
    6   40    3     -0.58      0.00
    7   40    3     -4.88      0.00
   -6   41    3     -3.66      0.00
   -5   41    3     -1.43      0.00
   -4   41    3     -0.18      0.00
   -3   41    3      4.89      0.00
   -2   41    3     -1.97      0.00
    2   41    3     11.51      0.00
    3   41    3     -4.34      0.00
    4   41    3    -10.36      0.00
    5   41    3      8.55      0.00
    6   41    3      5.51      0.00
   -5   42    3      2.30      0.00
   -4   42    3      0.90      0.00
   -3   42    3      4.57      0.00
   -2   42    3      2.90      0.00
   -1   42    3     -6.77      0.00
    0   42    3      0.46      0.00
    1   42    3     -1.30      0.00
    2   42    3     -1.72      0.00
    3   42    3      0.88      0.00
    4   42    3      6.42      0.00
    5   42    3      3.83      0.00
   -4   43    3      0.45      0.00
   -3   43    3     -4.63      0.00
   -2   43    3      8.38      0.00
   -1   43    3     -6.45      0.00
    0   43    3      8.56      0.00
    1   43    3      3.89      0.00
    2   43    3     -1.62      0.00
    3   43    3      4.82      0.00
    4   43    3     -9.13      0.00
  -16    0    4     -1.97      0.00
   15    0    4      3.07      0.00
   16    0    4    -13.22      0.00
  -16    1    4      4.36      0.00
   15    1    4      5.43      0.00
   16    1    4      0.76      0.00
  -16    2    4    -12.04      0.00
   15    2    4      0.76      0.00
   16    2    4     -5.83      0.00
  -16    3    4      2.45      0.00
   15    3    4      7.94      0.00
   16    3    4     -0.70      0.00
  -16    4    4     -2.39      0.00
  -15    4    4     14.02      0.00
   15    4    4      4.62      0.00
   16    4    4     -2.34      0.00
  -16    5    4      0.72      0.00
  -15    5    4    -17.47      0.00
   15    5    4      9.09      0.00
  -16    6    4      4.66      0.00
  -15    6    4     -0.04      0.00
   15    6    4      4.33      0.00
  -16    7    4      2.10      0.00
  -15    7    4     -9.13      0.00
   15    7    4      0.36      0.00
  -16    8    4      0.36      0.00
  -15    8    4      2.17      0.00
   15    8    4      9.09      0.00
  -16    9    4      2.90      0.00
  -15    9    4     -6.81      0.00
   15    9    4      2.21      0.00
  -16   10    4      3.42      0.00
  -15   10    4      4.28      0.00
   15   10    4      5.22      0.00
  -15   11    4     -8.93      0.00
   15   11    4      0.12      0.00
  -15   12    4     -5.39      0.00
   15   12    4      6.86      0.00
  -15   13    4      4.72      0.00
   14   13    4     -7.27      0.00
   15   13    4     -8.82      0.00
  -15   14    4      4.58      0.00
   14   14    4      3.73      0.00
   15   14    4     -1.46      0.00
  -15   15    4     -1.73      0.00
   14   15    4      6.44      0.00
   15   15    4      2.76      0.00
  -15   16    4     -5.68      0.00
  -14   16    4      2.37      0.00
   14   16    4      6.21      0.00
  -15   17    4      9.00      0.00
  -14   17    4      4.20      0.00
   14   17    4     -5.09      0.00
  -15   18    4     -3.41      0.00
  -14   18    4     -3.24      0.00
   14   18    4     -3.24      0.00
  -14   19    4     -1.99      0.00
   13   19    4      4.83      0.00
   14   19    4      2.47      0.00
  -14   20    4      3.59      0.00
   13   20    4     11.19      0.00
   14   20    4      4.48      0.00
  -14   21    4      0.35      0.00
  -13   21    4     12.61      0.00
   13   21    4      9.31      0.00
   14   21    4      2.86      0.00
  -14   22    4     -2.81      0.00
  -13   22    4    -12.96      0.00
    5   22    4    -29.61      0.00
   13   22    4      2.39      0.00
  -14   23    4     -3.34      0.00
  -13   23    4      2.76      0.00
   13   23    4      4.87      0.00
  -13   24    4      2.37      0.00
   12   24    4     -8.54      0.00
   13   24    4     10.02      0.00
  -13   25    4     12.19      0.00
  -12   25    4      4.58      0.00
   12   25    4     -5.29      0.00
   13   25    4      3.69      0.00
  -13   26    4     -9.50      0.00
  -12   26    4      2.87      0.00
   12   26    4     -3.51      0.00
  -13   27    4      0.89      0.00
  -12   27    4     -8.97      0.00
   11   27    4      8.73      0.00
   12   27    4      2.01      0.00
  -12   28    4      3.45      0.00
  -11   28    4     -7.28      0.00
   11   28    4      0.56      0.00
   12   28    4     -4.82      0.00
  -12   29    4     -5.21      0.00
  -11   29    4      0.81      0.00
   11   29    4     -4.04      0.00
   12   29    4     -2.19      0.00
  -12   30    4      0.26      0.00
  -11   30    4     -2.09      0.00
   10   30    4      6.61      0.00
   11   30    4     -0.15      0.00
  -11   31    4      5.26      0.00
  -10   31    4      1.46      0.00
   10   31    4      6.75      0.00
   11   31    4      4.14      0.00
  -11   32    4     -0.99      0.00
  -10   32    4     -3.20      0.00
    9   32    4     -3.02      0.00
   10   32    4     -4.78      0.00
  -10   33    4     -4.26      0.00
   -9   33    4     -0.18      0.00
    7   33    4      4.23      0.00
    9   33    4     -6.15      0.00
   10   33    4     -3.67      0.00
  -10   34    4      1.60      0.00
   -9   34    4     -7.21      0.00
    8   34    4      3.53      0.00
    9   34    4      4.40      0.00
   10   34    4      5.23      0.00
  -10   35    4      2.49      0.00
   -9   35    4     -1.29      0.00
   -8   35    4     -1.55      0.00
    6   35    4      2.44      0.00
    8   35    4     -6.91      0.00
    9   35    4     -1.84      0.00
   -9   36    4      5.59      0.00
   -8   36    4     10.42      0.00
   -7   36    4      1.67      0.00
    7   36    4     -1.93      0.00
    8   36    4      6.69      0.00
    9   36    4      6.08      0.00
   -8   37    4      2.26      0.00
   -7   37    4      1.17      0.00
   -6   37    4     -7.06      0.00
    5   37    4      7.58      0.00
    6   37    4      7.90      0.00
    7   37    4      5.73      0.00
    8   37    4     -5.05      0.00
   -8   38    4     -0.03      0.00
   -7   38    4     -9.09      0.00
   -6   38    4    -12.13      0.00
    5   38    4     -6.80      0.00
    6   38    4      8.13      0.00
    7   38    4      2.36      0.00
   -7   39    4     -1.01      0.00
   -6   39    4      5.62      0.00
   -5   39    4      5.42      0.00
   -4   39    4      4.43      0.00
    4   39    4      2.40      0.00
    5   39    4     -0.22      0.00
    6   39    4     -5.36      0.00
    7   39    4     -2.80      0.00
   -6   40    4      4.47      0.00
   -5   40    4      5.34      0.00
   -4   40    4      0.75      0.00
   -3   40    4     -0.60      0.00
   -2   40    4      6.67      0.00
    2   40    4      6.35      0.00
    3   40    4      0.42      0.00
    4   40    4      4.31      0.00
    5   40    4      7.18      0.00
    6   40    4     -0.61      0.00
   -6   41    4     -5.12      0.00
   -5   41    4      0.19      0.00
   -4   41    4      0.74      0.00
   -3   41    4     -0.46      0.00
   -2   41    4      4.51      0.00
   -1   41    4     -2.10      0.00
    0   41    4     -0.37      0.00
    1   41    4     -5.39      0.00
    2   41    4     -4.21      0.00
    3   41    4      0.07      0.00
    4   41    4      3.12      0.00
    5   41    4      6.86      0.00
   -4   42    4     -3.33      0.00
   -3   42    4      4.67      0.00
   -2   42    4      7.98      0.00
   -1   42    4      4.96      0.00
    0   42    4      4.28      0.00
    1   42    4    -11.09      0.00
    2   42    4      3.83      0.00
    3   42    4      0.13      0.00
    4   42    4     -1.96      0.00
   -3   43    4      9.46      0.00
   -2   43    4     -4.15      0.00
   -1   43    4      0.25      0.00
    0   43    4     -4.64      0.00
    1   43    4      1.21      0.00
    2   43    4      0.01      0.00
    3   43    4     -1.34      0.00
  -16    1    5     -0.01      0.00
  -15    1    5     -6.22      0.00
   15    1    5      0.83      0.00
  -16    2    5     -1.54      0.00
  -15    2    5     -3.72      0.00
   -2    2    5     -8.06      0.00
   15    2    5     -6.56      0.00
  -16    3    5     -2.51      0.00
  -15    3    5     -2.12      0.00
   15    3    5     -4.81      0.00
  -15    4    5    -15.41      0.00
   -2    4    5     -3.06      0.00
   15    4    5    -12.80      0.00
  -15    5    5      3.85      0.00
   15    5    5      2.24      0.00
  -15    6    5     -8.09      0.00
   15    6    5     -0.44      0.00
  -15    7    5      6.68      0.00
   14    7    5     -3.76      0.00
   15    7    5     -6.98      0.00
  -15    8    5    -14.09      0.00
   14    8    5    -18.79      0.00
   15    8    5     -8.34      0.00
  -15    9    5      7.25      0.00
   14    9    5      9.30      0.00
   15    9    5     -0.19      0.00
  -15   10    5      2.96      0.00
   14   10    5     -3.40      0.00
   15   10    5      0.41      0.00
  -15   11    5      1.91      0.00
   14   11    5     11.45      0.00
   15   11    5     -3.87      0.00
  -15   12    5     -3.03      0.00
  -14   12    5     21.94      0.00
   14   12    5    -11.26      0.00
  -15   13    5      3.29      0.00
  -14   13    5      5.80      0.00
   14   13    5      8.88      0.00
  -15   14    5      2.90      0.00
  -14   14    5     -1.20      0.00
   14   14    5     -2.56      0.00
  -15   15    5     -5.24      0.00
  -14   15    5     10.26      0.00
   14   15    5      0.80      0.00
  -14   16    5     16.04      0.00
   13   16    5      8.65      0.00
   14   16    5    -10.01      0.00
  -14   17    5      1.35      0.00
   13   17    5     -0.07      0.00
   14   17    5      6.88      0.00
  -14   18    5     -0.38      0.00
  -13   18    5      6.29      0.00
   13   18    5      9.56      0.00
   14   18    5      2.70      0.00
  -14   19    5      4.37      0.00
  -13   19    5      0.78      0.00
   13   19    5      5.44      0.00
  -14   20    5      5.11      0.00
  -13   20    5     11.66      0.00
   13   20    5      4.40      0.00
  -13   21    5    -11.91      0.00
   12   21    5     -3.89      0.00
   13   21    5     -0.91      0.00
  -13   22    5      2.20      0.00
   10   22    5      3.68      0.00
   12   22    5     -8.40      0.00
   13   22    5      5.71      0.00
  -13   23    5     -5.18      0.00
  -12   23    5      0.90      0.00
   12   23    5    -17.52      0.00
   13   23    5      5.53      0.00
  -13   24    5      4.70      0.00
  -12   24    5      7.27      0.00
   12   24    5     -3.23      0.00
  -13   25    5     -9.22      0.00
  -12   25    5      0.10      0.00
   11   25    5     -6.00      0.00
   12   25    5     -3.37      0.00
  -12   26    5      3.60      0.00
  -11   26    5     -8.94      0.00
   11   26    5      4.03      0.00
   12   26    5     -4.02      0.00
  -12   27    5      5.87      0.00
  -11   27    5      5.72      0.00
   11   27    5      3.76      0.00
   12   27    5    -14.13      0.00
  -12   28    5      4.14      0.00
  -11   28    5      2.31      0.00
   10   28    5     -1.45      0.00
   11   28    5      1.73      0.00
  -11   29    5     -0.29      0.00
  -10   29    5      0.58      0.00
   10   29    5     -7.59      0.00
   11   29    5     -0.15      0.00
  -11   30    5     -2.49      0.00
  -10   30    5     -8.41      0.00
    7   30    5     12.82      0.00
    9   30    5      8.00      0.00
   10   30    5      0.60      0.00
   11   30    5      9.14      0.00
  -11   31    5      8.98      0.00
  -10   31    5      3.75      0.00
   -9   31    5     -5.31      0.00
    9   31    5     -5.65      0.00
   10   31    5      9.11      0.00
  -10   32    5     10.48      0.00
   -9   32    5     -2.50      0.00
    8   32    5    -43.86      0.00
    9   32    5     -3.88      0.00
   10   32    5     -3.29      0.00
  -10   33    5      0.27      0.00
   -9   33    5      0.48      0.00
   -8   33    5      2.10      0.00
    8   33    5      6.01      0.00
    9   33    5     -1.80      0.00
   -9   34    5     -2.39      0.00
   -8   34    5     -6.08      0.00
    7   34    5      7.55      0.00
    8   34    5     -7.39      0.00
    9   34    5      2.02      0.00
   -9   35    5     -0.09      0.00
   -8   35    5     -7.81      0.00
   -7   35    5     -3.57      0.00
    7   35    5     10.17      0.00
    8   35    5      2.05      0.00
   -8   36    5      1.40      0.00
   -7   36    5      1.75      0.00
   -6   36    5      6.34      0.00
    4   36    5      6.51      0.00
    6   36    5    -19.88      0.00
    7   36    5     -1.94      0.00
    8   36    5    -18.59      0.00
   -8   37    5     -0.64      0.00
   -7   37    5      7.37      0.00
   -6   37    5     -1.28      0.00
   -5   37    5      3.63      0.00
    5   37    5      9.88      0.00
    6   37    5      6.46      0.00
    7   37    5     -1.72      0.00
   -7   38    5      5.71      0.00
   -6   38    5     -5.12      0.00
   -5   38    5      0.80      0.00
   -4   38    5      6.00      0.00
    3   38    5     -1.32      0.00
    4   38    5    -12.03      0.00
    5   38    5     -2.09      0.00
    6   38    5      3.38      0.00
    7   38    5      3.24      0.00
   -6   39    5     -4.13      0.00
   -5   39    5     -3.32      0.00
   -4   39    5     -0.23      0.00
   -3   39    5     -2.99      0.00
   -2   39    5     -4.52      0.00
   -1   39    5      0.15      0.00
    0   39    5    -11.44      0.00
    1   39    5    -13.20      0.00
    2   39    5      6.36      0.00
    3   39    5     -0.62      0.00
    4   39    5      4.12      0.00
    5   39    5     -8.44      0.00
    6   39    5      5.63      0.00
   -5   40    5      0.90      0.00
   -4   40    5     -0.20      0.00
   -3   40    5      3.67      0.00
   -2   40    5     -3.11      0.00
   -1   40    5     -2.71      0.00
    0   40    5      1.67      0.00
    1   40    5      5.26      0.00
    2   40    5     -9.95      0.00
    3   40    5      3.35      0.00
    4   40    5      5.90      0.00
    5   40    5      2.05      0.00
   -4   41    5      0.72      0.00
   -3   41    5     -5.77      0.00
   -2   41    5      1.92      0.00
   -1   41    5      2.36      0.00
    0   41    5      4.16      0.00
    1   41    5      0.35      0.00
    2   41    5     -4.77      0.00
    3   41    5     -0.83      0.00
    4   41    5     -0.39      0.00
   -3   42    5      1.41      0.00
   -2   42    5     -6.97      0.00
   -1   42    5     -2.48      0.00
    0   42    5      1.22      0.00
    1   42    5     -2.05      0.00
    2   42    5      1.96      0.00
  -15    0    6      2.81      0.00
   -1    0    6    -33.67      0.00
   14    0    6     -7.28      0.00
   15    0    6     -4.09      0.00
  -15    1    6      4.53      0.00
   14    1    6     -8.73      0.00
   15    1    6      5.29      0.00
  -15    2    6      3.81      0.00
   14    2    6      8.70      0.00
  -15    3    6     -2.65      0.00
  -14    3    6     -6.28      0.00
   14    3    6      0.92      0.00
  -15    4    6      1.81      0.00
  -14    4    6     -4.61      0.00
   14    4    6     -6.57      0.00
  -15    5    6     -1.49      0.00
  -14    5    6     -1.59      0.00
   14    5    6     -8.75      0.00
  -15    6    6     -0.85      0.00
  -14    6    6     -5.40      0.00
   14    6    6     -9.97      0.00
  -15    7    6      2.50      0.00
  -14    7    6     -0.21      0.00
   14    7    6     -7.57      0.00
  -15    8    6      1.07      0.00
  -14    8    6      1.03      0.00
   14    8    6      0.02      0.00
  -15    9    6     -5.37      0.00
  -14    9    6      5.85      0.00
   14    9    6     -6.05      0.00
  -15   10    6     -2.83      0.00
  -14   10    6     -8.07      0.00
   14   10    6     -9.76      0.00
  -14   11    6     -6.05      0.00
   13   11    6      1.71      0.00
   14   11    6     -5.98      0.00
  -14   12    6     10.01      0.00
   13   12    6      5.73      0.00
   14   12    6      1.48      0.00
  -14   13    6      3.78      0.00
   13   13    6     15.31      0.00
   14   13    6     -1.15      0.00
  -14   14    6     -5.32      0.00
   13   14    6      5.88      0.00
   14   14    6      0.14      0.00
  -14   15    6      4.41      0.00
  -13   15    6    -10.90      0.00
   13   15    6      8.51      0.00
  -14   16    6      5.47      0.00
  -13   16    6    -10.79      0.00
   13   16    6     -2.66      0.00
  -14   17    6      0.55      0.00
  -13   17    6      9.63      0.00
   12   17    6     -4.68      0.00
   13   17    6      4.00      0.00
  -13   18    6      2.02      0.00
   12   18    6     -6.54      0.00
   13   18    6      0.99      0.00
  -13   19    6     -7.27      0.00
   12   19    6      3.88      0.00
   13   19    6      5.54      0.00
  -13   20    6    -11.28      0.00
  -12   20    6     -7.61      0.00
   12   20    6     -8.13      0.00
   13   20    6     -3.67      0.00
  -13   21    6      6.16      0.00
  -12   21    6     -2.68      0.00
   12   21    6      0.19      0.00
  -13   22    6      5.23      0.00
  -12   22    6      0.15      0.00
    9   22    6     11.85      0.00
   11   22    6      5.14      0.00
   12   22    6      0.25      0.00
  -12   23    6      0.56      0.00
   11   23    6     -0.76      0.00
   12   23    6     -3.81      0.00
  -12   24    6      1.36      0.00
  -11   24    6      8.34      0.00
   11   24    6     -3.81      0.00
   12   24    6     -8.54      0.00
  -12   25    6     -3.33      0.00
  -11   25    6      7.90      0.00
   10   25    6      6.36      0.00
   11   25    6      0.52      0.00
  -12   26    6     -1.49      0.00
  -11   26    6     -8.27      0.00
   10   26    6     12.28      0.00
   11   26    6      2.83      0.00
  -11   27    6     -1.95      0.00
  -10   27    6     -1.91      0.00
   10   27    6     -8.93      0.00
   11   27    6      0.58      0.00
  -11   28    6     13.67      0.00
  -10   28    6     14.44      0.00
    9   28    6      1.79      0.00
   10   28    6    -10.56      0.00
  -11   29    6      1.22      0.00
  -10   29    6      6.57      0.00
   -9   29    6     -2.97      0.00
    9   29    6      2.29      0.00
   10   29    6      6.08      0.00
  -10   30    6      4.75      0.00
   -9   30    6     -4.90      0.00
    8   30    6      5.84      0.00
    9   30    6     -4.14      0.00
   10   30    6     10.66      0.00
  -10   31    6      2.22      0.00
   -9   31    6      0.15      0.00
   -8   31    6    -21.00      0.00
    5   31    6    -15.02      0.00
    8   31    6    -17.20      0.00
    9   31    6     -3.59      0.00
   -9   32    6      9.98      0.00
   -8   32    6    -14.61      0.00
    7   32    6      6.61      0.00
    8   32    6      6.91      0.00
    9   32    6      2.56      0.00
   -9   33    6      7.60      0.00
   -8   33    6      2.53      0.00
   -7   33    6      6.43      0.00
    4   33    6     20.95      0.00
    7   33    6      2.43      0.00
    8   33    6     -5.66      0.00
   -8   34    6     -0.42      0.00
   -7   34    6     -3.15      0.00
   -6   34    6      7.84      0.00
    6   34    6      0.20      0.00
    7   34    6     -1.45      0.00
    8   34    6     -0.88      0.00
   -8   35    6     -8.12      0.00
   -7   35    6     -8.36      0.00
   -6   35    6     -1.13      0.00
   -5   35    6     -0.12      0.00
    5   35    6     -3.96      0.00
    6   35    6      3.69      0.00
    7   35    6      4.42      0.00
   -7   36    6     -3.53      0.00
   -6   36    6     -7.22      0.00
   -5   36    6     -0.76      0.00
   -4   36    6      1.29      0.00
    4   36    6     -0.85      0.00
    5   36    6     -4.30      0.00
    6   36    6      1.90      0.00
    7   36    6     -1.13      0.00
   -6   37    6     -4.94      0.00
   -5   37    6     -3.38      0.00
   -4   37    6      1.98      0.00
   -3   37    6      1.80      0.00
   -2   37    6     -6.49      0.00
    1   37    6     12.15      0.00
    2   37    6     -8.43      0.00
    3   37    6     -1.12      0.00
    4   37    6      7.87      0.00
    5   37    6     -4.75      0.00
    6   37    6      1.71      0.00
   -6   38    6      2.01      0.00
   -5   38    6     -4.11      0.00
   -4   38    6      3.08      0.00
   -3   38    6      2.95      0.00
   -2   38    6     -7.65      0.00
   -1   38    6      2.68      0.00
    0   38    6      1.23      0.00
    1   38    6      7.86      0.00
    2   38    6      2.73      0.00
    3   38    6    -14.77      0.00
    4   38    6      0.46      0.00
    5   38    6     -3.86      0.00
   -5   39    6      3.47      0.00
   -4   39    6      0.89      0.00
   -3   39    6      1.01      0.00
   -2   39    6     -7.25      0.00
   -1   39    6     -3.44      0.00
    0   39    6      4.48      0.00
    1   39    6      0.36      0.00
    2   39    6      0.14      0.00
    3   39    6      4.62      0.00
    4   39    6      3.30      0.00
   -3   40    6      5.36      0.00
   -2   40    6      3.02      0.00
   -1   40    6      4.57      0.00
    0   40    6     -1.27      0.00
    1   40    6     -8.70      0.00
    2   40    6     -0.72      0.00
    3   40    6     -9.97      0.00
   -1   41    6     -6.21      0.00
    0   41    6     -4.78      0.00
    1   41    6      4.72      0.00
  -14    1    7     -3.67      0.00
   13    1    7      2.89      0.00
   14    1    7     -0.28      0.00
  -14    2    7     -6.82      0.00
   13    2    7     -5.50      0.00
   14    2    7     -0.68      0.00
  -14    3    7     -1.80      0.00
   10    3    7     12.95      0.00
   13    3    7     -1.33      0.00
   14    3    7     -0.79      0.00
  -14    4    7      4.71      0.00
   13    4    7     21.85      0.00
   14    4    7     -3.56      0.00
  -14    5    7     -2.31      0.00
   13    5    7     -2.54      0.00
   14    5    7     -0.70      0.00
  -14    6    7     -2.13      0.00
   13    6    7      7.60      0.00
   14    6    7     -1.89      0.00
  -14    7    7      2.29      0.00
   13    7    7      3.17      0.00
   14    7    7     -1.77      0.00
  -14    8    7     -8.32      0.00
  -13    8    7     -4.95      0.00
   13    8    7      7.12      0.00
  -14    9    7      5.01      0.00
  -13    9    7     -2.84      0.00
   13    9    7     -6.81      0.00
  -14   10    7      0.66      0.00
  -13   10    7      4.33      0.00
   13   10    7     14.53      0.00
  -14   11    7     -3.81      0.00
  -13   11    7     13.16      0.00
   13   11    7      6.63      0.00
  -14   12    7     -2.01      0.00
  -13   12    7     -7.63      0.00
   12   12    7      6.15      0.00
   13   12    7      2.24      0.00
  -14   13    7      3.34      0.00
  -13   13    7      1.75      0.00
   12   13    7     -2.45      0.00
   13   13    7     -6.96      0.00
  -13   14    7      3.32      0.00
   12   14    7      4.66      0.00
   13   14    7      2.08      0.00
  -13   15    7      9.02      0.00
   12   15    7     -2.36      0.00
   13   15    7      2.86      0.00
  -13   16    7     -3.15      0.00
  -12   16    7     -0.42      0.00
   12   16    7      3.77      0.00
   13   16    7      3.26      0.00
  -13   17    7     -1.68      0.00
  -12   17    7      0.51      0.00
   12   17    7     -4.34      0.00
  -13   18    7     -0.31      0.00
  -12   18    7      6.03      0.00
   11   18    7     -6.03      0.00
   12   18    7      3.13      0.00
  -13   19    7      3.69      0.00
  -12   19    7     -6.24      0.00
   11   19    7    -11.43      0.00
   12   19    7      0.71      0.00
  -12   20    7      3.26      0.00
  -11   20    7     -1.22      0.00
   11   20    7     -0.99      0.00
   12   20    7      1.90      0.00
  -12   21    7      5.59      0.00
  -11   21    7     -0.99      0.00
   11   21    7     13.97      0.00
   12   21    7     -0.74      0.00
  -12   22    7     -1.03      0.00
  -11   22    7      4.35      0.00
   10   22    7      7.09      0.00
   11   22    7      0.00      0.00
  -12   23    7     -8.84      0.00
  -11   23    7     -9.61      0.00
   10   23    7      7.47      0.00
   11   23    7     -6.78      0.00
  -11   24    7      4.10      0.00
  -10   24    7    -11.05      0.00
   10   24    7      0.08      0.00
   11   24    7      5.59      0.00
  -11   25    7      8.07      0.00
  -10   25    7      2.72      0.00
    9   25    7      2.85      0.00
   10   25    7      8.48      0.00
  -11   26    7      2.85      0.00
  -10   26    7    -10.99      0.00
    9   26    7      7.20      0.00
   10   26    7      3.11      0.00
  -10   27    7     -3.90      0.00
   -9   27    7     -1.85      0.00
    8   27    7      0.69      0.00
    9   27    7     -0.21      0.00
   10   27    7      2.36      0.00
  -10   28    7     -0.81      0.00
   -9   28    7     -4.02      0.00
    8   28    7      8.73      0.00
    9   28    7     -4.64      0.00
  -10   29    7      1.14      0.00
   -9   29    7     -0.65      0.00
   -8   29    7     13.21      0.00
    8   29    7     -1.67      0.00
    9   29    7     -0.60      0.00
   -9   30    7      6.33      0.00
   -8   30    7     -2.96      0.00
    7   30    7      6.74      0.00
    8   30    7     -0.33      0.00
    9   30    7      1.16      0.00
   -9   31    7      2.80      0.00
   -8   31    7      0.89      0.00
   -7   31    7      0.07      0.00
    6   31    7      3.61      0.00
    7   31    7      2.28      0.00
    8   31    7     -0.24      0.00
   -8   32    7     -3.92      0.00
   -7   32    7     -5.87      0.00
   -6   32    7      0.72      0.00
    6   32    7    -10.46      0.00
    7   32    7     -1.20      0.00
    8   32    7     11.71      0.00
   -8   33    7      9.14      0.00
   -7   33    7     -5.40      0.00
   -6   33    7      2.92      0.00
   -5   33    7     -1.42      0.00
    1   33    7    -18.50      0.00
    5   33    7      6.49      0.00
    6   33    7     -0.49      0.00
    7   33    7     -0.92      0.00
   -7   34    7     -0.22      0.00
   -6   34    7     -0.10      0.00
   -5   34    7     -0.99      0.00
   -4   34    7     -8.96      0.00
   -1   34    7     -7.55      0.00
    3   34    7     -9.28      0.00
    4   34    7     -6.84      0.00
    5   34    7     -3.32      0.00
    6   34    7      0.97      0.00
    7   34    7      5.97      0.00
   -6   35    7      0.04      0.00
   -5   35    7      0.62      0.00
   -4   35    7     -5.11      0.00
   -3   35    7      2.44      0.00
   -2   35    7    -13.01      0.00
    1   35    7      6.07      0.00
    2   35    7     -6.12      0.00
    3   35    7    -21.95      0.00
    4   35    7     -6.45      0.00
    5   35    7     -6.80      0.00
    6   35    7      0.61      0.00
   -6   36    7     -2.70      0.00
   -5   36    7      8.28      0.00
   -4   36    7     -3.75      0.00
   -3   36    7      1.92      0.00
   -2   36    7     -4.50      0.00
   -1   36    7     -4.49      0.00
    0   36    7      2.31      0.00
    1   36    7     -0.91      0.00
    2   36    7     11.44      0.00
    3   36    7     -1.20      0.00
    4   36    7      0.23      0.00
    5   36    7     -2.38      0.00
   -5   37    7     -2.54      0.00
   -4   37    7      3.19      0.00
   -3   37    7      1.99      0.00
   -2   37    7      1.19      0.00
   -1   37    7     -8.04      0.00
    0   37    7      4.06      0.00
    1   37    7    -16.74      0.00
    2   37    7     -0.06      0.00
    3   37    7     -2.52      0.00
    4   37    7      3.69      0.00
   -4   38    7     -7.76      0.00
   -3   38    7     -4.94      0.00
   -2   38    7    -15.90      0.00
   -1   38    7     -5.96      0.00
    0   38    7    -10.10      0.00
    1   38    7     -0.40      0.00
    2   38    7      5.03      0.00
    3   38    7     -3.39      0.00
   -2   39    7     -2.95      0.00
   -1   39    7     -0.16      0.00
    0   39    7      1.61      0.00
    1   39    7     -4.08      0.00
  -14    0    8     -2.55      0.00
  -13    0    8    -17.81      0.00
   12    0    8     11.49      0.00
   13    0    8     -6.92      0.00
  -14    1    8      5.38      0.00
  -13    1    8      8.93      0.00
   12    1    8     -1.46      0.00
   13    1    8      0.15      0.00
  -14    2    8      3.93      0.00
  -13    2    8    -10.65      0.00
   12    2    8     -8.58      0.00
   13    2    8     -0.56      0.00
  -14    3    8      1.88      0.00
  -13    3    8     -1.07      0.00
   12    3    8     -0.65      0.00
   13    3    8      2.51      0.00
  -13    4    8     -6.39      0.00
   12    4    8     -4.89      0.00
   13    4    8      1.33      0.00
  -13    5    8      5.53      0.00
   12    5    8      7.06      0.00
   13    5    8     -5.90      0.00
  -13    6    8      5.97      0.00
   12    6    8     10.32      0.00
   13    6    8      3.40      0.00
  -13    7    8     -4.92      0.00
   12    7    8     -9.67      0.00
   13    7    8      2.07      0.00
  -13    8    8      0.27      0.00
   12    8    8     -6.12      0.00
   13    8    8      6.56      0.00
  -13    9    8      0.52      0.00
  -12    9    8     -5.60      0.00
   12    9    8      3.72      0.00
  -13   10    8      6.84      0.00
  -12   10    8     -0.83      0.00
   12   10    8      5.03      0.00
  -13   11    8     -2.06      0.00
  -12   11    8     -3.04      0.00
   11   11    8    -17.64      0.00
   12   11    8     -1.09      0.00
  -13   12    8      1.36      0.00
  -12   12    8     -3.49      0.00
   11   12    8    -12.89      0.00
   12   12    8      5.10      0.00
  -13   13    8     -3.12      0.00
  -12   13    8      4.17      0.00
   11   13    8    -10.22      0.00
   12   13    8     -3.80      0.00
  -13   14    8      5.84      0.00
  -12   14    8     -5.35      0.00
   11   14    8     16.11      0.00
   12   14    8     -4.19      0.00
  -12   15    8      0.55      0.00
   11   15    8     -8.35      0.00
   12   15    8      1.01      0.00
  -12   16    8    -10.18      0.00
  -11   16    8      7.51      0.00
   11   16    8     -9.58      0.00
   12   16    8      0.61      0.00
  -12   17    8      7.49      0.00
  -11   17    8    -11.93      0.00
   10   17    8      3.84      0.00
   11   17    8     -9.51      0.00
  -12   18    8     -0.20      0.00
  -11   18    8      2.58      0.00
   10   18    8      6.46      0.00
   11   18    8      8.92      0.00
  -12   19    8     -1.26      0.00
  -11   19    8    -12.76      0.00
   10   19    8     -0.19      0.00
   11   19    8      0.94      0.00
  -11   20    8     -4.69      0.00
  -10   20    8     17.77      0.00
   10   20    8     -1.96      0.00
   11   20    8     -6.56      0.00
  -11   21    8     -5.95      0.00
  -10   21    8     -1.28      0.00
    9   21    8      0.98      0.00
   10   21    8      3.63      0.00
  -11   22    8      1.53      0.00
  -10   22    8     -8.35      0.00
    9   22    8      6.94      0.00
   10   22    8      1.33      0.00
  -11   23    8     -4.13      0.00
  -10   23    8      2.93      0.00
   -9   23    8      7.98      0.00
    9   23    8     11.07      0.00
   10   23    8      3.55      0.00
  -10   24    8      6.31      0.00
   -9   24    8      9.17      0.00
    8   24    8     -2.05      0.00
    9   24    8      4.08      0.00
   10   24    8      0.77      0.00
  -10   25    8     -2.72      0.00
   -9   25    8      1.85      0.00
    8   25    8     -2.89      0.00
    9   25    8     -0.20      0.00
  -10   26    8     -6.12      0.00
   -9   26    8     -2.24      0.00
   -8   26    8      5.84      0.00
    7   26    8     -7.69      0.00
    8   26    8      3.98      0.00
    9   26    8      3.57      0.00
   -9   27    8      3.97      0.00
   -8   27    8      5.95      0.00
    7   27    8      3.97      0.00
    8   27    8      4.09      0.00
    9   27    8     10.51      0.00
   -9   28    8      0.73      0.00
   -8   28    8     -8.36      0.00
   -7   28    8     -2.76      0.00
    6   28    8     -6.38      0.00
    7   28    8     -1.65      0.00
    8   28    8     -2.25      0.00
   -8   29    8      1.56      0.00
   -7   29    8      8.34      0.00
   -6   29    8     -3.66      0.00
    6   29    8      4.08      0.00
    7   29    8      3.51      0.00
    8   29    8     -4.27      0.00
   -8   30    8      2.41      0.00
   -7   30    8     -0.10      0.00
   -6   30    8      4.57      0.00
   -5   30    8      4.94      0.00
    5   30    8      6.52      0.00
    6   30    8     -4.27      0.00
    7   30    8     -4.33      0.00
   -7   31    8     -1.73      0.00
   -6   31    8     -1.76      0.00
   -5   31    8      9.00      0.00
   -4   31    8     -8.62      0.00
    4   31    8    -10.26      0.00
    5   31    8     -1.85      0.00
    6   31    8     -4.52      0.00
    7   31    8     -4.78      0.00
   -7   32    8      1.99      0.00
   -6   32    8     -6.86      0.00
   -5   32    8      7.68      0.00
   -4   32    8      1.63      0.00
   -3   32    8      5.17      0.00
    2   32    8      1.52      0.00
    3   32    8     -2.67      0.00
    4   32    8      0.49      0.00
    5   32    8     -0.05      0.00
    6   32    8     -0.39      0.00
   -6   33    8     -1.94      0.00
   -5   33    8      9.87      0.00
   -4   33    8      3.79      0.00
   -3   33    8      8.49      0.00
   -2   33    8     -2.01      0.00
   -1   33    8     -0.86      0.00
    0   33    8      8.56      0.00
    1   33    8     -0.02      0.00
    2   33    8     -8.95      0.00
    3   33    8      4.69      0.00
    4   33    8    -11.70      0.00
    5   33    8     -0.28      0.00
   -5   34    8      1.72      0.00
   -4   34    8      6.54      0.00
   -3   34    8      2.30      0.00
   -2   34    8      4.17      0.00
   -1   34    8     -7.14      0.00
    0   34    8     -2.26      0.00
    1   34    8     -2.39      0.00
    2   34    8     -7.17      0.00
    3   34    8     -8.06      0.00
    4   34    8     -1.57      0.00
    5   34    8     -2.05      0.00
   -4   35    8     -6.76      0.00
   -3   35    8     -6.59      0.00
   -2   35    8      4.45      0.00
   -1   35    8     -3.99      0.00
    0   35    8     -4.73      0.00
    1   35    8     -6.39      0.00
    2   35    8      7.43      0.00
    3   35    8      3.24      0.00
    4   35    8     -5.70      0.00
   -3   36    8     -2.48      0.00
   -2   36    8     -1.39      0.00
   -1   36    8     -3.34      0.00
    0   36    8      5.61      0.00
    1   36    8     -0.38      0.00
    2   36    8     -6.28      0.00
   -1   37    8     -1.71      0.00
    0   37    8      6.95      0.00
  -13    1    9      4.01      0.00
  -12    1    9      6.92      0.00
   11    1    9     -3.24      0.00
   12    1    9      5.72      0.00
  -13    2    9     -5.22      0.00
  -12    2    9      2.67      0.00
   11    2    9     -5.65      0.00
   12    2    9      1.93      0.00
  -13    3    9     -0.98      0.00
  -12    3    9     -6.63      0.00
   11    3    9    -10.00      0.00
   12    3    9      9.92      0.00
  -13    4    9      2.34      0.00
  -12    4    9      2.98      0.00
   11    4    9     -5.03      0.00
   12    4    9     -5.57      0.00
  -12    5    9      1.19      0.00
   11    5    9      0.00      0.00
   12    5    9     -3.23      0.00
  -12    6    9     -0.70      0.00
   11    6    9    -12.39      0.00
   12    6    9      2.94      0.00
  -12    7    9      0.38      0.00
  -11    7    9     -8.04      0.00
   11    7    9     -2.30      0.00
   12    7    9     -1.68      0.00
  -12    8    9      2.24      0.00
  -11    8    9    -13.88      0.00
   11    8    9     -4.64      0.00
  -12    9    9     -3.20      0.00
  -11    9    9      3.90      0.00
   10    9    9      7.10      0.00
   11    9    9     -2.00      0.00
  -12   10    9      1.36      0.00
  -11   10    9     -9.54      0.00
   10   10    9     -0.13      0.00
   11   10    9    -11.64      0.00
  -12   11    9     -2.72      0.00
  -11   11    9     -5.67      0.00
   10   11    9      1.46      0.00
   11   11    9     -3.62      0.00
  -12   12    9      0.23      0.00
  -11   12    9     -8.49      0.00
   10   12    9     -3.83      0.00
   11   12    9     -1.83      0.00
  -12   13    9     -0.41      0.00
  -11   13    9      1.09      0.00
   10   13    9     -0.67      0.00
   11   13    9      2.23      0.00
  -11   14    9    -12.35      0.00
  -10   14    9     -7.42      0.00
   10   14    9      3.21      0.00
   11   14    9     -4.77      0.00
  -11   15    9      1.66      0.00
  -10   15    9     -6.36      0.00
    9   15    9     -9.85      0.00
   10   15    9      2.81      0.00
   11   15    9     -6.05      0.00
  -11   16    9     -3.81      0.00
  -10   16    9     -7.46      0.00
    9   16    9      1.87      0.00
   10   16    9     -4.15      0.00
  -11   17    9     -3.34      0.00
  -10   17    9     -2.76      0.00
    9   17    9     -5.14      0.00
   10   17    9      0.16      0.00
  -11   18    9      1.21      0.00
  -10   18    9     -2.27      0.00
   -9   18    9     -8.32      0.00
    9   18    9     -2.90      0.00
   10   18    9      3.62      0.00
  -10   19    9      7.07      0.00
   -9   19    9    -13.55      0.00
    8   19    9     -3.27      0.00
    9   19    9     -1.25      0.00
   10   19    9     -1.16      0.00
  -10   20    9     -2.52      0.00
   -9   20    9     17.61      0.00
    8   20    9     13.35      0.00
    9   20    9      1.51      0.00
  -10   21    9      0.49      0.00
   -9   21    9     -3.54      0.00
   -8   21    9     -8.22      0.00
    8   21    9     -3.51      0.00
    9   21    9     -0.36      0.00
  -10   22    9      2.77      0.00
   -9   22    9      2.20      0.00
   -8   22    9      8.78      0.00
    7   22    9      1.45      0.00
    8   22    9     -0.49      0.00
    9   22    9     -1.35      0.00
   -9   23    9    -10.44      0.00
   -8   23    9     14.38      0.00
    7   23    9     -1.68      0.00
    8   23    9     -0.66      0.00
    9   23    9      5.92      0.00
   -9   24    9      0.99      0.00
   -8   24    9     -1.78      0.00
   -7   24    9     -6.39      0.00
    6   24    9     11.01      0.00
    7   24    9     -4.78      0.00
    8   24    9     10.12      0.00
   -9   25    9     -5.29      0.00
   -8   25    9    -11.18      0.00
   -7   25    9     -0.18      0.00
    6   25    9      5.66      0.00
    7   25    9     -5.58      0.00
    8   25    9      0.66      0.00
   -8   26    9      1.94      0.00
   -7   26    9      2.62      0.00
   -6   26    9      3.77      0.00
    5   26    9    -11.97      0.00
    6   26    9      6.54      0.00
    7   26    9      1.93      0.00
   -8   27    9      6.95      0.00
   -7   27    9      6.00      0.00
   -6   27    9      5.82      0.00
   -5   27    9      2.30      0.00
    4   27    9     -4.39      0.00
    5   27    9    -10.46      0.00
    6   27    9      0.75      0.00
    7   27    9     -0.97      0.00
   -7   28    9     -4.16      0.00
   -6   28    9     -2.54      0.00
   -5   28    9      5.56      0.00
   -4   28    9      1.02      0.00
    3   28    9      3.22      0.00
    4   28    9     -0.26      0.00
    5   28    9      1.53      0.00
    6   28    9      2.18      0.00
   -7   29    9      0.60      0.00
   -6   29    9     -9.11      0.00
   -5   29    9      4.31      0.00
   -4   29    9     -0.72      0.00
   -3   29    9     -0.51      0.00
   -2   29    9    -12.01      0.00
    2   29    9     -2.80      0.00
    3   29    9    -11.83      0.00
    4   29    9      3.38      0.00
    5   29    9      4.92      0.00
    6   29    9      4.46      0.00
   -6   30    9      6.55      0.00
   -5   30    9      3.13      0.00
   -4   30    9      1.46      0.00
   -3   30    9      5.07      0.00
   -2   30    9     -5.17      0.00
   -1   30    9      6.15      0.00
    0   30    9      3.53      0.00
    1   30    9     13.70      0.00
    2   30    9     -2.98      0.00
    3   30    9     10.58      0.00
    4   30    9      2.96      0.00
    5   30    9     -6.31      0.00
   -5   31    9      4.35      0.00
   -4   31    9     -0.10      0.00
   -3   31    9      1.49      0.00
   -2   31    9     -2.44      0.00
   -1   31    9     -2.70      0.00
    0   31    9     -3.04      0.00
    1   31    9      7.60      0.00
    2   31    9     -5.80      0.00
    3   31    9      2.34      0.00
    4   31    9     -7.78      0.00
    5   31    9     -4.06      0.00
   -4   32    9     -5.03      0.00
   -3   32    9     -2.85      0.00
   -2   32    9     -3.42      0.00
   -1   32    9     -4.57      0.00
    0   32    9      5.90      0.00
    1   32    9      0.47      0.00
    2   32    9      3.21      0.00
    3   32    9      2.55      0.00
    4   32    9     -0.23      0.00
   -3   33    9     -6.93      0.00
   -2   33    9    -12.08      0.00
   -1   33    9     -3.02      0.00
    0   33    9      0.50      0.00
    1   33    9      6.08      0.00
    2   33    9     -6.46      0.00
    3   33    9     -5.73      0.00
   -2   34    9     -0.49      0.00
   -1   34    9     -1.30      0.00
    0   34    9      1.95      0.00
    1   34    9     10.07      0.00
  -11    0   10      3.37      0.00
  -10    0   10     -1.12      0.00
    9    0   10      4.32      0.00
   10    0   10     -6.94      0.00
   11    0   10     -2.90      0.00
  -11    1   10     -1.77      0.00
  -10    1   10     11.60      0.00
    9    1   10     -3.91      0.00
   10    1   10      5.23      0.00
   11    1   10     -0.66      0.00
  -11    2   10      2.55      0.00
  -10    2   10      7.96      0.00
    9    2   10     16.25      0.00
   10    2   10    -11.29      0.00
   11    2   10      2.25      0.00
  -11    3   10     -2.21      0.00
  -10    3   10     -8.70      0.00
    9    3   10      0.07      0.00
   10    3   10     -1.08      0.00
  -11    4   10      9.55      0.00
  -10    4   10      3.45      0.00
    9    4   10     -4.91      0.00
   10    4   10     -8.59      0.00
  -11    5   10     -2.27      0.00
  -10    5   10      4.51      0.00
    9    5   10      4.01      0.00
   10    5   10      0.77      0.00
  -11    6   10     -9.97      0.00
  -10    6   10      1.67      0.00
    9    6   10      0.61      0.00
   10    6   10      5.38      0.00
  -11    7   10     -6.30      0.00
  -10    7   10      0.80      0.00
    9    7   10    -12.35      0.00
   10    7   10     -1.83      0.00
  -11    8   10     -0.86      0.00
  -10    8   10     -3.76      0.00
    9    8   10     -0.12      0.00
   10    8   10      2.39      0.00
  -11    9   10     -3.72      0.00
  -10    9   10     -7.94      0.00
    9    9   10     -2.53      0.00
   10    9   10      1.45      0.00
  -11   10   10     -3.47      0.00
  -10   10   10      0.16      0.00
    9   10   10    -12.94      0.00
   10   10   10      0.01      0.00
  -11   11   10    -13.59      0.00
  -10   11   10      5.30      0.00
   -9   11   10     -4.43      0.00
    9   11   10     -2.84      0.00
   10   11   10     -3.75      0.00
  -10   12   10     -9.22      0.00
   -9   12   10     -4.22      0.00
    8   12   10      2.08      0.00
    9   12   10     -3.22      0.00
   10   12   10      6.12      0.00
  -10   13   10    -12.92      0.00
   -9   13   10     31.75      0.00
    8   13   10     -1.21      0.00
    9   13   10     -0.11      0.00
  -10   14   10    -12.67      0.00
   -9   14   10      1.30      0.00
    8   14   10     -2.85      0.00
    9   14   10     -8.11      0.00
  -10   15   10      3.30      0.00
   -9   15   10    -10.75      0.00
   -8   15   10      9.10      0.00
    8   15   10     -1.20      0.00
    9   15   10      0.04      0.00
  -10   16   10     -1.91      0.00
   -9   16   10     -6.79      0.00
   -8   16   10      9.02      0.00
    7   16   10      0.58      0.00
    8   16   10     -1.98      0.00
    9   16   10     -4.35      0.00
   -9   17   10     17.68      0.00
   -8   17   10    -16.63      0.00
    7   17   10     -0.88      0.00
    8   17   10      0.49      0.00
    9   17   10     -0.73      0.00
   -9   18   10      3.91      0.00
   -8   18   10     -1.01      0.00
    7   18   10     -4.82      0.00
    8   18   10     -4.44      0.00
   -9   19   10     -3.81      0.00
   -8   19   10      6.07      0.00
   -7   19   10      0.03      0.00
    6   19   10    -10.79      0.00
    7   19   10     -5.00      0.00
    8   19   10     -5.78      0.00
   -9   20   10     -4.92      0.00
   -8   20   10      4.13      0.00
   -7   20   10     -2.84      0.00
    6   20   10      3.00      0.00
    7   20   10     -0.09      0.00
    8   20   10     -1.42      0.00
   -8   21   10     -8.73      0.00
   -7   21   10     -0.68      0.00
   -6   21   10     -0.59      0.00
    5   21   10      6.54      0.00
    6   21   10     -1.72      0.00
    7   21   10      0.00      0.00
   -8   22   10     -0.66      0.00
   -7   22   10     15.74      0.00
   -6   22   10    -10.50      0.00
    5   22   10     -9.77      0.00
    6   22   10      0.27      0.00
    7   22   10     -2.43      0.00
   -8   23   10      4.47      0.00
   -7   23   10      7.28      0.00
   -6   23   10      5.05      0.00
   -5   23   10     -3.73      0.00
    4   23   10      0.75      0.00
    5   23   10      0.58      0.00
    6   23   10     -1.20      0.00
    7   23   10     -6.53      0.00
   -7   24   10      1.14      0.00
   -6   24   10     14.85      0.00
   -5   24   10    -10.52      0.00
   -4   24   10     -6.50      0.00
    3   24   10      7.94      0.00
    4   24   10     -4.51      0.00
    5   24   10     -1.67      0.00
    6   24   10      0.70      0.00
   -7   25   10     -5.82      0.00
   -6   25   10      3.23      0.00
   -5   25   10      4.93      0.00
   -4   25   10     -0.24      0.00
   -3   25   10     15.31      0.00
   -2   25   10     -1.60      0.00
    2   25   10     11.16      0.00
    3   25   10      6.47      0.00
    4   25   10      4.79      0.00
    5   25   10      3.36      0.00
    6   25   10     -3.89      0.00
   -6   26   10     -6.39      0.00
   -5   26   10      1.22      0.00
   -4   26   10     -6.27      0.00
   -3   26   10      6.70      0.00
   -2   26   10     -4.76      0.00
   -1   26   10     -2.67      0.00
    0   26   10     -8.28      0.00
    1   26   10      0.32      0.00
    2   26   10     -4.06      0.00
    3   26   10     -3.06      0.00
    4   26   10      4.96      0.00
    5   26   10     -1.70      0.00
   -6   27   10      8.61      0.00
   -5   27   10      0.73      0.00
   -4   27   10      2.49      0.00
   -3   27   10     -2.83      0.00
   -2   27   10     -1.54      0.00
   -1   27   10     11.60      0.00
    0   27   10      2.27      0.00
    1   27   10      4.15      0.00
    2   27   10     -7.87      0.00
    3   27   10     10.96      0.00
    4   27   10      3.43      0.00
    5   27   10      3.61      0.00
   -5   28   10     -2.13      0.00
   -4   28   10     -5.62      0.00
   -3   28   10     -8.50      0.00
   -2   28   10     -2.94      0.00
   -1   28   10     -2.44      0.00
    0   28   10      8.91      0.00
    1   28   10      2.91      0.00
    2   28   10     -0.72      0.00
    3   28   10      2.67      0.00
    4   28   10     -3.32      0.00
   -4   29   10     -1.72      0.00
   -3   29   10      5.06      0.00
   -2   29   10     -1.18      0.00
   -1   29   10     -5.37      0.00
    0   29   10      0.44      0.00
    1   29   10     -4.42      0.00
    2   29   10      7.27      0.00
    3   29   10      6.50      0.00
   -3   30   10      4.25      0.00
   -2   30   10     -7.55      0.00
   -1   30   10     -1.32      0.00
    0   30   10     -3.53      0.00
    1   30   10     -1.26      0.00
    2   30   10     -3.12      0.00
  -10    1   11     -2.72      0.00
   -9    1   11      6.02      0.00
   -8    1   11      2.97      0.00
    7    1   11     13.27      0.00
    8    1   11     -6.66      0.00
    9    1   11      4.68      0.00
  -10    2   11     -3.57      0.00
   -9    2   11     -0.01      0.00
   -8    2   11      9.27      0.00
    7    2   11      3.11      0.00
    8    2   11      5.53      0.00
    9    2   11     -0.80      0.00
  -10    3   11     -1.44      0.00
   -9    3   11      1.89      0.00
   -8    3   11     -0.03      0.00
    7    3   11     10.27      0.00
    8    3   11      6.35      0.00
    9    3   11      0.97      0.00
  -10    4   11      1.81      0.00
   -9    4   11      2.78      0.00
   -8    4   11    -14.76      0.00
    7    4   11     -0.27      0.00
    8    4   11     -3.66      0.00
    9    4   11     -8.06      0.00
  -10    5   11     -5.31      0.00
   -9    5   11      5.69      0.00
   -8    5   11     -3.45      0.00
    7    5   11      2.27      0.00
    8    5   11     -4.83      0.00
    9    5   11      5.50      0.00
  -10    6   11     -3.23      0.00
   -9    6   11      5.23      0.00
   -8    6   11      2.84      0.00
    7    6   11     -7.25      0.00
    8    6   11      2.34      0.00
    9    6   11     -4.75      0.00
  -10    7   11     -0.47      0.00
   -9    7   11      8.16      0.00
   -8    7   11     -3.28      0.00
    7    7   11     -2.90      0.00
    8    7   11      8.99      0.00
    9    7   11     -6.91      0.00
   -9    8   11     -1.45      0.00
   -8    8   11     -5.33      0.00
    7    8   11      8.08      0.00
    8    8   11     -1.03      0.00
   -9    9   11      0.31      0.00
   -8    9   11     -3.57      0.00
    7    9   11      0.20      0.00
    8    9   11     -5.43      0.00
   -9   10   11      5.82      0.00
   -8   10   11     -2.82      0.00
   -7   10   11     -4.85      0.00
    6   10   11     -1.16      0.00
    7   10   11     -4.47      0.00
    8   10   11      1.09      0.00
   -9   11   11      5.20      0.00
   -8   11   11     -4.35      0.00
   -7   11   11      4.12      0.00
    6   11   11      5.28      0.00
    7   11   11     -6.43      0.00
    8   11   11      3.18      0.00
   -9   12   11      2.59      0.00
   -8   12   11     -3.18      0.00
   -7   12   11      0.68      0.00
    6   12   11      5.60      0.00
    7   12   11      8.26      0.00
    8   12   11      0.34      0.00
   -9   13   11     -1.20      0.00
   -8   13   11     -0.50      0.00
   -7   13   11     -8.93      0.00
    6   13   11     -1.38      0.00
    7   13   11      0.11      0.00
    8   13   11     -1.59      0.00
   -8   14   11     -4.11      0.00
   -7   14   11     -7.41      0.00
   -6   14   11      2.07      0.00
    5   14   11      1.37      0.00
    6   14   11      0.49      0.00
    7   14   11      0.10      0.00
   -8   15   11      0.03      0.00
   -7   15   11     12.67      0.00
   -6   15   11     -8.15      0.00
    5   15   11      1.75      0.00
    6   15   11      3.78      0.00
    7   15   11     -2.02      0.00
   -8   16   11     -8.09      0.00
   -7   16   11      1.82      0.00
   -6   16   11     -7.53      0.00
   -5   16   11     -6.14      0.00
    4   16   11      7.20      0.00
    5   16   11     -0.44      0.00
    6   16   11      2.78      0.00
    7   16   11      4.33      0.00
   -8   17   11     -4.20      0.00
   -7   17   11     -5.16      0.00
   -6   17   11     18.38      0.00
   -5   17   11     -6.19      0.00
    4   17   11     -4.00      0.00
    5   17   11     10.18      0.00
    6   17   11      0.69      0.00
    7   17   11      3.60      0.00
   -7   18   11      0.07      0.00
   -6   18   11     12.66      0.00
   -5   18   11      4.55      0.00
   -4   18   11     -5.67      0.00
    3   18   11     -2.58      0.00
    4   18   11     -9.80      0.00
    5   18   11      9.47      0.00
    6   18   11     -0.24      0.00
   -7   19   11     11.02      0.00
   -6   19   11     -2.33      0.00
   -5   19   11     -2.87      0.00
   -4   19   11     -2.75      0.00
   -3   19   11      8.52      0.00
    2   19   11    -10.27      0.00
    3   19   11     -0.11      0.00
    4   19   11     -7.26      0.00
    5   19   11     -2.63      0.00
    6   19   11      1.28      0.00
   -7   20   11      5.72      0.00
   -6   20   11     -1.33      0.00
   -5   20   11     -2.93      0.00
   -4   20   11    -12.63      0.00
   -3   20   11     -6.22      0.00
   -2   20   11      3.04      0.00
   -1   20   11     -3.71      0.00
    0   20   11     -7.09      0.00
    1   20   11      4.35      0.00
    2   20   11     -6.47      0.00
    3   20   11     14.09      0.00
    4   20   11      7.30      0.00
    5   20   11     -3.22      0.00
    6   20   11     -1.60      0.00
   -6   21   11      7.98      0.00
   -5   21   11     -0.08      0.00
   -4   21   11     -2.93      0.00
   -3   21   11      3.76      0.00
   -2   21   11      8.39      0.00
   -1   21   11    -13.19      0.00
    0   21   11      3.07      0.00
    1   21   11      4.54      0.00
    2   21   11     -4.92      0.00
    3   21   11      0.91      0.00
    4   21   11     -2.25      0.00
    5   21   11      1.90      0.00
   -6   22   11      5.58      0.00
   -5   22   11      7.64      0.00
   -4   22   11     -5.22      0.00
   -3   22   11      2.04      0.00
   -2   22   11      4.20      0.00
   -1   22   11     -1.81      0.00
    0   22   11      1.04      0.00
    1   22   11     -2.06      0.00
    2   22   11     -0.50      0.00
    3   22   11     -1.06      0.00
    4   22   11     -6.03      0.00
    5   22   11      8.32      0.00
   -5   23   11     -1.82      0.00
   -4   23   11     -6.39      0.00
   -3   23   11     -1.21      0.00
   -2   23   11      2.26      0.00
   -1   23   11    -10.36      0.00
    0   23   11     -7.95      0.00
    1   23   11      2.70      0.00
    2   23   11     -8.63      0.00
    3   23   11     -1.31      0.00
    4   23   11     -1.71      0.00
   -4   24   11     -6.84      0.00
   -3   24   11     -9.20      0.00
   -2   24   11      7.19      0.00
   -1   24   11      2.50      0.00
    0   24   11     -3.80      0.00
    1   24   11      1.70      0.00
    2   24   11     -1.06      0.00
    3   24   11      7.23      0.00
   -3   25   11     -2.50      0.00
   -2   25   11     -6.08      0.00
   -1   25   11     -5.21      0.00
    0   25   11     -1.45      0.00
    1   25   11      5.84      0.00
    2   25   11     -5.25      0.00
   -2   26   11      4.89      0.00
   -1   26   11     -4.02      0.00
    0   26   11     -0.23      0.00
    1   26   11     -1.23      0.00
   -8    0   12     -0.67      0.00
   -7    0   12    -11.22      0.00
   -6    0   12     -1.63      0.00
   -5    0   12      5.87      0.00
   -3    0   12     -5.43      0.00
    4    0   12     15.17      0.00
    5    0   12      6.22      0.00
    6    0   12     -2.56      0.00
    7    0   12      2.04      0.00
   -8    1   12     -2.01      0.00
   -7    1   12     -3.15      0.00
   -6    1   12     -1.94      0.00
   -5    1   12    -13.30      0.00
    4    1   12     -2.61      0.00
    5    1   12      3.61      0.00
    6    1   12     -0.14      0.00
    7    1   12     -5.95      0.00
   -8    2   12     -1.75      0.00
   -7    2   12     -2.33      0.00
   -6    2   12    -13.21      0.00
   -5    2   12     -5.11      0.00
    4    2   12     -9.18      0.00
    5    2   12     -7.41      0.00
    6    2   12      1.22      0.00
    7    2   12     -1.49      0.00
   -8    3   12      0.64      0.00
   -7    3   12      0.97      0.00
   -6    3   12     -1.71      0.00
   -5    3   12      5.26      0.00
    4    3   12      0.56      0.00
    5    3   12      0.95      0.00
    6    3   12     -1.32      0.00
    7    3   12      0.87      0.00
   -8    4   12     -2.81      0.00
   -7    4   12     -0.55      0.00
   -6    4   12     -3.94      0.00
   -5    4   12      3.11      0.00
    4    4   12      5.63      0.00
    5    4   12     -2.19      0.00
    6    4   12     -1.76      0.00
    7    4   12      2.46      0.00
   -8    5   12      3.73      0.00
   -7    5   12      0.77      0.00
   -6    5   12      0.67      0.00
   -5    5   12     -7.01      0.00
    4    5   12      1.98      0.00
    5    5   12      4.82      0.00
    6    5   12      0.31      0.00
    7    5   12      0.19      0.00
   -8    6   12     -2.97      0.00
   -7    6   12      1.90      0.00
   -6    6   12     -2.47      0.00
   -5    6   12      0.49      0.00
    4    6   12     -3.46      0.00
    5    6   12      3.83      0.00
    6    6   12      2.63      0.00
   -7    7   12     -7.73      0.00
   -6    7   12      2.87      0.00
   -5    7   12     -8.28      0.00
   -4    7   12     -0.46      0.00
    3    7   12     -4.94      0.00
    4    7   12     -6.13      0.00
    5    7   12     -0.59      0.00
    6    7   12     -4.00      0.00
   -7    8   12      6.02      0.00
   -6    8   12     -3.58      0.00
   -5    8   12      4.37      0.00
   -4    8   12     -5.93      0.00
    3    8   12     -6.52      0.00
    4    8   12     -9.34      0.00
    5    8   12     -9.83      0.00
    6    8   12     -2.55      0.00
   -7    9   12      2.83      0.00
   -6    9   12     -1.33      0.00
   -5    9   12      5.93      0.00
   -4    9   12      9.34      0.00
    3    9   12      8.62      0.00
    4    9   12     -1.40      0.00
    5    9   12     -4.13      0.00
    6    9   12     -0.12      0.00
   -7   10   12      5.69      0.00
   -6   10   12     11.71      0.00
   -5   10   12      1.93      0.00
   -4   10   12    -10.34      0.00
   -3   10   12     11.44      0.00
    2   10   12     16.37      0.00
    3   10   12     -1.95      0.00
    4   10   12     -1.13      0.00
    5   10   12      2.26      0.00
    6   10   12     -1.21      0.00
   -7   11   12     -6.86      0.00
   -6   11   12      5.03      0.00
   -5   11   12    -13.81      0.00
   -4   11   12     -3.97      0.00
   -3   11   12      4.57      0.00
   -2   11   12    -12.75      0.00
    1   11   12      1.58      0.00
    2   11   12     -5.10      0.00
    3   11   12      1.18      0.00
    4   11   12     -3.48      0.00
    5   11   12     -2.71      0.00
    6   11   12     -1.59      0.00
   -6   12   12     -2.33      0.00
   -5   12   12      1.73      0.00
   -4   12   12     -7.51      0.00
   -3   12   12      5.81      0.00
   -2   12   12      8.12      0.00
   -1   12   12     -2.53      0.00
    0   12   12     -0.27      0.00
    1   12   12      0.34      0.00
    2   12   12     -2.03      0.00
    3   12   12     -3.33      0.00
    4   12   12     -7.88      0.00
    5   12   12     -0.46      0.00
   -6   13   12     -2.41      0.00
   -5   13   12      8.34      0.00
   -4   13   12     -4.30      0.00
   -3   13   12     10.56      0.00
   -2   13   12     -4.25      0.00
   -1   13   12     13.31      0.00
    0   13   12    -12.27      0.00
    1   13   12     -6.66      0.00
    2   13   12     -8.39      0.00
    3   13   12      7.56      0.00
    4   13   12     -5.12      0.00
    5   13   12     -6.33      0.00
   -6   14   12     15.08      0.00
   -5   14   12     -2.42      0.00
   -4   14   12     -5.59      0.00
   -3   14   12      0.16      0.00
   -2   14   12      5.41      0.00
   -1   14   12     10.18      0.00
    0   14   12     -2.71      0.00
    1   14   12     -3.50      0.00
    2   14   12      4.39      0.00
    3   14   12     -5.07      0.00
    4   14   12      1.35      0.00
    5   14   12     -0.39      0.00
   -6   15   12      4.66      0.00
   -5   15   12     -0.30      0.00
   -4   15   12     -2.87      0.00
   -3   15   12     -3.80      0.00
   -2   15   12     -5.52      0.00
   -1   15   12     -2.49      0.00
    0   15   12      7.74      0.00
    1   15   12      2.17      0.00
    2   15   12     -0.88      0.00
    3   15   12      5.42      0.00
    4   15   12     -7.92      0.00
   -5   16   12      2.54      0.00
   -4   16   12      1.68      0.00
   -3   16   12     13.78      0.00
   -2   16   12      4.63      0.00
   -1   16   12     -8.34      0.00
    0   16   12     -3.85      0.00
    1   16   12      1.49      0.00
    2   16   12     -1.87      0.00
    3   16   12      3.29      0.00
    4   16   12     -0.22      0.00
   -5   17   12      1.19      0.00
   -4   17   12     -8.42      0.00
   -3   17   12      6.35      0.00
   -2   17   12     -2.31      0.00
   -1   17   12     14.85      0.00
    0   17   12    -10.59      0.00
    1   17   12     -3.15      0.00
    2   17   12     -3.90      0.00
    3   17   12      2.26      0.00
    4   17   12     -1.82      0.00
   -4   18   12     -0.86      0.00
   -3   18   12     -4.98      0.00
   -2   18   12      7.60      0.00
   -1   18   12      1.52      0.00
    0   18   12      5.39      0.00
    1   18   12     -0.19      0.00
    2   18   12      1.35      0.00
    3   18   12      2.54      0.00
   -3   19   12     -5.32      0.00
   -2   19   12      0.67      0.00
   -1   19   12     -1.69      0.00
    0   19   12      3.63      0.00
    1   19   12      0.88      0.00
    2   19   12      0.81      0.00
   -3   20   12      5.16      0.00
   -2   20   12      1.70      0.00
   -1   20   12     -5.93      0.00
    0   20   12     -1.23      0.00
    1   20   12      1.90      0.00
   -1   21   12      3.07      0.00
    0   21   12      1.23      0.00
   -5    1   13      5.12      0.00
   -4    1   13      2.73      0.00
   -3    1   13      7.29      0.00
   -2    1   13     -3.62      0.00
   -1    1   13     -1.03      0.00
    0    1   13     -2.42      0.00
    1    1   13      3.61      0.00
    2    1   13     -6.75      0.00
    3    1   13      5.57      0.00
    4    1   13     -5.51      0.00
   -5    2   13      1.09      0.00
   -4    2   13      0.81      0.00
   -3    2   13      2.78      0.00
   -2    2   13     -1.02      0.00
   -1    2   13      0.23      0.00
    0    2   13     -5.05      0.00
    1    2   13     -4.21      0.00
    2    2   13     -1.95      0.00
    3    2   13      5.74      0.00
    4    2   13      1.41      0.00
   -5    3   13      3.62      0.00
   -4    3   13     -4.77      0.00
   -3    3   13      1.48      0.00
   -2    3   13     -4.64      0.00
   -1    3   13      0.83      0.00
    0    3   13     -1.71      0.00
    1    3   13      0.24      0.00
    2    3   13     -3.48      0.00
    3    3   13      7.84      0.00
   -4    4   13     -1.78      0.00
   -3    4   13     -9.77      0.00
   -2    4   13     -3.64      0.00
   -1    4   13     -5.49      0.00
    0    4   13      6.50      0.00
    1    4   13     -3.08      0.00
    2    4   13      1.76      0.00
    3    4   13      1.78      0.00
   -4    5   13      3.27      0.00
   -3    5   13      3.65      0.00
   -2    5   13      0.21      0.00
   -1    5   13      2.71      0.00
    0    5   13      0.99      0.00
    1    5   13      1.47      0.00
    2    5   13     -9.53      0.00
    3    5   13      1.06      0.00
   -4    6   13      3.87      0.00
   -3    6   13     -2.62      0.00
   -2    6   13     -3.22      0.00
   -1    6   13     -3.39      0.00
    0    6   13     -3.95      0.00
    1    6   13     -6.23      0.00
    2    6   13     -4.07      0.00
    3    6   13      7.02      0.00
   -4    7   13     -3.40      0.00
   -3    7   13      6.94      0.00
   -2    7   13     -7.12      0.00
   -1    7   13      8.43      0.00
    0    7   13     -2.11      0.00
    1    7   13      3.35      0.00
    2    7   13      2.18      0.00
    3    7   13      7.64      0.00
   -4    8   13     -6.53      0.00
   -3    8   13     -3.67      0.00
   -2    8   13     -5.31      0.00
   -1    8   13     -3.59      0.00
    0    8   13      5.35      0.00
    1    8   13     -6.73      0.00
    2    8   13      0.43      0.00
   -3    9   13     -1.66      0.00
   -2    9   13      2.67      0.00
   -1    9   13     -0.02      0.00
    0    9   13      3.29      0.00
    1    9   13     -2.16      0.00
    2    9   13     -7.38      0.00
   -3   10   13      1.47      0.00
   -2   10   13     -1.99      0.00
   -1   10   13      1.63      0.00
    0   10   13     -2.69      0.00
    1   10   13     -4.91      0.00
    2   10   13     -3.30      0.00
   -2   11   13     -5.02      0.00
   -1   11   13      9.16      0.00
    0   11   13     -2.17      0.00
    1   11   13      0.66      0.00
   -1   12   13     -1.39      0.00
    0   12   13      8.02      0.00
    0    0    0      0.00      0.00
# SQUEEZE RESULTS (Version =  91117)
# Note: Data are Listed for all Voids in the P1 Unit Cell
# i.e. Centre of Gravity, Solvent Accessible Volume,
# Recovered number of Electrons in the Void and
# Details about the Squeezed Material
loop_
  _platon_squeeze_void_nr
  _platon_squeeze_void_average_x
  _platon_squeeze_void_average_y
  _platon_squeeze_void_average_z
  _platon_squeeze_void_volume
  _platon_squeeze_void_count_electrons
  _platon_squeeze_void_content
   1 -0.002  0.010 -0.041      3008      2174 ' '
# Missing Reflections Below sin(th)/lambda = 0.25
loop_
  _platon_missing_refln_index_h
  _platon_missing_refln_index_k
  _platon_missing_refln_index_l
  _platon_missing_refln_theta
    1    0    0     1.562
    2    0    0     3.125
    1    1    0     1.666
    2    1    0     3.179
    0    2    0     1.158
    1    3    0     2.336
   -1    1    1     2.541
    0    1    1     2.055
   -1    2    1     2.732
    0    2    1     2.287
_platon_squeeze_void_probe_radius                  1.20
_platon_squeeze_details
)
TITL AA_a.res in P2(1)/c
CELL   13.0435   35.1784   10.3323     90.00     91.93     90.00
SPGR P21/c
# Solvent Accessible Volume =      3006
# Electrons Found in S.A.V. =      2159
# Note: Atoms in Void are Labelled as Cxxx and Qxxx for all Others
C101 0.424 0.187 0.343 !       8.94 eA-3
C102 0.592 0.782 0.722 !       8.37 eA-3
C103 0.484 0.236 0.227 !       6.63 eA-3
C104 0.095 0.799 0.336 !       6.42 eA-3
C105 0.627 0.776 0.336 !       5.99 eA-3
C106 0.700 0.736 0.232 !       5.97 eA-3
C107 0.471 0.672 0.156 !       5.11 eA-3
C108 0.919 0.239 0.727 !       4.97 eA-3
C109 0.965 0.317 0.188 !       4.60 eA-3
C110 0.955 0.824 0.240 !       4.54 eA-3
C111 0.607 0.219 0.236 !       4.45 eA-3
C112 0.187 0.811 0.432 !       4.38 eA-3
C113 0.688 0.762 0.344 !       4.32 eA-3
C114 0.356 0.524 0.237 !       4.21 eA-3
C115 0.603 0.307 0.850 !       4.13 eA-3
C116 0.561 0.238 0.185 !       4.08 eA-3
C117 0.031 0.496 0.487 !       3.90 eA-3
C118 0.016 0.980 0.164 !       3.89 eA-3
C119 0.516 0.739 0.842 !       3.89 eA-3
C120 0.906 0.488 0.336 !       3.84 eA-3
C121 0.156 0.654 0.901 !       3.75 eA-3
C122 0.046 0.862 0.364 !       3.64 eA-3
C123 0.737 0.042 0.244 !       3.53 eA-3
C124 0.013 0.757 0.187 !       3.47 eA-3
C125 0.563 0.026 0.284 !       3.45 eA-3
C126 0.925 0.719 0.709 !       3.34 eA-3
C127 0.502 0.492 0.377 !       3.28 eA-3
C128 0.392 0.011 0.845 !       3.12 eA-3
C129 0.141 0.492 0.570 !       3.05 eA-3
C130 0.113 0.525 0.817 !       3.03 eA-3
C131 0.051 0.472 0.256 !       2.96 eA-3
C132 0.957 0.737 0.682 !       2.94 eA-3
C133 0.517 0.509 0.217 !       2.90 eA-3
C134 0.171 0.972 0.291 !       2.87 eA-3
C135 0.948 0.476 0.119 !       2.79 eA-3
C136 0.034 0.218 0.847 !       2.77 eA-3
C137 0.887 0.006 0.020 !       2.67 eA-3
C138 0.655 0.078 0.396 !       2.64 eA-3
C139 0.490 0.479 0.847 !       2.60 eA-3
C140 0.060 0.493 0.269 !       2.60 eA-3
C141 0.725 0.432 0.880 !       2.58 eA-3
C142 0.436 0.485 0.441 !       2.52 eA-3
C143 0.719 0.516 0.466 !       2.45 eA-3
C144 0.013 0.046 0.648 !       2.45 eA-3
C145 0.141 0.985 0.238 !       2.44 eA-3
C146 0.153 0.502 0.398 !       2.43 eA-3
C147 0.217 0.491 0.374 !       2.39 eA-3
C148 0.483 0.509 0.449 !       2.35 eA-3
C149 0.315 0.992 0.030 !       2.32 eA-3
C150 0.439 0.983 0.105 !       2.30 eA-3
C151 0.108 0.298 0.211 !       2.28 eA-3
C152 0.332 0.999 0.910 !       2.28 eA-3
C153 0.390 0.556 0.056 !       2.28 eA-3
C154 0.250 0.573 0.082 !       2.27 eA-3
C155 0.934 0.025 0.068 !       2.26 eA-3
C156 0.259 0.505 0.463 !       2.24 eA-3
C157 0.904 0.469 0.102 !       2.23 eA-3
C158 0.363 0.999 0.071 !       2.22 eA-3
Q159 0.701 0.511 0.341 !       2.21 eA-3
Q160 0.093 0.472 0.317 !       2.20 eA-3
C161 0.111 0.792 0.472 !       2.20 eA-3
Q162 0.171 0.470 0.474 !       2.19 eA-3
C163 0.247 0.975 0.246 !       2.17 eA-3
C164 0.204 0.506 0.333 !       2.17 eA-3
C165 0.589 0.288 0.972 !       2.15 eA-3
Q166 0.563 0.019 0.050 !       2.14 eA-3
C167 0.984 0.216 0.434 !       2.10 eA-3
Q168 0.436 0.966 0.135 !       2.10 eA-3
C169 0.377 0.233 0.368 !       2.09 eA-3
C170 0.623 0.240 0.628 !       2.09 eA-3
C171 0.187 0.524 0.467 !       2.08 eA-3
C172 0.034 0.772 0.344 !       2.08 eA-3
C173 0.759 0.022 0.163 !       2.07 eA-3
Q174 0.326 0.248 0.376 !       2.07 eA-3
Q175 0.864 0.975 0.127 !       2.06 eA-3
C176 0.457 0.283 0.027 !       2.03 eA-3
C177 0.016 0.689 0.065 !       2.03 eA-3
C178 0.733 0.485 0.337 !       2.02 eA-3
C179 0.436 0.561 0.113 !       2.01 eA-3
C180 0.034 0.743 0.868 !       2.01 eA-3
C181 0.750 0.744 0.322 !       2.00 eA-3
Q182 0.281 0.464 0.443 !       1.98 eA-3
C183 0.219 0.545 0.101 !       1.98 eA-3
C184 0.888 0.484 0.688 !       1.97 eA-3
Q185 0.996 0.531 0.467 !       1.96 eA-3
C186 0.969 0.734 0.057 !       1.96 eA-3
C187 0.787 0.518 0.460 !       1.96 eA-3
C188 0.485 0.732 0.027 !       1.93 eA-3
C189 0.012 0.204 0.501 !       1.93 eA-3
Q190 0.015 0.498 0.760 !       1.92 eA-3
C191 0.158 0.709 0.006 !       1.90 eA-3
C192 0.756 0.453 0.072 !       1.90 eA-3
C193 0.784 0.007 0.958 !       1.90 eA-3
Q194 0.107 0.540 0.314 !       1.89 eA-3
Q195 0.331 0.745 0.217 !       1.86 eA-3
Q196 0.406 0.022 0.062 !       1.85 eA-3
C197 0.735 0.029-0.016 !       1.85 eA-3
C198 0.531 0.461 0.318 !       1.84 eA-3
C199 0.531 0.040 0.807 !       1.84 eA-3
)
;
_shelx_fab_checksum              25774
_olex2_submission_special_instructions 'No special instructions were received'
loop_
_space_group_symop_operation_xyz
'x, y, z'
'-x, y+1/2, -z+1/2'
'-x, -y, -z'
'x, -y-1/2, z-1/2'
loop_
_atom_site_label
_atom_site_type_symbol
_atom_site_fract_x
_atom_site_fract_y
_atom_site_fract_z
_atom_site_U_iso_or_equiv
_atom_site_adp_type
_atom_site_occupancy
_atom_site_site_symmetry_order
_atom_site_calc_flag
_atom_site_refinement_flags_posn
_atom_site_refinement_flags_adp
_atom_site_refinement_flags_occupancy
_atom_site_disorder_assembly
_atom_site_disorder_group
In3 In 0.21754(4) 0.40630(2) 0.85044(5) 0.02814(14) Uani 1 1 d . . . . .
In1 In 0.53012(4) 0.35507(2) 0.38669(5) 0.02996(14) Uani 1 1 d . . . . .
Sn1 Sn 0.76162(4) 0.36395(2) 0.51511(5) 0.03036(14) Uani 1 1 d . . . . .
In2 In 0.26833(4) 0.36502(2) 0.52226(5) 0.03141(15) Uani 1 1 d . . . . .
In4 In -0.00475(4) 0.37406(2) 0.63970(5) 0.03340(15) Uani 1 1 d . . . . .
Sn2 Sn 0.30931(5) 0.39235(2) 0.14995(5) 0.03527(15) Uani 1 1 d . . . . .
S10 S 0.22911(16) 0.34969(5) 0.98727(18) 0.0315(4) Uani 1 1 d . . . . .
S8 S 0.39149(16) 0.31704(6) 0.4658(2) 0.0366(5) Uani 1 1 d . . . . .
S4 S 0.60905(16) 0.40138(6) 0.5387(2) 0.0400(5) Uani 1 1 d . . . . .
S1 S 0.90751(16) 0.39804(7) 0.4406(2) 0.0401(5) Uani 1 1 d . . . . .
S12 S 0.12979(16) 0.32808(7) 0.6110(2) 0.0439(5) Uani 1 1 d . . . . .
S9 S 0.33849(19) 0.40983(7) 0.6794(2) 0.0469(6) Uani 1 1 d . . . . .
S6 S 0.2847(2) 0.44998(6) 0.0180(2) 0.0535(7) Uani 1 1 d . . . . .
S3 S 0.68753(18) 0.31548(7) 0.3773(2) 0.0469(6) Uani 1 1 d . . . . .
S11 S 0.0454(2) 0.42472(7) 0.7893(2) 0.0527(6) Uani 1 1 d . . . . .
S2 S 0.84102(17) 0.34044(8) 0.7132(2) 0.0545(7) Uani 1 1 d . . . . .
S5 S 0.49161(19) 0.38164(9) 0.1740(2) 0.0631(8) Uani 1 1 d . . . . .
S7 S 0.2015(2) 0.39972(9) 0.3336(2) 0.0672(9) Uani 1 1 d . . . . .
loop_
_atom_site_aniso_label
_atom_site_aniso_U_11
_atom_site_aniso_U_22
_atom_site_aniso_U_33
_atom_site_aniso_U_23
_atom_site_aniso_U_13
_atom_site_aniso_U_12
In3 0.0371(3) 0.0285(3) 0.0182(3) 0.0012(2) -0.0074(2) 0.0000(2)
In1 0.0212(3) 0.0444(3) 0.0240(3) 0.0005(2) -0.0040(2) -0.0005(2)
Sn1 0.0194(3) 0.0433(3) 0.0282(3) 0.0035(2) -0.0022(2) 0.0010(2)
In2 0.0264(3) 0.0479(3) 0.0199(3) 0.0000(2) -0.0009(2) -0.0016(2)
In4 0.0206(3) 0.0488(4) 0.0304(3) 0.0061(2) -0.0050(2) 0.0000(2)
Sn2 0.0466(4) 0.0398(3) 0.0188(3) 0.0011(2) -0.0079(2) -0.0004(3)
S10 0.0403(12) 0.0280(10) 0.0258(9) 0.0035(8) -0.0026(8) -0.0005(8)
S8 0.0301(11) 0.0446(12) 0.0354(11) -0.0004(9) 0.0058(9) -0.0040(9)
S4 0.0305(11) 0.0441(12) 0.0453(12) -0.0144(10) -0.0002(9) 0.0059(9)
S1 0.0298(11) 0.0618(14) 0.0286(10) 0.0159(9) -0.0001(8) -0.0051(10)
S12 0.0252(11) 0.0481(13) 0.0591(14) 0.0048(11) 0.0091(10) 0.0022(9)
S9 0.0510(14) 0.0626(15) 0.0275(11) -0.0071(10) 0.0049(10) -0.0262(12)
S6 0.097(2) 0.0301(11) 0.0318(11) -0.0007(9) -0.0200(12) -0.0079(12)
S3 0.0371(13) 0.0471(13) 0.0563(14) -0.0169(11) 0.0012(11) 0.0057(10)
S11 0.0515(15) 0.0513(14) 0.0539(14) -0.0111(11) -0.0198(12) 0.0184(11)
S2 0.0270(12) 0.094(2) 0.0417(13) 0.0334(13) -0.0025(10) -0.0079(12)
S5 0.0407(14) 0.116(2) 0.0319(12) 0.0308(14) -0.0096(10) -0.0190(14)
S7 0.076(2) 0.102(2) 0.0236(11) 0.0070(12) 0.0031(12) 0.0448(17)
loop_
_atom_type_symbol
_atom_type_description
_atom_type_scat_dispersion_real
_atom_type_scat_dispersion_imag
_atom_type_scat_source
In In -0.7276 1.3100 'International Tables Vol C Tables 4.2.6.8 and 6.1.1.4'
S S 0.1246 0.1234 'International Tables Vol C Tables 4.2.6.8 and 6.1.1.4'
Sn Sn -0.6537 1.4246 'International Tables Vol C Tables 4.2.6.8 and 6.1.1.4'
loop_
_geom_angle_atom_site_label_1
_geom_angle_atom_site_label_2
_geom_angle_atom_site_label_3
_geom_angle
_geom_angle_site_symmetry_1
_geom_angle_site_symmetry_3
_geom_angle_publ_flag
S10 In3 Sn2 47.65(5) . 1_556 ?
S10 In3 S6 95.08(7) . 1_556 ?
S9 In3 Sn2 117.84(6) . 1_556 ?
S9 In3 S10 115.90(8) . . ?
S9 In3 S6 104.96(9) . 1_556 ?
S6 In3 Sn2 47.58(5) 1_556 1_556 ?
S11 In3 Sn2 126.19(7) . 1_556 ?
S11 In3 S10 114.28(9) . . ?
S11 In3 S9 114.97(9) . . ?
S11 In3 S6 108.97(9) . 1_556 ?
S8 In1 Sn1 127.39(5) . . ?
S8 In1 S4 116.89(8) . . ?
S8 In1 S3 109.38(8) . . ?
S8 In1 S5 112.69(8) . . ?
S4 In1 Sn1 47.03(5) . . ?
S4 In1 S3 93.86(7) . . ?
S3 In1 Sn1 46.92(5) . . ?
S5 In1 Sn1 119.39(6) . . ?
S5 In1 S4 113.07(10) . . ?
S5 In1 S3 109.09(10) . . ?
In1 Sn1 In4 178.89(2) . 1_655 ?
S4 Sn1 In1 48.55(5) . . ?
S4 Sn1 In4 131.32(5) . 1_655 ?
S4 Sn1 S2 115.81(9) . . ?
S1 Sn1 In1 130.47(5) . . ?
S1 Sn1 In4 48.43(5) . 1_655 ?
S1 Sn1 S4 115.27(8) . . ?
S1 Sn1 S3 118.18(8) . . ?
S1 Sn1 S2 96.97(7) . . ?
S3 Sn1 In1 49.07(6) . . ?
S3 Sn1 In4 131.13(6) . 1_655 ?
S3 Sn1 S4 97.52(8) . . ?
S3 Sn1 S2 114.36(10) . . ?
S2 Sn1 In1 132.55(6) . . ?
S2 Sn1 In4 48.55(5) . 1_655 ?
S8 In2 S12 103.08(8) . . ?
S8 In2 S9 112.19(8) . . ?
S8 In2 S7 112.33(8) . . ?
S12 In2 S7 108.61(10) . . ?
S9 In2 S12 111.38(8) . . ?
S9 In2 S7 109.11(10) . . ?
S1 In4 Sn1 46.61(5) 1_455 1_455 ?
S1 In4 S2 93.45(7) 1_455 1_455 ?
S12 In4 Sn1 123.22(6) . 1_455 ?
S12 In4 S1 116.44(8) . 1_455 ?
S12 In4 S11 112.83(8) . . ?
S12 In4 S2 108.63(9) . 1_455 ?
S11 In4 Sn1 123.63(6) . 1_455 ?
S11 In4 S1 112.71(8) . 1_455 ?
S11 In4 S2 111.04(10) . 1_455 ?
S2 In4 Sn1 46.85(5) 1_455 1_455 ?
S10 Sn2 In3 47.24(4) 1_554 1_554 ?
S6 Sn2 In3 47.49(5) . 1_554 ?
S6 Sn2 S10 94.56(7) . 1_554 ?
S5 Sn2 In3 116.29(6) . 1_554 ?
S5 Sn2 S10 111.73(9) . 1_554 ?
S5 Sn2 S6 107.21(10) . . ?
S5 Sn2 S7 122.28(9) . . ?
S7 Sn2 In3 121.08(6) . 1_554 ?
S7 Sn2 S10 110.92(10) . 1_554 ?
S7 Sn2 S6 106.20(10) . . ?
In3 S10 Sn2 85.11(6) . 1_556 ?
In1 S8 In2 101.91(8) . . ?
Sn1 S4 In1 84.42(7) . . ?
Sn1 S1 In4 84.96(7) . 1_655 ?
In4 S12 In2 103.95(9) . . ?
In3 S9 In2 102.49(8) . . ?
In3 S6 Sn2 84.94(7) 1_554 . ?
Sn1 S3 In1 84.01(7) . . ?
In3 S11 In4 101.46(9) . . ?
Sn1 S2 In4 84.60(7) . 1_655 ?
Sn2 S5 In1 109.10(10) . . ?
Sn2 S7 In2 111.90(10) . . ?
loop_
_geom_bond_atom_site_label_1
_geom_bond_atom_site_label_2
_geom_bond_distance
_geom_bond_site_symmetry_2
_geom_bond_publ_flag
In3 Sn2 3.3166(7) 1_556 ?
In3 S10 2.4439(19) . ?
In3 S9 2.412(2) . ?
In3 S6 2.454(2) 1_556 ?
In3 S11 2.401(2) . ?
In1 Sn1 3.2719(7) . ?
In1 S8 2.414(2) . ?
In1 S4 2.464(2) . ?
In1 S3 2.485(2) . ?
In1 S5 2.425(2) . ?
Sn1 In4 3.2872(7) 1_655 ?
Sn1 S4 2.405(2) . ?
Sn1 S1 2.398(2) . ?
Sn1 S3 2.403(2) . ?
Sn1 S2 2.409(2) . ?
In2 S8 2.415(2) . ?
In2 S12 2.430(2) . ?
In2 S9 2.420(2) . ?
In2 S7 2.436(2) . ?
In4 Sn1 3.2872(7) 1_455 ?
In4 S1 2.469(2) 1_455 ?
In4 S12 2.412(2) . ?
In4 S11 2.434(2) . ?
In4 S2 2.475(2) 1_455 ?
Sn2 In3 3.3167(7) 1_554 ?
Sn2 S10 2.460(2) 1_554 ?
Sn2 S6 2.458(2) . ?
Sn2 S5 2.412(3) . ?
Sn2 S7 2.414(3) . ?
S10 Sn2 2.460(2) 1_556 ?
S1 In4 2.469(2) 1_655 ?
S6 In3 2.454(2) 1_554 ?
S2 In4 2.475(2) 1_655 ?
