#------------------------------------------------------------------------------
#$Date: 2021-03-05 04:04:50 +0200 (Fri, 05 Mar 2021) $
#$Revision: 262642 $
#$URL: file:///home/coder/svn-repositories/cod/cif/7/70/65/7706500.cif $
#------------------------------------------------------------------------------
#
# This file is available in the Crystallography Open Database (COD),
# http://www.crystallography.net/
#
# All data on this site have been placed in the public domain by the
# contributors.
#
data_7706500
loop_
_publ_author_name
'Khalaniya, R. A.'
'Sobolev, A. V.'
'Verchenko, V. Yu'
'Tsirlin, A. A.'
'Senyshyn, A.'
'Damay, F.'
'Presniakov, I. A.'
'Shevelkov, A. V.'
_publ_section_title
;
 Magnetic structures of Fe<sub>32+\d</sub>Ge<sub>33</sub>As<sub>2</sub>
 and Fe<sub>32+\d'</sub>Ge<sub>35-x</sub>P<sub>x</sub> intermetallic
 compounds: a neutron diffraction and <sup>57</sup>Fe M\"ossbauer
 spectroscopy study.
;
_journal_issue                   6
_journal_name_full
'Dalton transactions (Cambridge, England : 2003)'
_journal_page_first              2210
_journal_page_last               2220
_journal_paper_doi               10.1039/d0dt03923c
_journal_volume                  50
_journal_year                    2021
_chemical_formula_moiety         'Fe32.153 Ge33 As2'
_chemical_formula_sum            'As2 Fe32.153 Ge33'
_chemical_formula_weight         4341
_space_group_IT_number           191
_space_group_name_Hall           '-P 6 2'
_space_group_name_H-M_alt        'P 6/m m m'
_symmetry_cell_setting           hexagonal
_symmetry_Int_Tables_number      191
_symmetry_space_group_name_Hall  '-P 6 2'
_symmetry_space_group_name_H-M   'P 6/m m m'
_audit_creation_method           'Jana2006 Version : 25/04/2020'
_audit_update_record
;
2020-11-10 deposited with the CCDC.	2021-01-11 downloaded from the CCDC.
;
_cell_angle_alpha                90
_cell_angle_beta                 90
_cell_angle_gamma                120
_cell_formula_units_Z            1
_cell_length_a                   11.94294(5)
_cell_length_b                   11.94294(5)
_cell_length_c                   7.57546(5)
_cell_measurement_temperature    300
_cell_volume                     935.755(8)
_diffrn_ambient_temperature      300
_diffrn_detector_type            '80 position-sensitive 3He tubes'
_diffrn_measurement_device       'high resolution powder diffractometer'
_diffrn_measurement_device_type  'SPODI high resolution powder diffractometer'
_diffrn_radiation_monochromator  'Ge (551) monochromator'
_diffrn_radiation_probe          neutron
_diffrn_radiation_type           neutron
_diffrn_radiation_wavelength     1.5482
_exptl_absorpt_coefficient_mu    0.015
_exptl_crystal_density_diffrn    7.7032
_exptl_crystal_description       powder
_exptl_crystal_F_000             587.108
_pd_instr_location               ' ?'
_pd_meas_2theta_range_inc        0.05
_pd_meas_2theta_range_max        151.900
_pd_meas_2theta_range_min        0.950
_pd_meas_number_of_points        3020
_pd_proc_2theta_range_inc        0.05
_pd_proc_2theta_range_max        151.9
_pd_proc_2theta_range_min        6.05
_pd_proc_ls_background_function  '10 Legendre polynoms'
_pd_proc_ls_pref_orient_corr     none
_pd_proc_ls_profile_function     Gaussian
_pd_proc_ls_prof_R_factor        0.0234
_pd_proc_ls_prof_wR_expected     0.0140
_pd_proc_ls_prof_wR_factor       0.0277
_refine_ls_goodness_of_fit_all   1.98
_refine_ls_number_constraints    0
_refine_ls_number_parameters     61
_refine_ls_number_restraints     0
_refine_ls_R_factor_all          0.0142
_refine_ls_R_factor_gt           0.0138
_refine_ls_shift/su_max          0.0205
_refine_ls_shift/su_mean         0.0041
_refine_ls_weighting_scheme      sigma
_refine_ls_wR_factor_all         0.0189
_refine_ls_wR_factor_gt          0.0188
_cod_data_source_file            d0dt03923c2.cif
_cod_data_source_block           Fe32p1Ge33As2_300K
_cod_depositor_comments
'Adding full bibliography for 7706499--7706504.cif.'
_cod_original_cell_volume        935.754(8)
_cod_original_sg_symbol_Hall     '-P 6;-2'
_cod_original_formula_sum        'Fe32.153 Ge33 As2'
_cod_database_code               7706500
loop_
_space_group_symop_id
_space_group_symop_operation_xyz
1 x,y,z
2 -y,x-y,z
3 -x+y,-x,z
4 -x,-y,z
5 y,-x+y,z
6 x-y,x,z
7 y,x,-z
8 x-y,-y,-z
9 -x,-x+y,-z
10 -y,-x,-z
11 -x+y,y,-z
12 x,x-y,-z
13 -x,-y,-z
14 y,-x+y,-z
15 x-y,x,-z
16 x,y,-z
17 -y,x-y,-z
18 -x+y,-x,-z
19 -y,-x,z
20 -x+y,y,z
21 x,x-y,z
22 y,x,z
23 x-y,-y,z
24 -x,-x+y,z
loop_
_atom_site_label
_atom_site_type_symbol
_atom_site_fract_x
_atom_site_fract_y
_atom_site_fract_z
_atom_site_adp_type
_atom_site_U_iso_or_equiv
_atom_site_site_symmetry_multiplicity
_atom_site_occupancy
_atom_site_calc_flag
_atom_site_refinement_flags
_atom_site_disorder_assembly
_atom_site_disorder_group
As1 As 0 0 0.1655(3) Uani 0.0015(5) 2 1 d . . .
Ge1 Ge 0 0.22886(10) 0.5 Uani 0.0069(4) 6 1 d . . .
Fe1 Fe 0.21214(5) 0.42428(10) 0.5 Uani 0.0055(3) 6 1 d . . .
Ge2 Ge 0.43179(7) 0.56821(7) 0.5 Uani 0.0085(4) 6 1 d . . .
Ge3 Ge 0.24454(4) 0.48908(8) 0.19663(11) Uani 0.0161(3) 12 1 d . . .
Ge4 Ge 0.27450(10) 0 0 Uani 0.0075(4) 6 1 d . . .
Fe2 Fe 0.333333 0.666667 0 Uani 0.0097(6) 2 1 d . . .
Fe3 Fe 0 0.38562(6) 0.27890(10) Uani 0.0079(3) 12 1 d . . .
Ge5 Ge -0.0500(3) 0.47498(15) 0 Uani 0.0223(12) 6 0.5 d . . .
Fe4 Fe 0.12321(4) 0.24642(7) 0.23379(11) Uani 0.0073(2) 12 1 d . . .
Fe5 Fe 0 0 0.5 Uani 0.016(7) 1 0.153(13) d . . .
loop_
_atom_site_aniso_label
_atom_site_aniso_type_symbol
_atom_site_aniso_U_11
_atom_site_aniso_U_22
_atom_site_aniso_U_33
_atom_site_aniso_U_12
_atom_site_aniso_U_13
_atom_site_aniso_U_23
As1 As 0.0020(7) 0.0020(7) 0.000641 0.0010(3) 0 0
Ge1 Ge 0.0069(6) 0.0081(4) 0.0054(6) 0.0035(3) 0 0
Fe1 Fe 0.0060(4) 0.0043(5) 0.0056(5) 0.0022(2) 0 0
Ge2 Ge 0.0046(4) 0.0046(4) 0.0102(7) -0.0023(5) 0 0
Ge3 Ge 0.0250(5) 0.0080(4) 0.0095(5) 0.0040(2) 0.00078(17) 0.0016(3)
Ge4 Ge 0.0093(4) 0.0094(6) 0.0037(7) 0.0047(3) 0 0
Fe2 Fe 0.0117(6) 0.0117(6) 0.0058(11) 0.0058(3) 0 0
Fe3 Fe 0.0091(4) 0.0077(3) 0.0074(4) 0.0045(2) 0 0.0007(3)
Ge5 Ge 0.053(2) 0.0206(9) 0.004 0.0265(12) 0 0
Fe4 Fe 0.0061(3) 0.0074(4) 0.0087(4) 0.00371(18) -0.00038(14) -0.0008(3)
Fe5 Fe 0.017(8) 0.017(8) 0.013(12) 0.009(4) 0 0
loop_
_atom_type_symbol
_atom_type_scat_length_neutron
_atom_type_scat_source
Fe 9.450 International_Tables_Vol_C
Ge 8.185 International_Tables_Vol_C
As 6.580 International_Tables_Vol_C
loop_
_exptl_crystal_face_index_h
_exptl_crystal_face_index_k
_exptl_crystal_face_index_l
_exptl_crystal_face_perp_dist
? ? ? ?
loop_
_geom_angle_atom_site_label_1
_geom_angle_atom_site_label_2
_geom_angle_atom_site_label_3
_geom_angle_site_symmetry_1
_geom_angle_site_symmetry_2
_geom_angle_site_symmetry_3
_geom_angle
_geom_angle_publ_flag
As1 As1 Fe4 7_555 . . 101.48(5) ?
As1 As1 Fe4 7_555 . 2_555 101.48(5) ?
As1 As1 Fe4 7_555 . 3_555 101.48(5) ?
As1 As1 Fe4 7_555 . 4_555 101.48(5) ?
As1 As1 Fe4 7_555 . 5_555 101.48(5) ?
As1 As1 Fe4 7_555 . 6_555 101.48(5) ?
As1 As1 Fe5 7_555 . . 180 ?
Fe4 As1 Fe4 . . 2_555 116.14(4) ?
Fe4 As1 Fe4 . . 3_555 116.14(4) ?
Fe4 As1 Fe4 . . 4_555 157.04(10) ?
Fe4 As1 Fe4 . . 5_555 58.68(3) ?
Fe4 As1 Fe4 . . 6_555 58.68(2) ?
Fe4 As1 Fe5 . . . 78.52(5) ?
Fe4 As1 Fe4 2_555 . 3_555 116.14(4) ?
Fe4 As1 Fe4 2_555 . 4_555 58.68(3) ?
Fe4 As1 Fe4 2_555 . 5_555 157.04(10) ?
Fe4 As1 Fe4 2_555 . 6_555 58.68(3) ?
Fe4 As1 Fe5 2_555 . . 78.52(5) ?
Fe4 As1 Fe4 3_555 . 4_555 58.68(2) ?
Fe4 As1 Fe4 3_555 . 5_555 58.68(3) ?
Fe4 As1 Fe4 3_555 . 6_555 157.04(10) ?
Fe4 As1 Fe5 3_555 . . 78.52(5) ?
Fe4 As1 Fe4 4_555 . 5_555 116.14(4) ?
Fe4 As1 Fe4 4_555 . 6_555 116.14(4) ?
Fe4 As1 Fe5 4_555 . . 78.52(5) ?
Fe4 As1 Fe4 5_555 . 6_555 116.14(4) ?
Fe4 As1 Fe5 5_555 . . 78.52(5) ?
Fe4 As1 Fe5 6_555 . . 78.52(5) ?
Ge1 Ge1 Ge1 5_555 . 6_555 120.00(5) ?
Ge1 Ge1 Fe1 5_555 . . 55.94(3) ?
Ge1 Ge1 Fe1 5_555 . 6_555 175.94(5) ?
Ge1 Ge1 Fe3 5_555 . . 111.878(19) ?
Ge1 Ge1 Fe3 5_555 . 9_556 111.878(19) ?
Ge1 Ge1 Fe4 5_555 . . 55.98(2) ?
Ge1 Ge1 Fe4 5_555 . 6_555 110.13(4) ?
Ge1 Ge1 Fe4 5_555 . 9_556 110.13(3) ?
Ge1 Ge1 Fe4 5_555 . 11_556 55.98(3) ?
Ge1 Ge1 Fe5 5_555 . . 60.00(3) ?
Ge1 Ge1 Fe1 6_555 . . 175.94(6) ?
Ge1 Ge1 Fe1 6_555 . 6_555 55.94(3) ?
Ge1 Ge1 Fe3 6_555 . . 111.878(19) ?
Ge1 Ge1 Fe3 6_555 . 9_556 111.878(19) ?
Ge1 Ge1 Fe4 6_555 . . 110.13(3) ?
Ge1 Ge1 Fe4 6_555 . 6_555 55.983(18) ?
Ge1 Ge1 Fe4 6_555 . 9_556 55.983(19) ?
Ge1 Ge1 Fe4 6_555 . 11_556 110.13(3) ?
Ge1 Ge1 Fe5 6_555 . . 60.00(3) ?
Fe1 Ge1 Fe1 . . 6_555 128.13(6) ?
Fe1 Ge1 Fe3 . . . 70.98(3) ?
Fe1 Ge1 Fe3 . . 9_556 70.98(3) ?
Fe1 Ge1 Fe4 . . . 67.979(19) ?
Fe1 Ge1 Fe4 . . 6_555 124.28(2) ?
Fe1 Ge1 Fe4 . . 9_556 124.285(19) ?
Fe1 Ge1 Fe4 . . 11_556 67.98(2) ?
Fe1 Ge1 Fe5 . . . 115.94(4) ?
Fe1 Ge1 Fe3 6_555 . . 70.98(3) ?
Fe1 Ge1 Fe3 6_555 . 9_556 70.98(3) ?
Fe1 Ge1 Fe4 6_555 . . 124.28(2) ?
Fe1 Ge1 Fe4 6_555 . 6_555 67.98(2) ?
Fe1 Ge1 Fe4 6_555 . 9_556 67.979(19) ?
Fe1 Ge1 Fe4 6_555 . 11_556 124.28(3) ?
Fe1 Ge1 Fe5 6_555 . . 115.94(3) ?
Fe3 Ge1 Fe3 . . 9_556 83.64(4) ?
Fe3 Ge1 Fe4 . . . 67.05(3) ?
Fe3 Ge1 Fe4 . . 6_555 67.05(2) ?
Fe3 Ge1 Fe4 . . 9_556 135.31(4) ?
Fe3 Ge1 Fe4 . . 11_556 135.31(4) ?
Fe3 Ge1 Fe5 . . . 138.18(2) ?
Fe3 Ge1 Fe4 9_556 . . 135.31(4) ?
Fe3 Ge1 Fe4 9_556 . 6_555 135.31(4) ?
Fe3 Ge1 Fe4 9_556 . 9_556 67.05(3) ?
Fe3 Ge1 Fe4 9_556 . 11_556 67.05(3) ?
Fe3 Ge1 Fe5 9_556 . . 138.18(2) ?
Fe4 Ge1 Fe4 . . 6_555 62.89(3) ?
Fe4 Ge1 Fe4 . . 9_556 155.13(6) ?
Fe4 Ge1 Fe4 . . 11_556 111.28(3) ?
Fe4 Ge1 Fe5 . . . 77.56(3) ?
Fe4 Ge1 Fe4 6_555 . 9_556 111.28(3) ?
Fe4 Ge1 Fe4 6_555 . 11_556 155.13(6) ?
Fe4 Ge1 Fe5 6_555 . . 77.56(3) ?
Fe4 Ge1 Fe4 9_556 . 11_556 62.89(2) ?
Fe4 Ge1 Fe5 9_556 . . 77.56(4) ?
Fe4 Ge1 Fe5 11_556 . . 77.56(4) ?
Ge1 Fe1 Ge1 . . 5_555 68.13(4) ?
Ge1 Fe1 Ge2 . . . 164.23(7) ?
Ge1 Fe1 Ge2 . . 3_565 96.10(4) ?
Ge1 Fe1 Ge3 . . . 103.411(18) ?
Ge1 Fe1 Ge3 . . 11_556 103.41(2) ?
Ge1 Fe1 Fe3 . . . 55.68(2) ?
Ge1 Fe1 Fe3 . . 5_555 109.47(4) ?
Ge1 Fe1 Fe3 . . 9_556 55.68(2) ?
Ge1 Fe1 Fe3 . . 11_556 109.47(4) ?
Ge1 Fe1 Fe4 . . . 56.06(2) ?
Ge1 Fe1 Fe4 . . 11_556 56.06(2) ?
Ge1 Fe1 Ge2 5_555 . . 96.10(5) ?
Ge1 Fe1 Ge2 5_555 . 3_565 164.23(4) ?
Ge1 Fe1 Ge3 5_555 . . 103.41(4) ?
Ge1 Fe1 Ge3 5_555 . 11_556 103.41(4) ?
Ge1 Fe1 Fe3 5_555 . . 109.47(3) ?
Ge1 Fe1 Fe3 5_555 . 5_555 55.68(3) ?
Ge1 Fe1 Fe3 5_555 . 9_556 109.47(3) ?
Ge1 Fe1 Fe3 5_555 . 11_556 55.68(3) ?
Ge1 Fe1 Fe4 5_555 . . 56.06(3) ?
Ge1 Fe1 Fe4 5_555 . 11_556 56.06(3) ?
Ge2 Fe1 Ge2 . . 3_565 99.67(5) ?
Ge2 Fe1 Ge3 . . . 79.597(18) ?
Ge2 Fe1 Ge3 . . 11_556 79.60(3) ?
Ge2 Fe1 Fe3 . . . 134.56(3) ?
Ge2 Fe1 Fe3 . . 5_555 58.51(2) ?
Ge2 Fe1 Fe3 . . 9_556 134.56(3) ?
Ge2 Fe1 Fe3 . . 11_556 58.51(2) ?
Ge2 Fe1 Fe4 . . . 115.76(3) ?
Ge2 Fe1 Fe4 . . 11_556 115.76(3) ?
Ge2 Fe1 Ge3 3_565 . . 79.60(4) ?
Ge2 Fe1 Ge3 3_565 . 11_556 79.60(4) ?
Ge2 Fe1 Fe3 3_565 . . 58.51(3) ?
Ge2 Fe1 Fe3 3_565 . 5_555 134.56(3) ?
Ge2 Fe1 Fe3 3_565 . 9_556 58.51(3) ?
Ge2 Fe1 Fe3 3_565 . 11_556 134.56(3) ?
Ge2 Fe1 Fe4 3_565 . . 115.76(3) ?
Ge2 Fe1 Fe4 3_565 . 11_556 115.76(3) ?
Ge3 Fe1 Ge3 . . 11_556 147.48(5) ?
Ge3 Fe1 Fe3 . . . 58.65(2) ?
Ge3 Fe1 Fe3 . . 5_555 58.65(3) ?
Ge3 Fe1 Fe3 . . 9_556 126.74(4) ?
Ge3 Fe1 Fe3 . . 11_556 126.74(3) ?
Ge3 Fe1 Fe4 . . . 58.63(3) ?
Ge3 Fe1 Fe4 . . 11_556 153.89(5) ?
Ge3 Fe1 Fe3 11_556 . . 126.74(5) ?
Ge3 Fe1 Fe3 11_556 . 5_555 126.74(4) ?
Ge3 Fe1 Fe3 11_556 . 9_556 58.65(3) ?
Ge3 Fe1 Fe3 11_556 . 11_556 58.65(4) ?
Ge3 Fe1 Fe4 11_556 . . 153.89(5) ?
Ge3 Fe1 Fe4 11_556 . 11_556 58.63(3) ?
Fe3 Fe1 Fe3 . . 5_555 106.42(2) ?
Fe3 Fe1 Fe3 . . 9_556 71.26(2) ?
Fe3 Fe1 Fe3 . . 11_556 164.01(4) ?
Fe3 Fe1 Fe4 . . . 58.39(2) ?
Fe3 Fe1 Fe4 . . 11_556 109.67(3) ?
Fe3 Fe1 Fe3 5_555 . 9_556 164.01(4) ?
Fe3 Fe1 Fe3 5_555 . 11_556 71.26(3) ?
Fe3 Fe1 Fe4 5_555 . . 58.39(2) ?
Fe3 Fe1 Fe4 5_555 . 11_556 109.67(5) ?
Fe3 Fe1 Fe3 9_556 . 11_556 106.42(2) ?
Fe3 Fe1 Fe4 9_556 . . 109.67(2) ?
Fe3 Fe1 Fe4 9_556 . 11_556 58.39(3) ?
Fe3 Fe1 Fe4 11_556 . . 109.67(5) ?
Fe3 Fe1 Fe4 11_556 . 11_556 58.39(3) ?
Fe4 Fe1 Fe4 . . 11_556 95.26(4) ?
Fe1 Ge2 Fe1 . . 2_665 140.33(6) ?
Fe1 Ge2 Ge2 . . 4_665 109.84(4) ?
Fe1 Ge2 Fe3 . . 2_665 133.10(3) ?
Fe1 Ge2 Fe3 . . 5_555 71.80(3) ?
Fe1 Ge2 Fe3 . . 8_666 133.10(3) ?
Fe1 Ge2 Fe3 . . 11_556 71.80(3) ?
Fe1 Ge2 Ge2 2_665 . 4_665 109.84(5) ?
Fe1 Ge2 Fe3 2_665 . 2_665 71.80(3) ?
Fe1 Ge2 Fe3 2_665 . 5_555 133.10(3) ?
Fe1 Ge2 Fe3 2_665 . 8_666 71.80(3) ?
Fe1 Ge2 Fe3 2_665 . 11_556 133.10(3) ?
Ge2 Ge2 Fe3 4_665 . 2_665 56.86(3) ?
Ge2 Ge2 Fe3 4_665 . 5_555 56.86(3) ?
Ge2 Ge2 Fe3 4_665 . 8_666 56.86(3) ?
Ge2 Ge2 Fe3 4_665 . 11_556 56.86(3) ?
Fe3 Ge2 Fe3 2_665 . 5_555 63.91(2) ?
Fe3 Ge2 Fe3 2_665 . 8_666 80.92(3) ?
Fe3 Ge2 Fe3 2_665 . 11_556 113.73(4) ?
Fe3 Ge2 Fe3 5_555 . 8_666 113.73(4) ?
Fe3 Ge2 Fe3 5_555 . 11_556 80.92(3) ?
Fe3 Ge2 Fe3 8_666 . 11_556 63.91(2) ?
Fe1 Ge3 Ge3 . . 11_555 163.74(5) ?
Fe1 Ge3 Fe2 . . . 145.30(5) ?
Fe1 Ge3 Fe3 . . . 69.92(3) ?
Fe1 Ge3 Fe3 . . 5_555 69.92(4) ?
Fe1 Ge3 Ge5 . . 4_565 121.15(5) ?
Fe1 Ge3 Ge5 . . 5_555 121.15(5) ?
Fe1 Ge3 Fe4 . . . 67.34(4) ?
Ge3 Ge3 Fe2 11_555 . . 50.96(2) ?
Ge3 Ge3 Fe3 11_555 . . 103.79(3) ?
Ge3 Ge3 Fe3 11_555 . 5_555 103.79(4) ?
Ge3 Ge3 Ge5 11_555 . 4_565 59.85(5) ?
Ge3 Ge3 Ge5 11_555 . 5_555 59.85(4) ?
Ge3 Ge3 Fe4 11_555 . . 96.40(4) ?
Fe2 Ge3 Fe3 . . . 117.91(4) ?
Fe2 Ge3 Fe3 . . 5_555 117.91(3) ?
Fe2 Ge3 Ge5 . . 4_565 65.56(4) ?
Fe2 Ge3 Ge5 . . 5_555 65.56(7) ?
Fe2 Ge3 Fe4 . . . 147.36(4) ?
Fe3 Ge3 Fe3 . . 5_555 123.46(4) ?
Fe3 Ge3 Ge5 . . 4_565 54.37(4) ?
Fe3 Ge3 Ge5 . . 5_555 157.60(6) ?
Fe3 Ge3 Fe4 . . . 64.32(2) ?
Fe3 Ge3 Ge5 5_555 . 4_565 157.60(5) ?
Fe3 Ge3 Ge5 5_555 . 5_555 54.37(6) ?
Fe3 Ge3 Fe4 5_555 . . 64.32(3) ?
Ge5 Ge3 Ge5 4_565 . 5_555 117.65(6) ?
Ge5 Ge3 Fe4 4_565 . . 100.40(4) ?
Ge5 Ge3 Fe4 5_555 . . 100.40(8) ?
Fe3 Ge4 Fe3 3_555 . 7_555 115.73(5) ?
Fe3 Ge4 Ge5 3_555 . 3_555 58.51(3) ?
Fe3 Ge4 Ge5 3_555 . 6_655 58.51(3) ?
Fe3 Ge4 Fe4 3_555 . 3_555 67.50(3) ?
Fe3 Ge4 Fe4 3_555 . 5_555 67.50(3) ?
Fe3 Ge4 Fe4 3_555 . 7_555 148.366(15) ?
Fe3 Ge4 Fe4 3_555 . 12_555 148.37(2) ?
Fe3 Ge4 Ge5 7_555 . 3_555 58.51(3) ?
Fe3 Ge4 Ge5 7_555 . 6_655 58.51(3) ?
Fe3 Ge4 Fe4 7_555 . 3_555 148.366(17) ?
Fe3 Ge4 Fe4 7_555 . 5_555 148.366(19) ?
Fe3 Ge4 Fe4 7_555 . 7_555 67.50(2) ?
Fe3 Ge4 Fe4 7_555 . 12_555 67.50(2) ?
Ge5 Ge4 Ge5 3_555 . 6_655 21.76(9) ?
Ge5 Ge4 Fe4 3_555 . 3_555 122.12(5) ?
Ge5 Ge4 Fe4 3_555 . 5_555 109.50(5) ?
Ge5 Ge4 Fe4 3_555 . 7_555 109.50(5) ?
Ge5 Ge4 Fe4 3_555 . 12_555 122.12(5) ?
Ge5 Ge4 Fe4 6_655 . 3_555 109.50(5) ?
Ge5 Ge4 Fe4 6_655 . 5_555 122.12(5) ?
Ge5 Ge4 Fe4 6_655 . 7_555 122.12(4) ?
Ge5 Ge4 Fe4 6_655 . 12_555 109.50(5) ?
Fe4 Ge4 Fe4 3_555 . 5_555 63.24(3) ?
Fe4 Ge4 Fe4 3_555 . 7_555 127.71(6) ?
Fe4 Ge4 Fe4 3_555 . 12_555 93.55(3) ?
Fe4 Ge4 Fe4 5_555 . 7_555 93.55(4) ?
Fe4 Ge4 Fe4 5_555 . 12_555 127.71(6) ?
Fe4 Ge4 Fe4 7_555 . 12_555 63.24(3) ?
Ge3 Fe2 Ge3 . . 2_665 84.54(3) ?
Ge3 Fe2 Ge3 . . 3_565 84.54(3) ?
Ge3 Fe2 Ge3 . . 10_665 134.30(3) ?
Ge3 Fe2 Ge3 . . 11_555 78.08(3) ?
Ge3 Fe2 Ge3 . . 12_565 134.297(19) ?
Ge3 Fe2 Ge5 . . 4_565 67.15(4) ?
Ge3 Fe2 Ge5 . . 5_555 67.15(4) ?
Ge3 Fe2 Ge5 . . 6_665 140.96(2) ?
Ge3 Fe2 Ge3 2_665 . 3_565 84.54(4) ?
Ge3 Fe2 Ge3 2_665 . 10_665 78.08(3) ?
Ge3 Fe2 Ge3 2_665 . 11_555 134.30(4) ?
Ge3 Fe2 Ge3 2_665 . 12_565 134.30(3) ?
Ge3 Fe2 Ge5 2_665 . 4_565 140.96(2) ?
Ge3 Fe2 Ge5 2_665 . 5_555 67.15(4) ?
Ge3 Fe2 Ge5 2_665 . 6_665 67.15(7) ?
Ge3 Fe2 Ge3 3_565 . 10_665 134.297(19) ?
Ge3 Fe2 Ge3 3_565 . 11_555 134.30(3) ?
Ge3 Fe2 Ge3 3_565 . 12_565 78.08(3) ?
Ge3 Fe2 Ge5 3_565 . 4_565 67.15(4) ?
Ge3 Fe2 Ge5 3_565 . 5_555 140.96(2) ?
Ge3 Fe2 Ge5 3_565 . 6_665 67.15(6) ?
Ge3 Fe2 Ge3 10_665 . 11_555 84.54(3) ?
Ge3 Fe2 Ge3 10_665 . 12_565 84.54(3) ?
Ge3 Fe2 Ge5 10_665 . 4_565 140.96(2) ?
Ge3 Fe2 Ge5 10_665 . 5_555 67.15(4) ?
Ge3 Fe2 Ge5 10_665 . 6_665 67.15(6) ?
Ge3 Fe2 Ge3 11_555 . 12_565 84.54(4) ?
Ge3 Fe2 Ge5 11_555 . 4_565 67.15(4) ?
Ge3 Fe2 Ge5 11_555 . 5_555 67.15(4) ?
Ge3 Fe2 Ge5 11_555 . 6_665 140.96(2) ?
Ge3 Fe2 Ge5 12_565 . 4_565 67.15(4) ?
Ge3 Fe2 Ge5 12_565 . 5_555 140.96(2) ?
Ge3 Fe2 Ge5 12_565 . 6_665 67.15(6) ?
Ge5 Fe2 Ge5 4_565 . 5_555 120.00(6) ?
Ge5 Fe2 Ge5 4_565 . 6_665 120.00(10) ?
Ge5 Fe2 Ge5 5_555 . 6_665 120.00(9) ?
Ge1 Fe3 Fe1 . . . 53.34(2) ?
Ge1 Fe3 Fe1 . . 6_555 53.34(3) ?
Ge1 Fe3 Ge2 . . 3_565 87.81(3) ?
Ge1 Fe3 Ge2 . . 6_555 87.81(3) ?
Ge1 Fe3 Ge3 . . . 95.45(3) ?
Ge1 Fe3 Ge3 . . 6_555 95.45(2) ?
Ge1 Fe3 Ge4 . . 2_555 99.68(4) ?
Ge1 Fe3 Fe3 . . 4_565 138.18(4) ?
Ge1 Fe3 Ge5 . . . 160.87(4) ?
Ge1 Fe3 Ge5 . . 4_565 160.87(8) ?
Ge1 Fe3 Fe4 . . . 55.27(3) ?
Ge1 Fe3 Fe4 . . 6_555 55.27(3) ?
Fe1 Fe3 Fe1 . . 6_555 99.47(3) ?
Fe1 Fe3 Ge2 . . 3_565 49.69(4) ?
Fe1 Fe3 Ge2 . . 6_555 100.79(3) ?
Fe1 Fe3 Ge3 . . . 51.44(2) ?
Fe1 Fe3 Ge3 . . 6_555 148.54(4) ?
Fe1 Fe3 Ge4 . . 2_555 110.14(3) ?
Fe1 Fe3 Fe3 . . 4_565 106.26(3) ?
Fe1 Fe3 Ge5 . . . 141.43(6) ?
Fe1 Fe3 Ge5 . . 4_565 118.31(7) ?
Fe1 Fe3 Fe4 . . . 58.14(3) ?
Fe1 Fe3 Fe4 . . 6_555 100.53(4) ?
Fe1 Fe3 Ge2 6_555 . 3_565 100.79(3) ?
Fe1 Fe3 Ge2 6_555 . 6_555 49.69(2) ?
Fe1 Fe3 Ge3 6_555 . . 148.54(4) ?
Fe1 Fe3 Ge3 6_555 . 6_555 51.44(2) ?
Fe1 Fe3 Ge4 6_555 . 2_555 110.14(2) ?
Fe1 Fe3 Fe3 6_555 . 4_565 106.26(3) ?
Fe1 Fe3 Ge5 6_555 . . 118.31(7) ?
Fe1 Fe3 Ge5 6_555 . 4_565 141.43(8) ?
Fe1 Fe3 Fe4 6_555 . . 100.53(3) ?
Fe1 Fe3 Fe4 6_555 . 6_555 58.14(2) ?
Ge2 Fe3 Ge2 3_565 . 6_555 66.27(3) ?
Ge2 Fe3 Ge3 3_565 . . 70.81(3) ?
Ge2 Fe3 Ge3 3_565 . 6_555 136.80(4) ?
Ge2 Fe3 Ge4 3_565 . 2_555 146.20(2) ?
Ge2 Fe3 Fe3 3_565 . 4_565 58.05(3) ?
Ge2 Fe3 Ge5 3_565 . . 111.25(4) ?
Ge2 Fe3 Ge5 3_565 . 4_565 98.17(4) ?
Ge2 Fe3 Fe4 3_565 . . 106.87(3) ?
Ge2 Fe3 Fe4 3_565 . 6_555 143.05(4) ?
Ge2 Fe3 Ge3 6_555 . . 136.80(3) ?
Ge2 Fe3 Ge3 6_555 . 6_555 70.81(3) ?
Ge2 Fe3 Ge4 6_555 . 2_555 146.20(2) ?
Ge2 Fe3 Fe3 6_555 . 4_565 58.05(2) ?
Ge2 Fe3 Ge5 6_555 . . 98.17(7) ?
Ge2 Fe3 Ge5 6_555 . 4_565 111.25(8) ?
Ge2 Fe3 Fe4 6_555 . . 143.05(4) ?
Ge2 Fe3 Fe4 6_555 . 6_555 106.87(3) ?
Ge3 Fe3 Ge3 . . 6_555 150.65(4) ?
Ge3 Fe3 Ge4 . . 2_555 75.67(2) ?
Ge3 Fe3 Fe3 . . 4_565 94.93(3) ?
Ge3 Fe3 Ge5 . . . 92.56(7) ?
Ge3 Fe3 Ge5 . . 4_565 69.80(8) ?
Ge3 Fe3 Fe4 . . . 56.26(3) ?
Ge3 Fe3 Fe4 . . 6_555 110.20(4) ?
Ge3 Fe3 Ge4 6_555 . 2_555 75.67(3) ?
Ge3 Fe3 Fe3 6_555 . 4_565 94.93(2) ?
Ge3 Fe3 Ge5 6_555 . . 69.80(6) ?
Ge3 Fe3 Ge5 6_555 . 4_565 92.56(7) ?
Ge3 Fe3 Fe4 6_555 . . 110.20(3) ?
Ge3 Fe3 Fe4 6_555 . 6_555 56.26(3) ?
Ge4 Fe3 Fe3 2_555 . 4_565 122.13(4) ?
Ge4 Fe3 Ge5 2_555 . . 65.57(6) ?
Ge4 Fe3 Ge5 2_555 . 4_565 65.57(5) ?
Ge4 Fe3 Fe4 2_555 . . 55.13(3) ?
Ge4 Fe3 Fe4 2_555 . 6_555 55.13(3) ?
Fe3 Fe3 Ge5 4_565 . . 57.87(5) ?
Fe3 Fe3 Ge5 4_565 . 4_565 57.87(6) ?
Fe3 Fe3 Fe4 4_565 . . 151.183(16) ?
Fe3 Fe3 Fe4 4_565 . 6_555 151.18(2) ?
Ge5 Fe3 Ge5 . . 4_565 23.25(9) ?
Ge5 Fe3 Fe4 . . . 117.20(7) ?
Ge5 Fe3 Fe4 . . 6_555 105.63(4) ?
Ge5 Fe3 Fe4 4_565 . . 105.63(8) ?
Ge5 Fe3 Fe4 4_565 . 6_555 117.20(4) ?
Fe4 Fe3 Fe4 . . 6_555 55.49(3) ?
Ge3 Ge5 Ge3 4_565 . 6_555 64.87(6) ?
Ge3 Ge5 Ge3 4_565 . 8_565 60.30(8) ?
Ge3 Ge5 Ge3 4_565 . 9_555 94.58(9) ?
Ge3 Ge5 Ge4 4_565 . 2_555 130.90(5) ?
Ge3 Ge5 Ge4 4_565 . 5_565 66.50(7) ?
Ge3 Ge5 Fe2 4_565 . 4_565 47.29(5) ?
Ge3 Ge5 Fe3 4_565 . . 90.50(4) ?
Ge3 Ge5 Fe3 4_565 . 4_565 55.83(5) ?
Ge3 Ge5 Fe3 4_565 . 9_555 146.62(10) ?
Ge3 Ge5 Fe3 4_565 . 12_565 105.34(11) ?
Ge3 Ge5 Ge5 4_565 . 4_565 132.71(14) ?
Ge3 Ge5 Ge3 6_555 . 8_565 94.58(9) ?
Ge3 Ge5 Ge3 6_555 . 9_555 60.30(4) ?
Ge3 Ge5 Ge4 6_555 . 2_555 66.50(4) ?
Ge3 Ge5 Ge4 6_555 . 5_565 130.90(11) ?
Ge3 Ge5 Fe2 6_555 . 4_565 47.29(4) ?
Ge3 Ge5 Fe3 6_555 . . 55.83(3) ?
Ge3 Ge5 Fe3 6_555 . 4_565 90.50(4) ?
Ge3 Ge5 Fe3 6_555 . 9_555 105.34(6) ?
Ge3 Ge5 Fe3 6_555 . 12_565 146.62(10) ?
Ge3 Ge5 Ge5 6_555 . 4_565 132.71(19) ?
Ge3 Ge5 Ge3 8_565 . 9_555 64.87(6) ?
Ge3 Ge5 Ge4 8_565 . 2_555 130.90(5) ?
Ge3 Ge5 Ge4 8_565 . 5_565 66.50(7) ?
Ge3 Ge5 Fe2 8_565 . 4_565 47.29(5) ?
Ge3 Ge5 Fe3 8_565 . . 146.62(11) ?
Ge3 Ge5 Fe3 8_565 . 4_565 105.34(11) ?
Ge3 Ge5 Fe3 8_565 . 9_555 90.50(4) ?
Ge3 Ge5 Fe3 8_565 . 12_565 55.83(5) ?
Ge3 Ge5 Ge5 8_565 . 4_565 132.71(14) ?
Ge3 Ge5 Ge4 9_555 . 2_555 66.50(4) ?
Ge3 Ge5 Ge4 9_555 . 5_565 130.90(11) ?
Ge3 Ge5 Fe2 9_555 . 4_565 47.29(4) ?
Ge3 Ge5 Fe3 9_555 . . 105.34(6) ?
Ge3 Ge5 Fe3 9_555 . 4_565 146.62(10) ?
Ge3 Ge5 Fe3 9_555 . 9_555 55.83(3) ?
Ge3 Ge5 Fe3 9_555 . 12_565 90.50(4) ?
Ge3 Ge5 Ge5 9_555 . 4_565 132.71(19) ?
Ge4 Ge5 Ge4 2_555 . 5_565 158.24(13) ?
Ge4 Ge5 Fe2 2_555 . 4_565 100.88(5) ?
Ge4 Ge5 Fe3 2_555 . . 55.92(6) ?
Ge4 Ge5 Fe3 2_555 . 4_565 118.96(8) ?
Ge4 Ge5 Fe3 2_555 . 9_555 55.92(6) ?
Ge4 Ge5 Fe3 2_555 . 12_565 118.96(8) ?
Ge4 Ge5 Ge5 2_555 . 4_565 79.1(2) ?
Ge4 Ge5 Fe2 5_565 . 4_565 100.88(11) ?
Ge4 Ge5 Fe3 5_565 . . 118.96(4) ?
Ge4 Ge5 Fe3 5_565 . 4_565 55.92(4) ?
Ge4 Ge5 Fe3 5_565 . 9_555 118.96(4) ?
Ge4 Ge5 Fe3 5_565 . 12_565 55.92(4) ?
Ge4 Ge5 Ge5 5_565 . 4_565 79.12(17) ?
Fe2 Ge5 Fe3 4_565 . . 101.63(5) ?
Fe2 Ge5 Fe3 4_565 . 4_565 101.63(9) ?
Fe2 Ge5 Fe3 4_565 . 9_555 101.63(5) ?
Fe2 Ge5 Fe3 4_565 . 12_565 101.63(9) ?
Fe2 Ge5 Ge5 4_565 . 4_565 180 ?
Fe3 Ge5 Fe3 . . 4_565 64.26(3) ?
Fe3 Ge5 Fe3 . . 9_555 110.68(12) ?
Fe3 Ge5 Fe3 . . 12_565 156.75(13) ?
Fe3 Ge5 Ge5 . . 4_565 78.37(15) ?
Fe3 Ge5 Fe3 4_565 . 9_555 156.75(13) ?
Fe3 Ge5 Fe3 4_565 . 12_565 110.68(7) ?
Fe3 Ge5 Ge5 4_565 . 4_565 78.37(9) ?
Fe3 Ge5 Fe3 9_555 . 12_565 64.26(3) ?
Fe3 Ge5 Ge5 9_555 . 4_565 78.37(15) ?
Fe3 Ge5 Ge5 12_565 . 4_565 78.37(9) ?
As1 Fe4 Ge1 . . . 95.25(5) ?
As1 Fe4 Ge1 . . 5_555 95.25(6) ?
As1 Fe4 Fe1 . . . 143.85(6) ?
As1 Fe4 Ge3 . . . 162.12(6) ?
As1 Fe4 Ge4 . . 2_555 88.40(5) ?
As1 Fe4 Ge4 . . 6_555 88.40(5) ?
As1 Fe4 Fe3 . . . 122.705(17) ?
As1 Fe4 Fe3 . . 5_555 122.70(4) ?
As1 Fe4 Fe4 . . 5_555 60.66(3) ?
As1 Fe4 Fe4 . . 6_555 60.66(2) ?
Ge1 Fe4 Ge1 . . 5_555 68.03(4) ?
Ge1 Fe4 Fe1 . . . 55.96(3) ?
Ge1 Fe4 Ge3 . . . 99.55(4) ?
Ge1 Fe4 Ge4 . . 2_555 103.48(3) ?
Ge1 Fe4 Ge4 . . 6_555 171.00(3) ?
Ge1 Fe4 Fe3 . . . 57.68(3) ?
Ge1 Fe4 Fe3 . . 5_555 114.00(3) ?
Ge1 Fe4 Fe4 . . 5_555 116.57(5) ?
Ge1 Fe4 Fe4 . . 6_555 58.56(2) ?
Ge1 Fe4 Fe1 5_555 . . 55.96(4) ?
Ge1 Fe4 Ge3 5_555 . . 99.55(4) ?
Ge1 Fe4 Ge4 5_555 . 2_555 171.00(5) ?
Ge1 Fe4 Ge4 5_555 . 6_555 103.48(4) ?
Ge1 Fe4 Fe3 5_555 . . 114.00(5) ?
Ge1 Fe4 Fe3 5_555 . 5_555 57.68(3) ?
Ge1 Fe4 Fe4 5_555 . 5_555 58.56(4) ?
Ge1 Fe4 Fe4 5_555 . 6_555 116.57(4) ?
Fe1 Fe4 Ge3 . . . 54.03(3) ?
Fe1 Fe4 Ge4 . . 2_555 117.25(5) ?
Fe1 Fe4 Ge4 . . 6_555 117.25(3) ?
Fe1 Fe4 Fe3 . . . 63.47(3) ?
Fe1 Fe4 Fe3 . . 5_555 63.47(2) ?
Fe1 Fe4 Fe4 . . 5_555 109.69(4) ?
Fe1 Fe4 Fe4 . . 6_555 109.69(3) ?
Ge3 Fe4 Ge4 . . 2_555 78.47(4) ?
Ge3 Fe4 Ge4 . . 6_555 78.47(4) ?
Ge3 Fe4 Fe3 . . . 59.42(3) ?
Ge3 Fe4 Fe3 . . 5_555 59.42(3) ?
Ge3 Fe4 Fe4 . . 5_555 119.79(3) ?
Ge3 Fe4 Fe4 . . 6_555 119.79(4) ?
Ge4 Fe4 Ge4 2_555 . 6_555 84.81(4) ?
Ge4 Fe4 Fe3 2_555 . . 57.37(3) ?
Ge4 Fe4 Fe3 2_555 . 5_555 126.55(3) ?
Ge4 Fe4 Fe4 2_555 . 5_555 130.07(4) ?
Ge4 Fe4 Fe4 2_555 . 6_555 58.38(2) ?
Ge4 Fe4 Fe3 6_555 . . 126.55(5) ?
Ge4 Fe4 Fe3 6_555 . 5_555 57.37(2) ?
Ge4 Fe4 Fe4 6_555 . 5_555 58.38(4) ?
Ge4 Fe4 Fe4 6_555 . 6_555 130.07(4) ?
Fe3 Fe4 Fe3 . . 5_555 114.55(3) ?
Fe3 Fe4 Fe4 . . 5_555 172.55(4) ?
Fe3 Fe4 Fe4 . . 6_555 62.25(2) ?
Fe3 Fe4 Fe4 5_555 . 5_555 62.25(3) ?
Fe3 Fe4 Fe4 5_555 . 6_555 172.55(4) ?
Fe4 Fe4 Fe4 5_555 . 6_555 120.00(4) ?
As1 Fe5 As1 . . 7_556 180 ?
As1 Fe5 Ge1 . . . 90 ?
As1 Fe5 Ge1 . . 2_555 90 ?
As1 Fe5 Ge1 . . 3_555 90 ?
As1 Fe5 Ge1 . . 4_555 90 ?
As1 Fe5 Ge1 . . 5_555 90 ?
As1 Fe5 Ge1 . . 6_555 90 ?
As1 Fe5 Ge1 7_556 . . 90 ?
As1 Fe5 Ge1 7_556 . 2_555 90 ?
As1 Fe5 Ge1 7_556 . 3_555 90 ?
As1 Fe5 Ge1 7_556 . 4_555 90 ?
As1 Fe5 Ge1 7_556 . 5_555 90 ?
As1 Fe5 Ge1 7_556 . 6_555 90 ?
Ge1 Fe5 Ge1 . . 2_555 120.00(3) ?
Ge1 Fe5 Ge1 . . 3_555 120.0000(3) ?
Ge1 Fe5 Ge1 . . 4_555 180 ?
Ge1 Fe5 Ge1 . . 5_555 60.00(3) ?
Ge1 Fe5 Ge1 . . 6_555 60.0000(3) ?
Ge1 Fe5 Ge1 2_555 . 3_555 120.00(3) ?
Ge1 Fe5 Ge1 2_555 . 4_555 60.00(3) ?
Ge1 Fe5 Ge1 2_555 . 5_555 180 ?
Ge1 Fe5 Ge1 2_555 . 6_555 60.00(3) ?
Ge1 Fe5 Ge1 3_555 . 4_555 60.0000(3) ?
Ge1 Fe5 Ge1 3_555 . 5_555 60.00(3) ?
Ge1 Fe5 Ge1 3_555 . 6_555 180 ?
Ge1 Fe5 Ge1 4_555 . 5_555 120.00(3) ?
Ge1 Fe5 Ge1 4_555 . 6_555 120.0000(3) ?
Ge1 Fe5 Ge1 5_555 . 6_555 120.00(3) ?
loop_
_geom_bond_atom_site_label_1
_geom_bond_atom_site_label_2
_geom_bond_site_symmetry_1
_geom_bond_site_symmetry_2
_geom_bond_distance
_geom_bond_publ_flag
As1 As1 . 7_555 2.507(3) ?
As1 Fe4 . . 2.6007(9) ?
As1 Fe4 . 2_555 2.6007(9) ?
As1 Fe4 . 3_555 2.6007(10) ?
As1 Fe4 . 4_555 2.6007(9) ?
As1 Fe4 . 5_555 2.6007(9) ?
As1 Fe4 . 6_555 2.6007(10) ?
As1 Fe5 . . 2.534(2) ?
Ge1 Ge1 . 5_555 2.7333(15) ?
Ge1 Ge1 . 6_555 2.7333(9) ?
Ge1 Fe1 . . 2.4399(8) ?
Ge1 Fe1 . 6_555 2.4399(14) ?
Ge1 Fe3 . . 2.5121(12) ?
Ge1 Fe3 . 9_556 2.5121(12) ?
Ge1 Fe4 . . 2.4428(8) ?
Ge1 Fe4 . 6_555 2.4428(8) ?
Ge1 Fe4 . 9_556 2.4428(8) ?
Ge1 Fe4 . 11_556 2.4428(9) ?
Ge1 Fe5 . . 2.7333(12) ?
Fe1 Ge2 . . 2.3081(8) ?
Fe1 Ge2 . 3_565 2.3081(16) ?
Fe1 Ge3 . . 2.3939(9) ?
Fe1 Ge3 . 11_556 2.3939(9) ?
Fe1 Fe3 . . 2.8754(7) ?
Fe1 Fe3 . 5_555 2.8754(11) ?
Fe1 Fe3 . 9_556 2.8754(7) ?
Fe1 Fe3 . 11_556 2.8754(11) ?
Fe1 Fe4 . . 2.7296(10) ?
Fe1 Fe4 . 11_556 2.7296(10) ?
Ge2 Ge2 . 4_665 2.8218(14) ?
Ge2 Fe3 . 2_665 2.5811(10) ?
Ge2 Fe3 . 5_555 2.5811(10) ?
Ge2 Fe3 . 8_666 2.5811(10) ?
Ge2 Fe3 . 11_556 2.5811(10) ?
Ge3 Ge3 . 11_555 2.9792(12) ?
Ge3 Fe2 . . 2.3648(9) ?
Ge3 Fe3 . . 2.6146(5) ?
Ge3 Fe3 . 5_555 2.6146(13) ?
Ge3 Ge5 . 4_565 2.966(3) ?
Ge3 Ge5 . 5_555 2.966(2) ?
Ge3 Fe4 . . 2.5256(12) ?
Ge4 Fe3 . 3_555 2.4950(10) ?
Ge4 Fe3 . 7_555 2.4950(10) ?
Ge4 Ge5 . 3_555 2.742(4) ?
Ge4 Ge5 . 6_655 2.742(5) ?
Ge4 Fe4 . 3_555 2.4306(9) ?
Ge4 Fe4 . 5_555 2.4306(11) ?
Ge4 Fe4 . 7_555 2.4306(9) ?
Ge4 Fe4 . 12_555 2.4306(8) ?
Fe2 Ge5 . 4_565 2.930(3) ?
Fe2 Ge5 . 5_555 2.930(4) ?
Fe2 Ge5 . 6_665 2.930(3) ?
Fe3 Fe3 . 4_565 2.7321(10) ?
Fe3 Ge5 . . 2.569(2) ?
Fe3 Ge5 . 4_565 2.5686(12) ?
Fe3 Fe4 . . 2.7372(11) ?
Fe3 Fe4 . 6_555 2.7372(7) ?
Ge5 Ge5 . 4_565 1.035(4) ?
Fe4 Fe4 . 5_555 2.5487(14) ?
Fe4 Fe4 . 6_555 2.5487(9) ?
loop_
_geom_hbond_atom_site_label_D
_geom_hbond_atom_site_label_H
_geom_hbond_atom_site_label_A
_geom_hbond_site_symmetry_D
_geom_hbond_site_symmetry_H
_geom_hbond_site_symmetry_A
_geom_hbond_distance_DH
_geom_hbond_distance_HA
_geom_hbond_distance_DA
_geom_hbond_angle_DHA
_geom_hbond_publ_flag
? ? ? ? ? ? ? ? ? ? ?
loop_
_geom_torsion_atom_site_label_1
_geom_torsion_atom_site_label_2
_geom_torsion_atom_site_label_3
_geom_torsion_atom_site_label_4
_geom_torsion_site_symmetry_1
_geom_torsion_site_symmetry_2
_geom_torsion_site_symmetry_3
_geom_torsion_site_symmetry_4
_geom_torsion
_geom_torsion_publ_flag
? ? ? ? ? ? ? ? ? ?
loop_
_pd_proc_point_id
_pd_proc_2theta_corrected
_pd_proc_d_spacing
_pd_proc_intensity_net
_pd_calc_intensity_net
_pd_proc_ls_weight
1 6.0100 14.766390 4768.00 4125.45 340.00
2 6.0600 14.644668 4395.00 4117.17 325.00
3 6.1100 14.524939 4200.00 4108.89 317.00
4 6.1600 14.407153 4342.00 4100.60 321.00
5 6.2100 14.291265 4629.00 4092.31 330.00
6 6.2600 14.177230 4512.00 4084.01 324.00
7 6.3100 14.065003 4340.00 4075.72 317.00
8 6.3600 13.954541 4698.00 4067.42 328.00
9 6.4100 13.845804 4346.00 4059.12 314.00
10 6.4600 13.738751 3947.00 4050.82 298.00
11 6.5100 13.633343 4450.00 4042.52 315.00
12 6.5600 13.529543 4153.00 4034.22 304.00
13 6.6100 13.427312 4122.00 4025.92 301.00
14 6.6600 13.326619 4241.00 4017.62 304.00
15 6.7100 13.227427 4047.00 4009.33 296.00
16 6.7600 13.129704 4200.00 4001.04 300.00
17 6.8100 13.033417 4057.00 3992.75 294.00
18 6.8600 12.938532 4488.00 3984.47 308.00
19 6.9100 12.845023 4082.00 3976.19 293.00
20 6.9600 12.752857 4053.00 3967.91 290.00
21 7.0100 12.662007 3772.00 3959.64 279.00
22 7.0600 12.572447 3940.00 3951.38 284.00
23 7.1100 12.484144 3982.00 3943.12 285.00
24 7.1600 12.397078 3881.00 3934.87 280.00
25 7.2100 12.311218 4154.00 3926.63 288.00
26 7.2600 12.226542 3987.00 3918.39 281.00
27 7.3100 12.143026 3953.00 3910.16 279.00
28 7.3600 12.060645 3791.00 3901.94 272.00
29 7.4100 11.979376 3873.00 3893.73 274.00
30 7.4600 11.899199 3943.00 3885.53 276.00
31 7.5100 11.820087 3868.00 3877.34 272.00
32 7.5600 11.742024 3854.00 3869.16 270.00
33 7.6100 11.664989 3907.00 3860.99 271.00
34 7.6600 11.588959 3934.00 3852.84 271.00
35 7.7100 11.513915 3955.00 3844.69 271.00
36 7.7600 11.439840 3871.00 3836.56 267.00
37 7.8100 11.366714 3704.00 3828.44 260.00
38 7.8600 11.294519 3944.00 3820.33 268.00
39 7.9100 11.223238 3738.00 3812.25 260.00
40 7.9600 11.152852 3851.00 3804.24 262.00
41 8.0100 11.083345 3932.00 3796.44 264.00
42 8.0600 11.014703 3587.00 3789.26 251.00
43 8.1100 10.946908 3817.00 3783.78 258.00
44 8.1600 10.879944 3944.00 3782.36 262.00
45 8.2100 10.813796 3484.00 3789.44 245.00
46 8.2600 10.748448 3827.00 3811.75 256.00
47 8.3100 10.683888 4095.00 3857.04 264.00
48 8.3600 10.620104 3994.00 3930.34 260.00
49 8.4100 10.557076 4020.00 4028.62 260.00
50 8.4600 10.494794 4528.00 4136.67 275.00
51 8.5100 10.433245 4671.00 4228.59 278.00
52 8.5600 10.372416 4662.00 4276.47 277.00
53 8.6100 10.312293 4626.00 4262.92 275.00
54 8.6600 10.252867 4315.00 4189.75 264.00
55 8.7100 10.194121 4252.00 4077.09 261.00
56 8.7600 10.136048 3907.00 3953.38 250.00
57 8.8100 10.078634 3733.00 3843.06 243.00
58 8.8600 10.021871 3539.00 3759.08 236.00
59 8.9100 9.965743 3609.00 3702.66 238.00
60 8.9600 9.910244 3294.00 3667.90 226.00
61 9.0100 9.855360 3409.00 3647.04 229.00
62 9.0600 9.801083 3534.00 3633.73 233.00
63 9.1100 9.747402 3457.00 3623.93 229.00
64 9.1600 9.694308 3482.00 3615.58 229.00
65 9.2100 9.641792 3512.00 3607.75 230.00
66 9.2600 9.589843 3315.00 3600.09 222.00
67 9.3100 9.538451 3370.00 3592.50 223.00
68 9.3600 9.487612 3490.00 3584.95 227.00
69 9.4100 9.437312 3599.00 3577.42 229.00
70 9.4600 9.387544 3420.00 3569.92 223.00
71 9.5100 9.338300 3377.00 3562.43 221.00
72 9.5600 9.289572 3566.00 3554.98 226.00
73 9.6100 9.241352 3714.00 3547.54 230.00
74 9.6600 9.193631 3525.00 3540.14 223.00
75 9.7100 9.146402 3518.00 3532.75 222.00
76 9.7600 9.099658 3433.00 3525.40 219.00
77 9.8100 9.053391 3445.00 3518.06 218.00
78 9.8600 9.007594 3379.00 3510.76 216.00
79 9.9100 8.962259 3589.00 3503.47 222.00
80 9.9600 8.917381 3427.00 3496.22 216.00
81 10.0100 8.872951 3438.00 3488.99 215.00
82 10.0600 8.828963 3346.00 3481.79 212.00
83 10.1100 8.785412 3132.00 3474.61 204.00
84 10.1600 8.742289 3156.00 3467.46 204.00
85 10.2100 8.699589 3322.00 3460.34 209.00
86 10.2600 8.657306 3376.00 3453.25 210.00
87 10.3100 8.615433 3317.00 3446.18 208.00
88 10.3600 8.573966 3413.00 3439.14 210.00
89 10.4100 8.532897 3421.00 3432.13 210.00
90 10.4600 8.492221 3350.00 3425.14 207.00
91 10.5100 8.451933 3438.00 3418.19 209.00
92 10.5600 8.412026 3317.00 3411.26 204.00
93 10.6100 8.372498 3287.00 3404.36 203.00
94 10.6600 8.333340 3101.00 3397.49 196.00
95 10.7100 8.294547 3108.00 3390.65 196.00
96 10.7600 8.256116 3116.00 3383.84 196.00
97 10.8100 8.218041 3321.00 3377.06 201.00
98 10.8600 8.180318 3396.00 3370.31 203.00
99 10.9100 8.142941 3218.00 3363.59 197.00
100 10.9600 8.105905 3480.00 3356.90 204.00
101 11.0100 8.069205 3142.00 3350.25 193.00
102 11.0600 8.032839 3240.00 3343.68 196.00
103 11.1100 7.996800 3152.00 3337.36 193.00
104 11.1600 7.961085 3380.00 3331.86 199.00
105 11.2100 7.925688 3354.00 3328.87 197.00
106 11.2600 7.890607 3490.00 3332.78 201.00
107 11.3100 7.855836 3320.00 3353.31 195.00
108 11.3600 7.821373 3363.00 3408.50 196.00
109 11.4100 7.787210 3775.00 3525.63 207.00
110 11.4600 7.753347 3914.00 3735.53 210.00
111 11.5100 7.719779 4055.00 4057.16 213.00
112 11.5600 7.686502 4396.00 4475.67 222.00
113 11.6100 7.653512 4852.00 4926.94 232.00
114 11.6600 7.620805 5344.00 5305.36 243.00
115 11.7100 7.588378 5475.00 5500.89 245.00
116 11.7600 7.556227 5226.00 5449.52 239.00
117 11.8100 7.524348 4885.00 5165.93 230.00
118 11.8600 7.492740 4254.00 4735.81 214.00
119 11.9100 7.461397 4008.00 4273.29 207.00
120 11.9600 7.430316 3716.00 3872.10 199.00
121 12.0100 7.399495 3427.00 3578.27 190.00
122 12.0600 7.368929 3486.00 3392.12 192.00
123 12.1100 7.338617 3148.00 3288.14 181.00
124 12.1600 7.308555 3093.00 3235.54 179.00
125 12.2100 7.278739 3125.00 3210.10 180.00
126 12.2600 7.249166 2938.00 3197.01 174.00
127 12.3100 7.219835 3001.00 3188.81 175.00
128 12.3600 7.190742 3048.00 3182.32 176.00
129 12.4100 7.161882 3178.00 3176.37 179.00
130 12.4600 7.133255 3063.00 3170.59 175.00
131 12.5100 7.104858 2992.00 3164.87 173.00
132 12.5600 7.076686 3060.00 3159.19 174.00
133 12.6100 7.048740 3282.00 3153.54 180.00
134 12.6600 7.021014 3030.00 3147.93 173.00
135 12.7100 6.993506 2911.00 3142.35 169.00
136 12.7600 6.966215 2915.00 3136.81 168.00
137 12.8100 6.939137 3173.00 3131.30 175.00
138 12.8600 6.912271 2933.00 3125.82 168.00
139 12.9100 6.885612 2827.00 3120.38 164.00
140 12.9600 6.859160 3024.00 3114.96 170.00
141 13.0100 6.832911 3120.00 3109.59 172.00
142 13.0600 6.806864 3027.00 3104.24 169.00
143 13.1100 6.781017 3039.00 3098.93 169.00
144 13.1600 6.755366 2985.00 3093.66 167.00
145 13.2100 6.729909 2992.00 3088.41 166.00
146 13.2600 6.704645 3175.00 3083.20 171.00
147 13.3100 6.679572 2952.00 3078.03 164.00
148 13.3600 6.654686 2965.00 3072.89 164.00
149 13.4100 6.629986 2942.00 3067.78 163.00
150 13.4600 6.605471 3068.00 3062.70 166.00
151 13.5100 6.581137 2932.00 3057.66 162.00
152 13.5600 6.556983 3027.00 3052.66 164.00
153 13.6100 6.533007 3148.00 3047.68 167.00
154 13.6600 6.509207 3085.00 3042.75 165.00
155 13.7100 6.485580 3190.00 3037.84 167.00
156 13.7600 6.462126 2928.00 3032.97 160.00
157 13.8100 6.438842 3171.00 3028.13 166.00
158 13.8600 6.415727 3127.00 3023.33 164.00
159 13.9100 6.392778 2878.00 3018.57 157.00
160 13.9600 6.369994 3066.00 3013.86 162.00
161 14.0100 6.347373 2783.00 3009.27 154.00
162 14.0600 6.324914 2821.00 3004.95 154.00
163 14.1100 6.302614 2871.00 3001.27 155.00
164 14.1600 6.280471 2990.00 2999.02 158.00
165 14.2100 6.258485 2922.00 2999.59 156.00
166 14.2600 6.236654 3007.00 3005.01 158.00
167 14.3100 6.214975 2865.00 3017.96 154.00
168 14.3600 6.193449 2909.00 3042.19 154.00
169 14.4100 6.172071 3250.00 3085.15 163.00
170 14.4600 6.150842 3296.00 3164.65 163.00
171 14.5100 6.129760 3445.00 3319.99 167.00
172 14.5600 6.108822 3865.00 3621.55 176.00
173 14.6100 6.088029 4354.00 4164.88 186.00
174 14.6600 6.067378 5311.00 5034.39 205.00
175 14.7100 6.046867 7002.00 6236.04 235.00
176 14.7600 6.026496 8470.00 7631.42 258.00
177 14.8100 6.006263 9978.00 8928.50 280.00
178 14.8600 5.986166 10161.00 9768.44 281.00
179 14.9100 5.966205 9989.00 9882.47 278.00
180 14.9600 5.946377 9118.00 9227.59 265.00
181 15.0100 5.926682 7638.00 8009.35 242.00
182 15.0600 5.907118 5856.00 6575.69 211.00
183 15.1100 5.887684 4747.00 5255.87 190.00
184 15.1600 5.868378 3812.00 4245.28 170.00
185 15.2100 5.849200 3212.00 3584.11 155.00
186 15.2600 5.830148 2910.00 3208.89 147.00
187 15.3100 5.811220 2833.00 3022.01 145.00
188 15.3600 5.792416 2880.00 2939.10 146.00
189 15.4100 5.773735 2972.00 2905.24 148.00
190 15.4600 5.755174 2854.00 2891.41 145.00
191 15.5100 5.736734 2837.00 2884.72 144.00
192 15.5600 5.718413 3002.00 2880.27 147.00
193 15.6100 5.700209 2852.00 2876.45 143.00
194 15.6600 5.682123 3102.00 2872.81 149.00
195 15.7100 5.664151 2960.00 2869.24 145.00
196 15.7600 5.646294 3034.00 2865.71 147.00
197 15.8100 5.628550 2813.00 2862.20 141.00
198 15.8600 5.610919 2739.00 2858.73 139.00
199 15.9100 5.593398 2583.00 2855.30 134.00
200 15.9600 5.575987 2720.00 2851.89 138.00
201 16.0100 5.558687 2952.00 2848.52 143.00
202 16.0600 5.541494 2961.00 2845.18 143.00
203 16.1100 5.524407 2777.00 2841.87 138.00
204 16.1600 5.507428 2931.00 2838.60 142.00
205 16.2100 5.490553 2815.00 2835.35 138.00
206 16.2600 5.473782 2640.00 2832.14 134.00
207 16.3100 5.457115 2781.00 2828.96 137.00
208 16.3600 5.440549 2754.00 2825.81 136.00
209 16.4100 5.424086 2785.00 2822.70 136.00
210 16.4600 5.407722 2675.00 2819.61 133.00
211 16.5100 5.391458 2669.00 2816.58 133.00
212 16.5600 5.375292 2778.00 2813.63 135.00
213 16.6100 5.359224 2576.00 2810.94 130.00
214 16.6600 5.343253 2864.00 2809.13 137.00
215 16.7100 5.327378 2894.00 2809.97 137.00
216 16.7600 5.311598 2928.00 2818.05 137.00
217 16.8100 5.295912 2905.00 2843.30 137.00
218 16.8600 5.280319 2989.00 2903.76 138.00
219 16.9100 5.264819 3069.00 3025.63 140.00
220 16.9600 5.249411 3379.00 3236.48 146.00
221 17.0100 5.234093 3656.00 3549.29 152.00
222 17.0600 5.218866 3974.00 3941.84 158.00
223 17.1100 5.203728 4463.00 4345.57 167.00
224 17.1600 5.188679 4761.00 4658.95 172.00
225 17.2100 5.173717 4889.00 4786.84 174.00
226 17.2600 5.158843 4621.00 4686.57 169.00
227 17.3100 5.144054 4089.00 4390.25 158.00
228 17.3600 5.129351 3765.00 3987.90 152.00
229 17.4100 5.114734 3434.00 3583.06 144.00
230 17.4600 5.100200 3160.00 3250.76 138.00
231 17.5100 5.085749 3124.00 3019.78 137.00
232 17.5600 5.071381 2951.00 2881.13 133.00
233 17.6100 5.057095 2837.00 2808.17 130.00
234 17.6600 5.042890 2667.00 2773.84 126.00
235 17.7100 5.028766 2890.00 2758.80 131.00
236 17.7600 5.014721 2826.00 2752.05 129.00
237 17.8100 5.000756 2730.00 2748.41 126.00
238 17.8600 4.986869 2768.00 2745.79 127.00
239 17.9100 4.973060 2800.00 2743.49 127.00
240 17.9600 4.959329 2646.00 2741.29 124.00
241 18.0100 4.945673 2643.00 2739.14 123.00
242 18.0600 4.932094 2678.00 2737.01 124.00
243 18.1100 4.918590 2802.00 2734.92 126.00
244 18.1600 4.905160 2779.00 2732.85 126.00
245 18.2100 4.891806 2680.00 2730.81 123.00
246 18.2600 4.878523 2739.00 2728.81 124.00
247 18.3100 4.865315 2883.00 2726.85 127.00
248 18.3600 4.852178 2744.00 2725.04 124.00
249 18.4100 4.839113 2724.00 2723.69 123.00
250 18.4600 4.826119 2780.00 2723.89 124.00
251 18.5100 4.813196 2977.00 2728.72 128.00
252 18.5600 4.800343 2867.00 2745.77 125.00
253 18.6100 4.787559 3085.00 2790.73 130.00
254 18.6600 4.774843 3080.00 2890.58 129.00
255 18.7100 4.762197 3372.00 3081.56 135.00
256 18.7600 4.749617 3777.00 3396.84 143.00
257 18.8100 4.737105 4233.00 3842.49 151.00
258 18.8600 4.724659 5046.00 4371.65 164.00
259 18.9100 4.712280 5643.00 4878.00 173.00
260 18.9600 4.699966 6063.00 5224.50 179.00
261 19.0100 4.687717 6063.00 5302.08 179.00
262 19.0600 4.675533 5671.00 5084.42 173.00
263 19.1100 4.663413 4852.00 4642.06 159.00
264 19.1600 4.651357 4378.00 4105.36 151.00
265 19.2100 4.639364 3655.00 3602.79 138.00
266 19.2600 4.627432 3260.00 3213.68 130.00
267 19.3100 4.615564 2940.00 2957.23 123.00
268 19.3600 4.603756 2735.00 2811.05 118.00
269 19.4100 4.592010 2766.00 2738.13 119.00
270 19.4600 4.580326 2777.00 2705.84 119.00
271 19.5100 4.568700 2815.00 2692.74 119.00
272 19.5600 4.557135 2872.00 2687.49 120.00
273 19.6100 4.545628 2716.00 2685.03 116.00
274 19.6600 4.534181 2686.00 2683.46 116.00
275 19.7100 4.522792 2797.00 2682.13 118.00
276 19.7600 4.511461 2621.00 2680.89 114.00
277 19.8100 4.500187 2848.00 2679.69 118.00
278 19.8600 4.488971 2781.00 2678.51 117.00
279 19.9100 4.477811 2577.00 2677.35 112.00
280 19.9600 4.466707 2705.00 2676.22 115.00
281 20.0100 4.455659 2627.00 2675.11 113.00
282 20.0600 4.444667 2847.00 2674.03 117.00
283 20.1100 4.433729 2885.00 2672.97 118.00
284 20.1600 4.422846 2723.00 2671.93 114.00
285 20.2100 4.412017 2809.00 2670.91 115.00
286 20.2600 4.401242 2730.00 2669.92 114.00
287 20.3100 4.390520 2661.00 2668.96 112.00
288 20.3600 4.379851 2723.00 2668.02 113.00
289 20.4100 4.369235 2633.00 2667.12 111.00
290 20.4600 4.358671 2680.00 2666.29 112.00
291 20.5100 4.348158 2582.00 2665.57 109.00
292 20.5600 4.337697 2839.00 2665.04 114.00
293 20.6100 4.327287 2889.00 2664.81 115.00
294 20.6600 4.316927 2823.00 2664.93 114.00
295 20.7100 4.306619 2775.00 2665.40 112.00
296 20.7600 4.296359 2722.00 2666.02 111.00
297 20.8100 4.286150 2757.00 2666.48 112.00
298 20.8600 4.275990 2682.00 2666.43 110.00
299 20.9100 4.265878 2693.00 2665.64 110.00
300 20.9600 4.255816 2645.00 2664.16 109.00
301 21.0100 4.245800 2720.00 2662.22 110.00
302 21.0600 4.235834 2838.00 2660.20 112.00
303 21.1100 4.225914 2778.00 2658.37 111.00
304 21.1600 4.216042 2973.00 2656.90 114.00
305 21.2100 4.206217 2920.00 2655.78 113.00
306 21.2600 4.196437 2862.00 2654.93 112.00
307 21.3100 4.186705 2761.00 2654.25 109.00
308 21.3600 4.177018 2648.00 2653.67 107.00
309 21.4100 4.167377 2610.00 2653.15 106.00
310 21.4600 4.157781 2639.00 2652.67 106.00
311 21.5100 4.148229 2657.00 2652.20 106.00
312 21.5600 4.138722 2760.00 2651.76 108.00
313 21.6100 4.129259 2788.00 2651.34 109.00
314 21.6600 4.119841 2762.00 2650.93 108.00
315 21.7100 4.110466 2652.00 2650.55 105.00
316 21.7600 4.101134 2685.00 2650.18 106.00
317 21.8100 4.091846 2720.00 2649.84 106.00
318 21.8600 4.082600 2738.00 2649.51 106.00
319 21.9100 4.073397 2746.00 2649.20 106.00
320 21.9600 4.064236 2675.00 2648.91 105.00
321 22.0100 4.055116 2772.00 2648.63 107.00
322 22.0600 4.046039 2815.00 2648.38 107.00
323 22.1100 4.037002 2727.00 2648.14 105.00
324 22.1600 4.028007 2731.00 2647.93 105.00
325 22.2100 4.019053 2666.00 2647.75 104.00
326 22.2600 4.010138 2852.00 2647.66 107.00
327 22.3100 4.001265 2851.00 2647.85 107.00
328 22.3600 3.992430 2674.00 2648.84 103.00
329 22.4100 3.983636 2761.00 2651.86 105.00
330 22.4600 3.974882 2784.00 2659.47 105.00
331 22.5100 3.966166 2790.00 2675.88 105.00
332 22.5600 3.957489 2826.00 2706.55 105.00
333 22.6100 3.948851 2767.00 2756.02 104.00
334 22.6600 3.940251 2996.00 2824.10 108.00
335 22.7100 3.931690 2870.00 2902.29 105.00
336 22.7600 3.923166 2922.00 2973.60 106.00
337 22.8100 3.914680 2865.00 3017.83 105.00
338 22.8600 3.906230 2841.00 3020.71 104.00
339 22.9100 3.897819 2801.00 2981.29 103.00
340 22.9600 3.889444 2952.00 2912.50 106.00
341 23.0100 3.881106 2801.00 2834.53 103.00
342 23.0600 3.872805 2787.00 2765.93 102.00
343 23.1100 3.864539 2810.00 2718.40 103.00
344 23.1600 3.856309 2774.00 2697.77 102.00
345 23.2100 3.848116 2595.00 2709.34 98.00
346 23.2600 3.839957 2760.00 2762.93 101.00
347 23.3100 3.831834 2925.00 2873.06 104.00
348 23.3600 3.823746 3200.00 3051.30 109.00
349 23.4100 3.815693 3519.00 3292.48 114.00
350 23.4600 3.807674 3898.00 3562.48 119.00
351 23.5100 3.799689 4139.00 3799.52 123.00
352 23.5600 3.791739 4122.00 3934.71 122.00
353 23.6100 3.783822 4161.00 3923.89 123.00
354 23.6600 3.775940 3910.00 3770.81 119.00
355 23.7100 3.768091 3699.00 3525.01 115.00
356 23.7600 3.760275 3311.00 3256.20 109.00
357 23.8100 3.752492 2873.00 3022.73 101.00
358 23.8600 3.744742 2680.00 2853.50 97.00
359 23.9100 3.737025 2656.00 2748.83 97.00
360 23.9600 3.729340 2653.00 2692.97 97.00
361 24.0100 3.721687 2716.00 2667.13 97.00
362 24.0600 3.714067 2586.00 2656.81 95.00
363 24.1100 3.706478 2587.00 2653.36 95.00
364 24.1600 3.698921 2733.00 2652.53 97.00
365 24.2100 3.691396 2735.00 2652.59 97.00
366 24.2600 3.683901 2614.00 2652.91 95.00
367 24.3100 3.676438 2740.00 2653.30 97.00
368 24.3600 3.669005 2565.00 2653.73 93.00
369 24.4100 3.661604 2527.00 2654.17 93.00
370 24.4600 3.654233 2496.00 2654.65 92.00
371 24.5100 3.646892 2739.00 2655.25 96.00
372 24.5600 3.639581 2534.00 2656.33 92.00
373 24.6100 3.632300 2805.00 2659.01 97.00
374 24.6600 3.625049 2733.00 2666.50 95.00
375 24.7100 3.617828 2740.00 2686.63 95.00
376 24.7600 3.610636 2860.00 2735.39 97.00
377 24.8100 3.603473 2886.00 2839.58 97.00
378 24.8600 3.596339 3205.00 3033.89 103.00
379 24.9100 3.589234 3449.00 3347.30 106.00
380 24.9600 3.582158 4116.00 3778.74 116.00
381 25.0100 3.575110 4900.00 4274.09 126.00
382 25.0600 3.568091 5443.00 4724.92 133.00
383 25.1100 3.561099 5522.00 5002.71 134.00
384 25.1600 3.554136 5558.00 5017.49 134.00
385 25.2100 3.547201 5114.00 4765.13 128.00
386 25.2600 3.540293 4651.00 4330.68 122.00
387 25.3100 3.533413 3946.00 3845.91 112.00
388 25.3600 3.526561 3448.00 3432.56 104.00
389 25.4100 3.519735 3033.00 3166.64 98.00
390 25.4600 3.512937 3029.00 3075.59 97.00
391 25.5100 3.506165 3162.00 3152.86 99.00
392 25.5600 3.499420 3376.00 3368.05 103.00
393 25.6100 3.492702 3589.00 3665.73 106.00
394 25.6600 3.486010 4059.00 3964.70 112.00
395 25.7100 3.479344 4293.00 4173.44 115.00
396 25.7600 3.472704 4228.00 4222.60 114.00
397 25.8100 3.466091 3999.00 4095.85 111.00
398 25.8600 3.459503 3824.00 3836.16 108.00
399 25.9100 3.452941 3388.00 3521.67 101.00
400 25.9600 3.446404 2902.00 3227.86 94.00
401 26.0100 3.439893 2796.00 3000.08 92.00
402 26.0600 3.433407 2697.00 2848.54 90.00
403 26.1100 3.426946 2656.00 2760.18 89.00
404 26.1600 3.420510 2634.00 2714.27 89.00
405 26.2100 3.414098 2616.00 2692.78 88.00
406 26.2600 3.407712 2650.00 2683.72 89.00
407 26.3100 3.401349 2622.00 2680.45 88.00
408 26.3600 3.395011 2620.00 2679.67 88.00
409 26.4100 3.388698 2582.00 2679.89 87.00
410 26.4600 3.382409 2661.00 2680.51 88.00
411 26.5100 3.376143 2737.00 2681.26 89.00
412 26.5600 3.369901 2675.00 2682.06 88.00
413 26.6100 3.363683 2710.00 2682.87 88.00
414 26.6600 3.357488 2725.00 2683.70 88.00
415 26.7100 3.351317 2661.00 2684.53 87.00
416 26.7600 3.345169 2629.00 2685.36 87.00
417 26.8100 3.339045 2530.00 2686.21 85.00
418 26.8600 3.332943 2557.00 2687.06 85.00
419 26.9100 3.326864 2607.00 2687.91 86.00
420 26.9600 3.320808 2673.00 2688.77 87.00
421 27.0100 3.314775 2558.00 2689.63 85.00
422 27.0600 3.308764 2588.00 2690.50 85.00
423 27.1100 3.302775 2607.00 2691.38 85.00
424 27.1600 3.296809 2594.00 2692.25 85.00
425 27.2100 3.290865 2610.00 2693.14 85.00
426 27.2600 3.284943 2559.00 2694.03 84.00
427 27.3100 3.279042 2550.00 2694.92 84.00
428 27.3600 3.273164 2605.00 2695.84 84.00
429 27.4100 3.267307 2626.00 2696.85 85.00
430 27.4600 3.261472 2695.00 2698.16 85.00
431 27.5100 3.255658 2652.00 2700.43 85.00
432 27.5600 3.249866 2618.00 2705.41 84.00
433 27.6100 3.244094 2678.00 2716.95 85.00
434 27.6600 3.238344 2679.00 2742.17 85.00
435 27.7100 3.232615 2774.00 2791.47 86.00
436 27.7600 3.226907 2870.00 2875.79 87.00
437 27.8100 3.221219 2945.00 2999.94 88.00
438 27.8600 3.215552 3114.00 3154.17 91.00
439 27.9100 3.209905 3289.00 3310.19 93.00
440 27.9600 3.204280 3281.00 3427.66 93.00
441 28.0100 3.198673 3271.00 3472.16 92.00
442 28.0600 3.193088 3314.00 3436.27 93.00
443 28.1100 3.187522 3296.00 3352.92 92.00
444 28.1600 3.181977 3134.00 3296.36 90.00
445 28.2100 3.176451 3201.00 3374.56 91.00
446 28.2600 3.170945 3723.00 3714.64 98.00
447 28.3100 3.165459 4467.00 4432.44 107.00
448 28.3600 3.159992 5780.00 5574.02 121.00
449 28.4100 3.154545 7578.00 7041.47 139.00
450 28.4600 3.149117 9329.00 8554.46 154.00
451 28.5100 3.143708 10641.00 9708.81 164.00
452 28.5600 3.138319 11040.00 10137.90 167.00
453 28.6100 3.132948 10072.00 9694.28 159.00
454 28.6600 3.127597 8816.00 8528.20 149.00
455 28.7100 3.122264 7072.00 7004.78 133.00
456 28.7600 3.116950 5266.00 5520.59 114.00
457 28.8100 3.111655 3975.00 4342.54 99.00
458 28.8600 3.106378 3226.00 3554.72 89.00
459 28.9100 3.101119 2972.00 3104.15 85.00
460 28.9600 3.095880 2811.00 2883.87 83.00
461 29.0100 3.090658 2770.00 2796.12 82.00
462 29.0600 3.085454 2740.00 2777.11 81.00
463 29.1100 3.080269 2731.00 2794.02 81.00
464 29.1600 3.075101 2720.00 2831.49 81.00
465 29.2100 3.069952 2824.00 2879.16 82.00
466 29.2600 3.064820 2852.00 2925.21 83.00
467 29.3100 3.059706 2818.00 2956.40 82.00
468 29.3600 3.054609 2861.00 2962.77 82.00
469 29.4100 3.049531 3075.00 2942.45 85.00
470 29.4600 3.044469 3011.00 2902.59 84.00
471 29.5100 3.039425 2831.00 2855.48 82.00
472 29.5600 3.034398 2724.00 2812.72 80.00
473 29.6100 3.029388 2611.00 2781.07 78.00
474 29.6600 3.024396 2664.00 2761.92 79.00
475 29.7100 3.019420 2634.00 2753.42 78.00
476 29.7600 3.014462 2507.00 2752.93 76.00
477 29.8100 3.009520 2706.00 2758.44 79.00
478 29.8600 3.004595 2753.00 2768.41 79.00
479 29.9100 2.999686 2683.00 2781.01 78.00
480 29.9600 2.994794 2762.00 2793.48 79.00
481 30.0100 2.989919 2692.00 2802.49 78.00
482 30.0600 2.985060 2659.00 2805.42 78.00
483 30.1100 2.980217 2750.00 2801.58 79.00
484 30.1600 2.975391 2699.00 2792.59 78.00
485 30.2100 2.970581 2754.00 2781.50 78.00
486 30.2600 2.965787 2719.00 2771.28 78.00
487 30.3100 2.961009 2769.00 2763.71 78.00
488 30.3600 2.956246 2692.00 2759.17 77.00
489 30.4100 2.951500 2716.00 2757.08 77.00
490 30.4600 2.946770 2740.00 2756.58 78.00
491 30.5100 2.942055 2599.00 2756.94 75.00
492 30.5600 2.937356 2602.00 2757.68 75.00
493 30.6100 2.932672 2465.00 2758.58 73.00
494 30.6600 2.928004 2691.00 2759.57 76.00
495 30.7100 2.923352 2619.00 2760.74 75.00
496 30.7600 2.918714 2551.00 2762.51 74.00
497 30.8100 2.914092 2656.00 2766.26 76.00
498 30.8600 2.909484 2641.00 2775.63 75.00
499 30.9100 2.904892 2730.00 2798.80 76.00
500 30.9600 2.900316 2778.00 2851.01 77.00
501 31.0100 2.895753 2894.00 2954.79 78.00
502 31.0600 2.891207 3037.00 3134.15 80.00
503 31.1100 2.886674 3267.00 3400.04 83.00
504 31.1600 2.882157 3647.00 3731.88 88.00
505 31.2100 2.877654 3912.00 4068.06 91.00
506 31.2600 2.873166 4444.00 4319.41 96.00
507 31.3100 2.868692 4579.00 4406.37 98.00
508 31.3600 2.864232 4301.00 4299.43 94.00
509 31.4100 2.859787 3858.00 4035.39 89.00
510 31.4600 2.855357 3562.00 3697.29 86.00
511 31.5100 2.850940 3200.00 3372.57 81.00
512 31.5600 2.846538 2905.00 3118.30 77.00
513 31.6100 2.842150 2676.00 2950.56 74.00
514 31.6600 2.837776 2753.00 2855.94 75.00
515 31.7100 2.833416 2853.00 2810.07 76.00
516 31.7600 2.829070 2718.00 2791.24 74.00
517 31.8100 2.824738 2750.00 2785.68 74.00
518 31.8600 2.820419 2678.00 2787.59 73.00
519 31.9100 2.816114 2721.00 2798.23 74.00
520 31.9600 2.811823 2918.00 2826.74 76.00
521 32.0100 2.807546 2929.00 2892.13 76.00
522 32.0600 2.803282 3017.00 3023.40 77.00
523 32.1100 2.799031 3194.00 3252.02 79.00
524 32.1600 2.794794 3698.00 3593.32 85.00
525 32.2100 2.790570 4257.00 4022.32 91.00
526 32.2600 2.786360 4593.00 4460.51 95.00
527 32.3100 2.782162 4965.00 4792.22 98.00
528 32.3600 2.777978 5162.00 4912.40 100.00
529 32.4100 2.773807 4966.00 4780.09 98.00
530 32.4600 2.769649 4459.00 4440.98 93.00
531 32.5100 2.765504 3830.00 4002.56 86.00
532 32.5600 2.761372 3559.00 3580.09 82.00
533 32.6100 2.757253 3213.00 3251.20 78.00
534 32.6600 2.753146 2917.00 3042.65 74.00
535 32.7100 2.749053 2938.00 2946.23 75.00
536 32.7600 2.744972 2929.00 2943.58 74.00
537 32.8100 2.740903 3074.00 3021.02 76.00
538 32.8600 2.736847 3219.00 3167.90 78.00
539 32.9100 2.732804 3348.00 3364.30 79.00
540 32.9600 2.728773 3495.00 3570.86 81.00
541 33.0100 2.724754 3745.00 3732.65 83.00
542 33.0600 2.720748 3862.00 3799.75 85.00
543 33.1100 2.716754 3746.00 3752.99 83.00
544 33.1600 2.712772 3573.00 3617.38 81.00
545 33.2100 2.708803 3532.00 3452.83 80.00
546 33.2600 2.704846 3367.00 3328.24 78.00
547 33.3100 2.700900 3264.00 3293.63 77.00
548 33.3600 2.696967 3238.00 3362.03 77.00
549 33.4100 2.693045 3327.00 3505.23 78.00
550 33.4600 2.689136 3472.00 3663.75 79.00
551 33.5100 2.685238 3678.00 3769.42 81.00
552 33.5600 2.681352 3649.00 3773.91 81.00
553 33.6100 2.677478 3500.00 3669.34 79.00
554 33.6600 2.673616 3224.00 3488.43 76.00
555 33.7100 2.669765 3138.00 3284.26 75.00
556 33.7600 2.665926 3086.00 3103.99 74.00
557 33.8100 2.662098 3033.00 2972.32 73.00
558 33.8600 2.658282 2843.00 2890.82 71.00
559 33.9100 2.654477 2738.00 2847.63 69.00
560 33.9600 2.650684 2771.00 2828.01 69.00
561 34.0100 2.646902 2766.00 2820.51 69.00
562 34.0600 2.643131 2641.00 2818.32 68.00
563 34.1100 2.639371 2638.00 2818.13 67.00
564 34.1600 2.635623 2757.00 2818.68 69.00
565 34.2100 2.631886 2739.00 2819.84 68.00
566 34.2600 2.628160 2774.00 2822.81 69.00
567 34.3100 2.624444 2757.00 2832.16 68.00
568 34.3600 2.620740 2876.00 2861.46 70.00
569 34.4100 2.617047 2959.00 2944.77 71.00
570 34.4600 2.613365 3148.00 3153.93 73.00
571 34.5100 2.609693 3786.00 3612.70 80.00
572 34.5600 2.606032 4668.00 4485.89 89.00
573 34.6100 2.602382 6107.00 5916.82 101.00
574 34.6600 2.598743 8118.00 7909.46 116.00
575 34.7100 2.595115 10620.00 10213.50 133.00
576 34.7600 2.591497 13061.00 12313.20 147.00
577 34.8100 2.587889 14263.00 13593.30 154.00
578 34.8600 2.584292 14142.00 13625.70 153.00
579 34.9100 2.580706 12602.00 12399.40 144.00
580 34.9600 2.577130 10234.00 10326.50 130.00
581 35.0100 2.573565 7822.00 8020.39 113.00
582 35.0600 2.570009 5608.00 6007.25 95.00
583 35.1100 2.566464 4277.00 4551.25 83.00
584 35.1600 2.562930 3300.00 3659.76 73.00
585 35.2100 2.559405 2906.00 3196.86 68.00
586 35.2600 2.555891 2882.00 3006.32 68.00
587 35.3100 2.552387 2883.00 2983.68 68.00
588 35.3600 2.548893 3086.00 3095.51 70.00
589 35.4100 2.545409 3393.00 3365.82 73.00
590 35.4600 2.541935 4001.00 3841.02 80.00
591 35.5100 2.538471 4581.00 4538.05 85.00
592 35.5600 2.535016 5588.00 5390.64 94.00
593 35.6100 2.531572 6555.00 6227.52 101.00
594 35.6600 2.528137 7215.00 6815.73 106.00
595 35.7100 2.524713 7236.00 6962.76 106.00
596 35.7600 2.521298 6768.00 6617.16 103.00
597 35.8100 2.517893 5804.00 5897.25 95.00
598 35.8600 2.514497 4870.00 5026.10 87.00
599 35.9100 2.511111 4103.00 4220.93 79.00
600 35.9600 2.507735 3529.00 3610.57 73.00
601 36.0100 2.504368 3073.00 3219.87 68.00
602 36.0600 2.501010 2900.00 3005.50 66.00
603 36.1100 2.497662 2952.00 2903.91 67.00
604 36.1600 2.494324 2847.00 2862.21 66.00
605 36.2100 2.490995 2663.00 2847.54 63.00
606 36.2600 2.487675 2666.00 2843.58 63.00
607 36.3100 2.484365 2626.00 2844.25 63.00
608 36.3600 2.481064 2689.00 2849.49 63.00
609 36.4100 2.477772 2813.00 2864.79 65.00
610 36.4600 2.474489 2928.00 2903.62 66.00
611 36.5100 2.471215 3010.00 2991.32 67.00
612 36.5600 2.467951 3024.00 3166.25 67.00
613 36.6100 2.464695 3340.00 3471.92 70.00
614 36.6600 2.461449 3984.00 3934.65 76.00
615 36.7100 2.458212 4564.00 4531.86 82.00
616 36.7600 2.454984 5119.00 5168.87 86.00
617 36.8100 2.451764 5732.00 5691.08 91.00
618 36.8600 2.448554 6058.00 5940.78 94.00
619 36.9100 2.445352 5829.00 5832.95 92.00
620 36.9600 2.442159 5277.00 5402.02 87.00
621 37.0100 2.438975 4559.00 4783.95 81.00
622 37.0600 2.435800 3873.00 4147.25 74.00
623 37.1100 2.432633 3446.00 3619.60 70.00
624 37.1600 2.429475 3078.00 3253.34 66.00
625 37.2100 2.426326 2967.00 3036.33 65.00
626 37.2600 2.423186 2912.00 2925.45 64.00
627 37.3100 2.420053 2812.00 2876.35 63.00
628 37.3600 2.416930 2796.00 2857.51 62.00
629 37.4100 2.413815 2776.00 2851.45 62.00
630 37.4600 2.410709 2798.00 2850.55 62.00
631 37.5100 2.407611 2803.00 2853.60 62.00
632 37.5600 2.404521 2903.00 2866.04 63.00
633 37.6100 2.401440 2965.00 2906.32 64.00
634 37.6600 2.398367 3029.00 3020.55 64.00
635 37.7100 2.395302 3485.00 3303.73 69.00
636 37.7600 2.392246 4183.00 3914.54 76.00
637 37.8100 2.389198 5328.00 5054.63 85.00
638 37.8600 2.386158 7344.00 6880.72 100.00
639 37.9100 2.383126 9969.00 9355.33 116.00
640 37.9600 2.380103 12857.00 12119.30 132.00
641 38.0100 2.377087 15255.00 14509.90 144.00
642 38.0600 2.374080 16633.00 15798.80 150.00
643 38.1100 2.371080 16242.00 15546.40 148.00
644 38.1600 2.368089 14384.00 13843.40 139.00
645 38.2100 2.365106 11745.00 11262.00 125.00
646 38.2600 2.362131 8591.00 8550.91 107.00
647 38.3100 2.359163 6111.00 6296.87 90.00
648 38.3600 2.356204 4690.00 4752.88 78.00
649 38.4100 2.353252 3834.00 3877.47 71.00
650 38.4600 2.350308 3520.00 3486.01 68.00
651 38.5100 2.347372 3388.00 3394.41 66.00
652 38.5600 2.344444 3642.00 3495.63 69.00
653 38.6100 2.341523 4095.00 3767.38 73.00
654 38.6600 2.338610 4561.00 4229.77 77.00
655 38.7100 2.335706 5275.00 4877.44 82.00
656 38.7600 2.332808 6134.00 5620.45 89.00
657 38.8100 2.329918 6726.00 6275.98 93.00
658 38.8600 2.327036 7075.00 6632.64 95.00
659 38.9100 2.324161 7078.00 6555.55 95.00
660 38.9600 2.321294 6411.00 6062.87 90.00
661 39.0100 2.318434 5621.00 5317.79 84.00
662 39.0600 2.315582 4902.00 4547.97 78.00
663 39.1100 2.312737 4279.00 3961.59 73.00
664 39.1600 2.309900 4301.00 3724.64 73.00
665 39.2100 2.307070 4758.00 4009.00 77.00
666 39.2600 2.304248 5700.00 5055.58 84.00
667 39.3100 2.301432 7739.00 7160.87 98.00
668 39.3600 2.298625 10940.00 10522.60 116.00
669 39.4100 2.295824 15146.00 14974.20 137.00
670 39.4600 2.293031 19785.00 19787.60 156.00
671 39.5100 2.290245 23785.00 23774.30 171.00
672 39.5600 2.287466 25683.00 25758.90 177.00
673 39.6100 2.284694 24969.00 25195.50 175.00
674 39.6600 2.281929 22087.00 22490.20 164.00
675 39.7100 2.279172 18054.00 18763.90 148.00
676 39.7600 2.276421 14628.00 15218.50 133.00
677 39.8100 2.273678 12105.00 12554.20 121.00
678 39.8600 2.270941 10528.00 10802.30 112.00
679 39.9100 2.268212 9274.00 9573.72 105.00
680 39.9600 2.265490 8184.00 8452.20 99.00
681 40.0100 2.262774 7031.00 7247.56 91.00
682 40.0600 2.260066 5917.00 6011.47 84.00
683 40.1100 2.257365 4704.00 4902.62 74.00
684 40.1600 2.254670 3952.00 4046.71 68.00
685 40.2100 2.251982 3283.00 3475.54 62.00
686 40.2600 2.249301 3046.00 3143.34 59.00
687 40.3100 2.246627 2929.00 2973.62 58.00
688 40.3600 2.243959 2847.00 2896.92 57.00
689 40.4100 2.241299 2710.00 2866.07 56.00
690 40.4600 2.238645 2680.00 2854.89 55.00
691 40.5100 2.235998 2814.00 2851.16 57.00
692 40.5600 2.233357 2817.00 2849.94 57.00
693 40.6100 2.230723 2849.00 2849.46 57.00
694 40.6600 2.228096 2717.00 2849.18 55.00
695 40.7100 2.225476 2798.00 2848.94 56.00
696 40.7600 2.222861 2797.00 2848.71 56.00
697 40.8100 2.220254 2767.00 2848.47 56.00
698 40.8600 2.217653 2803.00 2848.23 56.00
699 40.9100 2.215058 2938.00 2847.98 57.00
700 40.9600 2.212470 2804.00 2847.72 56.00
701 41.0100 2.209889 2726.00 2847.46 55.00
702 41.0600 2.207314 2727.00 2847.19 55.00
703 41.1100 2.204745 2808.00 2846.92 56.00
704 41.1600 2.202183 2788.00 2846.64 55.00
705 41.2100 2.199627 2777.00 2846.35 55.00
706 41.2600 2.197077 2760.00 2846.05 55.00
707 41.3100 2.194534 2761.00 2845.75 55.00
708 41.3600 2.191997 2766.00 2845.45 55.00
709 41.4100 2.189466 2853.00 2845.15 55.00
710 41.4600 2.186942 2796.00 2844.88 55.00
711 41.5100 2.184424 2787.00 2844.71 55.00
712 41.5600 2.181912 2742.00 2844.76 54.00
713 41.6100 2.179406 2755.00 2845.28 54.00
714 41.6600 2.176906 2816.00 2846.59 55.00
715 41.7100 2.174413 2914.00 2848.98 56.00
716 41.7600 2.171925 2863.00 2852.48 55.00
717 41.8100 2.169444 2804.00 2856.63 54.00
718 41.8600 2.166969 2874.00 2860.52 55.00
719 41.9100 2.164500 2820.00 2863.41 54.00
720 41.9600 2.162037 2781.00 2866.19 54.00
721 42.0100 2.159580 2774.00 2874.38 54.00
722 42.0600 2.157128 2918.00 2903.79 55.00
723 42.1100 2.154683 3173.00 2989.86 57.00
724 42.1600 2.152244 3431.00 3198.12 59.00
725 42.2100 2.149811 3874.00 3625.57 63.00
726 42.2600 2.147383 4599.00 4375.72 69.00
727 42.3100 2.144962 5678.00 5498.39 76.00
728 42.3600 2.142546 7125.00 6917.67 85.00
729 42.4100 2.140136 8669.00 8407.29 94.00
730 42.4600 2.137733 10048.00 9674.29 101.00
731 42.5100 2.135334 10898.00 10529.50 105.00
732 42.5600 2.132942 11207.00 11025.00 106.00
733 42.6100 2.130555 11541.00 11420.30 108.00
734 42.6600 2.128174 11947.00 11961.30 110.00
735 42.7100 2.125799 12779.00 12633.80 113.00
736 42.7600 2.123430 13182.00 13108.10 115.00
737 42.8100 2.121066 12963.00 12944.90 114.00
738 42.8600 2.118708 12070.00 11907.30 109.00
739 42.9100 2.116355 10264.00 10133.90 101.00
740 42.9600 2.114008 8069.00 8053.56 89.00
741 43.0100 2.111667 6172.00 6135.98 78.00
742 43.0600 2.109331 4695.00 4677.91 68.00
743 43.1100 2.107001 3766.00 3741.34 61.00
744 43.1600 2.104677 3359.00 3226.25 57.00
745 43.2100 2.102358 2994.00 2981.62 54.00
746 43.2600 2.100044 2895.00 2880.66 53.00
747 43.3100 2.097736 2969.00 2844.29 54.00
748 43.3600 2.095433 2948.00 2833.30 54.00
749 43.4100 2.093136 2944.00 2832.95 54.00
750 43.4600 2.090844 3029.00 2843.13 55.00
751 43.5100 2.088558 3006.00 2877.55 54.00
752 43.5600 2.086277 3192.00 2970.75 56.00
753 43.6100 2.084002 3417.00 3187.98 58.00
754 43.6600 2.081731 3831.00 3625.09 61.00
755 43.7100 2.079467 4459.00 4380.79 66.00
756 43.7600 2.077207 5578.00 5491.82 74.00
757 43.8100 2.074953 6918.00 6853.52 83.00
758 43.8600 2.072704 8110.00 8187.72 90.00
759 43.9100 2.070460 9122.00 9115.50 95.00
760 43.9600 2.068222 9507.00 9327.23 97.00
761 44.0100 2.065988 8725.00 8747.66 93.00
762 44.0600 2.063760 7481.00 7580.09 86.00
763 44.1100 2.061538 6308.00 6195.52 79.00
764 44.1600 2.059320 5166.00 4957.11 71.00
765 44.2100 2.057107 4379.00 4105.60 66.00
766 44.2600 2.054900 4162.00 3773.05 64.00
767 44.3100 2.052698 4488.00 4087.61 66.00
768 44.3600 2.050501 5489.00 5269.34 74.00
769 44.4100 2.048309 7782.00 7611.69 88.00
770 44.4600 2.046122 11023.00 11292.40 104.00
771 44.5100 2.043940 15663.00 16073.30 125.00
772 44.5600 2.041763 20656.00 21098.20 143.00
773 44.6100 2.039591 24538.00 25032.10 156.00
774 44.6600 2.037424 26306.00 26605.30 162.00
775 44.7100 2.035262 25115.00 25278.70 158.00
776 44.7600 2.033105 21626.00 21579.40 147.00
777 44.8100 2.030953 17363.00 16893.10 131.00
778 44.8600 2.028806 13903.00 12944.40 117.00
779 44.9100 2.026664 12745.00 11422.60 112.00
780 44.9600 2.024527 15265.00 13951.20 123.00
781 45.0100 2.022395 22815.00 22122.40 151.00
782 45.0600 2.020267 36935.00 37058.50 192.00
783 45.1100 2.018145 56915.00 58298.90 238.00
784 45.1600 2.016027 81861.00 82644.00 286.00
785 45.2100 2.013914 103821.00 104224.00 322.00
786 45.2600 2.011806 116858.00 116518.00 341.00
787 45.3100 2.009703 116867.00 115619.00 341.00
788 45.3600 2.007604 103767.00 102546.00 322.00
789 45.4100 2.005510 83293.00 82883.30 288.00
790 45.4600 2.003421 63203.00 63881.20 251.00
791 45.5100 2.001337 50284.00 51031.60 224.00
792 45.5600 1.999257 44742.00 46137.70 211.00
793 45.6100 1.997182 46262.00 47468.70 215.00
794 45.6600 1.995112 50498.00 51304.40 224.00
795 45.7100 1.993047 53442.00 53789.70 231.00
796 45.7600 1.990986 51913.00 52373.50 227.00
797 45.8100 1.988930 46452.00 46491.80 215.00
798 45.8600 1.986878 37286.00 37395.20 193.00
799 45.9100 1.984831 27212.00 27288.90 164.00
800 45.9600 1.982789 18218.00 18245.50 134.00
801 46.0100 1.980751 11249.00 11455.90 106.00
802 46.0600 1.978717 7050.00 7100.26 83.00
803 46.1100 1.976688 4864.00 4689.88 69.00
804 46.1600 1.974664 3762.00 3535.56 61.00
805 46.2100 1.972645 3326.00 3064.67 57.00
806 46.2600 1.970629 3152.00 2926.47 56.00
807 46.3100 1.968619 3218.00 2963.75 56.00
808 46.3600 1.966612 3391.00 3143.37 58.00
809 46.4100 1.964611 3650.00 3489.05 60.00
810 46.4600 1.962613 4195.00 4020.91 64.00
811 46.5100 1.960620 4774.00 4701.68 69.00
812 46.5600 1.958632 5389.00 5410.81 73.00
813 46.6100 1.956648 5991.00 5976.85 77.00
814 46.6600 1.954668 6385.00 6270.63 79.00
815 46.7100 1.952693 6348.00 6313.53 79.00
816 46.7600 1.950722 6201.00 6320.65 78.00
817 46.8100 1.948755 6626.00 6625.91 81.00
818 46.8600 1.946793 7337.00 7503.26 85.00
819 46.9100 1.944835 8701.00 8969.55 93.00
820 46.9600 1.942881 10405.00 10692.20 102.00
821 47.0100 1.940932 12002.00 12088.30 109.00
822 47.0600 1.938986 12401.00 12599.50 111.00
823 47.1100 1.937046 11701.00 11985.80 108.00
824 47.1600 1.935109 10296.00 10445.60 101.00
825 47.2100 1.933177 8201.00 8480.61 90.00
826 47.2600 1.931249 6421.00 6615.28 80.00
827 47.3100 1.929325 4976.00 5171.24 70.00
828 47.3600 1.927405 4109.00 4213.08 64.00
829 47.4100 1.925489 3540.00 3638.49 59.00
830 47.4600 1.923578 3255.00 3303.19 57.00
831 47.5100 1.921671 3159.00 3098.03 56.00
832 47.5600 1.919768 2992.00 2964.43 54.00
833 47.6100 1.917869 2930.00 2877.33 54.00
834 47.6600 1.915974 3019.00 2826.52 54.00
835 47.7100 1.914083 2913.00 2810.75 53.00
836 47.7600 1.912197 3109.00 2847.76 55.00
837 47.8100 1.910314 3410.00 3001.83 58.00
838 47.8600 1.908435 3868.00 3429.63 62.00
839 47.9100 1.906561 4902.00 4429.06 70.00
840 47.9600 1.904691 6885.00 6440.00 82.00
841 48.0100 1.902824 10083.00 9915.10 100.00
842 48.0600 1.900962 14872.00 15020.60 121.00
843 48.1100 1.899103 20951.00 21271.20 144.00
844 48.1600 1.897249 26760.00 27381.30 163.00
845 48.2100 1.895399 31353.00 31610.20 177.00
846 48.2600 1.893552 32466.00 32539.80 180.00
847 48.3100 1.891710 29850.00 29838.30 172.00
848 48.3600 1.889871 24078.00 24447.90 155.00
849 48.4100 1.888037 17729.00 18060.40 133.00
850 48.4600 1.886206 11986.00 12267.00 109.00
851 48.5100 1.884379 7691.00 7961.17 87.00
852 48.5600 1.882556 5009.00 5263.68 70.00
853 48.6100 1.880737 3781.00 3818.12 61.00
854 48.6600 1.878922 3242.00 3150.06 56.00
855 48.7100 1.877111 2984.00 2883.53 54.00
856 48.7600 1.875304 2817.00 2795.25 53.00
857 48.8100 1.873500 2836.00 2781.80 53.00
858 48.8600 1.871700 3117.00 2811.23 55.00
859 48.9100 1.869904 3116.00 2889.60 55.00
860 48.9600 1.868112 3196.00 3042.21 56.00
861 49.0100 1.866324 3383.00 3297.40 58.00
862 49.0600 1.864539 3757.00 3664.24 61.00
863 49.1100 1.862758 4159.00 4107.75 64.00
864 49.1600 1.860981 4499.00 4538.28 67.00
865 49.2100 1.859208 4854.00 4834.34 69.00
866 49.2600 1.857438 4856.00 4896.11 69.00
867 49.3100 1.855672 4717.00 4699.21 68.00
868 49.3600 1.853910 4140.00 4309.52 64.00
869 49.4100 1.852152 3622.00 3847.38 60.00
870 49.4600 1.850397 3287.00 3427.12 57.00
871 49.5100 1.848646 3062.00 3113.88 55.00
872 49.5600 1.846898 2815.00 2917.00 53.00
873 49.6100 1.845154 2775.00 2810.99 52.00
874 49.6600 1.843414 2625.00 2761.52 51.00
875 49.7100 1.841678 2708.00 2741.19 52.00
876 49.7600 1.839945 2681.00 2733.54 51.00
877 49.8100 1.838215 2706.00 2730.63 52.00
878 49.8600 1.836490 2689.00 2729.27 51.00
879 49.9100 1.834767 2655.00 2728.47 51.00
880 49.9600 1.833049 2753.00 2728.34 52.00
881 50.0100 1.831334 2673.00 2730.00 51.00
882 50.0600 1.829623 2721.00 2736.49 52.00
883 50.1100 1.827915 2735.00 2754.33 52.00
884 50.1600 1.826210 2782.00 2794.93 52.00
885 50.2100 1.824509 2803.00 2874.51 52.00
886 50.2600 1.822812 2870.00 3011.44 53.00
887 50.3100 1.821118 3206.00 3223.71 56.00
888 50.3600 1.819428 3420.00 3534.04 58.00
889 50.4100 1.817741 3868.00 3988.27 62.00
890 50.4600 1.816058 4649.00 4676.60 68.00
891 50.5100 1.814378 5620.00 5724.17 74.00
892 50.5600 1.812701 7186.00 7217.10 84.00
893 50.6100 1.811028 9121.00 9077.07 95.00
894 50.6600 1.809359 11022.00 10973.10 104.00
895 50.7100 1.807692 12475.00 12382.30 111.00
896 50.7600 1.806030 13073.00 12815.10 114.00
897 50.8100 1.804370 12458.00 12081.20 111.00
898 50.8600 1.802714 10562.00 10403.10 102.00
899 50.9100 1.801062 8211.00 8293.44 90.00
900 50.9600 1.799412 6230.00 6290.41 78.00
901 51.0100 1.797766 4641.00 4737.72 68.00
902 51.0600 1.796124 3617.00 3723.89 60.00
903 51.1100 1.794485 3068.00 3157.72 55.00
904 51.1600 1.792849 2774.00 2886.68 52.00
905 51.2100 1.791216 2713.00 2780.01 52.00
906 51.2600 1.789587 2650.00 2758.49 51.00
907 51.3100 1.787961 2785.00 2788.30 52.00
908 51.3600 1.786339 2882.00 2862.03 53.00
909 51.4100 1.784719 2930.00 2978.57 54.00
910 51.4600 1.783103 3171.00 3126.62 56.00
911 51.5100 1.781490 3343.00 3276.75 57.00
912 51.5600 1.779881 3428.00 3387.07 58.00
913 51.6100 1.778274 3492.00 3422.17 59.00
914 51.6600 1.776671 3489.00 3374.65 59.00
915 51.7100 1.775072 3349.00 3275.66 57.00
916 51.7600 1.773475 3239.00 3188.74 56.00
917 51.8100 1.771881 3092.00 3192.33 55.00
918 51.8600 1.770291 3312.00 3357.96 57.00
919 51.9100 1.768704 3610.00 3724.36 60.00
920 51.9600 1.767120 4170.00 4267.72 64.00
921 52.0100 1.765540 5009.00 4881.61 70.00
922 52.0600 1.763962 5493.00 5393.71 74.00
923 52.1100 1.762388 5613.00 5631.21 74.00
924 52.1600 1.760816 5680.00 5505.69 75.00
925 52.2100 1.759248 5150.00 5060.70 71.00
926 52.2600 1.757683 4605.00 4445.05 67.00
927 52.3100 1.756121 3877.00 3831.99 62.00
928 52.3600 1.754562 3295.00 3342.69 57.00
929 52.4100 1.753007 2919.00 3017.50 54.00
930 52.4600 1.751454 2828.00 2835.31 53.00
931 52.5100 1.749905 2752.00 2752.43 52.00
932 52.5600 1.748358 2768.00 2732.47 52.00
933 52.6100 1.746815 2839.00 2758.68 53.00
934 52.6600 1.745275 2863.00 2831.54 53.00
935 52.7100 1.743737 3080.00 2957.91 55.00
936 52.7600 1.742203 3240.00 3136.33 56.00
937 52.8100 1.740672 3285.00 3345.60 57.00
938 52.8600 1.739144 3444.00 3545.95 58.00
939 52.9100 1.737618 3738.00 3696.96 61.00
940 52.9600 1.736096 3883.00 3783.15 62.00
941 53.0100 1.734577 3895.00 3828.56 62.00
942 53.0600 1.733061 3918.00 3886.78 62.00
943 53.1100 1.731548 4053.00 4011.74 63.00
944 53.1600 1.730038 4312.00 4226.63 65.00
945 53.2100 1.728530 4564.00 4506.18 67.00
946 53.2600 1.727026 4771.00 4778.17 69.00
947 53.3100 1.725525 4878.00 4945.42 69.00
948 53.3600 1.724026 4801.00 4925.54 69.00
949 53.4100 1.722531 4576.00 4692.70 67.00
950 53.4600 1.721038 4192.00 4295.50 64.00
951 53.5100 1.719548 3698.00 3835.78 60.00
952 53.5600 1.718061 3267.00 3422.70 57.00
953 53.6100 1.716578 3065.00 3136.41 55.00
954 53.6600 1.715097 3035.00 3024.07 55.00
955 53.7100 1.713619 3049.00 3121.36 55.00
956 53.7600 1.712143 3343.00 3470.68 57.00
957 53.8100 1.710671 4030.00 4107.90 63.00
958 53.8600 1.709201 4831.00 5015.31 69.00
959 53.9100 1.707735 5909.00 6071.09 76.00
960 53.9600 1.706271 7041.00 7047.18 83.00
961 54.0100 1.704810 7672.00 7681.18 87.00
962 54.0600 1.703351 7757.00 7791.26 88.00
963 54.1100 1.701896 7308.00 7361.15 85.00
964 54.1600 1.700444 6442.00 6537.99 80.00
965 54.2100 1.698994 5532.00 5551.33 74.00
966 54.2600 1.697547 4422.00 4614.15 66.00
967 54.3100 1.696103 3749.00 3860.42 61.00
968 54.3600 1.694661 3272.00 3336.23 57.00
969 54.4100 1.693223 2960.00 3028.81 54.00
970 54.4600 1.691787 2841.00 2905.97 53.00
971 54.5100 1.690354 2874.00 2948.02 53.00
972 54.5600 1.688923 3205.00 3158.83 56.00
973 54.6100 1.687496 3508.00 3550.64 59.00
974 54.6600 1.686071 3979.00 4107.39 63.00
975 54.7100 1.684649 4688.00 4747.74 68.00
976 54.7600 1.683229 5280.00 5320.20 72.00
977 54.8100 1.681812 5657.00 5650.92 75.00
978 54.8600 1.680398 5680.00 5625.33 75.00
979 54.9100 1.678987 5185.00 5251.08 72.00
980 54.9600 1.677578 4697.00 4654.01 68.00
981 55.0100 1.676172 4117.00 4010.22 64.00
982 55.0600 1.674769 3382.00 3463.30 58.00
983 55.1100 1.673368 2867.00 3079.27 53.00
984 55.1600 1.671970 2826.00 2854.12 53.00
985 55.2100 1.670575 2754.00 2750.48 52.00
986 55.2600 1.669183 2689.00 2734.08 51.00
987 55.3100 1.667792 2738.00 2792.50 52.00
988 55.3600 1.666405 2908.00 2934.62 53.00
989 55.4100 1.665020 3197.00 3174.44 56.00
990 55.4600 1.663638 3561.00 3506.10 59.00
991 55.5100 1.662258 3964.00 3882.60 62.00
992 55.5600 1.660881 4248.00 4215.93 65.00
993 55.6100 1.659507 4398.00 4407.44 66.00
994 55.6600 1.658135 4531.00 4394.68 67.00
995 55.7100 1.656766 4265.00 4184.32 65.00
996 55.7600 1.655399 3860.00 3846.99 62.00
997 55.8100 1.654035 3523.00 3479.31 59.00
998 55.8600 1.652674 3110.00 3160.25 55.00
999 55.9100 1.651315 2768.00 2927.90 52.00
1000 55.9600 1.649958 2689.00 2782.29 51.00
1001 56.0100 1.648605 2616.00 2702.61 51.00
1002 56.0600 1.647253 2599.00 2664.12 50.00
1003 56.1100 1.645904 2572.00 2647.52 50.00
1004 56.1600 1.644558 2600.00 2640.99 50.00
1005 56.2100 1.643214 2616.00 2638.50 51.00
1006 56.2600 1.641873 2595.00 2637.43 50.00
1007 56.3100 1.640534 2563.00 2636.81 50.00
1008 56.3600 1.639198 2612.00 2636.32 51.00
1009 56.4100 1.637864 2613.00 2635.86 51.00
1010 56.4600 1.636533 2576.00 2635.42 50.00
1011 56.5100 1.635204 2594.00 2634.99 50.00
1012 56.5600 1.633878 2621.00 2634.60 51.00
1013 56.6100 1.632554 2493.00 2634.36 49.00
1014 56.6600 1.631233 2569.00 2634.68 50.00
1015 56.7100 1.629914 2550.00 2636.69 50.00
1016 56.7600 1.628597 2603.00 2643.23 51.00
1017 56.8100 1.627283 2675.00 2660.08 51.00
1018 56.8600 1.625971 2656.00 2696.69 51.00
1019 56.9100 1.624662 2658.00 2764.50 51.00
1020 56.9600 1.623355 2806.00 2871.12 52.00
1021 57.0100 1.622051 3017.00 3011.32 54.00
1022 57.0600 1.620749 3112.00 3160.60 55.00
1023 57.1100 1.619449 3235.00 3279.00 56.00
1024 57.1600 1.618152 3341.00 3327.49 57.00
1025 57.2100 1.616857 3296.00 3288.52 57.00
1026 57.2600 1.615564 3145.00 3176.13 56.00
1027 57.3100 1.614274 2980.00 3028.07 54.00
1028 57.3600 1.612986 2845.00 2886.22 53.00
1029 57.4100 1.611701 2753.00 2780.28 52.00
1030 57.4600 1.610418 2644.00 2724.42 51.00
1031 57.5100 1.609137 2704.00 2725.84 52.00
1032 57.5600 1.607859 2799.00 2794.96 52.00
1033 57.6100 1.606583 2934.00 2947.33 54.00
1034 57.6600 1.605309 3176.00 3191.57 56.00
1035 57.7100 1.604038 3567.00 3508.81 59.00
1036 57.7600 1.602769 3836.00 3838.46 61.00
1037 57.8100 1.601502 4168.00 4089.21 64.00
1038 57.8600 1.600237 4382.00 4177.14 66.00
1039 57.9100 1.598975 4130.00 4070.24 64.00
1040 57.9600 1.597715 3765.00 3807.00 61.00
1041 58.0100 1.596458 3506.00 3474.00 59.00
1042 58.0600 1.595203 3127.00 3160.40 55.00
1043 58.1100 1.593950 2879.00 2921.32 53.00
1044 58.1600 1.592699 2753.00 2768.98 52.00
1045 58.2100 1.591450 2612.00 2687.21 51.00
1046 58.2600 1.590204 2618.00 2652.17 51.00
1047 58.3100 1.588960 2650.00 2646.53 51.00
1048 58.3600 1.587718 2655.00 2664.86 51.00
1049 58.4100 1.586479 2643.00 2713.56 51.00
1050 58.4600 1.585242 2768.00 2807.94 52.00
1051 58.5100 1.584007 2964.00 2966.07 54.00
1052 58.5600 1.582774 3226.00 3197.68 56.00
1053 58.6100 1.581543 3411.00 3489.94 58.00
1054 58.6600 1.580315 3642.00 3796.84 60.00
1055 58.7100 1.579089 4067.00 4045.05 63.00
1056 58.7600 1.577865 4071.00 4160.64 63.00
1057 58.8100 1.576643 4044.00 4107.22 63.00
1058 58.8600 1.575424 3912.00 3910.80 62.00
1059 58.9100 1.574206 3607.00 3654.68 60.00
1060 58.9600 1.572991 3427.00 3450.36 58.00
1061 59.0100 1.571778 3419.00 3409.97 58.00
1062 59.0600 1.570567 3514.00 3636.63 59.00
1063 59.1100 1.569359 4166.00 4218.65 64.00
1064 59.1600 1.568152 4942.00 5197.21 70.00
1065 59.2100 1.566948 6391.00 6497.97 79.00
1066 59.2600 1.565746 7827.00 7876.40 88.00
1067 59.3100 1.564545 8542.00 8951.62 92.00
1068 59.3600 1.563348 9139.00 9358.66 95.00
1069 59.4100 1.562152 8893.00 8942.34 94.00
1070 59.4600 1.560958 7994.00 7852.21 89.00
1071 59.5100 1.559766 6398.00 6464.87 79.00
1072 59.5600 1.558577 5024.00 5195.05 70.00
1073 59.6100 1.557390 4114.00 4325.27 64.00
1074 59.6600 1.556204 3807.00 3944.29 61.00
1075 59.7100 1.555021 3849.00 3978.14 62.00
1076 59.7600 1.553840 4251.00 4260.61 65.00
1077 59.8100 1.552661 4815.00 4604.99 69.00
1078 59.8600 1.551484 4879.00 4871.75 69.00
1079 59.9100 1.550309 4973.00 5017.66 70.00
1080 59.9600 1.549137 5075.00 5096.86 71.00
1081 60.0100 1.547966 5203.00 5198.01 72.00
1082 60.0600 1.546797 5199.00 5355.00 72.00
1083 60.1100 1.545631 5565.00 5500.70 74.00
1084 60.1600 1.544466 5508.00 5505.77 74.00
1085 60.2100 1.543304 5185.00 5273.05 72.00
1086 60.2600 1.542144 4830.00 4809.95 69.00
1087 60.3100 1.540985 4177.00 4224.43 64.00
1088 60.3600 1.539829 3646.00 3658.06 60.00
1089 60.4100 1.538674 3158.00 3213.56 56.00
1090 60.4600 1.537522 2908.00 2926.25 53.00
1091 60.5100 1.536372 2758.00 2780.68 52.00
1092 60.5600 1.535224 2706.00 2745.83 52.00
1093 60.6100 1.534077 2793.00 2799.52 52.00
1094 60.6600 1.532933 2976.00 2931.07 54.00
1095 60.7100 1.531791 3178.00 3127.12 56.00
1096 60.7600 1.530651 3169.00 3354.51 56.00
1097 60.8100 1.529512 3403.00 3556.55 58.00
1098 60.8600 1.528376 3515.00 3671.79 59.00
1099 60.9100 1.527242 3711.00 3666.95 60.00
1100 60.9600 1.526109 3475.00 3563.02 58.00
1101 61.0100 1.524979 3357.00 3435.51 57.00
1102 61.0600 1.523851 3331.00 3387.00 57.00
1103 61.1100 1.522724 3413.00 3505.01 58.00
1104 61.1600 1.521600 3759.00 3820.33 61.00
1105 61.2100 1.520477 4324.00 4279.84 65.00
1106 61.2600 1.519356 4922.00 4749.84 70.00
1107 61.3100 1.518238 5242.00 5062.76 72.00
1108 61.3600 1.517121 5257.00 5093.49 72.00
1109 61.4100 1.516006 4892.00 4822.91 69.00
1110 61.4600 1.514893 4422.00 4343.88 66.00
1111 61.5100 1.513783 3866.00 3805.24 62.00
1112 61.5600 1.512673 3345.00 3336.28 57.00
1113 61.6100 1.511566 2985.00 3001.16 54.00
1114 61.6600 1.510461 2818.00 2799.49 53.00
1115 61.7100 1.509358 2791.00 2696.31 52.00
1116 61.7600 1.508256 2703.00 2652.21 51.00
1117 61.8100 1.507157 2693.00 2639.93 51.00
1118 61.8600 1.506059 2687.00 2648.28 51.00
1119 61.9100 1.504963 2624.00 2681.20 51.00
1120 61.9600 1.503870 2702.00 2757.01 51.00
1121 62.0100 1.502777 2849.00 2907.84 53.00
1122 62.0600 1.501687 3187.00 3175.50 56.00
1123 62.1100 1.500599 3607.00 3600.56 60.00
1124 62.1600 1.499513 4135.00 4204.49 64.00
1125 62.2100 1.498428 5000.00 4971.96 70.00
1126 62.2600 1.497345 5811.00 5837.86 76.00
1127 62.3100 1.496264 6658.00 6685.28 81.00
1128 62.3600 1.495185 7381.00 7356.03 85.00
1129 62.4100 1.494108 7787.00 7683.81 88.00
1130 62.4600 1.493033 7523.00 7554.36 86.00
1131 62.5100 1.491960 7017.00 6968.13 83.00
1132 62.5600 1.490888 6062.00 6061.00 77.00
1133 62.6100 1.489818 5010.00 5055.30 70.00
1134 62.6600 1.488750 4090.00 4168.06 63.00
1135 62.7100 1.487684 3509.00 3536.90 59.00
1136 62.7600 1.486619 3280.00 3205.55 57.00
1137 62.8100 1.485557 3247.00 3157.70 56.00
1138 62.8600 1.484496 3376.00 3354.93 58.00
1139 62.9100 1.483437 3663.00 3748.08 60.00
1140 62.9600 1.482380 4420.00 4264.81 66.00
1141 63.0100 1.481324 4980.00 4798.41 70.00
1142 63.0600 1.480271 5431.00 5220.49 73.00
1143 63.1100 1.479219 5691.00 5419.28 75.00
1144 63.1600 1.478169 5450.00 5342.65 73.00
1145 63.2100 1.477120 5122.00 5022.88 71.00
1146 63.2600 1.476074 4472.00 4569.04 66.00
1147 63.3100 1.475029 4082.00 4131.56 63.00
1148 63.3600 1.473986 3767.00 3852.55 61.00
1149 63.4100 1.472945 3851.00 3820.48 62.00
1150 63.4600 1.471905 4059.00 4039.98 63.00
1151 63.5100 1.470867 4470.00 4427.53 66.00
1152 63.5600 1.469831 4883.00 4839.52 69.00
1153 63.6100 1.468797 5177.00 5128.23 71.00
1154 63.6600 1.467764 5273.00 5200.95 72.00
1155 63.7100 1.466734 5059.00 5048.55 71.00
1156 63.7600 1.465705 4833.00 4728.70 69.00
1157 63.8100 1.464677 4401.00 4324.08 66.00
1158 63.8600 1.463651 3871.00 3909.18 62.00
1159 63.9100 1.462627 3521.00 3540.75 59.00
1160 63.9600 1.461605 3194.00 3262.97 56.00
1161 64.0100 1.460585 3064.00 3112.99 55.00
1162 64.0600 1.459566 2990.00 3120.42 54.00
1163 64.1100 1.458549 3200.00 3298.51 56.00
1164 64.1600 1.457533 3616.00 3627.78 60.00
1165 64.2100 1.456519 3983.00 4040.16 63.00
1166 64.2600 1.455507 4444.00 4420.57 66.00
1167 64.3100 1.454497 4592.00 4642.28 67.00
1168 64.3600 1.453488 4812.00 4623.94 69.00
1169 64.4100 1.452481 4612.00 4371.43 67.00
1170 64.4600 1.451476 4021.00 3972.29 63.00
1171 64.5100 1.450472 3539.00 3546.02 59.00
1172 64.5600 1.449470 3090.00 3187.23 55.00
1173 64.6100 1.448470 2931.00 2936.42 54.00
1174 64.6600 1.447471 2744.00 2787.12 52.00
1175 64.7100 1.446474 2656.00 2710.18 51.00
1176 64.7600 1.445478 2637.00 2675.53 51.00
1177 64.8100 1.444485 2666.00 2662.06 51.00
1178 64.8600 1.443492 2727.00 2658.31 52.00
1179 64.9100 1.442502 2690.00 2659.85 51.00
1180 64.9600 1.441513 2729.00 2666.82 52.00
1181 65.0100 1.440526 2802.00 2682.59 52.00
1182 65.0600 1.439540 2684.00 2712.38 51.00
1183 65.1100 1.438556 2733.00 2760.61 52.00
1184 65.1600 1.437574 2868.00 2826.47 53.00
1185 65.2100 1.436593 2891.00 2900.19 53.00
1186 65.2600 1.435614 2939.00 2963.55 54.00
1187 65.3100 1.434636 3020.00 2997.11 54.00
1188 65.3600 1.433660 2991.00 2991.46 54.00
1189 65.4100 1.432686 2956.00 2956.34 54.00
1190 65.4600 1.431713 2834.00 2923.83 53.00
1191 65.5100 1.430742 2902.00 2947.31 53.00
1192 65.5600 1.429773 3098.00 3098.05 55.00
1193 65.6100 1.428805 3386.00 3454.49 58.00
1194 65.6600 1.427838 3944.00 4071.41 62.00
1195 65.7100 1.426873 4735.00 4928.33 68.00
1196 65.7600 1.425910 5860.00 5884.68 76.00
1197 65.8100 1.424949 6561.00 6691.38 81.00
1198 65.8600 1.423988 7130.00 7085.96 84.00
1199 65.9100 1.423030 6973.00 6925.84 83.00
1200 65.9600 1.422073 6335.00 6269.70 79.00
1201 66.0100 1.421117 5391.00 5342.97 73.00
1202 66.0600 1.420164 4415.00 4415.03 66.00
1203 66.1100 1.419211 3713.00 3678.44 60.00
1204 66.1600 1.418260 3253.00 3206.92 57.00
1205 66.2100 1.417311 3030.00 2989.71 55.00
1206 66.2600 1.416363 2997.00 2999.59 54.00
1207 66.3100 1.415417 3275.00 3241.56 57.00
1208 66.3600 1.414473 3653.00 3757.17 60.00
1209 66.4100 1.413530 4448.00 4580.56 66.00
1210 66.4600 1.412588 5531.00 5666.33 74.00
1211 66.5100 1.411648 6698.00 6834.02 81.00
1212 66.5600 1.410709 7552.00 7786.75 86.00
1213 66.6100 1.409772 7888.00 8223.64 88.00
1214 66.6600 1.408837 7908.00 7990.30 88.00
1215 66.7100 1.407903 7101.00 7166.30 84.00
1216 66.7600 1.406970 5936.00 6022.40 77.00
1217 66.8100 1.406039 4840.00 4879.55 69.00
1218 66.8600 1.405110 4060.00 3971.34 63.00
1219 66.9100 1.404182 3463.00 3394.00 58.00
1220 66.9600 1.403255 3267.00 3143.76 57.00
1221 67.0100 1.402330 3313.00 3187.88 57.00
1222 67.0600 1.401407 3507.00 3506.17 59.00
1223 67.1100 1.400485 4046.00 4077.94 63.00
1224 67.1600 1.399564 4880.00 4831.76 69.00
1225 67.2100 1.398645 5733.00 5609.33 75.00
1226 67.2600 1.397727 6367.00 6191.08 79.00
1227 67.3100 1.396811 6470.00 6393.08 80.00
1228 67.3600 1.395897 6410.00 6178.45 80.00
1229 67.4100 1.394983 5749.00 5702.92 75.00
1230 67.4600 1.394072 5256.00 5255.86 72.00
1231 67.5100 1.393161 4898.00 5128.01 69.00
1232 67.5600 1.392252 5342.00 5474.52 73.00
1233 67.6100 1.391345 6063.00 6234.36 77.00
1234 67.6600 1.390439 7027.00 7140.01 83.00
1235 67.7100 1.389535 7643.00 7824.22 87.00
1236 67.7600 1.388631 7902.00 7986.55 88.00
1237 67.8100 1.387730 7462.00 7535.17 86.00
1238 67.8600 1.386830 6735.00 6614.98 82.00
1239 67.9100 1.385931 5585.00 5510.50 74.00
1240 67.9600 1.385033 4521.00 4494.94 67.00
1241 68.0100 1.384138 3806.00 3728.87 61.00
1242 68.0600 1.383243 3231.00 3245.46 56.00
1243 68.1100 1.382350 3011.00 3000.57 54.00
1244 68.1600 1.381458 3107.00 2934.56 55.00
1245 68.2100 1.380568 3171.00 3012.52 56.00
1246 68.2600 1.379679 3401.00 3244.41 58.00
1247 68.3100 1.378792 3817.00 3703.26 61.00
1248 68.3600 1.377906 4583.00 4550.56 67.00
1249 68.4100 1.377021 5871.00 6042.56 76.00
1250 68.4600 1.376138 7885.00 8457.71 88.00
1251 68.5100 1.375256 11206.00 11898.80 105.00
1252 68.5600 1.374376 15616.00 16041.10 124.00
1253 68.6100 1.373496 19570.00 20033.20 139.00
1254 68.6600 1.372619 22892.00 22726.00 151.00
1255 68.7100 1.371742 23934.00 23209.60 154.00
1256 68.7600 1.370867 21802.00 21305.70 147.00
1257 68.8100 1.369994 17834.00 17664.60 133.00
1258 68.8600 1.369122 13479.00 13393.70 116.00
1259 68.9100 1.368251 9395.00 9513.90 96.00
1260 68.9600 1.367381 6397.00 6600.96 79.00
1261 69.0100 1.366513 4714.00 4757.64 68.00
1262 69.0600 1.365647 3828.00 3801.96 61.00
1263 69.1100 1.364781 3529.00 3480.29 59.00
1264 69.1600 1.363917 3541.00 3583.40 59.00
1265 69.2100 1.363055 3810.00 3954.00 61.00
1266 69.2600 1.362193 4335.00 4444.04 65.00
1267 69.3100 1.361333 4859.00 4888.00 69.00
1268 69.3600 1.360475 5183.00 5127.82 71.00
1269 69.4100 1.359617 5129.00 5072.80 71.00
1270 69.4600 1.358762 4869.00 4743.64 69.00
1271 69.5100 1.357907 4389.00 4259.15 66.00
1272 69.5600 1.357054 3806.00 3772.81 61.00
1273 69.6100 1.356202 3511.00 3405.91 59.00
1274 69.6600 1.355351 3365.00 3216.50 58.00
1275 69.7100 1.354502 3239.00 3206.75 56.00
1276 69.7600 1.353654 3317.00 3346.51 57.00
1277 69.8100 1.352808 3627.00 3591.44 60.00
1278 69.8600 1.351962 3879.00 3892.09 62.00
1279 69.9100 1.351118 4262.00 4196.70 65.00
1280 69.9600 1.350275 4497.00 4452.62 67.00
1281 70.0100 1.349434 4669.00 4608.32 68.00
1282 70.0600 1.348594 4794.00 4623.58 69.00
1283 70.1100 1.347755 4572.00 4489.57 67.00
1284 70.1600 1.346918 4309.00 4247.43 65.00
1285 70.2100 1.346081 4006.00 3985.68 63.00
1286 70.2600 1.345247 3827.00 3810.02 61.00
1287 70.3100 1.344413 3756.00 3799.39 61.00
1288 70.3600 1.343581 3861.00 3975.63 62.00
1289 70.4100 1.342750 4066.00 4303.81 63.00
1290 70.4600 1.341920 4663.00 4719.59 68.00
1291 70.5100 1.341091 5106.00 5158.56 71.00
1292 70.5600 1.340264 5502.00 5564.65 74.00
1293 70.6100 1.339438 5849.00 5874.89 76.00
1294 70.6600 1.338614 5990.00 6008.93 77.00
1295 70.7100 1.337790 5985.00 5893.56 77.00
1296 70.7600 1.336968 5688.00 5512.35 75.00
1297 70.8100 1.336147 5065.00 4935.66 71.00
1298 70.8600 1.335328 4379.00 4296.96 66.00
1299 70.9100 1.334509 3748.00 3731.15 61.00
1300 70.9600 1.333692 3323.00 3322.29 57.00
1301 71.0100 1.332876 3106.00 3096.84 55.00
1302 71.0600 1.332062 3046.00 3055.27 55.00
1303 71.1100 1.331249 3236.00 3211.42 56.00
1304 71.1600 1.330436 3473.00 3606.42 58.00
1305 71.2100 1.329626 4217.00 4280.48 64.00
1306 71.2600 1.328816 5123.00 5210.07 71.00
1307 71.3100 1.328008 6317.00 6251.34 79.00
1308 71.3600 1.327201 7114.00 7146.11 84.00
1309 71.4100 1.326395 7863.00 7615.37 88.00
1310 71.4600 1.325590 7672.00 7499.35 87.00
1311 71.5100 1.324787 7111.00 6844.65 84.00
1312 71.5600 1.323985 6224.00 5875.71 78.00
1313 71.6100 1.323184 4982.00 4871.33 70.00
1314 71.6600 1.322384 4012.00 4039.91 63.00
1315 71.7100 1.321585 3368.00 3463.70 58.00
1316 71.7600 1.320788 3225.00 3121.61 56.00
1317 71.8100 1.319992 3052.00 2945.42 55.00
1318 71.8600 1.319197 2964.00 2866.18 54.00
1319 71.9100 1.318403 2888.00 2835.26 53.00
1320 71.9600 1.317611 2983.00 2825.23 54.00
1321 72.0100 1.316819 2954.00 2823.33 54.00
1322 72.0600 1.316029 2886.00 2824.96 53.00
1323 72.1100 1.315240 2792.00 2830.67 52.00
1324 72.1600 1.314453 2840.00 2847.18 53.00
1325 72.2100 1.313666 2987.00 2893.08 54.00
1326 72.2600 1.312881 3168.00 3008.43 56.00
1327 72.3100 1.312097 3262.00 3263.34 57.00
1328 72.3600 1.311314 3699.00 3753.78 60.00
1329 72.4100 1.310532 4407.00 4570.63 66.00
1330 72.4600 1.309752 5553.00 5745.99 74.00
1331 72.5100 1.308972 6988.00 7204.73 83.00
1332 72.5600 1.308194 8625.00 8767.70 92.00
1333 72.6100 1.307417 10133.00 10217.80 100.00
1334 72.6600 1.306641 11088.00 11378.30 105.00
1335 72.7100 1.305866 12039.00 12141.50 109.00
1336 72.7600 1.305093 12522.00 12431.20 111.00
1337 72.8100 1.304320 12211.00 12172.30 110.00
1338 72.8600 1.303549 11165.00 11323.90 105.00
1339 72.9100 1.302779 10153.00 9956.72 100.00
1340 72.9600 1.302010 8432.00 8286.08 91.00
1341 73.0100 1.301243 6632.00 6612.35 81.00
1342 73.0600 1.300476 5327.00 5208.99 72.00
1343 73.1100 1.299711 4508.00 4244.71 67.00
1344 73.1600 1.298946 3923.00 3799.96 62.00
1345 73.2100 1.298183 4052.00 3952.99 63.00
1346 73.2600 1.297421 4835.00 4862.54 69.00
1347 73.3100 1.296660 6487.00 6753.30 80.00
1348 73.3600 1.295901 9211.00 9756.99 95.00
1349 73.4100 1.295142 13043.00 13651.70 114.00
1350 73.4600 1.294384 17411.00 17697.80 131.00
1351 73.5100 1.293628 20992.00 20771.80 144.00
1352 73.5600 1.292873 21942.00 21849.80 148.00
1353 73.6100 1.292119 20984.00 20559.70 144.00
1354 73.6600 1.291366 17914.00 17403.80 133.00
1355 73.7100 1.290614 13477.00 13477.10 116.00
1356 73.7600 1.289863 9837.00 9905.00 99.00
1357 73.8100 1.289114 7186.00 7393.14 84.00
1358 73.8600 1.288365 5992.00 6115.79 77.00
1359 73.9100 1.287618 5705.00 5867.29 75.00
1360 73.9600 1.286872 6286.00 6262.49 79.00
1361 74.0100 1.286127 7109.00 6873.89 84.00
1362 74.0600 1.285383 7637.00 7317.80 87.00
1363 74.1100 1.284640 7593.00 7338.30 87.00
1364 74.1600 1.283898 7040.00 6875.06 83.00
1365 74.2100 1.283157 6334.00 6063.58 79.00
1366 74.2600 1.282418 5396.00 5151.55 73.00
1367 74.3100 1.281679 4549.00 4385.49 67.00
1368 74.3600 1.280942 4094.00 3939.22 63.00
1369 74.4100 1.280205 3968.00 3915.42 62.00
1370 74.4600 1.279470 4278.00 4382.71 65.00
1371 74.5100 1.278736 5260.00 5388.44 72.00
1372 74.5600 1.278003 6863.00 6910.07 82.00
1373 74.6100 1.277271 8631.00 8771.30 92.00
1374 74.6600 1.276540 10580.00 10594.40 102.00
1375 74.7100 1.275810 11834.00 11879.70 108.00
1376 74.7600 1.275081 12377.00 12206.00 111.00
1377 74.8100 1.274354 11690.00 11447.90 108.00
1378 74.8600 1.273627 10046.00 9849.63 100.00
1379 74.9100 1.272902 7988.00 7897.23 89.00
1380 74.9600 1.272177 6094.00 6078.25 78.00
1381 75.0100 1.271454 4573.00 4692.93 67.00
1382 75.0600 1.270731 3937.00 3809.87 62.00
1383 75.1100 1.270010 3569.00 3344.03 59.00
1384 75.1600 1.269290 3375.00 3167.87 58.00
1385 75.2100 1.268571 3380.00 3184.47 58.00
1386 75.2600 1.267853 3484.00 3348.43 59.00
1387 75.3100 1.267136 3857.00 3649.86 62.00
1388 75.3600 1.266420 3999.00 4084.65 63.00
1389 75.4100 1.265705 4495.00 4623.87 67.00
1390 75.4600 1.264991 5073.00 5194.14 71.00
1391 75.5100 1.264278 5559.00 5678.43 74.00
1392 75.5600 1.263566 5817.00 5947.69 76.00
1393 75.6100 1.262855 5710.00 5913.66 75.00
1394 75.6600 1.262146 5370.00 5575.50 73.00
1395 75.7100 1.261437 4822.00 5026.37 69.00
1396 75.7600 1.260729 4186.00 4411.66 64.00
1397 75.8100 1.260023 3847.00 3864.95 62.00
1398 75.8600 1.259317 3507.00 3462.07 59.00
1399 75.9100 1.258612 3267.00 3216.68 57.00
1400 75.9600 1.257909 3061.00 3104.82 55.00
1401 76.0100 1.257206 3053.00 3096.14 55.00
1402 76.0600 1.256505 3150.00 3171.62 56.00
1403 76.1100 1.255804 3436.00 3325.50 58.00
1404 76.1600 1.255105 3488.00 3560.31 59.00
1405 76.2100 1.254407 3781.00 3884.84 61.00
1406 76.2600 1.253709 4294.00 4315.33 65.00
1407 76.3100 1.253013 4814.00 4867.42 69.00
1408 76.3600 1.252317 5456.00 5528.52 73.00
1409 76.4100 1.251623 6080.00 6222.21 77.00
1410 76.4600 1.250930 6725.00 6806.44 82.00
1411 76.5100 1.250237 7021.00 7127.35 83.00
1412 76.5600 1.249546 7005.00 7105.19 83.00
1413 76.6100 1.248855 6813.00 6780.08 82.00
1414 76.6600 1.248166 6201.00 6277.07 78.00
1415 76.7100 1.247478 5704.00 5722.55 75.00
1416 76.7600 1.246791 5082.00 5186.37 71.00
1417 76.8100 1.246104 4524.00 4685.36 67.00
1418 76.8600 1.245419 4200.00 4223.28 64.00
1419 76.9100 1.244734 3827.00 3817.51 61.00
1420 76.9600 1.244051 3446.00 3493.21 58.00
1421 77.0100 1.243369 3278.00 3264.43 57.00
1422 77.0600 1.242687 3068.00 3124.19 55.00
1423 77.1100 1.242007 3061.00 3050.50 55.00
1424 77.1600 1.241327 3028.00 3019.30 55.00
1425 77.2100 1.240649 3020.00 3013.73 54.00
1426 77.2600 1.239971 3083.00 3027.56 55.00
1427 77.3100 1.239295 3175.00 3063.83 56.00
1428 77.3600 1.238619 3202.00 3130.43 56.00
1429 77.4100 1.237944 3313.00 3232.47 57.00
1430 77.4600 1.237271 3561.00 3363.61 59.00
1431 77.5100 1.236598 3609.00 3500.82 60.00
1432 77.5600 1.235927 3961.00 3609.46 62.00
1433 77.6100 1.235256 3872.00 3658.49 62.00
1434 77.6600 1.234586 3815.00 3636.66 61.00
1435 77.7100 1.233917 3736.00 3557.76 61.00
1436 77.7600 1.233249 3681.00 3450.88 60.00
1437 77.8100 1.232583 3595.00 3344.02 59.00
1438 77.8600 1.231917 3440.00 3253.83 58.00
1439 77.9100 1.231252 3358.00 3186.89 57.00
1440 77.9600 1.230588 3360.00 3149.90 57.00
1441 78.0100 1.229925 3363.00 3166.56 57.00
1442 78.0600 1.229262 3571.00 3306.64 59.00
1443 78.1100 1.228601 3928.00 3736.38 62.00
1444 78.1600 1.227941 4960.00 4783.93 70.00
1445 78.2100 1.227282 6847.00 6974.87 82.00
1446 78.2600 1.226623 10466.00 10943.80 102.00
1447 78.3100 1.225966 16571.00 17142.60 128.00
1448 78.3600 1.225309 24618.00 25401.50 156.00
1449 78.4100 1.224654 34224.00 34567.40 184.00
1450 78.4600 1.223999 42858.00 42605.70 207.00
1451 78.5100 1.223346 47999.00 47274.80 219.00
1452 78.5600 1.222693 47823.00 47128.00 218.00
1453 78.6100 1.222041 42873.00 42224.80 207.00
1454 78.6600 1.221390 34368.00 34095.30 185.00
1455 78.7100 1.220740 25123.00 24972.50 158.00
1456 78.7600 1.220091 16826.00 16832.00 129.00
1457 78.8100 1.219443 10609.00 10756.40 103.00
1458 78.8600 1.218796 6808.00 6880.92 82.00
1459 78.9100 1.218150 4870.00 4753.80 69.00
1460 78.9600 1.217504 4068.00 3765.18 63.00
1461 79.0100 1.216860 3851.00 3434.42 62.00
1462 79.0600 1.216216 3739.00 3502.66 61.00
1463 79.1100 1.215574 4162.00 3897.49 64.00
1464 79.1600 1.214932 4775.00 4636.94 69.00
1465 79.2100 1.214291 5979.00 5712.71 77.00
1466 79.2600 1.213651 7071.00 6988.79 84.00
1467 79.3100 1.213012 8397.00 8174.09 91.00
1468 79.3600 1.212374 9100.00 8911.47 95.00
1469 79.4100 1.211737 9226.00 8946.37 96.00
1470 79.4600 1.211101 8384.00 8269.95 91.00
1471 79.5100 1.210465 7219.00 7125.11 84.00
1472 79.5600 1.209831 5836.00 5873.94 76.00
1473 79.6100 1.209197 4852.00 4824.83 69.00
1474 79.6600 1.208565 4141.00 4135.02 64.00
1475 79.7100 1.207933 3798.00 3812.63 61.00
1476 79.7600 1.207302 3764.00 3778.78 61.00
1477 79.8100 1.206672 4019.00 3926.67 63.00
1478 79.8600 1.206043 4299.00 4154.89 65.00
1479 79.9100 1.205414 4579.00 4382.24 67.00
1480 79.9600 1.204787 4662.00 4558.07 68.00
1481 80.0100 1.204161 4737.00 4667.02 68.00
1482 80.0600 1.203535 4789.00 4721.48 69.00
1483 80.1100 1.202910 4817.00 4740.73 69.00
1484 80.1600 1.202286 4772.00 4733.15 69.00
1485 80.2100 1.201663 4734.00 4699.68 68.00
1486 80.2600 1.201041 4739.00 4656.98 68.00
1487 80.3100 1.200420 4696.00 4655.43 68.00
1488 80.3600 1.199800 4858.00 4767.78 69.00
1489 80.4100 1.199180 5084.00 5055.50 71.00
1490 80.4600 1.198562 5564.00 5549.16 74.00
1491 80.5100 1.197944 6194.00 6266.52 78.00
1492 80.5600 1.197327 7193.00 7242.53 84.00
1493 80.6100 1.196711 8321.00 8510.07 91.00
1494 80.6600 1.196096 9926.00 10002.60 99.00
1495 80.7100 1.195481 11185.00 11458.00 105.00
1496 80.7600 1.194868 12456.00 12441.80 111.00
1497 80.8100 1.194255 12845.00 12544.30 113.00
1498 80.8600 1.193644 11730.00 11626.60 108.00
1499 80.9100 1.193033 9865.00 9925.33 99.00
1500 80.9600 1.192423 8031.00 7926.37 89.00
1501 81.0100 1.191813 6090.00 6111.77 78.00
1502 81.0600 1.191205 4669.00 4762.10 68.00
1503 81.1100 1.190598 3860.00 3918.98 62.00
1504 81.1600 1.189991 3342.00 3473.62 57.00
1505 81.2100 1.189385 3183.00 3277.82 56.00
1506 81.2600 1.188780 3252.00 3213.39 57.00
1507 81.3100 1.188176 3203.00 3207.75 56.00
1508 81.3600 1.187573 3212.00 3222.41 56.00
1509 81.4100 1.186970 3203.00 3237.59 56.00
1510 81.4600 1.186369 3264.00 3243.39 57.00
1511 81.5100 1.185768 3206.00 3237.02 56.00
1512 81.5600 1.185168 3178.00 3221.67 56.00
1513 81.6100 1.184569 3042.00 3204.56 55.00
1514 81.6600 1.183971 2985.00 3194.35 54.00
1515 81.7100 1.183373 3158.00 3199.10 56.00
1516 81.7600 1.182777 3077.00 3225.06 55.00
1517 81.8100 1.182181 3073.00 3274.76 55.00
1518 81.8600 1.181586 3238.00 3343.92 56.00
1519 81.9100 1.180992 3279.00 3419.01 57.00
1520 81.9600 1.180398 3289.00 3479.59 57.00
1521 82.0100 1.179806 3335.00 3506.61 57.00
1522 82.0600 1.179214 3410.00 3493.58 58.00
1523 82.1100 1.178623 3386.00 3454.55 58.00
1524 82.1600 1.178033 3356.00 3426.88 57.00
1525 82.2100 1.177444 3402.00 3472.98 58.00
1526 82.2600 1.176856 3733.00 3685.36 61.00
1527 82.3100 1.176268 4083.00 4187.11 63.00
1528 82.3600 1.175681 4931.00 5106.53 70.00
1529 82.4100 1.175095 6332.00 6504.85 79.00
1530 82.4600 1.174510 8246.00 8277.67 90.00
1531 82.5100 1.173926 10129.00 10093.30 100.00
1532 82.5600 1.173342 11442.00 11460.40 106.00
1533 82.6100 1.172759 12324.00 11932.50 111.00
1534 82.6600 1.172177 11483.00 11339.90 107.00
1535 82.7100 1.171596 10136.00 9887.56 100.00
1536 82.7600 1.171016 8069.00 8041.83 89.00
1537 82.8100 1.170436 6335.00 6290.99 79.00
1538 82.8600 1.169858 4916.00 4949.39 70.00
1539 82.9100 1.169279 3856.00 4107.61 62.00
1540 82.9600 1.168702 3674.00 3705.53 60.00
1541 83.0100 1.168126 3646.00 3639.45 60.00
1542 83.0600 1.167550 3723.00 3823.92 61.00
1543 83.1100 1.166976 4173.00 4193.05 64.00
1544 83.1600 1.166401 4736.00 4667.76 68.00
1545 83.2100 1.165828 5311.00 5134.21 72.00
1546 83.2600 1.165256 5569.00 5459.85 74.00
1547 83.3100 1.164684 5559.00 5543.29 74.00
1548 83.3600 1.164113 5416.00 5361.58 73.00
1549 83.4100 1.163543 5086.00 4978.76 71.00
1550 83.4600 1.162974 4458.00 4509.73 66.00
1551 83.5100 1.162405 4002.00 4066.17 63.00
1552 83.5600 1.161838 3696.00 3717.90 60.00
1553 83.6100 1.161270 3492.00 3485.56 59.00
1554 83.6600 1.160704 3311.00 3357.64 57.00
1555 83.7100 1.160139 3325.00 3314.21 57.00
1556 83.7600 1.159574 3299.00 3346.06 57.00
1557 83.8100 1.159010 3318.00 3462.79 57.00
1558 83.8600 1.158447 3588.00 3687.66 59.00
1559 83.9100 1.157885 3969.00 4037.84 63.00
1560 83.9600 1.157323 4617.00 4496.64 67.00
1561 84.0100 1.156762 5012.00 4995.07 70.00
1562 84.0600 1.156202 5365.00 5425.54 73.00
1563 84.1100 1.155643 5596.00 5689.73 74.00
1564 84.1600 1.155084 5870.00 5754.79 76.00
1565 84.2100 1.154526 5843.00 5679.74 76.00
1566 84.2600 1.153969 5717.00 5597.89 75.00
1567 84.3100 1.153413 5556.00 5675.28 74.00
1568 84.3600 1.152858 5913.00 6067.95 76.00
1569 84.4100 1.152303 6723.00 6874.66 81.00
1570 84.4600 1.151749 8083.00 8074.38 89.00
1571 84.5100 1.151196 9574.00 9470.29 97.00
1572 84.5600 1.150643 10947.00 10703.00 104.00
1573 84.6100 1.150091 11614.00 11371.80 107.00
1574 84.6600 1.149540 11410.00 11216.10 106.00
1575 84.7100 1.148990 10119.00 10248.10 100.00
1576 84.7600 1.148440 8569.00 8743.57 92.00
1577 84.8100 1.147892 6894.00 7101.09 83.00
1578 84.8600 1.147344 5515.00 5665.68 74.00
1579 84.9100 1.146796 4523.00 4623.04 67.00
1580 84.9600 1.146250 3855.00 3993.98 62.00
1581 85.0100 1.145704 3712.00 3697.36 60.00
1582 85.0600 1.145159 3744.00 3619.33 61.00
1583 85.1100 1.144614 3693.00 3655.50 60.00
1584 85.1600 1.144071 3719.00 3728.39 60.00
1585 85.2100 1.143528 3884.00 3796.69 62.00
1586 85.2600 1.142986 3880.00 3865.76 62.00
1587 85.3100 1.142444 4030.00 3993.20 63.00
1588 85.3600 1.141904 4273.00 4274.28 65.00
1589 85.4100 1.141364 4707.00 4798.48 68.00
1590 85.4600 1.140824 5479.00 5587.86 74.00
1591 85.5100 1.140286 6532.00 6551.55 80.00
1592 85.5600 1.139748 7525.00 7503.57 86.00
1593 85.6100 1.139211 8261.00 8261.27 90.00
1594 85.6600 1.138675 8853.00 8774.32 94.00
1595 85.7100 1.138139 9040.00 9196.58 95.00
1596 85.7600 1.137604 9686.00 9827.63 98.00
1597 85.8100 1.137070 10624.00 10943.30 103.00
1598 85.8600 1.136537 12193.00 12605.10 110.00
1599 85.9100 1.136004 14088.00 14550.90 118.00
1600 85.9600 1.135472 15928.00 16243.10 126.00
1601 86.0100 1.134941 16837.00 17073.60 129.00
1602 86.0600 1.134410 16453.00 16662.50 128.00
1603 86.1100 1.133880 14801.00 15078.40 121.00
1604 86.1600 1.133351 12692.00 12834.40 112.00
1605 86.2100 1.132822 10251.00 10640.70 101.00
1606 86.2600 1.132295 8800.00 9071.83 93.00
1607 86.3100 1.131768 7865.00 8341.00 88.00
1608 86.3600 1.131241 8064.00 8276.65 89.00
1609 86.4100 1.130716 8470.00 8471.42 92.00
1610 86.4600 1.130191 8504.00 8501.28 92.00
1611 86.5100 1.129666 7995.00 8112.72 89.00
1612 86.5600 1.129143 7083.00 7301.50 84.00
1613 86.6100 1.128620 6232.00 6258.53 78.00
1614 86.6600 1.128098 5159.00 5235.72 71.00
1615 86.7100 1.127576 4279.00 4417.00 65.00
1616 86.7600 1.127056 3744.00 3866.21 61.00
1617 86.8100 1.126536 3518.00 3549.96 59.00
1618 86.8600 1.126016 3361.00 3393.56 57.00
1619 86.9100 1.125498 3398.00 3326.82 58.00
1620 86.9600 1.124980 3319.00 3302.41 57.00
1621 87.0100 1.124462 3228.00 3295.09 56.00
1622 87.0600 1.123946 3198.00 3293.76 56.00
1623 87.1100 1.123430 3143.00 3294.30 56.00
1624 87.1600 1.122915 3295.00 3295.56 57.00
1625 87.2100 1.122400 3275.00 3297.64 57.00
1626 87.2600 1.121886 3320.00 3301.57 57.00
1627 87.3100 1.121373 3244.00 3309.54 56.00
1628 87.3600 1.120861 3268.00 3325.42 57.00
1629 87.4100 1.120349 3320.00 3355.44 57.00
1630 87.4600 1.119838 3448.00 3410.58 58.00
1631 87.5100 1.119327 3516.00 3513.99 59.00
1632 87.5600 1.118818 3837.00 3718.38 61.00
1633 87.6100 1.118309 4267.00 4133.26 65.00
1634 87.6600 1.117800 5006.00 4945.00 70.00
1635 87.7100 1.117292 6285.00 6392.76 79.00
1636 87.7600 1.116785 8336.00 8658.81 91.00
1637 87.8100 1.116279 11475.00 11686.40 107.00
1638 87.8600 1.115773 14814.00 15035.50 121.00
1639 87.9100 1.115268 18090.00 17921.50 134.00
1640 87.9600 1.114764 19405.00 19522.70 139.00
1641 88.0100 1.114260 19461.00 19391.70 139.00
1642 88.0600 1.113757 17866.00 17698.30 133.00
1643 88.1100 1.113255 15496.00 15113.40 124.00
1644 88.1600 1.112753 12593.00 12439.00 112.00
1645 88.2100 1.112252 10101.00 10253.50 100.00
1646 88.2600 1.111751 8653.00 8773.32 93.00
1647 88.3100 1.111252 7942.00 7914.51 89.00
1648 88.3600 1.110753 7551.00 7435.69 86.00
1649 88.4100 1.110254 7066.00 7070.26 84.00
1650 88.4600 1.109757 6530.00 6622.96 80.00
1651 88.5100 1.109259 5967.00 6025.63 77.00
1652 88.5600 1.108763 5385.00 5332.97 73.00
1653 88.6100 1.108267 4736.00 4662.13 68.00
1654 88.6600 1.107772 4154.00 4116.85 64.00
1655 88.7100 1.107278 3762.00 3741.24 61.00
1656 88.7600 1.106784 3398.00 3521.72 58.00
1657 88.8100 1.106291 3445.00 3417.41 58.00
1658 88.8600 1.105798 3443.00 3391.38 58.00
1659 88.9100 1.105306 3437.00 3428.55 58.00
1660 88.9600 1.104815 3525.00 3538.06 59.00
1661 89.0100 1.104325 3715.00 3743.38 60.00
1662 89.0600 1.103835 4104.00 4062.66 64.00
1663 89.1100 1.103345 4440.00 4486.57 66.00
1664 89.1600 1.102857 4832.00 4966.40 69.00
1665 89.2100 1.102369 5367.00 5427.44 73.00
1666 89.2600 1.101881 5808.00 5801.02 76.00
1667 89.3100 1.101395 6050.00 6051.29 77.00
1668 89.3600 1.100909 6116.00 6172.41 78.00
1669 89.4100 1.100423 6131.00 6162.45 78.00
1670 89.4600 1.099938 5904.00 6007.28 76.00
1671 89.5100 1.099454 5664.00 5696.23 75.00
1672 89.5600 1.098971 5205.00 5253.41 72.00
1673 89.6100 1.098488 4554.00 4748.22 67.00
1674 89.6600 1.098005 4092.00 4271.44 63.00
1675 89.7100 1.097524 3846.00 3896.30 62.00
1676 89.7600 1.097043 3810.00 3660.05 61.00
1677 89.8100 1.096562 3624.00 3576.38 60.00
1678 89.8600 1.096083 3675.00 3668.58 60.00
1679 89.9100 1.095604 4137.00 3997.31 64.00
1680 89.9600 1.095125 4577.00 4658.58 67.00
1681 90.0100 1.094647 5545.00 5736.01 74.00
1682 90.0600 1.094170 7006.00 7217.79 83.00
1683 90.1100 1.093693 8741.00 8921.70 93.00
1684 90.1600 1.093217 10268.00 10494.10 101.00
1685 90.2100 1.092742 11555.00 11521.10 107.00
1686 90.2600 1.092267 11538.00 11704.60 107.00
1687 90.3100 1.091793 11037.00 11002.80 105.00
1688 90.3600 1.091320 9600.00 9641.41 97.00
1689 90.4100 1.090847 7748.00 7998.64 88.00
1690 90.4600 1.090374 6241.00 6439.39 79.00
1691 90.5100 1.089903 4993.00 5197.80 70.00
1692 90.5600 1.089432 4273.00 4347.57 65.00
1693 90.6100 1.088961 3834.00 3845.90 61.00
1694 90.6600 1.088492 3661.00 3604.75 60.00
1695 90.7100 1.088022 3633.00 3548.95 60.00
1696 90.7600 1.087554 3731.00 3645.65 61.00
1697 90.8100 1.087086 3918.00 3904.70 62.00
1698 90.8600 1.086618 4400.00 4355.50 66.00
1699 90.9100 1.086152 4838.00 5005.70 69.00
1700 90.9600 1.085685 5741.00 5798.36 75.00
1701 91.0100 1.085220 6585.00 6592.15 81.00
1702 91.0600 1.084755 7130.00 7194.69 84.00
1703 91.1100 1.084291 7388.00 7444.12 85.00
1704 91.1600 1.083827 7273.00 7292.11 85.00
1705 91.2100 1.083364 6818.00 6828.80 82.00
1706 91.2600 1.082901 6089.00 6226.81 78.00
1707 91.3100 1.082439 5549.00 5645.72 74.00
1708 91.3600 1.081978 5179.00 5167.44 71.00
1709 91.4100 1.081517 4897.00 4798.12 69.00
1710 91.4600 1.081057 4636.00 4515.14 68.00
1711 91.5100 1.080598 4334.00 4312.43 65.00
1712 91.5600 1.080139 4196.00 4211.27 64.00
1713 91.6100 1.079680 4110.00 4238.90 64.00
1714 91.6600 1.079223 4173.00 4396.65 64.00
1715 91.7100 1.078766 4579.00 4640.30 67.00
1716 91.7600 1.078309 4893.00 4887.70 69.00
1717 91.8100 1.077853 5012.00 5056.20 70.00
1718 91.8600 1.077398 5045.00 5116.02 71.00
1719 91.9100 1.076943 5146.00 5133.79 71.00
1720 91.9600 1.076489 5291.00 5281.21 72.00
1721 92.0100 1.076035 5698.00 5793.49 75.00
1722 92.0600 1.075582 6754.00 6874.80 82.00
1723 92.1100 1.075130 8243.00 8569.55 90.00
1724 92.1600 1.074678 10526.00 10652.10 102.00
1725 92.2100 1.074226 12708.00 12626.20 112.00
1726 92.2600 1.073776 13891.00 13887.50 117.00
1727 92.3100 1.073326 13935.00 13997.20 118.00
1728 92.3600 1.072876 13001.00 12906.40 114.00
1729 92.4100 1.072427 11097.00 10977.20 105.00
1730 92.4600 1.071979 8618.00 8790.54 92.00
1731 92.5100 1.071531 6846.00 6892.15 82.00
1732 92.5600 1.071084 5732.00 5635.07 75.00
1733 92.6100 1.070637 5342.00 5181.32 73.00
1734 92.6600 1.070191 5732.00 5580.74 75.00
1735 92.7100 1.069746 6922.00 6810.52 83.00
1736 92.7600 1.069301 8840.00 8722.73 94.00
1737 92.8100 1.068856 11148.00 10957.90 105.00
1738 92.8600 1.068413 13538.00 12953.10 116.00
1739 92.9100 1.067969 14814.00 14110.30 121.00
1740 92.9600 1.067527 14620.00 14071.20 120.00
1741 93.0100 1.067085 13263.00 12904.70 115.00
1742 93.0600 1.066643 11114.00 11070.00 105.00
1743 93.1100 1.066202 9345.00 9179.14 96.00
1744 93.1600 1.065762 7854.00 7730.32 88.00
1745 93.2100 1.065322 6966.00 6962.01 83.00
1746 93.2600 1.064883 6740.00 6866.65 82.00
1747 93.3100 1.064444 7187.00 7282.10 84.00
1748 93.3600 1.064006 7996.00 7987.63 89.00
1749 93.4100 1.063569 8780.00 8767.81 93.00
1750 93.4600 1.063132 9445.00 9449.36 97.00
1751 93.5100 1.062695 9865.00 9919.72 99.00
1752 93.5600 1.062260 10092.00 10136.10 100.00
1753 93.6100 1.061824 10009.00 10130.40 100.00
1754 93.6600 1.061390 9856.00 10002.80 99.00
1755 93.7100 1.060955 9786.00 9893.49 98.00
1756 93.7600 1.060522 9817.00 9928.98 99.00
1757 93.8100 1.060089 9931.00 10166.40 99.00
1758 93.8600 1.059656 10443.00 10568.20 102.00
1759 93.9100 1.059224 10862.00 11015.20 104.00
1760 93.9600 1.058793 11362.00 11343.60 106.00
1761 94.0100 1.058362 11398.00 11385.60 106.00
1762 94.0600 1.057932 10989.00 11015.80 104.00
1763 94.1100 1.057502 10392.00 10198.80 101.00
1764 94.1600 1.057073 9209.00 9018.92 95.00
1765 94.2100 1.056644 7678.00 7662.05 87.00
1766 94.2600 1.056216 6379.00 6348.56 79.00
1767 94.3100 1.055789 5220.00 5253.03 72.00
1768 94.3600 1.055362 4590.00 4457.92 67.00
1769 94.4100 1.054935 4073.00 3960.84 63.00
1770 94.4600 1.054509 3783.00 3715.70 61.00
1771 94.5100 1.054084 3570.00 3681.11 59.00
1772 94.5600 1.053659 3876.00 3848.14 62.00
1773 94.6100 1.053235 4259.00 4237.81 65.00
1774 94.6600 1.052811 5009.00 4866.71 70.00
1775 94.7100 1.052388 5704.00 5696.42 75.00
1776 94.7600 1.051965 6571.00 6597.40 81.00
1777 94.8100 1.051543 7591.00 7362.18 87.00
1778 94.8600 1.051122 7982.00 7778.66 89.00
1779 94.9100 1.050701 7926.00 7725.48 89.00
1780 94.9600 1.050280 7590.00 7232.59 87.00
1781 95.0100 1.049860 6635.00 6468.69 81.00
1782 95.0600 1.049441 5853.00 5672.62 76.00
1783 95.1100 1.049022 5316.00 5077.87 72.00
1784 95.1600 1.048604 5123.00 4871.39 71.00
1785 95.2100 1.048186 5400.00 5176.70 73.00
1786 95.2600 1.047768 6176.00 6031.48 78.00
1787 95.3100 1.047352 7515.00 7340.91 86.00
1788 95.3600 1.046935 9179.00 8843.39 95.00
1789 95.4100 1.046520 10399.00 10156.50 101.00
1790 95.4600 1.046105 11424.00 10941.80 106.00
1791 95.5100 1.045690 11602.00 11131.00 107.00
1792 95.5600 1.045276 11678.00 11085.10 108.00
1793 95.6100 1.044862 11878.00 11559.70 108.00
1794 95.6600 1.044449 13257.00 13442.80 115.00
1795 95.7100 1.044037 17084.00 17336.60 130.00
1796 95.7600 1.043625 22653.00 23128.90 150.00
1797 95.8100 1.043213 29518.00 29791.30 171.00
1798 95.8600 1.042802 35614.00 35608.20 188.00
1799 95.9100 1.042392 38998.00 38835.00 197.00
1800 95.9600 1.041982 38327.00 38493.10 195.00
1801 96.0100 1.041572 34973.00 34800.90 187.00
1802 96.0600 1.041164 28913.00 28976.00 170.00
1803 96.1100 1.040755 22560.00 22568.90 150.00
1804 96.1600 1.040347 16805.00 16800.50 129.00
1805 96.2100 1.039940 12341.00 12254.90 111.00
1806 96.2600 1.039533 9332.00 8979.89 96.00
1807 96.3100 1.039127 7258.00 6753.74 85.00
1808 96.3600 1.038721 5729.00 5304.26 75.00
1809 96.4100 1.038316 4776.00 4406.36 69.00
1810 96.4600 1.037911 4275.00 3888.16 65.00
1811 96.5100 1.037507 4077.00 3620.28 63.00
1812 96.5600 1.037103 3834.00 3511.03 61.00
1813 96.6100 1.036700 3770.00 3508.71 61.00
1814 96.6600 1.036297 3832.00 3604.87 61.00
1815 96.7100 1.035895 4134.00 3839.50 64.00
1816 96.7600 1.035493 4724.00 4311.84 68.00
1817 96.8100 1.035092 5674.00 5189.76 75.00
1818 96.8600 1.034692 7097.00 6691.55 84.00
1819 96.9100 1.034292 9131.00 9001.12 95.00
1820 96.9600 1.033892 12121.00 12117.30 110.00
1821 97.0100 1.033493 15274.00 15696.90 123.00
1822 97.0600 1.033094 18717.00 19041.60 136.00
1823 97.1100 1.032696 21225.00 21314.90 145.00
1824 97.1600 1.032298 21585.00 21916.90 146.00
1825 97.2100 1.031901 20726.00 20787.90 143.00
1826 97.2600 1.031505 18661.00 18414.30 136.00
1827 97.3100 1.031108 15410.00 15535.50 124.00
1828 97.3600 1.030713 12965.00 12773.40 113.00
1829 97.4100 1.030318 10543.00 10432.90 102.00
1830 97.4600 1.029923 8702.00 8540.98 93.00
1831 97.5100 1.029529 7273.00 7015.99 85.00
1832 97.5600 1.029135 5931.00 5795.64 77.00
1833 97.6100 1.028742 5100.00 4862.40 71.00
1834 97.6600 1.028349 4315.00 4208.22 65.00
1835 97.7100 1.027957 3824.00 3799.52 61.00
1836 97.7600 1.027566 3527.00 3577.88 59.00
1837 97.8100 1.027174 3591.00 3480.16 59.00
1838 97.8600 1.026784 3425.00 3456.44 58.00
1839 97.9100 1.026394 3448.00 3474.63 58.00
1840 97.9600 1.026004 3465.00 3514.62 58.00
1841 98.0100 1.025615 3533.00 3560.59 59.00
1842 98.0600 1.025226 3517.00 3597.38 59.00
1843 98.1100 1.024838 3439.00 3612.48 58.00
1844 98.1600 1.024450 3475.00 3600.43 58.00
1845 98.2100 1.024063 3444.00 3565.27 58.00
1846 98.2600 1.023676 3400.00 3518.27 58.00
1847 98.3100 1.023290 3457.00 3472.77 58.00
1848 98.3600 1.022904 3434.00 3439.96 58.00
1849 98.4100 1.022519 3313.00 3428.96 57.00
1850 98.4600 1.022134 3501.00 3451.19 59.00
1851 98.5100 1.021750 3327.00 3525.75 57.00
1852 98.5600 1.021366 3632.00 3680.55 60.00
1853 98.6100 1.020983 3741.00 3943.32 61.00
1854 98.6600 1.020600 4100.00 4321.14 64.00
1855 98.7100 1.020217 4628.00 4777.48 68.00
1856 98.7600 1.019835 5045.00 5224.15 71.00
1857 98.8100 1.019454 5496.00 5545.43 74.00
1858 98.8600 1.019073 5589.00 5650.20 74.00
1859 98.9100 1.018692 5392.00 5521.70 73.00
1860 98.9600 1.018312 5134.00 5231.03 71.00
1861 99.0100 1.017933 4751.00 4900.85 68.00
1862 99.0600 1.017554 4550.00 4642.13 67.00
1863 99.1100 1.017175 4342.00 4503.53 65.00
1864 99.1600 1.016797 4341.00 4461.09 65.00
1865 99.2100 1.016420 4338.00 4447.17 65.00
1866 99.2600 1.016043 4365.00 4397.76 66.00
1867 99.3100 1.015666 4303.00 4291.09 65.00
1868 99.3600 1.015290 4129.00 4162.33 64.00
1869 99.4100 1.014914 4067.00 4096.17 63.00
1870 99.4600 1.014539 4234.00 4208.22 65.00
1871 99.5100 1.014164 4661.00 4622.13 68.00
1872 99.5600 1.013790 5420.00 5435.94 73.00
1873 99.6100 1.013416 6752.00 6675.00 82.00
1874 99.6600 1.013042 8261.00 8248.17 90.00
1875 99.7100 1.012669 10119.00 9952.70 100.00
1876 99.7600 1.012297 11587.00 11547.10 107.00
1877 99.8100 1.011925 12596.00 12859.90 112.00
1878 99.8600 1.011554 13569.00 13838.90 116.00
1879 99.9100 1.011182 14390.00 14491.60 119.00
1880 99.9600 1.010812 14980.00 14770.50 122.00
1881 100.0100 1.010442 14660.00 14530.00 121.00
1882 100.0600 1.010072 13613.00 13622.40 116.00
1883 100.1100 1.009703 12263.00 12054.10 110.00
1884 100.1600 1.009334 10240.00 10058.40 101.00
1885 100.2100 1.008966 8022.00 8009.35 89.00
1886 100.2600 1.008598 6192.00 6251.64 78.00
1887 100.3100 1.008231 4974.00 4969.04 70.00
1888 100.3600 1.007864 4087.00 4165.65 63.00
1889 100.4100 1.007497 3695.00 3734.98 60.00
1890 100.4600 1.007132 3582.00 3543.69 59.00
1891 100.5100 1.006766 3474.00 3485.11 58.00
1892 100.5600 1.006401 3569.00 3492.07 59.00
1893 100.6100 1.006036 3536.00 3527.96 59.00
1894 100.6600 1.005672 3570.00 3573.30 59.00
1895 100.7100 1.005309 3496.00 3616.31 59.00
1896 100.7600 1.004945 3647.00 3648.32 60.00
1897 100.8100 1.004583 3537.00 3662.38 59.00
1898 100.8600 1.004220 3414.00 3654.04 58.00
1899 100.9100 1.003858 3563.00 3623.21 59.00
1900 100.9600 1.003497 3536.00 3575.25 59.00
1901 101.0100 1.003136 3328.00 3519.79 57.00
1902 101.0600 1.002775 3351.00 3467.27 57.00
1903 101.1100 1.002415 3327.00 3425.25 57.00
1904 101.1600 1.002056 3247.00 3396.93 56.00
1905 101.2100 1.001697 3280.00 3382.39 57.00
1906 101.2600 1.001338 3265.00 3381.80 57.00
1907 101.3100 1.000980 3286.00 3399.04 57.00
1908 101.3600 1.000622 3419.00 3444.54 58.00
1909 101.4100 1.000264 3546.00 3536.16 59.00
1910 101.4600 0.999907 3705.00 3697.22 60.00
1911 101.5100 0.999551 4003.00 3951.33 63.00
1912 101.5600 0.999195 4169.00 4315.65 64.00
1913 101.6100 0.998839 4621.00 4794.81 67.00
1914 101.6600 0.998484 5320.00 5375.16 72.00
1915 101.7100 0.998129 5999.00 6019.56 77.00
1916 101.7600 0.997775 6615.00 6660.18 81.00
1917 101.8100 0.997421 7121.00 7199.33 84.00
1918 101.8600 0.997068 7461.00 7526.06 86.00
1919 101.9100 0.996715 7540.00 7550.58 86.00
1920 101.9600 0.996362 7205.00 7244.28 84.00
1921 102.0100 0.996010 6774.00 6660.10 82.00
1922 102.0600 0.995659 5886.00 5918.77 76.00
1923 102.1100 0.995307 5050.00 5164.14 71.00
1924 102.1600 0.994957 4462.00 4514.17 66.00
1925 102.2100 0.994606 4027.00 4030.35 63.00
1926 102.2600 0.994256 3567.00 3718.51 59.00
1927 102.3100 0.993907 3404.00 3549.94 58.00
1928 102.3600 0.993558 3347.00 3486.61 57.00
1929 102.4100 0.993209 3290.00 3496.78 57.00
1930 102.4600 0.992861 3466.00 3557.08 58.00
1931 102.5100 0.992513 3558.00 3646.52 59.00
1932 102.5600 0.992166 3688.00 3740.60 60.00
1933 102.6100 0.991819 3880.00 3812.13 62.00
1934 102.6600 0.991473 3729.00 3839.50 61.00
1935 102.7100 0.991127 3705.00 3817.48 60.00
1936 102.7600 0.990781 3684.00 3763.57 60.00
1937 102.8100 0.990436 3596.00 3716.36 59.00
1938 102.8600 0.990091 3637.00 3728.26 60.00
1939 102.9100 0.989747 3864.00 3856.28 62.00
1940 102.9600 0.989403 4204.00 4151.35 64.00
1941 103.0100 0.989060 4636.00 4642.59 68.00
1942 103.0600 0.988717 5011.00 5316.57 70.00
1943 103.1100 0.988374 5963.00 6100.29 77.00
1944 103.1600 0.988032 6850.00 6862.03 82.00
1945 103.2100 0.987690 7475.00 7443.79 86.00
1946 103.2600 0.987349 7602.00 7716.24 87.00
1947 103.3100 0.987008 7500.00 7632.43 86.00
1948 103.3600 0.986668 7132.00 7246.97 84.00
1949 103.4100 0.986328 6668.00 6690.60 81.00
1950 103.4600 0.985988 6034.00 6117.73 77.00
1951 103.5100 0.985649 5712.00 5662.42 75.00
1952 103.5600 0.985310 5502.00 5421.02 74.00
1953 103.6100 0.984972 5582.00 5455.01 74.00
1954 103.6600 0.984634 6016.00 5793.80 77.00
1955 103.7100 0.984296 6629.00 6425.03 81.00
1956 103.7600 0.983959 7514.00 7278.61 86.00
1957 103.8100 0.983623 8312.00 8219.00 91.00
1958 103.8600 0.983286 9318.00 9058.00 96.00
1959 103.9100 0.982950 9645.00 9592.68 98.00
1960 103.9600 0.982615 9399.00 9665.10 96.00
1961 104.0100 0.982280 9224.00 9222.59 96.00
1962 104.0600 0.981945 8201.00 8346.63 90.00
1963 104.1100 0.981611 6986.00 7225.65 83.00
1964 104.1600 0.981278 6017.00 6083.79 77.00
1965 104.2100 0.980944 4948.00 5100.15 70.00
1966 104.2600 0.980611 4329.00 4365.79 65.00
1967 104.3100 0.980279 3890.00 3884.86 62.00
1968 104.3600 0.979947 3624.00 3608.61 60.00
1969 104.4100 0.979615 3405.00 3474.32 58.00
1970 104.4600 0.979284 3459.00 3429.80 58.00
1971 104.5100 0.978953 3536.00 3441.07 59.00
1972 104.5600 0.978622 3477.00 3487.72 58.00
1973 104.6100 0.978292 3447.00 3554.39 58.00
1974 104.6600 0.977962 3590.00 3624.66 59.00
1975 104.7100 0.977633 3635.00 3680.84 60.00
1976 104.7600 0.977304 3686.00 3708.84 60.00
1977 104.8100 0.976976 3628.00 3704.13 60.00
1978 104.8600 0.976648 3553.00 3674.43 59.00
1979 104.9100 0.976320 3545.00 3637.70 59.00
1980 104.9600 0.975993 3491.00 3617.91 59.00
1981 105.0100 0.975666 3604.00 3641.18 60.00
1982 105.0600 0.975340 3567.00 3731.50 59.00
1983 105.1100 0.975014 3771.00 3902.81 61.00
1984 105.1600 0.974688 4011.00 4146.64 63.00
1985 105.2100 0.974363 4304.00 4422.90 65.00
1986 105.2600 0.974038 4592.00 4663.46 67.00
1987 105.3100 0.973714 4656.00 4795.33 68.00
1988 105.3600 0.973390 4736.00 4773.33 68.00
1989 105.4100 0.973066 4595.00 4602.75 67.00
1990 105.4600 0.972743 4247.00 4336.79 65.00
1991 105.5100 0.972420 3941.00 4050.88 62.00
1992 105.5600 0.972098 3710.00 3810.72 60.00
1993 105.6100 0.971776 3624.00 3652.34 60.00
1994 105.6600 0.971455 3537.00 3580.66 59.00
1995 105.7100 0.971133 3553.00 3579.48 59.00
1996 105.7600 0.970812 3631.00 3623.55 60.00
1997 105.8100 0.970492 3669.00 3686.40 60.00
1998 105.8600 0.970172 3722.00 3744.14 61.00
1999 105.9100 0.969852 3830.00 3777.62 61.00
2000 105.9600 0.969533 3789.00 3775.07 61.00
2001 106.0100 0.969214 3693.00 3734.63 60.00
2002 106.0600 0.968896 3719.00 3664.73 60.00
2003 106.1100 0.968578 3583.00 3580.82 59.00
2004 106.1600 0.968260 3412.00 3499.65 58.00
2005 106.2100 0.967943 3483.00 3434.03 59.00
2006 106.2600 0.967626 3362.00 3391.48 57.00
2007 106.3100 0.967310 3469.00 3378.33 58.00
2008 106.3600 0.966994 3563.00 3409.36 59.00
2009 106.4100 0.966678 3805.00 3521.49 61.00
2010 106.4600 0.966363 3981.00 3787.49 63.00
2011 106.5100 0.966048 4449.00 4318.56 66.00
2012 106.5600 0.965733 5180.00 5239.62 71.00
2013 106.6100 0.965419 6521.00 6626.29 80.00
2014 106.6600 0.965106 8389.00 8415.90 91.00
2015 106.7100 0.964792 10291.00 10348.00 101.00
2016 106.7600 0.964479 11995.00 11995.80 109.00
2017 106.8100 0.964167 12992.00 12911.80 113.00
2018 106.8600 0.963854 12987.00 12828.70 113.00
2019 106.9100 0.963543 11684.00 11788.60 108.00
2020 106.9600 0.963231 9968.00 10117.10 99.00
2021 107.0100 0.962920 8091.00 8261.49 89.00
2022 107.0600 0.962610 6502.00 6598.54 80.00
2023 107.1100 0.962299 5254.00 5326.31 72.00
2024 107.1600 0.961989 4613.00 4468.18 67.00
2025 107.2100 0.961680 4073.00 3944.28 63.00
2026 107.2600 0.961371 3808.00 3649.16 61.00
2027 107.3100 0.961062 3551.00 3495.82 59.00
2028 107.3600 0.960754 3544.00 3427.13 59.00
2029 107.4100 0.960446 3478.00 3409.95 58.00
2030 107.4600 0.960138 3434.00 3424.98 58.00
2031 107.5100 0.959831 3531.00 3459.25 59.00
2032 107.5600 0.959524 3583.00 3502.55 59.00
2033 107.6100 0.959218 3594.00 3547.69 59.00
2034 107.6600 0.958912 3553.00 3593.08 59.00
2035 107.7100 0.958606 3667.00 3644.92 60.00
2036 107.7600 0.958301 3722.00 3715.42 61.00
2037 107.8100 0.957996 3873.00 3816.61 62.00
2038 107.8600 0.957691 3996.00 3951.93 63.00
2039 107.9100 0.957387 4113.00 4109.71 64.00
2040 107.9600 0.957083 4308.00 4262.85 65.00
2041 108.0100 0.956780 4416.00 4375.35 66.00
2042 108.0600 0.956477 4428.00 4414.32 66.00
2043 108.1100 0.956174 4368.00 4362.98 66.00
2044 108.1600 0.955871 4252.00 4228.44 65.00
2045 108.2100 0.955570 3957.00 4039.80 62.00
2046 108.2600 0.955268 3786.00 3836.86 61.00
2047 108.3100 0.954967 3647.00 3655.31 60.00
2048 108.3600 0.954666 3538.00 3515.98 59.00
2049 108.4100 0.954365 3411.00 3423.36 58.00
2050 108.4600 0.954065 3323.00 3370.79 57.00
2051 108.5100 0.953766 3291.00 3349.01 57.00
2052 108.5600 0.953466 3470.00 3353.62 58.00
2053 108.6100 0.953167 3412.00 3390.22 58.00
2054 108.6600 0.952869 3586.00 3476.51 59.00
2055 108.7100 0.952570 3722.00 3639.81 61.00
2056 108.7600 0.952273 3980.00 3906.92 63.00
2057 108.8100 0.951975 4267.00 4286.09 65.00
2058 108.8600 0.951678 4708.00 4747.74 68.00
2059 108.9100 0.951381 5251.00 5216.81 72.00
2060 108.9600 0.951085 5595.00 5591.18 74.00
2061 109.0100 0.950789 5759.00 5782.13 75.00
2062 109.0600 0.950493 5750.00 5759.12 75.00
2063 109.1100 0.950198 5659.00 5568.18 75.00
2064 109.1600 0.949903 5334.00 5310.62 73.00
2065 109.2100 0.949608 5148.00 5094.41 71.00
2066 109.2600 0.949314 4974.00 4990.33 70.00
2067 109.3100 0.949020 4964.00 5018.15 70.00
2068 109.3600 0.948727 5220.00 5164.13 72.00
2069 109.4100 0.948433 5495.00 5407.72 74.00
2070 109.4600 0.948141 5634.00 5732.07 75.00
2071 109.5100 0.947848 5918.00 6110.46 76.00
2072 109.5600 0.947556 6327.00 6485.79 79.00
2073 109.6100 0.947265 6585.00 6769.74 81.00
2074 109.6600 0.946973 6475.00 6871.29 80.00
2075 109.7100 0.946682 6449.00 6741.11 80.00
2076 109.7600 0.946392 6323.00 6399.10 79.00
2077 109.8100 0.946101 5901.00 5925.26 76.00
2078 109.8600 0.945811 5316.00 5420.01 72.00
2079 109.9100 0.945522 4914.00 4962.10 70.00
2080 109.9600 0.945233 4561.00 4588.37 67.00
2081 110.0100 0.944944 4453.00 4301.15 66.00
2082 110.0600 0.944655 4161.00 4088.80 64.00
2083 110.1100 0.944367 4052.00 3941.56 63.00
2084 110.1600 0.944080 3929.00 3854.56 62.00
2085 110.2100 0.943792 3839.00 3821.55 61.00
2086 110.2600 0.943505 3833.00 3830.88 61.00
2087 110.3100 0.943218 4123.00 3869.63 64.00
2088 110.3600 0.942932 4111.00 3934.59 64.00
2089 110.4100 0.942646 4202.00 4040.09 64.00
2090 110.4600 0.942360 4437.00 4213.41 66.00
2091 110.5100 0.942075 4514.00 4475.24 67.00
2092 110.5600 0.941790 4884.00 4815.04 69.00
2093 110.6100 0.941506 5236.00 5177.72 72.00
2094 110.6600 0.941221 5403.00 5474.50 73.00
2095 110.7100 0.940938 5631.00 5617.41 75.00
2096 110.7600 0.940654 5572.00 5558.67 74.00
2097 110.8100 0.940371 5363.00 5313.32 73.00
2098 110.8600 0.940088 5131.00 4952.09 71.00
2099 110.9100 0.939805 4602.00 4571.74 67.00
2100 110.9600 0.939523 4269.00 4258.94 65.00
2101 111.0100 0.939242 4086.00 4065.28 63.00
2102 111.0600 0.938960 4097.00 3998.19 64.00
2103 111.1100 0.938679 4149.00 4026.45 64.00
2104 111.1600 0.938398 4223.00 4095.60 64.00
2105 111.2100 0.938118 4248.00 4148.57 65.00
2106 111.2600 0.937838 4181.00 4146.28 64.00
2107 111.3100 0.937558 4092.00 4081.20 63.00
2108 111.3600 0.937279 4025.00 3977.79 63.00
2109 111.4100 0.937000 3904.00 3880.11 62.00
2110 111.4600 0.936721 3813.00 3832.15 61.00
2111 111.5100 0.936443 3796.00 3859.85 61.00
2112 111.5600 0.936165 3945.00 3960.70 62.00
2113 111.6100 0.935887 4071.00 4104.77 63.00
2114 111.6600 0.935610 4266.00 4247.21 65.00
2115 111.7100 0.935333 4298.00 4348.86 65.00
2116 111.7600 0.935056 4337.00 4396.19 65.00
2117 111.8100 0.934780 4422.00 4409.61 66.00
2118 111.8600 0.934504 4461.00 4432.66 66.00
2119 111.9100 0.934228 4475.00 4505.78 66.00
2120 111.9600 0.933953 4667.00 4638.63 68.00
2121 112.0100 0.933678 4829.00 4798.00 69.00
2122 112.0600 0.933404 4978.00 4920.32 70.00
2123 112.1100 0.933130 4938.00 4943.07 70.00
2124 112.1600 0.932856 4835.00 4836.53 69.00
2125 112.2100 0.932582 4686.00 4617.45 68.00
2126 112.2600 0.932309 4436.00 4337.97 66.00
2127 112.3100 0.932036 4104.00 4058.93 64.00
2128 112.3600 0.931764 3826.00 3824.88 61.00
2129 112.4100 0.931491 3734.00 3654.21 61.00
2130 112.4600 0.931219 3698.00 3543.96 60.00
2131 112.5100 0.930948 3503.00 3482.71 59.00
2132 112.5600 0.930677 3568.00 3460.92 59.00
2133 112.6100 0.930406 3559.00 3474.94 59.00
2134 112.6600 0.930135 3628.00 3524.59 60.00
2135 112.7100 0.929865 3650.00 3607.75 60.00
2136 112.7600 0.929595 3761.00 3715.83 61.00
2137 112.8100 0.929326 3846.00 3833.64 62.00
2138 112.8600 0.929057 4019.00 3944.98 63.00
2139 112.9100 0.928788 4081.00 4041.21 63.00
2140 112.9600 0.928519 4048.00 4127.37 63.00
2141 113.0100 0.928251 4176.00 4220.16 64.00
2142 113.0600 0.927983 4346.00 4338.11 65.00
2143 113.1100 0.927716 4495.00 4489.84 67.00
2144 113.1600 0.927448 4617.00 4668.32 67.00
2145 113.2100 0.927181 4778.00 4853.95 69.00
2146 113.2600 0.926915 5062.00 5021.43 71.00
2147 113.3100 0.926649 5181.00 5144.48 71.00
2148 113.3600 0.926383 5120.00 5197.45 71.00
2149 113.4100 0.926117 5267.00 5158.30 72.00
2150 113.4600 0.925852 4995.00 5017.59 70.00
2151 113.5100 0.925587 4699.00 4789.76 68.00
2152 113.5600 0.925323 4493.00 4518.44 67.00
2153 113.6100 0.925058 4165.00 4270.33 64.00
2154 113.6600 0.924794 4110.00 4120.91 64.00
2155 113.7100 0.924531 4391.00 4137.17 66.00
2156 113.7600 0.924268 4416.00 4361.44 66.00
2157 113.8100 0.924005 4867.00 4794.38 69.00
2158 113.8600 0.923742 5393.00 5380.38 73.00
2159 113.9100 0.923480 5934.00 6004.64 77.00
2160 113.9600 0.923218 6629.00 6516.84 81.00
2161 114.0100 0.922956 6929.00 6780.83 83.00
2162 114.0600 0.922695 6981.00 6732.58 83.00
2163 114.1100 0.922434 6723.00 6414.83 81.00
2164 114.1600 0.922173 6124.00 5966.57 78.00
2165 114.2100 0.921913 5635.00 5570.25 75.00
2166 114.2600 0.921653 5513.00 5382.70 74.00
2167 114.3100 0.921393 5445.00 5477.48 73.00
2168 114.3600 0.921134 5873.00 5819.88 76.00
2169 114.4100 0.920875 6374.00 6280.92 79.00
2170 114.4600 0.920616 6554.00 6687.74 80.00
2171 114.5100 0.920358 6628.00 6893.01 81.00
2172 114.5600 0.920099 6889.00 6835.82 83.00
2173 114.6100 0.919842 6542.00 6562.56 80.00
2174 114.6600 0.919584 6189.00 6195.67 78.00
2175 114.7100 0.919327 5887.00 5868.04 76.00
2176 114.7600 0.919070 5676.00 5662.15 75.00
2177 114.8100 0.918814 5625.00 5587.27 75.00
2178 114.8600 0.918558 5647.00 5604.51 75.00
2179 114.9100 0.918302 5772.00 5675.94 75.00
2180 114.9600 0.918046 5799.00 5802.19 76.00
2181 115.0100 0.917791 5949.00 6021.39 77.00
2182 115.0600 0.917536 6156.00 6370.82 78.00
2183 115.1100 0.917281 6741.00 6837.48 82.00
2184 115.1600 0.917027 7338.00 7334.27 85.00
2185 115.2100 0.916773 7837.00 7722.50 88.00
2186 115.2600 0.916519 7940.00 7870.06 89.00
2187 115.3100 0.916266 7823.00 7712.41 88.00
2188 115.3600 0.916013 7446.00 7279.34 86.00
2189 115.4100 0.915760 6741.00 6678.09 82.00
2190 115.4600 0.915508 6084.00 6047.84 78.00
2191 115.5100 0.915256 5592.00 5513.89 74.00
2192 115.5600 0.915004 5281.00 5156.65 72.00
2193 115.6100 0.914753 5157.00 5001.86 71.00
2194 115.6600 0.914501 5270.00 5023.89 72.00
2195 115.7100 0.914251 5310.00 5159.09 72.00
2196 115.7600 0.914000 5402.00 5327.93 73.00
2197 115.8100 0.913750 5704.00 5462.68 75.00
2198 115.8600 0.913500 5674.00 5531.99 75.00
2199 115.9100 0.913251 5638.00 5553.31 75.00
2200 115.9600 0.913001 5651.00 5587.04 75.00
2201 116.0100 0.912752 5749.00 5712.33 75.00
2202 116.0600 0.912504 5927.00 5991.32 76.00
2203 116.1100 0.912255 6385.00 6433.39 79.00
2204 116.1600 0.912007 7088.00 6974.99 84.00
2205 116.2100 0.911759 7505.00 7490.51 86.00
2206 116.2600 0.911512 7767.00 7833.15 88.00
2207 116.3100 0.911265 7681.00 7890.13 87.00
2208 116.3600 0.911018 7479.00 7625.45 86.00
2209 116.4100 0.910772 6994.00 7088.30 83.00
2210 116.4600 0.910525 6396.00 6387.16 79.00
2211 116.5100 0.910280 5609.00 5647.24 74.00
2212 116.5600 0.910034 4967.00 4973.65 70.00
2213 116.6100 0.909789 4524.00 4430.61 67.00
2214 116.6600 0.909544 4183.00 4041.31 64.00
2215 116.7100 0.909299 3876.00 3798.44 62.00
2216 116.7600 0.909055 3743.00 3677.81 61.00
2217 116.8100 0.908811 3697.00 3649.40 60.00
2218 116.8600 0.908567 3777.00 3683.36 61.00
2219 116.9100 0.908323 3957.00 3753.01 62.00
2220 116.9600 0.908080 3848.00 3836.84 62.00
2221 117.0100 0.907837 3882.00 3921.34 62.00
2222 117.0600 0.907595 4033.00 4003.58 63.00
2223 117.1100 0.907353 4095.00 4091.18 63.00
2224 117.1600 0.907111 4189.00 4197.50 64.00
2225 117.2100 0.906869 4364.00 4333.55 66.00
2226 117.2600 0.906628 4540.00 4500.28 67.00
2227 117.3100 0.906387 4727.00 4686.37 68.00
2228 117.3600 0.906146 4939.00 4872.26 70.00
2229 117.4100 0.905905 5102.00 5038.84 71.00
2230 117.4600 0.905665 5201.00 5175.47 72.00
2231 117.5100 0.905425 5349.00 5283.54 73.00
2232 117.5600 0.905186 5391.00 5374.80 73.00
2233 117.6100 0.904947 5477.00 5465.96 74.00
2234 117.6600 0.904708 5563.00 5572.73 74.00
2235 117.7100 0.904469 5928.00 5705.10 76.00
2236 117.7600 0.904231 5979.00 5864.79 77.00
2237 117.8100 0.903993 5980.00 6045.93 77.00
2238 117.8600 0.903755 6225.00 6238.34 78.00
2239 117.9100 0.903518 6422.00 6431.55 80.00
2240 117.9600 0.903280 6477.00 6616.95 80.00
2241 118.0100 0.903044 6604.00 6783.11 81.00
2242 118.0600 0.902807 6917.00 6908.30 83.00
2243 118.1100 0.902571 6962.00 6955.54 83.00
2244 118.1600 0.902335 6879.00 6879.29 82.00
2245 118.2100 0.902099 6622.00 6645.05 81.00
2246 118.2600 0.901864 6210.00 6251.64 78.00
2247 118.3100 0.901629 5747.00 5741.65 75.00
2248 118.3600 0.901394 5062.00 5191.36 71.00
2249 118.4100 0.901159 4612.00 4686.24 67.00
2250 118.4600 0.900925 4269.00 4294.00 65.00
2251 118.5100 0.900691 4145.00 4050.52 64.00
2252 118.5600 0.900458 4009.00 3959.44 63.00
2253 118.6100 0.900224 4172.00 3999.74 64.00
2254 118.6600 0.899991 4166.00 4136.52 64.00
2255 118.7100 0.899759 4381.00 4332.04 66.00
2256 118.7600 0.899526 4486.00 4559.97 66.00
2257 118.8100 0.899294 4785.00 4821.85 69.00
2258 118.8600 0.899062 5136.00 5159.96 71.00
2259 118.9100 0.898830 5611.00 5650.71 74.00
2260 118.9600 0.898599 6376.00 6373.52 79.00
2261 119.0100 0.898368 7244.00 7357.71 85.00
2262 119.0600 0.898137 8363.00 8531.70 91.00
2263 119.1100 0.897907 9685.00 9710.68 98.00
2264 119.1600 0.897677 10767.00 10638.20 103.00
2265 119.2100 0.897447 11133.00 11075.30 105.00
2266 119.2600 0.897218 10854.00 10894.40 104.00
2267 119.3100 0.896988 9802.00 10130.40 99.00
2268 119.3600 0.896759 8630.00 8961.50 92.00
2269 119.4100 0.896531 7378.00 7635.17 85.00
2270 119.4600 0.896302 6170.00 6380.79 78.00
2271 119.5100 0.896074 5228.00 5348.77 72.00
2272 119.5600 0.895846 4808.00 4596.00 69.00
2273 119.6100 0.895619 4097.00 4104.59 64.00
2274 119.6600 0.895391 3871.00 3818.22 62.00
2275 119.7100 0.895165 3717.00 3672.80 60.00
2276 119.7600 0.894938 3568.00 3614.77 59.00
2277 119.8100 0.894711 3591.00 3607.23 59.00
2278 119.8600 0.894485 3676.00 3629.27 60.00
2279 119.9100 0.894259 3594.00 3672.39 59.00
2280 119.9600 0.894034 3561.00 3736.59 59.00
2281 120.0100 0.893809 3748.00 3826.17 61.00
2282 120.0600 0.893584 3806.00 3945.38 61.00
2283 120.1100 0.893359 3950.00 4093.52 62.00
2284 120.1600 0.893135 4147.00 4261.04 64.00
2285 120.2100 0.892910 4305.00 4428.53 65.00
2286 120.2600 0.892687 4485.00 4570.08 66.00
2287 120.3100 0.892463 4629.00 4661.77 68.00
2288 120.3600 0.892240 4542.00 4691.34 67.00
2289 120.4100 0.892017 4538.00 4664.66 67.00
2290 120.4600 0.891794 4388.00 4604.20 66.00
2291 120.5100 0.891572 4431.00 4539.02 66.00
2292 120.5600 0.891349 4447.00 4490.82 66.00
2293 120.6100 0.891128 4385.00 4463.88 66.00
2294 120.6600 0.890906 4464.00 4444.60 66.00
2295 120.7100 0.890685 4475.00 4410.62 66.00
2296 120.7600 0.890464 4293.00 4344.13 65.00
2297 120.8100 0.890243 4076.00 4241.34 63.00
2298 120.8600 0.890022 3933.00 4113.48 62.00
2299 120.9100 0.889802 3823.00 3980.20 61.00
2300 120.9600 0.889582 3755.00 3860.00 61.00
2301 121.0100 0.889363 3712.00 3763.72 60.00
2302 121.0600 0.889143 3737.00 3693.38 61.00
2303 121.1100 0.888924 3643.00 3644.71 60.00
2304 121.1600 0.888705 3527.00 3611.61 59.00
2305 121.2100 0.888487 3444.00 3588.82 58.00
2306 121.2600 0.888268 3471.00 3573.11 58.00
2307 121.3100 0.888051 3462.00 3562.91 58.00
2308 121.3600 0.887833 3460.00 3557.75 58.00
2309 121.4100 0.887615 3367.00 3558.02 58.00
2310 121.4600 0.887398 3480.00 3565.23 58.00
2311 121.5100 0.887181 3541.00 3582.45 59.00
2312 121.5600 0.886965 3506.00 3614.22 59.00
2313 121.6100 0.886748 3596.00 3665.58 59.00
2314 121.6600 0.886532 3593.00 3739.74 59.00
2315 121.7100 0.886317 3609.00 3834.94 60.00
2316 121.7600 0.886101 3689.00 3941.99 60.00
2317 121.8100 0.885886 3748.00 4044.14 61.00
2318 121.8600 0.885671 3933.00 4120.99 62.00
2319 121.9100 0.885456 3979.00 4154.98 63.00
2320 121.9600 0.885242 3980.00 4138.08 63.00
2321 122.0100 0.885028 3841.00 4075.14 61.00
2322 122.0600 0.884814 3773.00 3981.96 61.00
2323 122.1100 0.884600 3814.00 3879.52 61.00
2324 122.1600 0.884387 3745.00 3787.69 61.00
2325 122.2100 0.884174 3712.00 3721.95 60.00
2326 122.2600 0.883961 3727.00 3695.11 61.00
2327 122.3100 0.883748 3882.00 3723.21 62.00
2328 122.3600 0.883536 4086.00 3833.51 63.00
2329 122.4100 0.883324 4280.00 4070.23 65.00
2330 122.4600 0.883112 4695.00 4493.76 68.00
2331 122.5100 0.882901 5339.00 5167.81 73.00
2332 122.5600 0.882690 6154.00 6135.40 78.00
2333 122.6100 0.882479 7203.00 7386.66 84.00
2334 122.6600 0.882268 8789.00 8832.66 93.00
2335 122.7100 0.882058 10345.00 10301.30 101.00
2336 122.7600 0.881848 11663.00 11563.30 107.00
2337 122.8100 0.881638 12516.00 12391.80 111.00
2338 122.8600 0.881428 12649.00 12628.10 112.00
2339 122.9100 0.881219 12089.00 12234.20 109.00
2340 122.9600 0.881010 11124.00 11305.40 105.00
2341 123.0100 0.880801 9716.00 10041.60 98.00
2342 123.0600 0.880593 8647.00 8682.50 92.00
2343 123.1100 0.880385 7491.00 7439.28 86.00
2344 123.1600 0.880177 6347.00 6445.24 79.00
2345 123.2100 0.879969 5821.00 5738.18 76.00
2346 123.2600 0.879762 5501.00 5280.94 74.00
2347 123.3100 0.879554 5220.00 5001.46 72.00
2348 123.3600 0.879348 5236.00 4835.94 72.00
2349 123.4100 0.879141 5104.00 4759.42 71.00
2350 123.4600 0.878935 5228.00 4795.23 72.00
2351 123.5100 0.878728 5117.00 5003.69 71.00
2352 123.5600 0.878523 5327.00 5453.12 72.00
2353 123.6100 0.878317 6035.00 6182.96 77.00
2354 123.6600 0.878112 7167.00 7165.52 84.00
2355 123.7100 0.877907 8328.00 8287.97 91.00
2356 123.7600 0.877702 9315.00 9363.83 96.00
2357 123.8100 0.877497 10170.00 10180.50 100.00
2358 123.8600 0.877293 10331.00 10572.50 101.00
2359 123.9100 0.877089 10176.00 10483.60 100.00
2360 123.9600 0.876885 9600.00 9990.56 97.00
2361 124.0100 0.876682 9047.00 9272.70 95.00
2362 124.0600 0.876479 8468.00 8541.97 92.00
2363 124.1100 0.876276 7913.00 7964.17 88.00
2364 124.1600 0.876073 7521.00 7609.20 86.00
2365 124.2100 0.875870 7641.00 7444.97 87.00
2366 124.2600 0.875668 7697.00 7372.47 87.00
2367 124.3100 0.875466 7640.00 7282.91 87.00
2368 124.3600 0.875265 7580.00 7113.11 87.00
2369 124.4100 0.875063 7200.00 6880.20 84.00
2370 124.4600 0.874862 7199.00 6686.40 84.00
2371 124.5100 0.874661 7195.00 6695.88 84.00
2372 124.5600 0.874461 7501.00 7091.10 86.00
2373 124.6100 0.874260 8256.00 8018.89 90.00
2374 124.6600 0.874060 9496.00 9533.79 97.00
2375 124.7100 0.873860 11637.00 11551.50 107.00
2376 124.7600 0.873661 13796.00 13826.60 117.00
2377 124.8100 0.873461 15791.00 15984.30 125.00
2378 124.8600 0.873262 17551.00 17602.70 132.00
2379 124.9100 0.873064 18574.00 18335.20 136.00
2380 124.9600 0.872865 17815.00 18023.10 133.00
2381 125.0100 0.872667 16662.00 16749.60 129.00
2382 125.0600 0.872469 14292.00 14805.00 119.00
2383 125.1100 0.872271 12108.00 12580.40 110.00
2384 125.1600 0.872073 10244.00 10442.90 101.00
2385 125.2100 0.871876 8655.00 8634.41 93.00
2386 125.2600 0.871679 7324.00 7248.98 85.00
2387 125.3100 0.871482 6617.00 6255.76 81.00
2388 125.3600 0.871286 5912.00 5560.84 76.00
2389 125.4100 0.871089 5438.00 5063.95 73.00
2390 125.4600 0.870894 5025.00 4690.63 70.00
2391 125.5100 0.870698 4695.00 4400.11 68.00
2392 125.5600 0.870502 4404.00 4175.80 66.00
2393 125.6100 0.870307 4143.00 4011.73 64.00
2394 125.6600 0.870112 4019.00 3903.21 63.00
2395 125.7100 0.869917 3879.00 3843.13 62.00
2396 125.7600 0.869723 3826.00 3822.91 61.00
2397 125.8100 0.869529 3844.00 3834.17 62.00
2398 125.8600 0.869335 3869.00 3869.66 62.00
2399 125.9100 0.869141 3972.00 3923.07 63.00
2400 125.9600 0.868947 3898.00 3988.28 62.00
2401 126.0100 0.868754 4021.00 4058.89 63.00
2402 126.0600 0.868561 4085.00 4127.99 63.00
2403 126.1100 0.868368 4070.00 4188.58 63.00
2404 126.1600 0.868176 4124.00 4233.84 64.00
2405 126.2100 0.867984 4133.00 4257.72 64.00
2406 126.2600 0.867792 4371.00 4255.97 66.00
2407 126.3100 0.867600 4197.00 4227.45 64.00
2408 126.3600 0.867409 4112.00 4175.16 64.00
2409 126.4100 0.867217 4043.00 4106.19 63.00
2410 126.4600 0.867026 3935.00 4030.29 62.00
2411 126.5100 0.866836 3979.00 3957.37 63.00
2412 126.5600 0.866645 3948.00 3895.23 62.00
2413 126.6100 0.866455 3956.00 3848.07 62.00
2414 126.6600 0.866265 3772.00 3816.69 61.00
2415 126.7100 0.866075 3797.00 3799.66 61.00
2416 126.7600 0.865886 3942.00 3795.06 62.00
2417 126.8100 0.865696 3911.00 3802.25 62.00
2418 126.8600 0.865507 3971.00 3823.74 63.00
2419 126.9100 0.865319 3945.00 3867.77 62.00
2420 126.9600 0.865130 4205.00 3952.01 64.00
2421 127.0100 0.864942 4296.00 4108.14 65.00
2422 127.0600 0.864754 4625.00 4385.63 68.00
2423 127.1100 0.864566 5061.00 4850.35 71.00
2424 127.1600 0.864379 5503.00 5573.35 74.00
2425 127.2100 0.864192 6433.00 6606.68 80.00
2426 127.2600 0.864004 7722.00 7947.83 87.00
2427 127.3100 0.863818 9385.00 9509.43 96.00
2428 127.3600 0.863631 11129.00 11107.40 105.00
2429 127.4100 0.863445 12753.00 12487.30 112.00
2430 127.4600 0.863259 13886.00 13388.50 117.00
2431 127.5100 0.863073 14151.00 13624.60 118.00
2432 127.5600 0.862888 13523.00 13149.40 116.00
2433 127.6100 0.862702 12145.00 12073.00 110.00
2434 127.6600 0.862517 10245.00 10624.90 101.00
2435 127.7100 0.862332 8915.00 9074.85 94.00
2436 127.7600 0.862148 7630.00 7659.28 87.00
2437 127.8100 0.861963 6404.00 6525.34 80.00
2438 127.8600 0.861779 5764.00 5720.44 75.00
2439 127.9100 0.861595 5339.00 5212.66 73.00
2440 127.9600 0.861412 5122.00 4924.57 71.00
2441 128.0100 0.861229 4923.00 4768.51 70.00
2442 128.0600 0.861045 4878.00 4670.28 69.00
2443 128.1100 0.860862 4714.00 4581.02 68.00
2444 128.1600 0.860680 4503.00 4478.16 67.00
2445 128.2100 0.860497 4385.00 4360.12 66.00
2446 128.2600 0.860315 4254.00 4237.16 65.00
2447 128.3100 0.860133 4107.00 4122.84 64.00
2448 128.3600 0.859952 3947.00 4027.62 62.00
2449 128.4100 0.859770 3810.00 3956.16 61.00
2450 128.4600 0.859589 3680.00 3907.76 60.00
2451 128.5100 0.859408 3705.00 3878.22 60.00
2452 128.5600 0.859227 3747.00 3862.23 61.00
2453 128.6100 0.859047 3710.00 3854.99 60.00
2454 128.6600 0.858867 3717.00 3853.09 60.00
2455 128.7100 0.858687 3801.00 3854.68 61.00
2456 128.7600 0.858507 3758.00 3859.39 61.00
2457 128.8100 0.858328 3678.00 3868.24 60.00
2458 128.8600 0.858148 3728.00 3883.56 61.00
2459 128.9100 0.857969 3765.00 3908.84 61.00
2460 128.9600 0.857790 3897.00 3948.37 62.00
2461 129.0100 0.857612 3852.00 4006.55 62.00
2462 129.0600 0.857433 4045.00 4086.96 63.00
2463 129.1100 0.857255 4210.00 4192.06 64.00
2464 129.1600 0.857077 4508.00 4323.99 67.00
2465 129.2100 0.856900 4765.00 4487.68 69.00
2466 129.2600 0.856723 5034.00 4695.63 70.00
2467 129.3100 0.856545 5295.00 4973.99 72.00
2468 129.3600 0.856368 5694.00 5366.23 75.00
2469 129.4100 0.856192 6266.00 5931.47 79.00
2470 129.4600 0.856015 6838.00 6734.49 82.00
2471 129.5100 0.855839 7712.00 7825.19 87.00
2472 129.5600 0.855663 9018.00 9214.68 94.00
2473 129.6100 0.855488 10820.00 10848.60 104.00
2474 129.6600 0.855312 12748.00 12600.60 112.00
2475 129.7100 0.855137 14565.00 14280.60 120.00
2476 129.7600 0.854962 16175.00 15673.50 127.00
2477 129.8100 0.854787 16929.00 16598.80 130.00
2478 129.8600 0.854612 17170.00 16964.30 131.00
2479 129.9100 0.854438 16770.00 16801.10 129.00
2480 129.9600 0.854264 16096.00 16253.30 126.00
2481 130.0100 0.854090 15114.00 15530.80 122.00
2482 130.0600 0.853916 14348.00 14833.30 119.00
2483 130.1100 0.853743 13971.00 14283.70 118.00
2484 130.1600 0.853570 13687.00 13890.60 116.00
2485 130.2100 0.853397 13659.00 13559.80 116.00
2486 130.2600 0.853224 13477.00 13145.40 116.00
2487 130.3100 0.853052 12640.00 12515.80 112.00
2488 130.3600 0.852880 11628.00 11610.60 107.00
2489 130.4100 0.852708 10319.00 10459.90 101.00
2490 130.4600 0.852536 9124.00 9171.56 95.00
2491 130.5100 0.852364 7904.00 7887.46 88.00
2492 130.5600 0.852193 6745.00 6738.59 82.00
2493 130.6100 0.852022 5931.00 5814.90 77.00
2494 130.6600 0.851851 5391.00 5153.29 73.00
2495 130.7100 0.851681 5094.00 4751.21 71.00
2496 130.7600 0.851510 4923.00 4582.88 70.00
2497 130.8100 0.851340 5005.00 4617.02 70.00
2498 130.8600 0.851170 4956.00 4823.97 70.00
2499 130.9100 0.851000 5201.00 5174.41 72.00
2500 130.9600 0.850831 5619.00 5630.92 74.00
2501 131.0100 0.850662 6192.00 6142.09 78.00
2502 131.0600 0.850493 6664.00 6640.97 81.00
2503 131.1100 0.850324 7022.00 7054.14 83.00
2504 131.1600 0.850155 7272.00 7316.68 85.00
2505 131.2100 0.849987 7197.00 7387.65 84.00
2506 131.2600 0.849819 7172.00 7261.78 84.00
2507 131.3100 0.849651 6699.00 6970.14 81.00
2508 131.3600 0.849484 6329.00 6570.92 79.00
2509 131.4100 0.849316 5889.00 6134.58 77.00
2510 131.4600 0.849149 5669.00 5728.44 75.00
2511 131.5100 0.848982 5394.00 5405.21 74.00
2512 131.5600 0.848815 5125.00 5197.31 72.00
2513 131.6100 0.848649 4965.00 5114.44 71.00
2514 131.6600 0.848483 4940.00 5144.73 71.00
2515 131.7100 0.848316 5233.00 5257.41 73.00
2516 131.7600 0.848151 5519.00 5407.74 75.00
2517 131.8100 0.847985 5708.00 5545.52 77.00
2518 131.8600 0.847820 5715.00 5625.84 77.00
2519 131.9100 0.847655 5514.00 5619.88 76.00
2520 131.9600 0.847490 5327.00 5522.05 74.00
2521 132.0100 0.847325 5174.00 5351.23 73.00
2522 132.0600 0.847161 5169.00 5145.11 74.00
2523 132.1100 0.846996 4852.00 4951.21 71.00
2524 132.1600 0.846832 4724.00 4816.32 71.00
2525 132.2100 0.846668 4656.00 4779.35 70.00
2526 132.2600 0.846505 4787.00 4866.43 71.00
2527 132.3100 0.846342 4998.00 5088.51 73.00
2528 132.3600 0.846179 5240.00 5439.20 75.00
2529 132.4100 0.846016 5778.00 5893.94 79.00
2530 132.4600 0.845853 6294.00 6408.97 82.00
2531 132.5100 0.845691 6730.00 6924.14 85.00
2532 132.5600 0.845528 7225.00 7372.02 89.00
2533 132.6100 0.845366 7650.00 7689.95 92.00
2534 132.6600 0.845205 7969.00 7836.66 94.00
2535 132.7100 0.845043 7640.00 7803.29 92.00
2536 132.7600 0.844882 7418.00 7618.17 91.00
2537 132.8100 0.844721 7246.00 7339.09 90.00
2538 132.8600 0.844560 6643.00 7036.66 86.00
2539 132.9100 0.844399 6399.00 6772.15 85.00
2540 132.9600 0.844239 6323.00 6580.85 84.00
2541 133.0100 0.844078 6150.00 6463.56 83.00
2542 133.0600 0.843919 6407.00 6392.15 85.00
2543 133.1100 0.843759 6382.00 6324.35 85.00
2544 133.1600 0.843599 6259.00 6222.26 85.00
2545 133.2100 0.843440 5989.00 6067.13 83.00
2546 133.2600 0.843281 5727.00 5864.48 81.00
2547 133.3100 0.843122 5516.00 5639.70 80.00
2548 133.3600 0.842963 5256.00 5426.21 78.00
2549 133.4100 0.842805 5182.00 5252.36 78.00
2550 133.4600 0.842646 5088.00 5132.73 77.00
2551 133.5100 0.842488 5064.00 5064.79 77.00
2552 133.5600 0.842331 5056.00 5032.66 77.00
2553 133.6100 0.842173 5003.00 5014.19 77.00
2554 133.6600 0.842016 4885.00 4988.67 76.00
2555 133.7100 0.841859 4763.00 4942.33 75.00
2556 133.7600 0.841702 4841.00 4870.47 76.00
2557 133.8100 0.841545 4595.00 4776.65 74.00
2558 133.8600 0.841389 4462.00 4669.69 73.00
2559 133.9100 0.841232 4340.00 4560.23 72.00
2560 133.9600 0.841076 4225.00 4457.84 72.00
2561 134.0100 0.840920 4160.00 4369.14 71.00
2562 134.0600 0.840765 4266.00 4297.49 72.00
2563 134.1100 0.840609 4237.00 4243.36 72.00
2564 134.1600 0.840454 4051.00 4205.76 71.00
2565 134.2100 0.840299 4092.00 4183.66 71.00
2566 134.2600 0.840145 4036.00 4177.29 71.00
2567 134.3100 0.839990 4147.00 4189.03 72.00
2568 134.3600 0.839836 4205.00 4223.99 73.00
2569 134.4100 0.839682 4241.00 4290.31 73.00
2570 134.4600 0.839528 4392.00 4399.32 74.00
2571 134.5100 0.839374 4642.00 4564.92 77.00
2572 134.5600 0.839221 4795.00 4802.19 78.00
2573 134.6100 0.839068 5095.00 5123.26 81.00
2574 134.6600 0.838915 5372.00 5532.46 83.00
2575 134.7100 0.838762 5840.00 6019.19 87.00
2576 134.7600 0.838609 6619.00 6553.16 93.00
2577 134.8100 0.838457 7280.00 7085.70 97.00
2578 134.8600 0.838305 7895.00 7556.60 101.00
2579 134.9100 0.838153 8280.00 7910.34 104.00
2580 134.9600 0.838001 8381.00 8112.17 105.00
2581 135.0100 0.837850 8349.00 8161.90 105.00
2582 135.0600 0.837698 7828.00 8096.74 102.00
2583 135.1100 0.837547 7625.00 7980.60 101.00
2584 135.1600 0.837396 7631.00 7882.56 101.00
2585 135.2100 0.837246 7768.00 7852.83 102.00
2586 135.2600 0.837095 7934.00 7904.20 103.00
2587 135.3100 0.836945 8046.00 8007.34 104.00
2588 135.3600 0.836795 8415.00 8101.12 107.00
2589 135.4100 0.836645 8433.00 8114.51 107.00
2590 135.4600 0.836496 8323.00 7990.79 107.00
2591 135.5100 0.836346 7733.00 7705.95 103.00
2592 135.5600 0.836197 7205.00 7275.20 100.00
2593 135.6100 0.836048 6450.00 6745.93 94.00
2594 135.6600 0.835899 6083.00 6181.73 92.00
2595 135.7100 0.835751 5551.00 5646.31 88.00
2596 135.7600 0.835603 5161.00 5188.44 85.00
2597 135.8100 0.835455 4777.00 4837.04 82.00
2598 135.8600 0.835307 4541.00 4601.29 80.00
2599 135.9100 0.835159 4530.00 4476.15 80.00
2600 135.9600 0.835012 4511.00 4448.88 80.00
2601 136.0100 0.834864 4565.00 4502.90 81.00
2602 136.0600 0.834717 4613.00 4619.94 81.00
2603 136.1100 0.834570 4768.00 4780.23 83.00
2604 136.1600 0.834424 5070.00 4962.65 85.00
2605 136.2100 0.834277 5136.00 5146.60 86.00
2606 136.2600 0.834131 5465.00 5316.12 89.00
2607 136.3100 0.833985 5714.00 5465.67 91.00
2608 136.3600 0.833840 5862.00 5606.14 93.00
2609 136.4100 0.833694 5837.00 5767.69 93.00
2610 136.4600 0.833549 6089.00 5997.81 95.00
2611 136.5100 0.833403 6330.00 6352.37 97.00
2612 136.5600 0.833259 6535.00 6881.11 99.00
2613 136.6100 0.833114 7293.00 7609.27 104.00
2614 136.6600 0.832969 8396.00 8520.89 112.00
2615 136.7100 0.832825 9611.00 9549.96 120.00
2616 136.7600 0.832681 10974.00 10582.90 129.00
2617 136.8100 0.832537 11985.00 11478.70 135.00
2618 136.8600 0.832393 12847.00 12097.60 140.00
2619 136.9100 0.832250 13033.00 12336.70 141.00
2620 136.9600 0.832106 12366.00 12155.40 138.00
2621 137.0100 0.831963 11183.00 11587.00 132.00
2622 137.0600 0.831821 10279.00 10728.60 126.00
2623 137.1100 0.831678 9162.00 9716.28 119.00
2624 137.1600 0.831535 8099.00 8688.40 113.00
2625 137.2100 0.831393 7378.00 7757.90 108.00
2626 137.2600 0.831251 6807.00 6993.51 104.00
2627 137.3100 0.831109 6480.00 6415.24 101.00
2628 137.3600 0.830968 6224.00 6005.85 99.00
2629 137.4100 0.830826 6119.00 5725.71 99.00
2630 137.4600 0.830685 5700.00 5530.88 95.00
2631 137.5100 0.830544 5544.00 5384.75 94.00
2632 137.5600 0.830403 5316.00 5263.48 93.00
2633 137.6100 0.830263 5265.00 5156.25 92.00
2634 137.6600 0.830122 5172.00 5061.40 92.00
2635 137.7100 0.829982 4860.00 4982.33 89.00
2636 137.7600 0.829842 4940.00 4923.61 90.00
2637 137.8100 0.829703 4798.00 4888.84 89.00
2638 137.8600 0.829563 4773.00 4879.73 89.00
2639 137.9100 0.829424 4926.00 4895.61 90.00
2640 137.9600 0.829284 4847.00 4933.29 90.00
2641 138.0100 0.829146 5026.00 4987.01 92.00
2642 138.0600 0.829007 5106.00 5048.64 92.00
2643 138.1100 0.828868 5083.00 5108.67 92.00
2644 138.1600 0.828730 5149.00 5157.72 93.00
2645 138.2100 0.828592 5226.00 5188.05 94.00
2646 138.2600 0.828454 5144.00 5195.17 94.00
2647 138.3100 0.828316 5089.00 5178.39 93.00
2648 138.3600 0.828179 5155.00 5140.58 94.00
2649 138.4100 0.828041 5046.00 5086.90 93.00
2650 138.4600 0.827904 4958.00 5023.50 93.00
2651 138.5100 0.827767 4924.00 4956.08 92.00
2652 138.5600 0.827631 5017.00 4889.27 94.00
2653 138.6100 0.827494 4835.00 4826.73 92.00
2654 138.6600 0.827358 4831.00 4771.81 92.00
2655 138.7100 0.827222 4849.00 4728.47 92.00
2656 138.7600 0.827086 4831.00 4701.59 93.00
2657 138.8100 0.826950 4727.00 4696.54 92.00
2658 138.8600 0.826815 4747.00 4717.63 92.00
2659 138.9100 0.826679 4858.00 4766.13 93.00
2660 138.9600 0.826544 4877.00 4838.44 94.00
2661 139.0100 0.826409 4947.00 4925.19 95.00
2662 139.0600 0.826275 5226.00 5012.23 97.00
2663 139.1100 0.826140 5275.00 5083.08 98.00
2664 139.1600 0.826006 5253.00 5122.73 98.00
2665 139.2100 0.825872 5304.00 5121.36 99.00
2666 139.2600 0.825738 5202.00 5077.23 98.00
2667 139.3100 0.825604 5107.00 4997.65 97.00
2668 139.3600 0.825471 4953.00 4898.11 96.00
2669 139.4100 0.825338 4776.00 4799.46 94.00
2670 139.4600 0.825205 4808.00 4724.68 95.00
2671 139.5100 0.825072 4824.00 4695.37 95.00
2672 139.5600 0.824939 4817.00 4728.57 95.00
2673 139.6100 0.824807 4940.00 4834.67 97.00
2674 139.6600 0.824674 5232.00 5016.43 100.00
2675 139.7100 0.824542 5585.00 5269.06 103.00
2676 139.7600 0.824410 6203.00 5581.88 109.00
2677 139.8100 0.824279 6687.00 5942.35 114.00
2678 139.8600 0.824147 7020.00 6340.37 117.00
2679 139.9100 0.824016 7394.00 6774.65 120.00
2680 139.9600 0.823885 7719.00 7255.09 123.00
2681 140.0100 0.823754 8010.00 7804.45 125.00
2682 140.0600 0.823623 8591.00 8454.08 130.00
2683 140.1100 0.823493 8866.00 9235.19 133.00
2684 140.1600 0.823362 9853.00 10171.10 140.00
2685 140.2100 0.823232 10980.00 11265.20 148.00
2686 140.2600 0.823102 12471.00 12499.50 158.00
2687 140.3100 0.822973 14016.00 13832.20 168.00
2688 140.3600 0.822843 15273.00 15206.60 176.00
2689 140.4100 0.822714 16396.00 16559.60 183.00
2690 140.4600 0.822585 17455.00 17826.40 189.00
2691 140.5100 0.822456 18653.00 18949.10 196.00
2692 140.5600 0.822327 19920.00 19873.10 203.00
2693 140.6100 0.822199 20619.00 20548.10 207.00
2694 140.6600 0.822070 21147.00 20925.90 210.00
2695 140.7100 0.821942 21453.00 20962.90 212.00
2696 140.7600 0.821814 21139.00 20629.60 210.00
2697 140.8100 0.821687 20455.00 19920.60 207.00
2698 140.8600 0.821559 19013.00 18863.10 200.00
2699 140.9100 0.821432 17661.00 17518.50 193.00
2700 140.9600 0.821305 15820.00 15978.70 183.00
2701 141.0100 0.821178 13885.00 14349.40 172.00
2702 141.0600 0.821051 12424.00 12735.80 163.00
2703 141.1100 0.820924 11111.00 11223.40 155.00
2704 141.1600 0.820798 9861.00 9870.07 146.00
2705 141.2100 0.820672 8784.00 8702.97 138.00
2706 141.2600 0.820546 8147.00 7723.01 133.00
2707 141.3100 0.820420 7451.00 6914.61 128.00
2708 141.3600 0.820294 6627.00 6253.51 121.00
2709 141.4100 0.820169 6099.00 5715.35 116.00
2710 141.4600 0.820044 5659.00 5279.38 112.00
2711 141.5100 0.819919 5286.00 4929.88 108.00
2712 141.5600 0.819794 5062.00 4654.58 106.00
2713 141.6100 0.819669 4707.00 4443.49 103.00
2714 141.6600 0.819545 4388.00 4287.52 99.00
2715 141.7100 0.819421 4337.00 4177.96 99.00
2716 141.7600 0.819297 4412.00 4106.77 100.00
2717 141.8100 0.819173 4250.00 4067.00 98.00
2718 141.8600 0.819049 4225.00 4053.50 98.00
2719 141.9100 0.818926 4169.00 4063.08 98.00
2720 141.9600 0.818803 4076.00 4094.42 97.00
2721 142.0100 0.818680 4220.00 4147.39 99.00
2722 142.0600 0.818557 4205.00 4222.13 99.00
2723 142.1100 0.818434 4155.00 4317.76 98.00
2724 142.1600 0.818312 4123.00 4431.56 98.00
2725 142.2100 0.818189 4251.00 4557.95 100.00
2726 142.2600 0.818067 4646.00 4688.31 105.00
2727 142.3100 0.817945 4634.00 4811.78 105.00
2728 142.3600 0.817824 4853.00 4916.28 107.00
2729 142.4100 0.817702 4909.00 4990.71 108.00
2730 142.4600 0.817581 4830.00 5026.57 108.00
2731 142.5100 0.817460 4806.00 5019.88 108.00
2732 142.5600 0.817339 4895.00 4971.93 109.00
2733 142.6100 0.817218 4687.00 4889.23 107.00
2734 142.6600 0.817097 4545.00 4782.28 105.00
2735 142.7100 0.816977 4331.00 4663.91 103.00
2736 142.7600 0.816857 4303.00 4547.00 103.00
2737 142.8100 0.816737 4291.00 4442.70 103.00
2738 142.8600 0.816617 4214.00 4358.83 102.00
2739 142.9100 0.816497 4044.00 4299.21 100.00
2740 142.9600 0.816378 4041.00 4263.80 101.00
2741 143.0100 0.816259 4141.00 4249.12 102.00
2742 143.0600 0.816140 4105.00 4249.29 102.00
2743 143.1100 0.816021 4090.00 4257.28 102.00
2744 143.1600 0.815902 4182.00 4266.07 103.00
2745 143.2100 0.815784 4159.00 4269.71 103.00
2746 143.2600 0.815665 4151.00 4264.13 103.00
2747 143.3100 0.815547 4044.00 4247.49 102.00
2748 143.3600 0.815429 4050.00 4220.16 102.00
2749 143.4100 0.815312 3959.00 4184.27 101.00
2750 143.4600 0.815194 4052.00 4143.10 103.00
2751 143.5100 0.815077 3993.00 4100.25 102.00
2752 143.5600 0.814960 3883.00 4059.06 101.00
2753 143.6100 0.814843 3751.00 4022.03 100.00
2754 143.6600 0.814726 3794.00 3990.67 100.00
2755 143.7100 0.814609 3756.00 3965.50 100.00
2756 143.7600 0.814493 3897.00 3946.31 102.00
2757 143.8100 0.814377 3923.00 3932.36 103.00
2758 143.8600 0.814261 3798.00 3922.75 101.00
2759 143.9100 0.814145 3757.00 3916.70 101.00
2760 143.9600 0.814029 3788.00 3913.75 102.00
2761 144.0100 0.813914 3884.00 3914.01 103.00
2762 144.0600 0.813799 4083.00 3918.36 106.00
2763 144.1100 0.813684 4011.00 3928.76 105.00
2764 144.1600 0.813569 3923.00 3948.49 104.00
2765 144.2100 0.813454 3982.00 3982.53 105.00
2766 144.2600 0.813339 3881.00 4037.65 104.00
2767 144.3100 0.813225 4145.00 4122.40 108.00
2768 144.3600 0.813111 4172.00 4246.43 108.00
2769 144.4100 0.812997 4407.00 4419.62 112.00
2770 144.4600 0.812883 4558.00 4650.04 114.00
2771 144.5100 0.812770 4954.00 4941.55 119.00
2772 144.5600 0.812656 5321.00 5291.85 124.00
2773 144.6100 0.812543 5781.00 5689.72 129.00
2774 144.6600 0.812430 6339.00 6115.44 136.00
2775 144.7100 0.812317 6762.00 6540.91 140.00
2776 144.7600 0.812205 7262.00 6932.87 146.00
2777 144.8100 0.812092 7575.00 7258.50 149.00
2778 144.8600 0.811980 8064.00 7490.47 154.00
2779 144.9100 0.811868 8070.00 7613.51 155.00
2780 144.9600 0.811756 8060.00 7627.38 155.00
2781 145.0100 0.811644 7687.00 7548.62 152.00
2782 145.0600 0.811533 7560.00 7408.18 151.00
2783 145.1100 0.811421 6932.00 7246.56 145.00
2784 145.1600 0.811310 6818.00 7106.39 144.00
2785 145.2100 0.811199 6696.00 7025.47 143.00
2786 145.2600 0.811088 6720.00 7029.82 143.00
2787 145.3100 0.810978 7048.00 7129.50 147.00
2788 145.3600 0.810867 7491.00 7317.04 152.00
2789 145.4100 0.810757 7421.00 7569.35 152.00
2790 145.4600 0.810647 8006.00 7851.14 158.00
2791 145.5100 0.810537 8604.00 8121.66 164.00
2792 145.5600 0.810427 8595.00 8340.77 164.00
2793 145.6100 0.810318 9003.00 8475.95 169.00
2794 145.6600 0.810208 8952.00 8507.20 168.00
2795 145.7100 0.810099 8619.00 8429.80 166.00
2796 145.7600 0.809990 7826.00 8254.75 158.00
2797 145.8100 0.809882 7583.00 8006.47 156.00
2798 145.8600 0.809773 7468.00 7717.94 155.00
2799 145.9100 0.809665 7126.00 7425.00 152.00
2800 145.9600 0.809556 6912.00 7160.38 150.00
2801 146.0100 0.809448 6736.00 6948.73 148.00
2802 146.0600 0.809341 6760.00 6803.85 149.00
2803 146.1100 0.809233 6775.00 6727.68 149.00
2804 146.1600 0.809125 7093.00 6712.17 153.00
2805 146.2100 0.809018 7140.00 6742.57 154.00
2806 146.2600 0.808911 7488.00 6801.64 158.00
2807 146.3100 0.808804 7565.00 6873.87 159.00
2808 146.3600 0.808697 7180.00 6948.93 156.00
2809 146.4100 0.808591 7051.00 7023.53 154.00
2810 146.4600 0.808484 7005.00 7101.64 154.00
2811 146.5100 0.808378 7067.00 7192.93 155.00
2812 146.5600 0.808272 6981.00 7310.09 155.00
2813 146.6100 0.808166 7041.00 7464.98 156.00
2814 146.6600 0.808061 7322.00 7665.36 159.00
2815 146.7100 0.807955 7442.00 7911.77 161.00
2816 146.7600 0.807850 8044.00 8195.76 168.00
2817 146.8100 0.807745 8645.00 8500.60 174.00
2818 146.8600 0.807640 9163.00 8802.43 180.00
2819 146.9100 0.807535 9622.00 9074.52 185.00
2820 146.9600 0.807430 9766.00 9290.68 186.00
2821 147.0100 0.807326 9729.00 9429.79 187.00
2822 147.0600 0.807222 9895.00 9479.67 189.00
2823 147.1100 0.807118 10131.00 9439.27 191.00
2824 147.1600 0.807014 9625.00 9319.56 187.00
2825 147.2100 0.806910 9493.00 9142.87 186.00
2826 147.2600 0.806807 9192.00 8940.36 183.00
2827 147.3100 0.806703 8733.00 8748.44 179.00
2828 147.3600 0.806600 8114.00 8604.43 173.00
2829 147.4100 0.806497 8059.00 8541.03 173.00
2830 147.4600 0.806394 8355.00 8581.84 176.00
2831 147.5100 0.806292 8682.00 8736.74 180.00
2832 147.5600 0.806189 8686.00 8998.98 181.00
2833 147.6100 0.806087 9401.00 9344.54 188.00
2834 147.6600 0.805985 10243.00 9734.35 197.00
2835 147.7100 0.805883 10899.00 10117.70 204.00
2836 147.7600 0.805781 11163.00 10440.10 207.00
2837 147.8100 0.805680 11346.00 10649.80 209.00
2838 147.8600 0.805579 11181.00 10706.40 208.00
2839 147.9100 0.805477 10586.00 10586.30 203.00
2840 147.9600 0.805376 10508.00 10285.90 203.00
2841 148.0100 0.805276 9348.00 9821.42 191.00
2842 148.0600 0.805175 8586.00 9226.15 184.00
2843 148.1100 0.805075 8022.00 8544.36 178.00
2844 148.1600 0.804974 7309.00 7823.92 170.00
2845 148.2100 0.804874 6394.00 7111.51 160.00
2846 148.2600 0.804774 6055.00 6445.28 156.00
2847 148.3100 0.804675 5461.00 5853.21 148.00
2848 148.3600 0.804575 5160.00 5350.85 145.00
2849 148.4100 0.804476 4976.00 4942.88 142.00
2850 148.4600 0.804376 4752.00 4625.19 139.00
2851 148.5100 0.804277 4772.00 4387.60 140.00
2852 148.5600 0.804178 4537.00 4216.98 137.00
2853 148.6100 0.804080 4428.00 4099.21 135.00
2854 148.6600 0.803981 4191.00 4021.18 132.00
2855 148.7100 0.803883 4258.00 3971.67 133.00
2856 148.7600 0.803785 4186.00 3941.79 133.00
2857 148.8100 0.803687 4158.00 3924.86 132.00
2858 148.8600 0.803589 4021.00 3916.18 131.00
2859 148.9100 0.803492 4174.00 3912.58 133.00
2860 148.9600 0.803394 4130.00 3912.05 133.00
2861 149.0100 0.803297 4048.00 3913.37 132.00
2862 149.0600 0.803200 3939.00 3915.84 130.00
2863 149.1100 0.803103 3834.00 3919.09 129.00
2864 149.1600 0.803006 3950.00 3922.93 131.00
2865 149.2100 0.802910 3971.00 3927.27 132.00
2866 149.2600 0.802813 3925.00 3932.07 131.00
2867 149.3100 0.802717 3941.00 3937.26 132.00
2868 149.3600 0.802621 3889.00 3942.78 132.00
2869 149.4100 0.802525 3771.00 3948.55 130.00
2870 149.4600 0.802429 3864.00 3954.44 132.00
2871 149.5100 0.802334 3785.00 3960.29 131.00
2872 149.5600 0.802239 3911.00 3965.97 133.00
2873 149.6100 0.802143 3931.00 3971.31 134.00
2874 149.6600 0.802049 3984.00 3976.23 135.00
2875 149.7100 0.801954 3839.00 3980.66 133.00
2876 149.7600 0.801859 3840.00 3984.62 133.00
2877 149.8100 0.801765 3775.00 3988.21 132.00
2878 149.8600 0.801670 3916.00 3991.64 135.00
2879 149.9100 0.801576 4108.00 3995.18 139.00
2880 149.9600 0.801482 4110.00 3999.22 139.00
2881 150.0100 0.801389 4059.00 4004.26 139.00
2882 150.0600 0.801295 3860.00 4010.90 136.00
2883 150.1100 0.801202 3962.00 4019.86 138.00
2884 150.1600 0.801108 4042.00 4032.01 139.00
2885 150.2100 0.801015 3973.00 4048.37 139.00
2886 150.2600 0.800922 4138.00 4070.12 142.00
2887 150.3100 0.800830 4224.00 4098.56 144.00
2888 150.3600 0.800737 4054.00 4135.09 141.00
2889 150.4100 0.800645 4171.00 4181.12 143.00
2890 150.4600 0.800553 4171.00 4237.91 144.00
2891 150.5100 0.800461 4066.00 4306.55 142.00
2892 150.5600 0.800369 4356.00 4387.68 148.00
2893 150.6100 0.800277 4487.00 4481.63 150.00
2894 150.6600 0.800186 4529.00 4588.28 151.00
2895 150.7100 0.800094 4609.00 4707.24 153.00
2896 150.7600 0.800003 4771.00 4838.12 156.00
2897 150.8100 0.799912 5055.00 4980.64 161.00
2898 150.8600 0.799821 5270.00 5135.23 165.00
2899 150.9100 0.799731 5453.00 5303.01 168.00
2900 150.9600 0.799640 5451.00 5486.03 169.00
2901 151.0100 0.799550 5542.00 5686.75 170.00
2902 151.0600 0.799460 5858.00 5907.83 176.00
2903 151.1100 0.799370 5957.00 6151.08 178.00
2904 151.1600 0.799280 5978.00 6416.55 178.00
2905 151.2100 0.799191 6373.00 6701.59 185.00
2906 151.2600 0.799101 6760.00 6999.84 191.00
2907 151.3100 0.799012 7465.00 7301.51 201.00
2908 151.3600 0.798923 7967.00 7593.10 208.00
2909 151.4100 0.798834 8352.00 7859.34 214.00
2910 151.4600 0.798745 8671.00 8084.18 218.00
2911 151.5100 0.798657 8763.00 8252.95 220.00
2912 151.5600 0.798568 8956.00 8354.79 223.00
2913 151.6100 0.798480 8730.00 8384.02 221.00
2914 151.6600 0.798392 8511.00 8341.39 219.00
2915 151.7100 0.798304 7950.00 8234.02 212.00
2916 151.7600 0.798217 7780.00 8074.82 210.00
2917 151.8100 0.798129 7408.00 7880.55 205.00
2918 151.8600 0.798042 6913.00 7670.10 199.00
loop_
_pd_proc_info_excluded_regions
'from 0 to 6.000'
loop_
_restr_angle_atom_site_label_1
_restr_angle_site_symmetry_1
_restr_angle_atom_site_label_2
_restr_angle_site_symmetry_2
_restr_angle_atom_site_label_3
_restr_angle_site_symmetry_3
_restr_angle_target
_restr_angle_target_weight_param
? ? ? ? ? ? ? ?
loop_
_restr_distance_atom_site_label_1
_restr_distance_site_symmetry_1
_restr_distance_atom_site_label_2
_restr_distance_site_symmetry_2
_restr_distance_target
_restr_distance_target_weight_param
? ? ? ? ? ?
loop_
_restr_equal_angle_atom_site_label_1
_restr_equal_angle_site_symmetry_1
_restr_equal_angle_atom_site_label_2
_restr_equal_angle_site_symmetry_2
_restr_equal_angle_atom_site_label_3
_restr_equal_angle_site_symmetry_3
_restr_equal_angle_class_class_id
_restr_equal_angle_class_target_weight_param
? ? ? ? ? ? ? ?
loop_
_restr_equal_distance_atom_site_label_1
_restr_equal_distance_site_symmetry_1
_restr_equal_distance_atom_site_label_2
_restr_equal_distance_site_symmetry_2
_restr_equal_distance_class_class_id
_restr_equal_distance_class_target_weight_param
? ? ? ? ? ?
loop_
_restr_equal_torsion_atom_site_label_1
_restr_equal_torsion_site_symmetry_1
_restr_equal_torsion_atom_site_label_2
_restr_equal_torsion_site_symmetry_2
_restr_equal_torsion_atom_site_label_3
_restr_equal_torsion_site_symmetry_3
_restr_equal_torsion_atom_site_label_4
_restr_equal_torsion_site_symmetry_4
_restr_equal_torsion_class_class_id
_restr_equal_torsion_class_target_weight_param
? ? ? ? ? ? ? ? ? ?
loop_
_restr_torsion_atom_site_label_1
_restr_torsion_site_symmetry_1
_restr_torsion_atom_site_label_2
_restr_torsion_site_symmetry_2
_restr_torsion_atom_site_label_3
_restr_torsion_site_symmetry_3
_restr_torsion_atom_site_label_4
_restr_torsion_site_symmetry_4
_restr_torsion_angle_target
_restr_torsion_weight_param
? ? ? ? ? ? ? ? ? ?
loop_
_jana_atom_site_adp_c_label
_jana_atom_site_adp_c_type_symbol
_jana_atom_site_adp_c_111
_jana_atom_site_adp_c_112
_jana_atom_site_adp_c_113
_jana_atom_site_adp_c_122
_jana_atom_site_adp_c_123
_jana_atom_site_adp_c_133
_jana_atom_site_adp_c_222
_jana_atom_site_adp_c_223
_jana_atom_site_adp_c_233
_jana_atom_site_adp_c_333
? ? ? ? ? ? ? ? ? ? ? ?
loop_
_jana_atom_site_adp_d_label
_jana_atom_site_adp_d_type_symbol
_jana_atom_site_adp_d_1111
_jana_atom_site_adp_d_1112
_jana_atom_site_adp_d_1113
_jana_atom_site_adp_d_1122
_jana_atom_site_adp_d_1123
_jana_atom_site_adp_d_1133
_jana_atom_site_adp_d_1222
_jana_atom_site_adp_d_1223
_jana_atom_site_adp_d_1233
_jana_atom_site_adp_d_1333
_jana_atom_site_adp_d_2222
_jana_atom_site_adp_d_2223
_jana_atom_site_adp_d_2233
_jana_atom_site_adp_d_2333
_jana_atom_site_adp_d_3333
? ? ? ? ? ? ? ? ? ? ? ? ? ? ? ? ?
loop_
_jana_atom_site_adp_e_label
_jana_atom_site_adp_e_type_symbol
_jana_atom_site_adp_e_11111
_jana_atom_site_adp_e_11112
_jana_atom_site_adp_e_11113
_jana_atom_site_adp_e_11122
_jana_atom_site_adp_e_11123
_jana_atom_site_adp_e_11133
_jana_atom_site_adp_e_11222
_jana_atom_site_adp_e_11223
_jana_atom_site_adp_e_11233
_jana_atom_site_adp_e_11333
_jana_atom_site_adp_e_12222
_jana_atom_site_adp_e_12223
_jana_atom_site_adp_e_12233
_jana_atom_site_adp_e_12333
_jana_atom_site_adp_e_13333
_jana_atom_site_adp_e_22222
_jana_atom_site_adp_e_22223
_jana_atom_site_adp_e_22233
_jana_atom_site_adp_e_22333
_jana_atom_site_adp_e_23333
_jana_atom_site_adp_e_33333
? ? ? ? ? ? ? ? ? ? ? ? ? ? ? ? ? ? ? ? ? ? ?
loop_
_jana_atom_site_adp_f_label
_jana_atom_site_adp_f_type_symbol
_jana_atom_site_adp_f_111111
_jana_atom_site_adp_f_111112
_jana_atom_site_adp_f_111113
_jana_atom_site_adp_f_111122
_jana_atom_site_adp_f_111123
_jana_atom_site_adp_f_111133
_jana_atom_site_adp_f_111222
_jana_atom_site_adp_f_111223
_jana_atom_site_adp_f_111233
_jana_atom_site_adp_f_111333
_jana_atom_site_adp_f_112222
_jana_atom_site_adp_f_112223
_jana_atom_site_adp_f_112233
_jana_atom_site_adp_f_112333
_jana_atom_site_adp_f_113333
_jana_atom_site_adp_f_122222
_jana_atom_site_adp_f_122223
_jana_atom_site_adp_f_122233
_jana_atom_site_adp_f_122333
_jana_atom_site_adp_f_123333
_jana_atom_site_adp_f_133333
_jana_atom_site_adp_f_222222
_jana_atom_site_adp_f_222223
_jana_atom_site_adp_f_222233
_jana_atom_site_adp_f_222333
_jana_atom_site_adp_f_223333
_jana_atom_site_adp_f_233333
_jana_atom_site_adp_f_333333
? ? ? ? ? ? ? ? ? ? ? ? ? ? ? ? ? ? ? ? ? ? ? ? ? ? ? ? ? ?
